MODEL 1
REMARK VINA RESULT:     -11.0      0.000      0.000
REMARK SMILES CC(=O)Nc1cc(NC(C)=O)cc(C(=O)Nc2ccc(Br)cc2C(=O)NCCCCCCNC(=O)c2ccc(-c3c4nc(c(-c5cccc(S(=O)(=O)[O-])c5F)c5ccc([nH]5)c(-c5cccc(S(=O)(=O)[O-])c5F)c5nc(c(-c6cccc(S(=O)(=O)[O-])c6F)c6ccc3[nH]6)C=C5)C=C4)cc2)c1
REMARK SMILES IDX 29 1 28 2 27 3 26 4 24 5 25 6 23 8 17 9 18 10 19 11 22 12
REMARK SMILES IDX 20 13 21 14 16 15 14 16 15 17 13 19 5 20 6 21 99 22 7 23
REMARK SMILES IDX 12 24 4 25 1 26 2 27 3 28 8 30 9 31 10 33 11 34 30 35 31 36
REMARK SMILES IDX 32 37 33 38 34 39 35 41 36 42 37 43 98 44 38 45 97 46 39 47
REMARK SMILES IDX 40 48 41 49 91 50 42 51 96 52 90 53 92 54 43 55 95 56 89 57
REMARK SMILES IDX 88 58 44 60 76 61 56 62 75 63 57 64 60 65 74 66 93 67 58 68
REMARK SMILES IDX 59 69 73 71 94 72 61 73 45 74 46 75 54 76 47 77 49 78 55 79
REMARK SMILES IDX 48 80 50 81 51 82 52 83 53 84 77 85 78 86 86 87 79 88 81 89
REMARK SMILES IDX 87 90 80 91 82 92 83 93 84 94 85 95 62 96 63 97 71 98 64 99
REMARK SMILES IDX 66 100 72 101 65 102 67 103 68 104 69 105 70 106
REMARK H PARENT 26 7 16 18 4 29 8 32 33 40 92 59 60 70
REMARK Flexibility Score: inf
ROOT
ATOM      1  C   UNL A   1      33.356  31.384  27.672  1.00  0.00     0.002 C 
ENDROOT
BRANCH   1   2
ATOM      2  C   UNL A   1      32.467  30.530  26.759  1.00  0.00     0.021 C 
BRANCH   2   3
ATOM      3  C   UNL A   1      31.933  29.235  27.356  1.00  0.00     0.116 C 
BRANCH   3   4
ATOM      4  N   UNL A   1      32.786  28.087  27.146  1.00  0.00    -0.352 N 
ATOM      5  C   UNL A   1      32.635  27.034  26.280  1.00  0.00     0.253 C 
ATOM      6  O   UNL A   1      33.483  26.141  26.299  1.00  0.00    -0.269 OA
ATOM      7  H   UNL A   1      33.595  28.056  27.709  1.00  0.00     0.163 HD
BRANCH   5   8
ATOM      8  C   UNL A   1      31.445  26.884  25.393  1.00  0.00     0.064 A 
ATOM      9  C   UNL A   1      30.457  25.876  25.446  1.00  0.00     0.054 A 
ATOM     10  C   UNL A   1      29.536  25.780  24.387  1.00  0.00     0.028 A 
ATOM     11  C   UNL A   1      29.469  26.762  23.395  1.00  0.00     0.018 A 
ATOM     12  C   UNL A   1      31.345  27.885  24.404  1.00  0.00     0.031 A 
ATOM     13  C   UNL A   1      30.348  27.835  23.435  1.00  0.00     0.018 A 
ATOM     14  Br  UNL A   1      30.181  29.234  22.176  1.00  0.00    -0.051 Br
BRANCH   9  15
ATOM     15  N   UNL A   1      30.196  24.982  26.511  1.00  0.00    -0.321 N 
ATOM     16  C   UNL A   1      30.596  23.671  26.728  1.00  0.00     0.255 C 
ATOM     17  O   UNL A   1      30.070  23.007  27.606  1.00  0.00    -0.269 OA
ATOM     18  H   UNL A   1      29.630  25.356  27.225  1.00  0.00     0.170 HD
BRANCH  16  19
ATOM     19  C   UNL A   1      31.709  23.081  25.950  1.00  0.00     0.044 A 
ATOM     20  C   UNL A   1      32.450  21.532  24.259  1.00  0.00     0.044 A 
ATOM     21  C   UNL A   1      33.771  21.743  24.688  1.00  0.00     0.052 A 
ATOM     22  C   UNL A   1      31.435  22.261  24.856  1.00  0.00     0.040 A 
ATOM     23  C   UNL A   1      34.075  22.681  25.684  1.00  0.00     0.044 A 
ATOM     24  C   UNL A   1      33.027  23.344  26.327  1.00  0.00     0.040 A 
BRANCH  20  25
ATOM     25  N   UNL A   1      32.221  20.506  23.324  1.00  0.00    -0.326 N 
ATOM     26  C   UNL A   1      32.522  18.426  24.685  1.00  0.00     0.114 C 
ATOM     27  C   UNL A   1      32.373  19.151  23.375  1.00  0.00     0.221 C 
ATOM     28  O   UNL A   1      32.344  18.512  22.319  1.00  0.00    -0.275 OA
ATOM     29  H   UNL A   1      31.884  20.831  22.458  1.00  0.00     0.169 HD
ENDBRANCH  20  25
BRANCH  23  30
ATOM     30  N   UNL A   1      35.386  22.999  26.101  1.00  0.00    -0.326 N 
ATOM     31  C   UNL A   1      36.415  23.499  25.324  1.00  0.00     0.221 C 
ATOM     32  H   UNL A   1      35.592  22.846  27.051  1.00  0.00     0.169 HD
ATOM     33  C   UNL A   1      37.675  23.765  26.109  1.00  0.00     0.114 C 
ATOM     34  O   UNL A   1      36.374  23.751  24.124  1.00  0.00    -0.275 OA
ENDBRANCH  23  30
ENDBRANCH  16  19
ENDBRANCH   9  15
ENDBRANCH   5   8
ENDBRANCH   3   4
ENDBRANCH   2   3
ENDBRANCH   1   2
BRANCH   1  35
ATOM     35  C   UNL A   1      34.873  31.203  27.564  1.00  0.00     0.002 C 
BRANCH  35  36
ATOM     36  C   UNL A   1      35.451  29.826  27.897  1.00  0.00     0.021 C 
BRANCH  36  37
ATOM     37  C   UNL A   1      36.577  29.792  28.920  1.00  0.00     0.116 C 
BRANCH  37  38
ATOM     38  N   UNL A   1      36.146  30.139  30.260  1.00  0.00    -0.352 N 
ATOM     39  C   UNL A   1      36.817  30.038  31.452  1.00  0.00     0.251 C 
ATOM     40  H   UNL A   1      35.233  30.503  30.324  1.00  0.00     0.163 HD
ATOM     41  O   UNL A   1      36.220  30.300  32.494  1.00  0.00    -0.269 OA
BRANCH  39  42
ATOM     42  C   UNL A   1      38.235  29.604  31.502  1.00  0.00     0.039 A 
ATOM     43  C   UNL A   1      38.511  28.290  31.897  1.00  0.00     0.014 A 
ATOM     44  C   UNL A   1      39.292  30.475  31.224  1.00  0.00     0.014 A 
ATOM     45  C   UNL A   1      39.833  27.851  31.998  1.00  0.00     0.010 A 
ATOM     46  C   UNL A   1      40.607  30.012  31.244  1.00  0.00     0.010 A 
ATOM     47  C   UNL A   1      40.893  28.707  31.666  1.00  0.00    -0.014 A 
BRANCH  47  48
ATOM     48  C   UNL A   1      42.306  28.269  31.819  1.00  0.00     0.031 A 
ATOM     49  C   UNL A   1      43.008  27.581  30.676  1.00  0.00     0.074 A 
ATOM     50  C   UNL A   1      42.942  28.446  32.993  1.00  0.00     0.049 A 
ATOM     51  N   UNL A   1      44.232  27.123  30.615  1.00  0.00    -0.248 NA
ATOM     52  C   UNL A   1      42.224  27.349  29.451  1.00  0.00     0.031 C 
ATOM     53  C   UNL A   1      42.348  29.024  34.199  1.00  0.00     0.029 A 
ATOM     54  N   UNL A   1      44.226  28.141  33.369  1.00  0.00    -0.354 N 
ATOM     55  C   UNL A   1      44.351  26.520  29.367  1.00  0.00     0.074 A 
ATOM     56  C   UNL A   1      43.064  26.630  28.719  1.00  0.00     0.031 C 
ATOM     57  C   UNL A   1      43.267  29.041  35.177  1.00  0.00     0.029 A 
ATOM     58  C   UNL A   1      44.510  28.462  34.676  1.00  0.00     0.049 A 
ATOM     59  H   UNL A   1      44.883  27.732  32.760  1.00  0.00     0.167 HD
ATOM     60  C   UNL A   1      45.442  25.957  28.794  1.00  0.00     0.034 A 
ATOM     61  C   UNL A   1      45.646  28.314  35.385  1.00  0.00     0.034 A 
ATOM     62  C   UNL A   1      46.735  25.901  29.419  1.00  0.00     0.049 A 
ATOM     63  C   UNL A   1      46.866  27.757  34.701  1.00  0.00     0.074 A 
ATOM     64  C   UNL A   1      47.926  25.427  28.896  1.00  0.00     0.029 A 
ATOM     65  N   UNL A   1      47.010  26.337  30.706  1.00  0.00    -0.354 N 
ATOM     66  N   UNL A   1      46.999  27.333  33.467  1.00  0.00    -0.248 NA
ATOM     67  C   UNL A   1      48.104  27.703  35.491  1.00  0.00     0.031 C 
ATOM     68  C   UNL A   1      48.917  25.565  29.873  1.00  0.00     0.029 A 
ATOM     69  C   UNL A   1      48.350  26.148  30.994  1.00  0.00     0.049 A 
ATOM     70  H   UNL A   1      46.349  26.723  31.324  1.00  0.00     0.167 HD
ATOM     71  C   UNL A   1      48.342  27.007  33.318  1.00  0.00     0.074 A 
ATOM     72  C   UNL A   1      48.984  27.298  34.584  1.00  0.00     0.031 C 
ATOM     73  C   UNL A   1      48.986  26.504  32.236  1.00  0.00     0.034 A 
BRANCH  60  74
ATOM     74  C   UNL A   1      45.296  25.410  27.397  1.00  0.00     0.023 A 
ATOM     75  C   UNL A   1      45.513  26.258  26.292  1.00  0.00     0.012 A 
ATOM     76  C   UNL A   1      44.992  24.052  27.175  1.00  0.00     0.148 A 
ATOM     77  C   UNL A   1      45.392  25.775  24.989  1.00  0.00     0.002 A 
ATOM     78  C   UNL A   1      44.919  23.567  25.875  1.00  0.00     0.091 A 
ATOM     79  F   UNL A   1      44.768  23.265  28.237  1.00  0.00    -0.205 F 
ATOM     80  C   UNL A   1      45.106  24.429  24.781  1.00  0.00     0.022 A 
BRANCH  78  81
ATOM     81  S   UNL A   1      44.635  21.833  25.501  1.00  0.00     0.127 S 
ATOM     82  O   UNL A   1      45.919  21.238  25.867  1.00  0.00    -0.237 OA
ATOM     83  O   UNL A   1      43.531  21.500  26.402  1.00  0.00    -0.237 OA
ATOM     84  O   UNL A   1      44.300  21.777  24.085  1.00  0.00    -0.744 OA
ENDBRANCH  78  81
ENDBRANCH  60  74
BRANCH  61  85
ATOM     85  C   UNL A   1      45.708  28.787  36.798  1.00  0.00     0.023 A 
ATOM     86  C   UNL A   1      45.963  30.147  37.061  1.00  0.00     0.012 A 
ATOM     87  C   UNL A   1      45.491  27.909  37.876  1.00  0.00     0.148 A 
ATOM     88  C   UNL A   1      46.037  30.617  38.373  1.00  0.00     0.002 A 
ATOM     89  C   UNL A   1      45.513  28.394  39.179  1.00  0.00     0.091 A 
ATOM     90  F   UNL A   1      45.259  26.616  37.605  1.00  0.00    -0.205 F 
ATOM     91  C   UNL A   1      45.802  29.744  39.430  1.00  0.00     0.022 A 
BRANCH  89  92
ATOM     92  S   UNL A   1      45.095  27.369  40.595  1.00  0.00     0.127 S 
ATOM     93  O   UNL A   1      44.073  26.488  40.034  1.00  0.00    -0.237 OA
ATOM     94  O   UNL A   1      46.374  26.722  40.888  1.00  0.00    -0.237 OA
ATOM     95  O   UNL A   1      44.640  28.292  41.626  1.00  0.00    -0.744 OA
ENDBRANCH  89  92
ENDBRANCH  61  85
BRANCH  73  96
ATOM     96  C   UNL A   1      50.472  26.285  32.344  1.00  0.00     0.023 A 
ATOM     97  C   UNL A   1      51.363  27.342  32.072  1.00  0.00     0.012 A 
ATOM     98  C   UNL A   1      50.979  25.048  32.786  1.00  0.00     0.148 A 
ATOM     99  C   UNL A   1      52.739  27.157  32.203  1.00  0.00     0.002 A 
ATOM    100  C   UNL A   1      52.348  24.887  32.964  1.00  0.00     0.091 A 
ATOM    101  F   UNL A   1      50.116  24.047  33.021  1.00  0.00    -0.205 F 
ATOM    102  C   UNL A   1      53.230  25.936  32.660  1.00  0.00     0.022 A 
BRANCH 100 103
ATOM    103  S   UNL A   1      53.053  23.382  33.645  1.00  0.00     0.127 S 
ATOM    104  O   UNL A   1      52.630  22.385  32.664  1.00  0.00    -0.237 OA
ATOM    105  O   UNL A   1      54.487  23.676  33.637  1.00  0.00    -0.237 OA
ATOM    106  O   UNL A   1      52.477  23.240  34.975  1.00  0.00    -0.744 OA
ENDBRANCH 100 103
ENDBRANCH  73  96
ENDBRANCH  47  48
ENDBRANCH  39  42
ENDBRANCH  37  38
ENDBRANCH  36  37
ENDBRANCH  35  36
ENDBRANCH   1  35
TORSDOF 20
ENDMDL
MODEL 2
REMARK VINA RESULT:     -10.6      6.766      8.545
REMARK SMILES CC(=O)Nc1cc(NC(C)=O)cc(C(=O)Nc2ccc(Br)cc2C(=O)NCCCCCCNC(=O)c2ccc(-c3c4nc(c(-c5cccc(S(=O)(=O)[O-])c5F)c5ccc([nH]5)c(-c5cccc(S(=O)(=O)[O-])c5F)c5nc(c(-c6cccc(S(=O)(=O)[O-])c6F)c6ccc3[nH]6)C=C5)C=C4)cc2)c1
REMARK SMILES IDX 29 1 28 2 27 3 26 4 24 5 25 6 23 8 17 9 18 10 19 11 22 12
REMARK SMILES IDX 20 13 21 14 16 15 14 16 15 17 13 19 5 20 6 21 99 22 7 23
REMARK SMILES IDX 12 24 4 25 1 26 2 27 3 28 8 30 9 31 10 33 11 34 30 35 31 36
REMARK SMILES IDX 32 37 33 38 34 39 35 41 36 42 37 43 98 44 38 45 97 46 39 47
REMARK SMILES IDX 40 48 41 49 91 50 42 51 96 52 90 53 92 54 43 55 95 56 89 57
REMARK SMILES IDX 88 58 44 60 76 61 56 62 75 63 57 64 60 65 74 66 93 67 58 68
REMARK SMILES IDX 59 69 73 71 94 72 61 73 45 74 46 75 54 76 47 77 49 78 55 79
REMARK SMILES IDX 48 80 50 81 51 82 52 83 53 84 77 85 78 86 86 87 79 88 81 89
REMARK SMILES IDX 87 90 80 91 82 92 83 93 84 94 85 95 62 96 63 97 71 98 64 99
REMARK SMILES IDX 66 100 72 101 65 102 67 103 68 104 69 105 70 106
REMARK H PARENT 26 7 16 18 4 29 8 32 33 40 92 59 60 70
REMARK Flexibility Score: inf
ROOT
ATOM      1  C   UNL A   1      34.503  30.245  27.316  1.00  0.00     0.002 C 
ENDROOT
BRANCH   1   2
ATOM      2  C   UNL A   1      32.997  30.498  27.462  1.00  0.00     0.021 C 
BRANCH   2   3
ATOM      3  C   UNL A   1      32.088  29.293  27.260  1.00  0.00     0.116 C 
BRANCH   3   4
ATOM      4  N   UNL A   1      32.788  28.053  27.012  1.00  0.00    -0.352 N 
ATOM      5  C   UNL A   1      32.469  27.025  26.161  1.00  0.00     0.253 C 
ATOM      6  O   UNL A   1      33.206  26.039  26.141  1.00  0.00    -0.269 OA
ATOM      7  H   UNL A   1      33.617  27.928  27.529  1.00  0.00     0.163 HD
BRANCH   5   8
ATOM      8  C   UNL A   1      31.222  27.015  25.342  1.00  0.00     0.064 A 
ATOM      9  C   UNL A   1      30.210  26.031  25.333  1.00  0.00     0.054 A 
ATOM     10  C   UNL A   1      29.223  26.090  24.331  1.00  0.00     0.028 A 
ATOM     11  C   UNL A   1      29.126  27.189  23.475  1.00  0.00     0.018 A 
ATOM     12  C   UNL A   1      31.093  28.134  24.493  1.00  0.00     0.031 A 
ATOM     13  C   UNL A   1      30.037  28.229  23.591  1.00  0.00     0.018 A 
ATOM     14  Br  UNL A   1      29.837  29.778  22.528  1.00  0.00    -0.051 Br
BRANCH   9  15
ATOM     15  N   UNL A   1      29.987  25.016  26.293  1.00  0.00    -0.321 N 
ATOM     16  C   UNL A   1      30.314  23.668  26.297  1.00  0.00     0.255 C 
ATOM     17  O   UNL A   1      29.827  22.921  27.129  1.00  0.00    -0.269 OA
ATOM     18  H   UNL A   1      29.515  25.321  27.102  1.00  0.00     0.170 HD
BRANCH  16  19
ATOM     19  C   UNL A   1      31.308  23.128  25.342  1.00  0.00     0.044 A 
ATOM     20  C   UNL A   1      32.425  23.293  23.213  1.00  0.00     0.044 A 
ATOM     21  C   UNL A   1      32.931  21.998  23.412  1.00  0.00     0.052 A 
ATOM     22  C   UNL A   1      31.670  23.871  24.219  1.00  0.00     0.040 A 
ATOM     23  C   UNL A   1      32.701  21.299  24.605  1.00  0.00     0.044 A 
ATOM     24  C   UNL A   1      31.870  21.870  25.570  1.00  0.00     0.040 A 
BRANCH  20  25
ATOM     25  N   UNL A   1      32.619  23.885  21.952  1.00  0.00    -0.326 N 
ATOM     26  C   UNL A   1      33.561  26.133  22.523  1.00  0.00     0.114 C 
ATOM     27  C   UNL A   1      32.960  25.147  21.559  1.00  0.00     0.221 C 
ATOM     28  O   UNL A   1      32.806  25.461  20.375  1.00  0.00    -0.275 OA
ATOM     29  H   UNL A   1      32.480  23.264  21.200  1.00  0.00     0.169 HD
ENDBRANCH  20  25
BRANCH  23  30
ATOM     30  N   UNL A   1      33.249  20.031  24.899  1.00  0.00    -0.326 N 
ATOM     31  C   UNL A   1      32.976  18.833  24.267  1.00  0.00     0.221 C 
ATOM     32  H   UNL A   1      33.899  19.996  25.638  1.00  0.00     0.169 HD
ATOM     33  C   UNL A   1      33.778  17.677  24.813  1.00  0.00     0.114 C 
ATOM     34  O   UNL A   1      32.198  18.654  23.335  1.00  0.00    -0.275 OA
ENDBRANCH  23  30
ENDBRANCH  16  19
ENDBRANCH   9  15
ENDBRANCH   5   8
ENDBRANCH   3   4
ENDBRANCH   2   3
ENDBRANCH   1   2
BRANCH   1  35
ATOM     35  C   UNL A   1      35.393  30.511  28.534  1.00  0.00     0.002 C 
BRANCH  35  36
ATOM     36  C   UNL A   1      35.122  31.776  29.350  1.00  0.00     0.021 C 
BRANCH  36  37
ATOM     37  C   UNL A   1      35.818  31.875  30.700  1.00  0.00     0.116 C 
BRANCH  37  38
ATOM     38  N   UNL A   1      35.991  30.591  31.352  1.00  0.00    -0.352 N 
ATOM     39  C   UNL A   1      37.119  29.823  31.493  1.00  0.00     0.251 C 
ATOM     40  H   UNL A   1      35.175  30.214  31.755  1.00  0.00     0.163 HD
ATOM     41  O   UNL A   1      37.018  28.709  32.002  1.00  0.00    -0.269 OA
BRANCH  39  42
ATOM     42  C   UNL A   1      38.442  30.307  31.027  1.00  0.00     0.039 A 
ATOM     43  C   UNL A   1      39.278  30.942  31.952  1.00  0.00     0.014 A 
ATOM     44  C   UNL A   1      38.848  30.198  29.693  1.00  0.00     0.014 A 
ATOM     45  C   UNL A   1      40.514  31.450  31.547  1.00  0.00     0.010 A 
ATOM     46  C   UNL A   1      40.116  30.630  29.309  1.00  0.00     0.010 A 
ATOM     47  C   UNL A   1      40.947  31.293  30.221  1.00  0.00    -0.014 A 
BRANCH  47  48
ATOM     48  C   UNL A   1      42.238  31.873  29.766  1.00  0.00     0.031 A 
ATOM     49  C   UNL A   1      43.428  30.976  29.538  1.00  0.00     0.074 A 
ATOM     50  C   UNL A   1      42.355  33.205  29.600  1.00  0.00     0.049 A 
ATOM     51  N   UNL A   1      44.636  31.290  29.146  1.00  0.00    -0.248 NA
ATOM     52  C   UNL A   1      43.248  29.541  29.817  1.00  0.00     0.031 C 
ATOM     53  C   UNL A   1      41.303  34.186  29.866  1.00  0.00     0.029 A 
ATOM     54  N   UNL A   1      43.421  33.963  29.184  1.00  0.00    -0.354 N 
ATOM     55  C   UNL A   1      45.364  30.106  29.166  1.00  0.00     0.074 A 
ATOM     56  C   UNL A   1      44.477  29.073  29.652  1.00  0.00     0.031 C 
ATOM     57  C   UNL A   1      41.772  35.416  29.597  1.00  0.00     0.029 A 
ATOM     58  C   UNL A   1      43.160  35.314  29.157  1.00  0.00     0.049 A 
ATOM     59  H   UNL A   1      44.290  33.578  28.929  1.00  0.00     0.167 HD
ATOM     60  C   UNL A   1      46.644  29.886  28.783  1.00  0.00     0.034 A 
ATOM     61  C   UNL A   1      43.948  36.349  28.807  1.00  0.00     0.034 A 
ATOM     62  C   UNL A   1      47.505  30.905  28.246  1.00  0.00     0.049 A 
ATOM     63  C   UNL A   1      45.341  36.070  28.311  1.00  0.00     0.074 A 
ATOM     64  C   UNL A   1      48.791  30.774  27.751  1.00  0.00     0.029 A 
ATOM     65  N   UNL A   1      47.167  32.244  28.131  1.00  0.00    -0.354 N 
ATOM     66  N   UNL A   1      45.961  34.920  28.192  1.00  0.00    -0.248 NA
ATOM     67  C   UNL A   1      46.128  37.225  27.853  1.00  0.00     0.031 C 
ATOM     68  C   UNL A   1      49.233  32.039  27.348  1.00  0.00     0.029 A 
ATOM     69  C   UNL A   1      48.215  32.951  27.570  1.00  0.00     0.049 A 
ATOM     70  H   UNL A   1      46.307  32.635  28.409  1.00  0.00     0.167 HD
ATOM     71  C   UNL A   1      47.187  35.206  27.604  1.00  0.00     0.074 A 
ATOM     72  C   UNL A   1      47.217  36.636  27.376  1.00  0.00     0.031 C 
ATOM     73  C   UNL A   1      48.202  34.363  27.289  1.00  0.00     0.034 A 
BRANCH  60  74
ATOM     74  C   UNL A   1      47.171  28.477  28.874  1.00  0.00     0.023 A 
ATOM     75  C   UNL A   1      46.931  27.575  27.817  1.00  0.00     0.012 A 
ATOM     76  C   UNL A   1      47.942  28.058  29.976  1.00  0.00     0.148 A 
ATOM     77  C   UNL A   1      47.413  26.267  27.873  1.00  0.00     0.002 A 
ATOM     78  C   UNL A   1      48.459  26.768  30.003  1.00  0.00     0.091 A 
ATOM     79  F   UNL A   1      48.143  28.921  30.982  1.00  0.00    -0.205 F 
ATOM     80  C   UNL A   1      48.186  25.868  28.959  1.00  0.00     0.022 A 
BRANCH  78  81
ATOM     81  S   UNL A   1      49.532  26.181  31.320  1.00  0.00     0.127 S 
ATOM     82  O   UNL A   1      49.997  24.906  30.776  1.00  0.00    -0.237 OA
ATOM     83  O   UNL A   1      50.553  27.228  31.376  1.00  0.00    -0.237 OA
ATOM     84  O   UNL A   1      48.695  26.087  32.507  1.00  0.00    -0.744 OA
ENDBRANCH  78  81
ENDBRANCH  60  74
BRANCH  61  85
ATOM     85  C   UNL A   1      43.404  37.737  28.826  1.00  0.00     0.023 A 
ATOM     86  C   UNL A   1      43.668  38.567  29.934  1.00  0.00     0.012 A 
ATOM     87  C   UNL A   1      42.655  38.247  27.750  1.00  0.00     0.148 A 
ATOM     88  C   UNL A   1      43.164  39.867  29.986  1.00  0.00     0.002 A 
ATOM     89  C   UNL A   1      42.201  39.562  27.784  1.00  0.00     0.091 A 
ATOM     90  F   UNL A   1      42.407  37.439  26.709  1.00  0.00    -0.205 F 
ATOM     91  C   UNL A   1      42.440  40.368  28.908  1.00  0.00     0.022 A 
BRANCH  89  92
ATOM     92  S   UNL A   1      41.372  40.330  26.387  1.00  0.00     0.127 S 
ATOM     93  O   UNL A   1      40.517  41.310  27.050  1.00  0.00    -0.237 OA
ATOM     94  O   UNL A   1      42.497  40.896  25.641  1.00  0.00    -0.237 OA
ATOM     95  O   UNL A   1      40.682  39.247  25.698  1.00  0.00    -0.744 OA
ENDBRANCH  89  92
ENDBRANCH  61  85
BRANCH  73  96
ATOM     96  C   UNL A   1      49.413  34.949  26.612  1.00  0.00     0.023 A 
ATOM     97  C   UNL A   1      49.464  35.034  25.206  1.00  0.00     0.012 A 
ATOM     98  C   UNL A   1      50.470  35.480  27.376  1.00  0.00     0.148 A 
ATOM     99  C   UNL A   1      50.567  35.606  24.572  1.00  0.00     0.002 A 
ATOM    100  C   UNL A   1      51.542  36.094  26.739  1.00  0.00     0.091 A 
ATOM    101  F   UNL A   1      50.414  35.371  28.713  1.00  0.00    -0.205 F 
ATOM    102  C   UNL A   1      51.598  36.146  25.338  1.00  0.00     0.022 A 
BRANCH 100 103
ATOM    103  S   UNL A   1      52.860  36.904  27.653  1.00  0.00     0.127 S 
ATOM    104  O   UNL A   1      52.130  37.958  28.356  1.00  0.00    -0.237 OA
ATOM    105  O   UNL A   1      53.354  35.827  28.511  1.00  0.00    -0.237 OA
ATOM    106  O   UNL A   1      53.814  37.360  26.652  1.00  0.00    -0.744 OA
ENDBRANCH 100 103
ENDBRANCH  73  96
ENDBRANCH  47  48
ENDBRANCH  39  42
ENDBRANCH  37  38
ENDBRANCH  36  37
ENDBRANCH  35  36
ENDBRANCH   1  35
TORSDOF 20
ENDMDL
MODEL 3
REMARK VINA RESULT:     -10.6      5.457     11.131
REMARK SMILES CC(=O)Nc1cc(NC(C)=O)cc(C(=O)Nc2ccc(Br)cc2C(=O)NCCCCCCNC(=O)c2ccc(-c3c4nc(c(-c5cccc(S(=O)(=O)[O-])c5F)c5ccc([nH]5)c(-c5cccc(S(=O)(=O)[O-])c5F)c5nc(c(-c6cccc(S(=O)(=O)[O-])c6F)c6ccc3[nH]6)C=C5)C=C4)cc2)c1
REMARK SMILES IDX 29 1 28 2 27 3 26 4 24 5 25 6 23 8 17 9 18 10 19 11 22 12
REMARK SMILES IDX 20 13 21 14 16 15 14 16 15 17 13 19 5 20 6 21 99 22 7 23
REMARK SMILES IDX 12 24 4 25 1 26 2 27 3 28 8 30 9 31 10 33 11 34 30 35 31 36
REMARK SMILES IDX 32 37 33 38 34 39 35 41 36 42 37 43 98 44 38 45 97 46 39 47
REMARK SMILES IDX 40 48 41 49 91 50 42 51 96 52 90 53 92 54 43 55 95 56 89 57
REMARK SMILES IDX 88 58 44 60 76 61 56 62 75 63 57 64 60 65 74 66 93 67 58 68
REMARK SMILES IDX 59 69 73 71 94 72 61 73 45 74 46 75 54 76 47 77 49 78 55 79
REMARK SMILES IDX 48 80 50 81 51 82 52 83 53 84 77 85 78 86 86 87 79 88 81 89
REMARK SMILES IDX 87 90 80 91 82 92 83 93 84 94 85 95 62 96 63 97 71 98 64 99
REMARK SMILES IDX 66 100 72 101 65 102 67 103 68 104 69 105 70 106
REMARK H PARENT 26 7 16 18 4 29 8 32 33 40 92 59 60 70
REMARK Flexibility Score: inf
ROOT
ATOM      1  C   UNL A   1      37.763  29.773  28.495  1.00  0.00     0.002 C 
ENDROOT
BRANCH   1   2
ATOM      2  C   UNL A   1      38.725  28.928  29.338  1.00  0.00     0.021 C 
BRANCH   2   3
ATOM      3  C   UNL A   1      39.165  27.601  28.734  1.00  0.00     0.116 C 
BRANCH   3   4
ATOM      4  N   UNL A   1      40.104  27.726  27.642  1.00  0.00    -0.352 N 
ATOM      5  C   UNL A   1      40.691  26.749  26.879  1.00  0.00     0.253 C 
ATOM      6  O   UNL A   1      41.497  27.094  26.014  1.00  0.00    -0.269 OA
ATOM      7  H   UNL A   1      40.360  28.650  27.412  1.00  0.00     0.163 HD
BRANCH   5   8
ATOM      8  C   UNL A   1      40.466  25.294  27.121  1.00  0.00     0.064 A 
ATOM      9  C   UNL A   1      41.220  24.436  27.952  1.00  0.00     0.054 A 
ATOM     10  C   UNL A   1      40.986  23.050  27.877  1.00  0.00     0.028 A 
ATOM     11  C   UNL A   1      39.915  22.536  27.142  1.00  0.00     0.018 A 
ATOM     12  C   UNL A   1      39.369  24.764  26.410  1.00  0.00     0.031 A 
ATOM     13  C   UNL A   1      39.083  23.403  26.447  1.00  0.00     0.018 A 
ATOM     14  Br  UNL A   1      37.557  22.732  25.559  1.00  0.00    -0.051 Br
BRANCH   9  15
ATOM     15  N   UNL A   1      42.139  24.805  28.963  1.00  0.00    -0.321 N 
ATOM     16  C   UNL A   1      43.522  24.718  29.021  1.00  0.00     0.255 C 
ATOM     17  O   UNL A   1      44.103  24.885  30.081  1.00  0.00    -0.269 OA
ATOM     18  H   UNL A   1      41.723  25.191  29.767  1.00  0.00     0.170 HD
BRANCH  16  19
ATOM     19  C   UNL A   1      44.319  24.493  27.794  1.00  0.00     0.044 A 
ATOM     20  C   UNL A   1      45.301  25.380  25.780  1.00  0.00     0.044 A 
ATOM     21  C   UNL A   1      45.543  24.064  25.354  1.00  0.00     0.052 A 
ATOM     22  C   UNL A   1      44.749  25.580  27.034  1.00  0.00     0.040 A 
ATOM     23  C   UNL A   1      45.256  22.965  26.176  1.00  0.00     0.044 A 
ATOM     24  C   UNL A   1      44.626  23.188  27.402  1.00  0.00     0.040 A 
BRANCH  20  25
ATOM     25  N   UNL A   1      45.527  26.419  24.859  1.00  0.00    -0.326 N 
ATOM     26  C   UNL A   1      47.771  27.297  25.537  1.00  0.00     0.114 C 
ATOM     27  C   UNL A   1      46.482  27.389  24.766  1.00  0.00     0.221 C 
ATOM     28  O   UNL A   1      46.292  28.336  23.997  1.00  0.00    -0.275 OA
ATOM     29  H   UNL A   1      44.860  26.454  24.134  1.00  0.00     0.169 HD
ENDBRANCH  20  25
BRANCH  23  30
ATOM     30  N   UNL A   1      45.551  21.626  25.841  1.00  0.00    -0.326 N 
ATOM     31  C   UNL A   1      44.701  20.698  25.267  1.00  0.00     0.221 C 
ATOM     32  H   UNL A   1      46.465  21.317  26.038  1.00  0.00     0.169 HD
ATOM     33  C   UNL A   1      45.365  19.369  25.005  1.00  0.00     0.114 C 
ATOM     34  O   UNL A   1      43.529  20.872  24.952  1.00  0.00    -0.275 OA
ENDBRANCH  23  30
ENDBRANCH  16  19
ENDBRANCH   9  15
ENDBRANCH   5   8
ENDBRANCH   3   4
ENDBRANCH   2   3
ENDBRANCH   1   2
BRANCH   1  35
ATOM     35  C   UNL A   1      36.260  29.598  28.736  1.00  0.00     0.002 C 
BRANCH  35  36
ATOM     36  C   UNL A   1      35.304  30.500  27.954  1.00  0.00     0.021 C 
BRANCH  36  37
ATOM     37  C   UNL A   1      35.645  31.983  27.921  1.00  0.00     0.116 C 
BRANCH  37  38
ATOM     38  N   UNL A   1      34.666  32.812  28.596  1.00  0.00    -0.352 N 
ATOM     39  C   UNL A   1      34.650  33.276  29.887  1.00  0.00     0.251 C 
ATOM     40  H   UNL A   1      33.897  33.083  28.045  1.00  0.00     0.163 HD
ATOM     41  O   UNL A   1      33.661  33.889  30.285  1.00  0.00    -0.269 OA
BRANCH  39  42
ATOM     42  C   UNL A   1      35.789  33.034  30.806  1.00  0.00     0.039 A 
ATOM     43  C   UNL A   1      36.795  34.003  30.882  1.00  0.00     0.014 A 
ATOM     44  C   UNL A   1      35.913  31.853  31.545  1.00  0.00     0.014 A 
ATOM     45  C   UNL A   1      37.907  33.798  31.703  1.00  0.00     0.010 A 
ATOM     46  C   UNL A   1      36.980  31.686  32.426  1.00  0.00     0.010 A 
ATOM     47  C   UNL A   1      38.006  32.639  32.487  1.00  0.00    -0.014 A 
BRANCH  47  48
ATOM     48  C   UNL A   1      39.207  32.384  33.325  1.00  0.00     0.031 A 
ATOM     49  C   UNL A   1      39.205  32.772  34.782  1.00  0.00     0.074 A 
ATOM     50  C   UNL A   1      40.312  31.848  32.771  1.00  0.00     0.049 A 
ATOM     51  N   UNL A   1      40.152  32.636  35.674  1.00  0.00    -0.248 NA
ATOM     52  C   UNL A   1      37.991  33.427  35.299  1.00  0.00     0.031 C 
ATOM     53  C   UNL A   1      40.469  31.505  31.358  1.00  0.00     0.029 A 
ATOM     54  N   UNL A   1      41.521  31.515  33.330  1.00  0.00    -0.354 N 
ATOM     55  C   UNL A   1      39.665  33.218  36.839  1.00  0.00     0.074 A 
ATOM     56  C   UNL A   1      38.356  33.748  36.531  1.00  0.00     0.031 C 
ATOM     57  C   UNL A   1      41.698  31.000  31.161  1.00  0.00     0.029 A 
ATOM     58  C   UNL A   1      42.422  30.998  32.429  1.00  0.00     0.049 A 
ATOM     59  H   UNL A   1      41.723  31.633  34.287  1.00  0.00     0.167 HD
ATOM     60  C   UNL A   1      40.237  33.277  38.065  1.00  0.00     0.034 A 
ATOM     61  C   UNL A   1      43.686  30.565  32.607  1.00  0.00     0.034 A 
ATOM     62  C   UNL A   1      41.514  32.697  38.381  1.00  0.00     0.049 A 
ATOM     63  C   UNL A   1      44.269  30.569  33.995  1.00  0.00     0.074 A 
ATOM     64  C   UNL A   1      42.149  32.627  39.609  1.00  0.00     0.029 A 
ATOM     65  N   UNL A   1      42.352  32.084  37.463  1.00  0.00    -0.354 N 
ATOM     66  N   UNL A   1      43.730  30.984  35.116  1.00  0.00    -0.248 NA
ATOM     67  C   UNL A   1      45.615  30.000  34.151  1.00  0.00     0.031 C 
ATOM     68  C   UNL A   1      43.377  31.983  39.429  1.00  0.00     0.029 A 
ATOM     69  C   UNL A   1      43.496  31.629  38.095  1.00  0.00     0.049 A 
ATOM     70  H   UNL A   1      42.162  31.988  36.502  1.00  0.00     0.167 HD
ATOM     71  C   UNL A   1      44.648  30.684  36.115  1.00  0.00     0.074 A 
ATOM     72  C   UNL A   1      45.772  30.038  35.468  1.00  0.00     0.031 C 
ATOM     73  C   UNL A   1      44.574  30.929  37.447  1.00  0.00     0.034 A 
BRANCH  60  74
ATOM     74  C   UNL A   1      39.457  33.940  39.172  1.00  0.00     0.023 A 
ATOM     75  C   UNL A   1      39.693  35.296  39.473  1.00  0.00     0.012 A 
ATOM     76  C   UNL A   1      38.460  33.240  39.880  1.00  0.00     0.148 A 
ATOM     77  C   UNL A   1      38.980  35.936  40.488  1.00  0.00     0.002 A 
ATOM     78  C   UNL A   1      37.721  33.896  40.857  1.00  0.00     0.091 A 
ATOM     79  F   UNL A   1      38.263  31.945  39.595  1.00  0.00    -0.205 F 
ATOM     80  C   UNL A   1      37.988  35.240  41.171  1.00  0.00     0.022 A 
BRANCH  78  81
ATOM     81  S   UNL A   1      36.367  33.111  41.739  1.00  0.00     0.127 S 
ATOM     82  O   UNL A   1      37.059  32.029  42.439  1.00  0.00    -0.237 OA
ATOM     83  O   UNL A   1      35.894  34.192  42.605  1.00  0.00    -0.237 OA
ATOM     84  O   UNL A   1      35.415  32.689  40.721  1.00  0.00    -0.744 OA
ENDBRANCH  78  81
ENDBRANCH  60  74
BRANCH  61  85
ATOM     85  C   UNL A   1      44.449  30.005  31.456  1.00  0.00     0.023 A 
ATOM     86  C   UNL A   1      44.371  28.625  31.180  1.00  0.00     0.012 A 
ATOM     87  C   UNL A   1      45.227  30.829  30.620  1.00  0.00     0.148 A 
ATOM     88  C   UNL A   1      45.083  28.070  30.116  1.00  0.00     0.002 A 
ATOM     89  C   UNL A   1      45.891  30.278  29.529  1.00  0.00     0.091 A 
ATOM     90  F   UNL A   1      45.296  32.137  30.905  1.00  0.00    -0.205 F 
ATOM     91  C   UNL A   1      45.834  28.897  29.285  1.00  0.00     0.022 A 
BRANCH  89  92
ATOM     92  S   UNL A   1      46.775  31.285  28.333  1.00  0.00     0.127 S 
ATOM     93  O   UNL A   1      47.836  31.863  29.155  1.00  0.00    -0.237 OA
ATOM     94  O   UNL A   1      47.221  30.283  27.364  1.00  0.00    -0.237 OA
ATOM     95  O   UNL A   1      45.793  32.227  27.811  1.00  0.00    -0.744 OA
ENDBRANCH  89  92
ENDBRANCH  61  85
BRANCH  73  96
ATOM     96  C   UNL A   1      45.710  30.450  38.311  1.00  0.00     0.023 A 
ATOM     97  C   UNL A   1      46.740  31.338  38.681  1.00  0.00     0.012 A 
ATOM     98  C   UNL A   1      45.717  29.134  38.815  1.00  0.00     0.148 A 
ATOM     99  C   UNL A   1      47.778  30.911  39.510  1.00  0.00     0.002 A 
ATOM    100  C   UNL A   1      46.726  28.732  39.681  1.00  0.00     0.091 A 
ATOM    101  F   UNL A   1      44.739  28.297  38.436  1.00  0.00    -0.205 F 
ATOM    102  C   UNL A   1      47.764  29.614  40.018  1.00  0.00     0.022 A 
BRANCH 100 103
ATOM    103  S   UNL A   1      46.728  27.114  40.461  1.00  0.00     0.127 S 
ATOM    104  O   UNL A   1      46.997  26.236  39.324  1.00  0.00    -0.237 OA
ATOM    105  O   UNL A   1      47.829  27.228  41.417  1.00  0.00    -0.237 OA
ATOM    106  O   UNL A   1      45.415  26.967  41.073  1.00  0.00    -0.744 OA
ENDBRANCH 100 103
ENDBRANCH  73  96
ENDBRANCH  47  48
ENDBRANCH  39  42
ENDBRANCH  37  38
ENDBRANCH  36  37
ENDBRANCH  35  36
ENDBRANCH   1  35
TORSDOF 20
ENDMDL
