MODEL 1
REMARK VINA RESULT:     -13.0      0.000      0.000
REMARK SMILES O=C(NCCCCCCNC(=O)c1c[nH]c(=O)c(-c2cccc([N+](=O)[O-])c2)c1)c1ccc(-c2c3nc(c(-c4cccc(S(=O)(=O)[O-])c4F)c4ccc([nH]4)c(-c4cccc(S(=O)(=O)[O-])c4F)c4nc(c(-c5cccc(S(=O)(=O)[O-])c5F)c5ccc2[nH]5)C=C4)C=C3)cc1
REMARK SMILES IDX 6 1 5 2 4 3 3 4 1 5 2 6 29 8 30 9 91 10 31 11 90 12 32 13
REMARK SMILES IDX 33 14 34 15 84 16 35 17 89 18 83 19 85 20 36 21 88 22 82 23
REMARK SMILES IDX 81 24 37 26 69 27 49 28 68 29 50 30 53 31 67 32 86 33 51 34
REMARK SMILES IDX 52 35 66 37 87 38 54 39 38 40 39 41 47 42 40 43 42 44 48 45
REMARK SMILES IDX 41 46 43 47 44 48 45 49 46 50 70 51 71 52 79 53 72 54 74 55
REMARK SMILES IDX 80 56 73 57 75 58 76 59 77 60 78 61 55 62 56 63 64 64 57 65
REMARK SMILES IDX 59 66 65 67 58 68 60 69 61 70 62 71 63 72 7 73 8 74 9 75
REMARK SMILES IDX 10 76 11 77 12 79 13 80 14 81 28 82 15 83 18 84 16 85 17 87
REMARK SMILES IDX 19 88 20 89 27 90 21 91 23 92 22 93 24 94 25 95 26 96
REMARK H PARENT 3 7 85 25 53 36 10 78 15 86
REMARK Flexibility Score: inf
ROOT
ATOM      1  C   UNL A   1      31.526  28.413  25.114  1.00  0.00     0.002 C 
ENDROOT
BRANCH   1   2
ATOM      2  C   UNL A   1      31.395  29.919  25.344  1.00  0.00     0.021 C 
BRANCH   2   3
ATOM      3  C   UNL A   1      32.160  30.447  26.551  1.00  0.00     0.116 C 
BRANCH   3   4
ATOM      4  N   UNL A   1      32.022  31.884  26.700  1.00  0.00    -0.352 N 
ATOM      5  O   UNL A   1      32.433  33.904  27.609  1.00  0.00    -0.269 OA
ATOM      6  C   UNL A   1      32.808  32.749  27.421  1.00  0.00     0.251 C 
ATOM      7  H   UNL A   1      31.265  32.293  26.221  1.00  0.00     0.163 HD
BRANCH   6   8
ATOM      8  C   UNL A   1      34.093  32.273  27.976  1.00  0.00     0.039 A 
ATOM      9  C   UNL A   1      35.159  33.161  28.154  1.00  0.00     0.014 A 
ATOM     10  C   UNL A   1      34.227  30.931  28.340  1.00  0.00     0.014 A 
ATOM     11  C   UNL A   1      36.390  32.688  28.593  1.00  0.00     0.010 A 
ATOM     12  C   UNL A   1      35.442  30.473  28.859  1.00  0.00     0.010 A 
ATOM     13  C   UNL A   1      36.534  31.347  28.981  1.00  0.00    -0.014 A 
BRANCH  13  14
ATOM     14  C   UNL A   1      37.785  30.915  29.654  1.00  0.00     0.031 A 
ATOM     15  C   UNL A   1      38.738  29.954  29.004  1.00  0.00     0.074 A 
ATOM     16  C   UNL A   1      38.022  31.376  30.899  1.00  0.00     0.049 A 
ATOM     17  N   UNL A   1      39.850  29.459  29.482  1.00  0.00    -0.248 NA
ATOM     18  C   UNL A   1      38.405  29.481  27.651  1.00  0.00     0.031 C 
ATOM     19  C   UNL A   1      37.133  32.273  31.646  1.00  0.00     0.029 A 
ATOM     20  N   UNL A   1      39.056  31.138  31.768  1.00  0.00    -0.354 N 
ATOM     21  C   UNL A   1      40.326  28.582  28.517  1.00  0.00     0.074 A 
ATOM     22  C   UNL A   1      39.389  28.621  27.414  1.00  0.00     0.031 C 
ATOM     23  C   UNL A   1      37.655  32.503  32.857  1.00  0.00     0.029 A 
ATOM     24  C   UNL A   1      38.879  31.727  32.998  1.00  0.00     0.049 A 
ATOM     25  H   UNL A   1      39.845  30.599  31.534  1.00  0.00     0.167 HD
ATOM     26  C   UNL A   1      41.445  27.819  28.552  1.00  0.00     0.034 A 
ATOM     27  C   UNL A   1      39.595  31.620  34.134  1.00  0.00     0.034 A 
ATOM     28  C   UNL A   1      42.388  27.818  29.641  1.00  0.00     0.049 A 
ATOM     29  C   UNL A   1      40.831  30.768  34.131  1.00  0.00     0.074 A 
ATOM     30  C   UNL A   1      43.607  27.168  29.717  1.00  0.00     0.029 A 
ATOM     31  N   UNL A   1      42.205  28.467  30.851  1.00  0.00    -0.354 N 
ATOM     32  N   UNL A   1      41.362  30.091  33.143  1.00  0.00    -0.248 NA
ATOM     33  C   UNL A   1      41.578  30.679  35.393  1.00  0.00     0.031 C 
ATOM     34  C   UNL A   1      44.141  27.387  30.991  1.00  0.00     0.029 A 
ATOM     35  C   UNL A   1      43.269  28.200  31.695  1.00  0.00     0.049 A 
ATOM     36  H   UNL A   1      41.433  29.033  31.078  1.00  0.00     0.167 HD
ATOM     37  C   UNL A   1      42.512  29.510  33.658  1.00  0.00     0.074 A 
ATOM     38  C   UNL A   1      42.621  29.944  35.035  1.00  0.00     0.031 C 
ATOM     39  C   UNL A   1      43.387  28.671  33.051  1.00  0.00     0.034 A 
BRANCH  26  40
ATOM     40  C   UNL A   1      41.746  26.927  27.378  1.00  0.00     0.023 A 
ATOM     41  C   UNL A   1      42.416  27.449  26.253  1.00  0.00     0.012 A 
ATOM     42  C   UNL A   1      41.483  25.544  27.447  1.00  0.00     0.148 A 
ATOM     43  C   UNL A   1      42.808  26.609  25.210  1.00  0.00     0.002 A 
ATOM     44  C   UNL A   1      41.910  24.708  26.421  1.00  0.00     0.091 A 
ATOM     45  F   UNL A   1      40.831  25.072  28.519  1.00  0.00    -0.205 F 
ATOM     46  C   UNL A   1      42.567  25.240  25.300  1.00  0.00     0.022 A 
BRANCH  44  47
ATOM     47  S   UNL A   1      41.719  22.923  26.478  1.00  0.00     0.127 S 
ATOM     48  O   UNL A   1      40.263  22.782  26.455  1.00  0.00    -0.237 OA
ATOM     49  O   UNL A   1      42.391  22.503  25.248  1.00  0.00    -0.237 OA
ATOM     50  O   UNL A   1      42.364  22.485  27.708  1.00  0.00    -0.744 OA
ENDBRANCH  44  47
ENDBRANCH  26  40
BRANCH  27  51
ATOM     51  C   UNL A   1      39.149  32.332  35.364  1.00  0.00     0.023 A 
ATOM     52  C   UNL A   1      39.353  33.720  35.481  1.00  0.00     0.012 A 
ATOM     53  C   UNL A   1      38.505  31.640  36.409  1.00  0.00     0.148 A 
ATOM     54  C   UNL A   1      38.953  34.399  36.632  1.00  0.00     0.002 A 
ATOM     55  C   UNL A   1      38.053  32.334  37.524  1.00  0.00     0.091 A 
ATOM     56  F   UNL A   1      38.335  30.316  36.288  1.00  0.00    -0.205 F 
ATOM     57  C   UNL A   1      38.295  33.710  37.647  1.00  0.00     0.022 A 
BRANCH  55  58
ATOM     58  S   UNL A   1      37.068  31.545  38.803  1.00  0.00     0.127 S 
ATOM     59  O   UNL A   1      37.930  31.686  39.973  1.00  0.00    -0.237 OA
ATOM     60  O   UNL A   1      35.866  32.378  38.818  1.00  0.00    -0.237 OA
ATOM     61  O   UNL A   1      36.844  30.185  38.334  1.00  0.00    -0.744 OA
ENDBRANCH  55  58
ENDBRANCH  27  51
BRANCH  39  62
ATOM     62  C   UNL A   1      44.548  28.171  33.868  1.00  0.00     0.023 A 
ATOM     63  C   UNL A   1      45.733  28.931  33.928  1.00  0.00     0.012 A 
ATOM     64  C   UNL A   1      44.440  26.994  34.632  1.00  0.00     0.148 A 
ATOM     65  C   UNL A   1      46.805  28.512  34.714  1.00  0.00     0.002 A 
ATOM     66  C   UNL A   1      45.492  26.608  35.452  1.00  0.00     0.091 A 
ATOM     67  F   UNL A   1      43.309  26.279  34.547  1.00  0.00    -0.205 F 
ATOM     68  C   UNL A   1      46.679  27.358  35.486  1.00  0.00     0.022 A 
BRANCH  66  69
ATOM     69  S   UNL A   1      45.392  25.192  36.552  1.00  0.00     0.127 S 
ATOM     70  O   UNL A   1      45.653  24.083  35.634  1.00  0.00    -0.237 OA
ATOM     71  O   UNL A   1      46.470  25.462  37.502  1.00  0.00    -0.237 OA
ATOM     72  O   UNL A   1      44.054  25.219  37.127  1.00  0.00    -0.744 OA
ENDBRANCH  66  69
ENDBRANCH  39  62
ENDBRANCH  13  14
ENDBRANCH   6   8
ENDBRANCH   3   4
ENDBRANCH   2   3
ENDBRANCH   1   2
BRANCH   1  73
ATOM     73  C   UNL A   1      30.562  27.823  24.080  1.00  0.00     0.002 C 
BRANCH  73  74
ATOM     74  C   UNL A   1      29.797  26.576  24.530  1.00  0.00     0.021 C 
BRANCH  74  75
ATOM     75  C   UNL A   1      30.660  25.483  25.155  1.00  0.00     0.116 C 
BRANCH  75  76
ATOM     76  N   UNL A   1      29.970  24.791  26.234  1.00  0.00    -0.352 N 
ATOM     77  C   UNL A   1      30.278  23.611  26.845  1.00  0.00     0.252 C 
ATOM     78  H   UNL A   1      29.163  25.241  26.573  1.00  0.00     0.163 HD
ATOM     79  O   UNL A   1      29.502  23.108  27.652  1.00  0.00    -0.269 OA
BRANCH  77  80
ATOM     80  C   UNL A   1      31.560  22.947  26.495  1.00  0.00     0.056 A 
ATOM     81  C   UNL A   1      32.675  23.352  27.119  1.00  0.00     0.099 A 
ATOM     82  C   UNL A   1      31.632  21.873  25.525  1.00  0.00     0.029 A 
ATOM     83  N   UNL A   1      33.869  22.719  26.875  1.00  0.00    -0.328 N 
ATOM     84  C   UNL A   1      32.776  21.201  25.296  1.00  0.00     0.048 A 
ATOM     85  C   UNL A   1      34.019  21.650  26.019  1.00  0.00     0.255 A 
ATOM     86  H   UNL A   1      34.669  23.051  27.343  1.00  0.00     0.169 HD
ATOM     87  O   UNL A   1      35.108  21.108  25.858  1.00  0.00    -0.269 OA
BRANCH  84  88
ATOM     88  C   UNL A   1      32.749  20.004  24.437  1.00  0.00    -0.006 A 
ATOM     89  C   UNL A   1      32.371  20.085  23.088  1.00  0.00     0.009 A 
ATOM     90  C   UNL A   1      33.032  18.746  24.991  1.00  0.00     0.094 A 
ATOM     91  C   UNL A   1      32.262  18.933  22.304  1.00  0.00     0.008 A 
ATOM     92  C   UNL A   1      32.920  17.594  24.201  1.00  0.00     0.270 A 
ATOM     93  C   UNL A   1      32.531  17.683  22.858  1.00  0.00     0.085 A 
BRANCH  92  94
ATOM     94  N   UNL A   1      33.197  16.280  24.792  1.00  0.00     0.062 N 
ATOM     95  O   UNL A   1      34.178  15.654  24.366  1.00  0.00    -0.258 OA
ATOM     96  O   UNL A   1      32.433  15.876  25.680  1.00  0.00    -0.258 OA
ENDBRANCH  92  94
ENDBRANCH  84  88
ENDBRANCH  77  80
ENDBRANCH  75  76
ENDBRANCH  74  75
ENDBRANCH  73  74
ENDBRANCH   1  73
TORSDOF 18
ENDMDL
MODEL 2
REMARK VINA RESULT:     -13.0      5.372     10.871
REMARK SMILES O=C(NCCCCCCNC(=O)c1c[nH]c(=O)c(-c2cccc([N+](=O)[O-])c2)c1)c1ccc(-c2c3nc(c(-c4cccc(S(=O)(=O)[O-])c4F)c4ccc([nH]4)c(-c4cccc(S(=O)(=O)[O-])c4F)c4nc(c(-c5cccc(S(=O)(=O)[O-])c5F)c5ccc2[nH]5)C=C4)C=C3)cc1
REMARK SMILES IDX 6 1 5 2 4 3 3 4 1 5 2 6 29 8 30 9 91 10 31 11 90 12 32 13
REMARK SMILES IDX 33 14 34 15 84 16 35 17 89 18 83 19 85 20 36 21 88 22 82 23
REMARK SMILES IDX 81 24 37 26 69 27 49 28 68 29 50 30 53 31 67 32 86 33 51 34
REMARK SMILES IDX 52 35 66 37 87 38 54 39 38 40 39 41 47 42 40 43 42 44 48 45
REMARK SMILES IDX 41 46 43 47 44 48 45 49 46 50 70 51 71 52 79 53 72 54 74 55
REMARK SMILES IDX 80 56 73 57 75 58 76 59 77 60 78 61 55 62 56 63 64 64 57 65
REMARK SMILES IDX 59 66 65 67 58 68 60 69 61 70 62 71 63 72 7 73 8 74 9 75
REMARK SMILES IDX 10 76 11 77 12 79 13 80 14 81 28 82 15 83 18 84 16 85 17 87
REMARK SMILES IDX 19 88 20 89 27 90 21 91 23 92 22 93 24 94 25 95 26 96
REMARK H PARENT 3 7 85 25 53 36 10 78 15 86
REMARK Flexibility Score: inf
ROOT
ATOM      1  C   UNL A   1      36.102  20.650  24.853  1.00  0.00     0.002 C 
ENDROOT
BRANCH   1   2
ATOM      2  C   UNL A   1      37.344  19.772  25.011  1.00  0.00     0.021 C 
BRANCH   2   3
ATOM      3  C   UNL A   1      38.581  20.505  25.516  1.00  0.00     0.116 C 
BRANCH   3   4
ATOM      4  N   UNL A   1      39.648  19.590  25.880  1.00  0.00    -0.352 N 
ATOM      5  O   UNL A   1      41.760  18.998  26.392  1.00  0.00    -0.269 OA
ATOM      6  C   UNL A   1      40.913  19.885  26.326  1.00  0.00     0.251 C 
ATOM      7  H   UNL A   1      39.438  18.632  25.795  1.00  0.00     0.163 HD
BRANCH   6   8
ATOM      8  C   UNL A   1      41.243  21.275  26.709  1.00  0.00     0.039 A 
ATOM      9  C   UNL A   1      41.720  21.560  27.992  1.00  0.00     0.014 A 
ATOM     10  C   UNL A   1      41.091  22.299  25.771  1.00  0.00     0.014 A 
ATOM     11  C   UNL A   1      41.944  22.879  28.372  1.00  0.00     0.010 A 
ATOM     12  C   UNL A   1      41.395  23.616  26.129  1.00  0.00     0.010 A 
ATOM     13  C   UNL A   1      41.816  23.916  27.434  1.00  0.00    -0.014 A 
BRANCH  13  14
ATOM     14  C   UNL A   1      42.272  25.282  27.794  1.00  0.00     0.031 A 
ATOM     15  C   UNL A   1      41.341  26.286  28.409  1.00  0.00     0.074 A 
ATOM     16  C   UNL A   1      43.546  25.616  27.506  1.00  0.00     0.049 A 
ATOM     17  N   UNL A   1      41.585  27.527  28.743  1.00  0.00    -0.248 NA
ATOM     18  C   UNL A   1      39.961  25.855  28.679  1.00  0.00     0.031 C 
ATOM     19  C   UNL A   1      44.521  24.732  26.859  1.00  0.00     0.029 A 
ATOM     20  N   UNL A   1      44.234  26.788  27.689  1.00  0.00    -0.354 N 
ATOM     21  C   UNL A   1      40.385  28.041  29.217  1.00  0.00     0.074 A 
ATOM     22  C   UNL A   1      39.411  26.972  29.140  1.00  0.00     0.031 C 
ATOM     23  C   UNL A   1      45.674  25.392  26.694  1.00  0.00     0.029 A 
ATOM     24  C   UNL A   1      45.506  26.760  27.166  1.00  0.00     0.049 A 
ATOM     25  H   UNL A   1      43.856  27.571  28.150  1.00  0.00     0.167 HD
ATOM     26  C   UNL A   1      40.128  29.289  29.675  1.00  0.00     0.034 A 
ATOM     27  C   UNL A   1      46.424  27.737  27.034  1.00  0.00     0.034 A 
ATOM     28  C   UNL A   1      41.115  30.332  29.778  1.00  0.00     0.049 A 
ATOM     29  C   UNL A   1      46.101  29.105  27.558  1.00  0.00     0.074 A 
ATOM     30  C   UNL A   1      40.977  31.591  30.336  1.00  0.00     0.029 A 
ATOM     31  N   UNL A   1      42.408  30.253  29.287  1.00  0.00    -0.354 N 
ATOM     32  N   UNL A   1      45.020  29.519  28.171  1.00  0.00    -0.248 NA
ATOM     33  C   UNL A   1      47.131  30.140  27.390  1.00  0.00     0.031 C 
ATOM     34  C   UNL A   1      42.172  32.289  30.142  1.00  0.00     0.029 A 
ATOM     35  C   UNL A   1      43.066  31.454  29.494  1.00  0.00     0.049 A 
ATOM     36  H   UNL A   1      42.802  29.461  28.856  1.00  0.00     0.167 HD
ATOM     37  C   UNL A   1      45.244  30.854  28.476  1.00  0.00     0.074 A 
ATOM     38  C   UNL A   1      46.579  31.171  28.013  1.00  0.00     0.031 C 
ATOM     39  C   UNL A   1      44.409  31.745  29.064  1.00  0.00     0.034 A 
BRANCH  26  40
ATOM     40  C   UNL A   1      38.729  29.617  30.126  1.00  0.00     0.023 A 
ATOM     41  C   UNL A   1      38.347  29.376  31.460  1.00  0.00     0.012 A 
ATOM     42  C   UNL A   1      37.838  30.284  29.260  1.00  0.00     0.148 A 
ATOM     43  C   UNL A   1      37.096  29.783  31.923  1.00  0.00     0.002 A 
ATOM     44  C   UNL A   1      36.609  30.721  29.739  1.00  0.00     0.091 A 
ATOM     45  F   UNL A   1      38.217  30.488  27.990  1.00  0.00    -0.205 F 
ATOM     46  C   UNL A   1      36.233  30.466  31.068  1.00  0.00     0.022 A 
BRANCH  44  47
ATOM     47  S   UNL A   1      35.460  31.677  28.742  1.00  0.00     0.127 S 
ATOM     48  O   UNL A   1      34.526  32.164  29.756  1.00  0.00    -0.237 OA
ATOM     49  O   UNL A   1      36.331  32.705  28.172  1.00  0.00    -0.237 OA
ATOM     50  O   UNL A   1      34.894  30.749  27.773  1.00  0.00    -0.744 OA
ENDBRANCH  44  47
ENDBRANCH  26  40
BRANCH  27  51
ATOM     51  C   UNL A   1      47.726  27.450  26.370  1.00  0.00     0.023 A 
ATOM     52  C   UNL A   1      48.831  27.048  27.143  1.00  0.00     0.012 A 
ATOM     53  C   UNL A   1      47.864  27.552  24.971  1.00  0.00     0.148 A 
ATOM     54  C   UNL A   1      50.061  26.789  26.538  1.00  0.00     0.002 A 
ATOM     55  C   UNL A   1      49.074  27.232  24.370  1.00  0.00     0.091 A 
ATOM     56  F   UNL A   1      46.805  27.953  24.253  1.00  0.00    -0.205 F 
ATOM     57  C   UNL A   1      50.180  26.870  25.153  1.00  0.00     0.022 A 
BRANCH  55  58
ATOM     58  S   UNL A   1      49.263  27.168  22.585  1.00  0.00     0.127 S 
ATOM     59  O   UNL A   1      50.706  26.997  22.443  1.00  0.00    -0.237 OA
ATOM     60  O   UNL A   1      48.465  25.992  22.235  1.00  0.00    -0.237 OA
ATOM     61  O   UNL A   1      48.717  28.425  22.093  1.00  0.00    -0.744 OA
ENDBRANCH  55  58
ENDBRANCH  27  51
BRANCH  39  62
ATOM     62  C   UNL A   1      44.916  33.149  29.253  1.00  0.00     0.023 A 
ATOM     63  C   UNL A   1      45.719  33.455  30.370  1.00  0.00     0.012 A 
ATOM     64  C   UNL A   1      44.661  34.145  28.291  1.00  0.00     0.148 A 
ATOM     65  C   UNL A   1      46.237  34.737  30.541  1.00  0.00     0.002 A 
ATOM     66  C   UNL A   1      45.222  35.406  28.440  1.00  0.00     0.091 A 
ATOM     67  F   UNL A   1      43.882  33.836  27.244  1.00  0.00    -0.205 F 
ATOM     68  C   UNL A   1      46.000  35.708  29.570  1.00  0.00     0.022 A 
BRANCH  66  69
ATOM     69  S   UNL A   1      45.051  36.694  27.201  1.00  0.00     0.127 S 
ATOM     70  O   UNL A   1      45.575  37.861  27.910  1.00  0.00    -0.237 OA
ATOM     71  O   UNL A   1      45.909  36.201  26.123  1.00  0.00    -0.237 OA
ATOM     72  O   UNL A   1      43.634  36.754  26.870  1.00  0.00    -0.744 OA
ENDBRANCH  66  69
ENDBRANCH  39  62
ENDBRANCH  13  14
ENDBRANCH   6   8
ENDBRANCH   3   4
ENDBRANCH   2   3
ENDBRANCH   1   2
BRANCH   1  73
ATOM     73  C   UNL A   1      36.379  22.123  24.538  1.00  0.00     0.002 C 
BRANCH  73  74
ATOM     74  C   UNL A   1      35.210  23.079  24.784  1.00  0.00     0.021 C 
BRANCH  74  75
ATOM     75  C   UNL A   1      34.643  23.739  23.530  1.00  0.00     0.116 C 
BRANCH  75  76
ATOM     76  N   UNL A   1      33.826  22.822  22.750  1.00  0.00    -0.352 N 
ATOM     77  C   UNL A   1      32.490  22.558  22.840  1.00  0.00     0.252 C 
ATOM     78  H   UNL A   1      34.307  22.319  22.055  1.00  0.00     0.163 HD
ATOM     79  O   UNL A   1      31.991  21.648  22.185  1.00  0.00    -0.269 OA
BRANCH  77  80
ATOM     80  C   UNL A   1      31.667  23.384  23.760  1.00  0.00     0.056 A 
ATOM     81  C   UNL A   1      31.250  22.830  24.907  1.00  0.00     0.099 A 
ATOM     82  C   UNL A   1      31.324  24.760  23.464  1.00  0.00     0.029 A 
ATOM     83  N   UNL A   1      30.545  23.578  25.818  1.00  0.00    -0.328 N 
ATOM     84  C   UNL A   1      30.675  25.536  24.353  1.00  0.00     0.048 A 
ATOM     85  C   UNL A   1      30.231  24.910  25.648  1.00  0.00     0.255 A 
ATOM     86  H   UNL A   1      30.247  23.136  26.644  1.00  0.00     0.169 HD
ATOM     87  O   UNL A   1      29.618  25.535  26.508  1.00  0.00    -0.269 OA
BRANCH  84  88
ATOM     88  C   UNL A   1      30.515  26.974  24.073  1.00  0.00    -0.006 A 
ATOM     89  C   UNL A   1      31.451  27.912  24.536  1.00  0.00     0.009 A 
ATOM     90  C   UNL A   1      29.373  27.427  23.397  1.00  0.00     0.094 A 
ATOM     91  C   UNL A   1      31.246  29.282  24.344  1.00  0.00     0.008 A 
ATOM     92  C   UNL A   1      29.172  28.801  23.207  1.00  0.00     0.270 A 
ATOM     93  C   UNL A   1      30.104  29.731  23.683  1.00  0.00     0.085 A 
BRANCH  92  94
ATOM     94  N   UNL A   1      27.964  29.269  22.518  1.00  0.00     0.062 N 
ATOM     95  O   UNL A   1      28.101  29.760  21.389  1.00  0.00    -0.258 OA
ATOM     96  O   UNL A   1      26.881  29.145  23.107  1.00  0.00    -0.258 OA
ENDBRANCH  92  94
ENDBRANCH  84  88
ENDBRANCH  77  80
ENDBRANCH  75  76
ENDBRANCH  74  75
ENDBRANCH  73  74
ENDBRANCH   1  73
TORSDOF 18
ENDMDL
MODEL 3
REMARK VINA RESULT:     -12.8      1.654      2.753
REMARK SMILES O=C(NCCCCCCNC(=O)c1c[nH]c(=O)c(-c2cccc([N+](=O)[O-])c2)c1)c1ccc(-c2c3nc(c(-c4cccc(S(=O)(=O)[O-])c4F)c4ccc([nH]4)c(-c4cccc(S(=O)(=O)[O-])c4F)c4nc(c(-c5cccc(S(=O)(=O)[O-])c5F)c5ccc2[nH]5)C=C4)C=C3)cc1
REMARK SMILES IDX 6 1 5 2 4 3 3 4 1 5 2 6 29 8 30 9 91 10 31 11 90 12 32 13
REMARK SMILES IDX 33 14 34 15 84 16 35 17 89 18 83 19 85 20 36 21 88 22 82 23
REMARK SMILES IDX 81 24 37 26 69 27 49 28 68 29 50 30 53 31 67 32 86 33 51 34
REMARK SMILES IDX 52 35 66 37 87 38 54 39 38 40 39 41 47 42 40 43 42 44 48 45
REMARK SMILES IDX 41 46 43 47 44 48 45 49 46 50 70 51 71 52 79 53 72 54 74 55
REMARK SMILES IDX 80 56 73 57 75 58 76 59 77 60 78 61 55 62 56 63 64 64 57 65
REMARK SMILES IDX 59 66 65 67 58 68 60 69 61 70 62 71 63 72 7 73 8 74 9 75
REMARK SMILES IDX 10 76 11 77 12 79 13 80 14 81 28 82 15 83 18 84 16 85 17 87
REMARK SMILES IDX 19 88 20 89 27 90 21 91 23 92 22 93 24 94 25 95 26 96
REMARK H PARENT 3 7 85 25 53 36 10 78 15 86
REMARK Flexibility Score: inf
ROOT
ATOM      1  C   UNL A   1      31.534  30.142  26.039  1.00  0.00     0.002 C 
ENDROOT
BRANCH   1   2
ATOM      2  C   UNL A   1      31.418  31.608  26.460  1.00  0.00     0.021 C 
BRANCH   2   3
ATOM      3  C   UNL A   1      32.677  32.190  27.088  1.00  0.00     0.116 C 
BRANCH   3   4
ATOM      4  N   UNL A   1      32.509  33.584  27.458  1.00  0.00    -0.352 N 
ATOM      5  O   UNL A   1      32.778  35.415  28.742  1.00  0.00    -0.269 OA
ATOM      6  C   UNL A   1      33.184  34.303  28.414  1.00  0.00     0.251 C 
ATOM      7  H   UNL A   1      31.821  34.079  26.957  1.00  0.00     0.163 HD
BRANCH   6   8
ATOM      8  C   UNL A   1      34.385  33.720  29.050  1.00  0.00     0.039 A 
ATOM      9  C   UNL A   1      34.257  32.719  30.018  1.00  0.00     0.014 A 
ATOM     10  C   UNL A   1      35.651  34.165  28.660  1.00  0.00     0.014 A 
ATOM     11  C   UNL A   1      35.386  32.240  30.673  1.00  0.00     0.010 A 
ATOM     12  C   UNL A   1      36.790  33.622  29.263  1.00  0.00     0.010 A 
ATOM     13  C   UNL A   1      36.665  32.662  30.279  1.00  0.00    -0.014 A 
BRANCH  13  14
ATOM     14  C   UNL A   1      37.859  31.978  30.833  1.00  0.00     0.031 A 
ATOM     15  C   UNL A   1      38.593  30.922  30.059  1.00  0.00     0.074 A 
ATOM     16  C   UNL A   1      38.244  32.298  32.086  1.00  0.00     0.049 A 
ATOM     17  N   UNL A   1      39.629  30.212  30.426  1.00  0.00    -0.248 NA
ATOM     18  C   UNL A   1      38.106  30.613  28.706  1.00  0.00     0.031 C 
ATOM     19  C   UNL A   1      37.568  33.274  32.948  1.00  0.00     0.029 A 
ATOM     20  N   UNL A   1      39.270  31.826  32.863  1.00  0.00    -0.354 N 
ATOM     21  C   UNL A   1      39.890  29.342  29.376  1.00  0.00     0.074 A 
ATOM     22  C   UNL A   1      38.911  29.619  28.346  1.00  0.00     0.031 C 
ATOM     23  C   UNL A   1      38.191  33.322  34.132  1.00  0.00     0.029 A 
ATOM     24  C   UNL A   1      39.270  32.343  34.138  1.00  0.00     0.049 A 
ATOM     25  H   UNL A   1      39.940  31.181  32.541  1.00  0.00     0.167 HD
ATOM     26  C   UNL A   1      40.861  28.402  29.285  1.00  0.00     0.034 A 
ATOM     27  C   UNL A   1      40.020  32.033  35.212  1.00  0.00     0.034 A 
ATOM     28  C   UNL A   1      41.851  28.161  30.303  1.00  0.00     0.049 A 
ATOM     29  C   UNL A   1      41.089  30.989  35.069  1.00  0.00     0.074 A 
ATOM     30  C   UNL A   1      42.942  27.312  30.253  1.00  0.00     0.029 A 
ATOM     31  N   UNL A   1      41.853  28.740  31.562  1.00  0.00    -0.354 N 
ATOM     32  N   UNL A   1      41.437  30.308  34.006  1.00  0.00    -0.248 NA
ATOM     33  C   UNL A   1      41.881  30.682  36.267  1.00  0.00     0.031 C 
ATOM     34  C   UNL A   1      43.579  27.343  31.497  1.00  0.00     0.029 A 
ATOM     35  C   UNL A   1      42.903  28.236  32.311  1.00  0.00     0.049 A 
ATOM     36  H   UNL A   1      41.205  29.410  31.877  1.00  0.00     0.167 HD
ATOM     37  C   UNL A   1      42.498  29.505  34.400  1.00  0.00     0.074 A 
ATOM     38  C   UNL A   1      42.759  29.811  35.791  1.00  0.00     0.031 C 
ATOM     39  C   UNL A   1      43.178  28.579  33.682  1.00  0.00     0.034 A 
BRANCH  26  40
ATOM     40  C   UNL A   1      40.935  27.561  28.038  1.00  0.00     0.023 A 
ATOM     41  C   UNL A   1      41.571  28.068  26.887  1.00  0.00     0.012 A 
ATOM     42  C   UNL A   1      40.492  26.223  28.052  1.00  0.00     0.148 A 
ATOM     43  C   UNL A   1      41.753  27.259  25.765  1.00  0.00     0.002 A 
ATOM     44  C   UNL A   1      40.711  25.412  26.945  1.00  0.00     0.091 A 
ATOM     45  F   UNL A   1      39.876  25.768  29.152  1.00  0.00    -0.205 F 
ATOM     46  C   UNL A   1      41.335  25.930  25.798  1.00  0.00     0.022 A 
BRANCH  44  47
ATOM     47  S   UNL A   1      40.283  23.668  26.917  1.00  0.00     0.127 S 
ATOM     48  O   UNL A   1      38.876  23.717  26.520  1.00  0.00    -0.237 OA
ATOM     49  O   UNL A   1      41.187  23.146  25.892  1.00  0.00    -0.237 OA
ATOM     50  O   UNL A   1      40.530  23.168  28.263  1.00  0.00    -0.744 OA
ENDBRANCH  44  47
ENDBRANCH  26  40
BRANCH  27  51
ATOM     51  C   UNL A   1      39.776  32.716  36.513  1.00  0.00     0.023 A 
ATOM     52  C   UNL A   1      40.537  33.849  36.861  1.00  0.00     0.012 A 
ATOM     53  C   UNL A   1      38.778  32.260  37.396  1.00  0.00     0.148 A 
ATOM     54  C   UNL A   1      40.330  34.492  38.081  1.00  0.00     0.002 A 
ATOM     55  C   UNL A   1      38.535  32.943  38.580  1.00  0.00     0.091 A 
ATOM     56  F   UNL A   1      38.075  31.169  37.055  1.00  0.00    -0.205 F 
ATOM     57  C   UNL A   1      39.323  34.047  38.935  1.00  0.00     0.022 A 
BRANCH  55  58
ATOM     58  S   UNL A   1      37.161  32.521  39.659  1.00  0.00     0.127 S 
ATOM     59  O   UNL A   1      37.281  33.534  40.704  1.00  0.00    -0.237 OA
ATOM     60  O   UNL A   1      36.012  32.686  38.768  1.00  0.00    -0.237 OA
ATOM     61  O   UNL A   1      37.402  31.145  40.071  1.00  0.00    -0.744 OA
ENDBRANCH  55  58
ENDBRANCH  27  51
BRANCH  39  62
ATOM     62  C   UNL A   1      44.281  27.832  34.382  1.00  0.00     0.023 A 
ATOM     63  C   UNL A   1      45.580  28.378  34.413  1.00  0.00     0.012 A 
ATOM     64  C   UNL A   1      44.018  26.632  35.070  1.00  0.00     0.148 A 
ATOM     65  C   UNL A   1      46.606  27.728  35.095  1.00  0.00     0.002 A 
ATOM     66  C   UNL A   1      45.033  26.015  35.790  1.00  0.00     0.091 A 
ATOM     67  F   UNL A   1      42.779  26.122  35.014  1.00  0.00    -0.205 F 
ATOM     68  C   UNL A   1      46.330  26.554  35.794  1.00  0.00     0.022 A 
BRANCH  66  69
ATOM     69  S   UNL A   1      44.755  24.553  36.795  1.00  0.00     0.127 S 
ATOM     70  O   UNL A   1      43.700  25.009  37.698  1.00  0.00    -0.237 OA
ATOM     71  O   UNL A   1      44.323  23.572  35.800  1.00  0.00    -0.237 OA
ATOM     72  O   UNL A   1      46.029  24.251  37.432  1.00  0.00    -0.744 OA
ENDBRANCH  66  69
ENDBRANCH  39  62
ENDBRANCH  13  14
ENDBRANCH   6   8
ENDBRANCH   3   4
ENDBRANCH   2   3
ENDBRANCH   1   2
BRANCH   1  73
ATOM     73  C   UNL A   1      32.875  29.746  25.413  1.00  0.00     0.002 C 
BRANCH  73  74
ATOM     74  C   UNL A   1      32.781  28.924  24.125  1.00  0.00     0.021 C 
BRANCH  74  75
ATOM     75  C   UNL A   1      31.475  29.084  23.352  1.00  0.00     0.116 C 
BRANCH  75  76
ATOM     76  N   UNL A   1      31.393  28.174  22.220  1.00  0.00    -0.352 N 
ATOM     77  C   UNL A   1      31.241  26.818  22.206  1.00  0.00     0.252 C 
ATOM     78  H   UNL A   1      31.456  28.598  21.334  1.00  0.00     0.163 HD
ATOM     79  O   UNL A   1      31.329  26.194  21.152  1.00  0.00    -0.269 OA
BRANCH  77  80
ATOM     80  C   UNL A   1      30.989  26.121  23.493  1.00  0.00     0.056 A 
ATOM     81  C   UNL A   1      29.808  26.313  24.096  1.00  0.00     0.099 A 
ATOM     82  C   UNL A   1      31.966  25.236  24.095  1.00  0.00     0.029 A 
ATOM     83  N   UNL A   1      29.506  25.635  25.252  1.00  0.00    -0.328 N 
ATOM     84  C   UNL A   1      31.687  24.522  25.202  1.00  0.00     0.048 A 
ATOM     85  C   UNL A   1      30.347  24.727  25.860  1.00  0.00     0.255 A 
ATOM     86  H   UNL A   1      28.634  25.808  25.673  1.00  0.00     0.169 HD
ATOM     87  O   UNL A   1      30.015  24.133  26.880  1.00  0.00    -0.269 OA
BRANCH  84  88
ATOM     88  C   UNL A   1      32.647  23.504  25.663  1.00  0.00    -0.006 A 
ATOM     89  C   UNL A   1      33.746  23.852  26.465  1.00  0.00     0.009 A 
ATOM     90  C   UNL A   1      32.509  22.175  25.236  1.00  0.00     0.094 A 
ATOM     91  C   UNL A   1      34.701  22.897  26.825  1.00  0.00     0.008 A 
ATOM     92  C   UNL A   1      33.470  21.221  25.599  1.00  0.00     0.270 A 
ATOM     93  C   UNL A   1      34.570  21.579  26.389  1.00  0.00     0.085 A 
BRANCH  92  94
ATOM     94  N   UNL A   1      33.331  19.838  25.131  1.00  0.00     0.062 N 
ATOM     95  O   UNL A   1      32.207  19.320  25.196  1.00  0.00    -0.258 OA
ATOM     96  O   UNL A   1      34.346  19.270  24.701  1.00  0.00    -0.258 OA
ENDBRANCH  92  94
ENDBRANCH  84  88
ENDBRANCH  77  80
ENDBRANCH  75  76
ENDBRANCH  74  75
ENDBRANCH  73  74
ENDBRANCH   1  73
TORSDOF 18
ENDMDL
