MODEL 1
REMARK VINA RESULT:     -12.4      0.000      0.000
REMARK SMILES [NH3+][C@]1(C(=O)NCCCCCCNC(=O)c2ccc(-c3c4nc(c(-c5cccc(S(=O)(=O)[O-])c5F)c5ccc([nH]5)c(-c5cccc(S(=O)(=O)[O-])c5F)c5nc(c(-c6cccc(S(=O)(=O)[O-])c6F)c6ccc3[nH]6)C=C5)C=C4)cc2)CCC[C@@H](Sc2ccc(F)c(F)c2)C1
REMARK SMILES IDX 9 1 8 2 7 3 6 4 5 5 3 6 4 7 2 9 78 10 91 11 79 12 81 13
REMARK SMILES IDX 80 14 1 15 82 19 83 20 84 21 90 22 85 23 88 24 86 25 89 26
REMARK SMILES IDX 87 27 10 28 11 29 12 30 13 31 14 33 15 34 16 35 77 36 17 37
REMARK SMILES IDX 76 38 18 39 19 40 20 41 70 42 21 43 75 44 69 45 71 46 22 47
REMARK SMILES IDX 74 48 68 49 67 50 23 52 55 53 35 54 54 55 36 56 39 57 53 58
REMARK SMILES IDX 72 59 37 60 38 61 52 63 73 64 40 65 24 66 25 67 33 68 26 69
REMARK SMILES IDX 28 70 34 71 27 72 29 73 30 74 31 75 32 76 56 77 57 78 65 79
REMARK SMILES IDX 58 80 60 81 66 82 59 83 61 84 62 85 63 86 64 87 41 88 42 89
REMARK SMILES IDX 50 90 43 91 45 92 51 93 44 94 46 95 47 96 48 97 49 98
REMARK H PARENT 5 8 1 16 1 17 1 18 12 32 71 51 39 62
REMARK Flexibility Score: inf
ROOT
ATOM      1  C   UNL A   1      32.159  27.644  26.751  1.00  0.00     0.002 C 
ENDROOT
BRANCH   1   2
ATOM      2  C   UNL A   1      31.020  27.087  25.906  1.00  0.00     0.002 C 
BRANCH   2   3
ATOM      3  C   UNL A   1      30.637  27.882  24.654  1.00  0.00     0.021 C 
BRANCH   3   4
ATOM      4  C   UNL A   1      30.627  27.157  23.300  1.00  0.00     0.116 C 
BRANCH   4   5
ATOM      5  N   UNL A   1      30.343  25.730  23.365  1.00  0.00    -0.351 N 
ATOM      6  C   UNL A   1      31.074  24.606  23.069  1.00  0.00     0.281 C 
ATOM      7  O   UNL A   1      30.556  23.523  23.365  1.00  0.00    -0.268 OA
ATOM      8  H   UNL A   1      29.435  25.529  23.688  1.00  0.00     0.163 HD
BRANCH   6   9
ATOM      9  C   UNL A   1      32.508  24.674  22.447  1.00  0.00     0.175 C 
ATOM     10  C   UNL A   1      33.406  25.692  23.199  1.00  0.00     0.079 C 
ATOM     11  C   UNL A   1      33.222  23.310  22.368  1.00  0.00     0.093 C 
ATOM     12  C   UNL A   1      33.988  25.184  24.515  1.00  0.00     0.008 C 
ATOM     13  C   UNL A   1      33.909  22.795  23.652  1.00  0.00     0.058 C 
ATOM     14  C   UNL A   1      34.735  23.872  24.345  1.00  0.00     0.015 C 
BRANCH   9  15
ATOM     15  N   UNL A   1      32.348  25.284  21.099  1.00  0.00    -0.345 N 
ATOM     16  H   UNL A   1      31.933  26.212  21.192  1.00  0.00     0.345 HD
ATOM     17  H   UNL A   1      31.740  24.696  20.529  1.00  0.00     0.345 HD
ATOM     18  H   UNL A   1      33.261  25.363  20.651  1.00  0.00     0.345 HD
ENDBRANCH   9  15
BRANCH  13  19
ATOM     19  S   UNL A   1      32.978  21.656  24.790  1.00  0.00    -0.122 SA
BRANCH  19  20
ATOM     20  C   UNL A   1      33.259  19.994  24.227  1.00  0.00     0.011 A 
ATOM     21  C   UNL A   1      32.368  19.300  23.405  1.00  0.00     0.018 A 
ATOM     22  C   UNL A   1      34.352  19.300  24.742  1.00  0.00     0.057 A 
ATOM     23  C   UNL A   1      32.645  17.980  23.013  1.00  0.00     0.043 A 
ATOM     24  C   UNL A   1      34.641  18.001  24.344  1.00  0.00     0.159 A 
ATOM     25  C   UNL A   1      33.797  17.346  23.467  1.00  0.00     0.158 A 
ATOM     26  F   UNL A   1      35.750  17.404  24.808  1.00  0.00    -0.204 F 
ATOM     27  F   UNL A   1      34.069  16.094  23.071  1.00  0.00    -0.204 F 
ENDBRANCH  19  20
ENDBRANCH  13  19
ENDBRANCH   6   9
ENDBRANCH   4   5
ENDBRANCH   3   4
ENDBRANCH   2   3
ENDBRANCH   1   2
BRANCH   1  28
ATOM     28  C   UNL A   1      32.067  29.137  27.051  1.00  0.00     0.021 C 
BRANCH  28  29
ATOM     29  C   UNL A   1      33.120  30.000  26.363  1.00  0.00     0.116 C 
BRANCH  29  30
ATOM     30  N   UNL A   1      33.038  31.400  26.753  1.00  0.00    -0.352 N 
ATOM     31  C   UNL A   1      33.829  32.115  27.614  1.00  0.00     0.251 C 
ATOM     32  H   UNL A   1      32.305  31.908  26.337  1.00  0.00     0.163 HD
ATOM     33  O   UNL A   1      33.489  33.252  27.947  1.00  0.00    -0.269 OA
BRANCH  31  34
ATOM     34  C   UNL A   1      35.074  31.530  28.160  1.00  0.00     0.039 A 
ATOM     35  C   UNL A   1      36.233  32.309  28.165  1.00  0.00     0.014 A 
ATOM     36  C   UNL A   1      35.115  30.219  28.647  1.00  0.00     0.014 A 
ATOM     37  C   UNL A   1      37.414  31.794  28.706  1.00  0.00     0.010 A 
ATOM     38  C   UNL A   1      36.271  29.737  29.260  1.00  0.00     0.010 A 
ATOM     39  C   UNL A   1      37.436  30.514  29.288  1.00  0.00    -0.014 A 
BRANCH  39  40
ATOM     40  C   UNL A   1      38.671  30.012  29.949  1.00  0.00     0.031 A 
ATOM     41  C   UNL A   1      39.059  30.475  31.327  1.00  0.00     0.074 A 
ATOM     42  C   UNL A   1      39.470  29.155  29.282  1.00  0.00     0.049 A 
ATOM     43  N   UNL A   1      40.062  30.084  32.072  1.00  0.00    -0.248 NA
ATOM     44  C   UNL A   1      38.235  31.528  31.942  1.00  0.00     0.031 C 
ATOM     45  C   UNL A   1      39.262  28.707  27.902  1.00  0.00     0.029 A 
ATOM     46  N   UNL A   1      40.620  28.514  29.667  1.00  0.00    -0.354 N 
ATOM     47  C   UNL A   1      40.004  30.854  33.227  1.00  0.00     0.074 A 
ATOM     48  C   UNL A   1      38.891  31.765  33.069  1.00  0.00     0.031 C 
ATOM     49  C   UNL A   1      40.234  27.844  27.568  1.00  0.00     0.029 A 
ATOM     50  C   UNL A   1      41.147  27.695  28.696  1.00  0.00     0.049 A 
ATOM     51  H   UNL A   1      41.030  28.630  30.555  1.00  0.00     0.167 HD
ATOM     52  C   UNL A   1      40.782  30.788  34.335  1.00  0.00     0.034 A 
ATOM     53  C   UNL A   1      42.237  26.903  28.713  1.00  0.00     0.034 A 
ATOM     54  C   UNL A   1      41.868  29.858  34.505  1.00  0.00     0.049 A 
ATOM     55  C   UNL A   1      43.050  26.806  29.974  1.00  0.00     0.074 A 
ATOM     56  C   UNL A   1      42.656  29.649  35.623  1.00  0.00     0.029 A 
ATOM     57  N   UNL A   1      42.330  28.991  33.526  1.00  0.00    -0.354 N 
ATOM     58  N   UNL A   1      42.866  27.409  31.124  1.00  0.00    -0.248 NA
ATOM     59  C   UNL A   1      44.196  25.885  29.955  1.00  0.00     0.031 C 
ATOM     60  C   UNL A   1      43.613  28.677  35.311  1.00  0.00     0.029 A 
ATOM     61  C   UNL A   1      43.401  28.256  34.009  1.00  0.00     0.049 A 
ATOM     62  H   UNL A   1      41.952  28.909  32.621  1.00  0.00     0.167 HD
ATOM     63  C   UNL A   1      43.855  26.923  31.972  1.00  0.00     0.074 A 
ATOM     64  C   UNL A   1      44.612  25.948  31.212  1.00  0.00     0.031 C 
ATOM     65  C   UNL A   1      44.126  27.265  33.256  1.00  0.00     0.034 A 
BRANCH  52  66
ATOM     66  C   UNL A   1      40.453  31.714  35.479  1.00  0.00     0.023 A 
ATOM     67  C   UNL A   1      41.259  32.848  35.710  1.00  0.00     0.012 A 
ATOM     68  C   UNL A   1      39.316  31.502  36.284  1.00  0.00     0.148 A 
ATOM     69  C   UNL A   1      40.961  33.736  36.743  1.00  0.00     0.002 A 
ATOM     70  C   UNL A   1      39.000  32.416  37.283  1.00  0.00     0.091 A 
ATOM     71  F   UNL A   1      38.572  30.409  36.065  1.00  0.00    -0.205 F 
ATOM     72  C   UNL A   1      39.827  33.526  37.521  1.00  0.00     0.022 A 
BRANCH  70  73
ATOM     73  S   UNL A   1      37.517  32.280  38.288  1.00  0.00     0.127 S 
ATOM     74  O   UNL A   1      36.582  33.128  37.548  1.00  0.00    -0.237 OA
ATOM     75  O   UNL A   1      37.227  30.847  38.214  1.00  0.00    -0.237 OA
ATOM     76  O   UNL A   1      37.882  32.759  39.612  1.00  0.00    -0.744 OA
ENDBRANCH  70  73
ENDBRANCH  52  66
BRANCH  53  77
ATOM     77  C   UNL A   1      42.579  26.083  27.517  1.00  0.00     0.023 A 
ATOM     78  C   UNL A   1      43.379  26.636  26.499  1.00  0.00     0.012 A 
ATOM     79  C   UNL A   1      42.141  24.750  27.399  1.00  0.00     0.148 A 
ATOM     80  C   UNL A   1      43.707  25.889  25.367  1.00  0.00     0.002 A 
ATOM     81  C   UNL A   1      42.521  23.992  26.297  1.00  0.00     0.091 A 
ATOM     82  F   UNL A   1      41.371  24.245  28.372  1.00  0.00    -0.205 F 
ATOM     83  C   UNL A   1      43.289  24.565  25.271  1.00  0.00     0.022 A 
BRANCH  81  84
ATOM     84  S   UNL A   1      42.143  22.241  26.162  1.00  0.00     0.127 S 
ATOM     85  O   UNL A   1      40.684  22.258  26.068  1.00  0.00    -0.237 OA
ATOM     86  O   UNL A   1      42.835  21.879  24.923  1.00  0.00    -0.237 OA
ATOM     87  O   UNL A   1      42.695  21.626  27.357  1.00  0.00    -0.744 OA
ENDBRANCH  81  84
ENDBRANCH  53  77
BRANCH  65  88
ATOM     88  C   UNL A   1      45.282  26.569  33.927  1.00  0.00     0.023 A 
ATOM     89  C   UNL A   1      46.568  27.146  33.882  1.00  0.00     0.012 A 
ATOM     90  C   UNL A   1      45.092  25.365  34.633  1.00  0.00     0.148 A 
ATOM     91  C   UNL A   1      47.653  26.512  34.486  1.00  0.00     0.002 A 
ATOM     92  C   UNL A   1      46.169  24.766  35.277  1.00  0.00     0.091 A 
ATOM     93  F   UNL A   1      43.867  24.819  34.651  1.00  0.00    -0.205 F 
ATOM     94  C   UNL A   1      47.452  25.328  35.191  1.00  0.00     0.022 A 
BRANCH  92  95
ATOM     95  S   UNL A   1      45.984  23.291  36.287  1.00  0.00     0.127 S 
ATOM     96  O   UNL A   1      45.329  23.827  37.479  1.00  0.00    -0.237 OA
ATOM     97  O   UNL A   1      45.131  22.445  35.451  1.00  0.00    -0.237 OA
ATOM     98  O   UNL A   1      47.332  22.775  36.488  1.00  0.00    -0.744 OA
ENDBRANCH  92  95
ENDBRANCH  65  88
ENDBRANCH  39  40
ENDBRANCH  31  34
ENDBRANCH  29  30
ENDBRANCH  28  29
ENDBRANCH   1  28
TORSDOF 19
ENDMDL
MODEL 2
REMARK VINA RESULT:     -12.4      2.158      2.448
REMARK SMILES [NH3+][C@]1(C(=O)NCCCCCCNC(=O)c2ccc(-c3c4nc(c(-c5cccc(S(=O)(=O)[O-])c5F)c5ccc([nH]5)c(-c5cccc(S(=O)(=O)[O-])c5F)c5nc(c(-c6cccc(S(=O)(=O)[O-])c6F)c6ccc3[nH]6)C=C5)C=C4)cc2)CCC[C@@H](Sc2ccc(F)c(F)c2)C1
REMARK SMILES IDX 9 1 8 2 7 3 6 4 5 5 3 6 4 7 2 9 78 10 91 11 79 12 81 13
REMARK SMILES IDX 80 14 1 15 82 19 83 20 84 21 90 22 85 23 88 24 86 25 89 26
REMARK SMILES IDX 87 27 10 28 11 29 12 30 13 31 14 33 15 34 16 35 77 36 17 37
REMARK SMILES IDX 76 38 18 39 19 40 20 41 70 42 21 43 75 44 69 45 71 46 22 47
REMARK SMILES IDX 74 48 68 49 67 50 23 52 55 53 35 54 54 55 36 56 39 57 53 58
REMARK SMILES IDX 72 59 37 60 38 61 52 63 73 64 40 65 24 66 25 67 33 68 26 69
REMARK SMILES IDX 28 70 34 71 27 72 29 73 30 74 31 75 32 76 56 77 57 78 65 79
REMARK SMILES IDX 58 80 60 81 66 82 59 83 61 84 62 85 63 86 64 87 41 88 42 89
REMARK SMILES IDX 50 90 43 91 45 92 51 93 44 94 46 95 47 96 48 97 49 98
REMARK H PARENT 5 8 1 16 1 17 1 18 12 32 71 51 39 62
REMARK Flexibility Score: inf
ROOT
ATOM      1  C   UNL A   1      31.790  28.047  26.913  1.00  0.00     0.002 C 
ENDROOT
BRANCH   1   2
ATOM      2  C   UNL A   1      31.100  27.288  25.787  1.00  0.00     0.002 C 
BRANCH   2   3
ATOM      3  C   UNL A   1      30.825  28.067  24.497  1.00  0.00     0.021 C 
BRANCH   3   4
ATOM      4  C   UNL A   1      30.815  27.300  23.166  1.00  0.00     0.116 C 
BRANCH   4   5
ATOM      5  N   UNL A   1      30.479  25.886  23.269  1.00  0.00    -0.351 N 
ATOM      6  C   UNL A   1      31.162  24.730  22.984  1.00  0.00     0.281 C 
ATOM      7  O   UNL A   1      30.611  23.674  23.314  1.00  0.00    -0.268 OA
ATOM      8  H   UNL A   1      29.571  25.728  23.616  1.00  0.00     0.163 HD
BRANCH   6   9
ATOM      9  C   UNL A   1      32.583  24.730  22.330  1.00  0.00     0.175 C 
ATOM     10  C   UNL A   1      33.545  25.705  23.062  1.00  0.00     0.079 C 
ATOM     11  C   UNL A   1      33.230  23.334  22.236  1.00  0.00     0.093 C 
ATOM     12  C   UNL A   1      34.131  25.169  24.365  1.00  0.00     0.008 C 
ATOM     13  C   UNL A   1      33.920  22.787  23.506  1.00  0.00     0.058 C 
ATOM     14  C   UNL A   1      34.810  23.823  24.180  1.00  0.00     0.015 C 
BRANCH   9  15
ATOM     15  N   UNL A   1      32.423  25.347  20.985  1.00  0.00    -0.345 N 
ATOM     16  H   UNL A   1      32.369  24.613  20.278  1.00  0.00     0.345 HD
ATOM     17  H   UNL A   1      33.222  25.950  20.789  1.00  0.00     0.345 HD
ATOM     18  H   UNL A   1      31.566  25.901  20.965  1.00  0.00     0.345 HD
ENDBRANCH   9  15
BRANCH  13  19
ATOM     19  S   UNL A   1      32.961  21.693  24.664  1.00  0.00    -0.122 SA
BRANCH  19  20
ATOM     20  C   UNL A   1      33.238  20.011  24.160  1.00  0.00     0.011 A 
ATOM     21  C   UNL A   1      32.343  19.290  23.365  1.00  0.00     0.018 A 
ATOM     22  C   UNL A   1      34.329  19.333  24.698  1.00  0.00     0.057 A 
ATOM     23  C   UNL A   1      32.616  17.957  23.019  1.00  0.00     0.043 A 
ATOM     24  C   UNL A   1      34.615  18.020  24.345  1.00  0.00     0.159 A 
ATOM     25  C   UNL A   1      33.767  17.337  23.493  1.00  0.00     0.158 A 
ATOM     26  F   UNL A   1      35.723  17.437  24.829  1.00  0.00    -0.204 F 
ATOM     27  F   UNL A   1      34.036  16.071  23.141  1.00  0.00    -0.204 F 
ENDBRANCH  19  20
ENDBRANCH  13  19
ENDBRANCH   6   9
ENDBRANCH   4   5
ENDBRANCH   3   4
ENDBRANCH   2   3
ENDBRANCH   1   2
BRANCH   1  28
ATOM     28  C   UNL A   1      33.314  27.976  26.899  1.00  0.00     0.021 C 
BRANCH  28  29
ATOM     29  C   UNL A   1      34.004  29.061  26.078  1.00  0.00     0.116 C 
BRANCH  29  30
ATOM     30  N   UNL A   1      33.874  30.382  26.673  1.00  0.00    -0.352 N 
ATOM     31  C   UNL A   1      34.612  30.969  27.668  1.00  0.00     0.251 C 
ATOM     32  H   UNL A   1      33.147  30.936  26.308  1.00  0.00     0.163 HD
ATOM     33  O   UNL A   1      34.232  32.034  28.156  1.00  0.00    -0.269 OA
BRANCH  31  34
ATOM     34  C   UNL A   1      35.846  30.326  28.172  1.00  0.00     0.039 A 
ATOM     35  C   UNL A   1      37.017  30.446  27.420  1.00  0.00     0.014 A 
ATOM     36  C   UNL A   1      35.857  29.595  29.365  1.00  0.00     0.014 A 
ATOM     37  C   UNL A   1      38.205  29.879  27.889  1.00  0.00     0.010 A 
ATOM     38  C   UNL A   1      37.059  29.101  29.871  1.00  0.00     0.010 A 
ATOM     39  C   UNL A   1      38.245  29.228  29.135  1.00  0.00    -0.014 A 
BRANCH  39  40
ATOM     40  C   UNL A   1      39.533  28.714  29.672  1.00  0.00     0.031 A 
ATOM     41  C   UNL A   1      40.167  29.325  30.892  1.00  0.00     0.074 A 
ATOM     42  C   UNL A   1      40.156  27.705  29.029  1.00  0.00     0.049 A 
ATOM     43  N   UNL A   1      41.248  28.953  31.529  1.00  0.00    -0.248 NA
ATOM     44  C   UNL A   1      39.524  30.521  31.459  1.00  0.00     0.031 C 
ATOM     45  C   UNL A   1      39.700  27.093  27.779  1.00  0.00     0.029 A 
ATOM     46  N   UNL A   1      41.308  27.024  29.331  1.00  0.00    -0.354 N 
ATOM     47  C   UNL A   1      41.428  29.876  32.552  1.00  0.00     0.074 A 
ATOM     48  C   UNL A   1      40.367  30.852  32.427  1.00  0.00     0.031 C 
ATOM     49  C   UNL A   1      40.546  26.109  27.437  1.00  0.00     0.029 A 
ATOM     50  C   UNL A   1      41.616  26.035  28.425  1.00  0.00     0.049 A 
ATOM     51  H   UNL A   1      41.861  27.224  30.120  1.00  0.00     0.167 HD
ATOM     52  C   UNL A   1      42.367  29.894  33.529  1.00  0.00     0.034 A 
ATOM     53  C   UNL A   1      42.640  25.160  28.398  1.00  0.00     0.034 A 
ATOM     54  C   UNL A   1      43.402  28.903  33.672  1.00  0.00     0.049 A 
ATOM     55  C   UNL A   1      43.636  25.164  29.524  1.00  0.00     0.074 A 
ATOM     56  C   UNL A   1      44.343  28.781  34.679  1.00  0.00     0.029 A 
ATOM     57  N   UNL A   1      43.642  27.872  32.776  1.00  0.00    -0.354 N 
ATOM     58  N   UNL A   1      43.680  25.933  30.585  1.00  0.00    -0.248 NA
ATOM     59  C   UNL A   1      44.700  24.151  29.472  1.00  0.00     0.031 C 
ATOM     60  C   UNL A   1      45.171  27.694  34.377  1.00  0.00     0.029 A 
ATOM     61  C   UNL A   1      44.725  27.118  33.198  1.00  0.00     0.049 A 
ATOM     62  H   UNL A   1      43.119  27.701  31.960  1.00  0.00     0.167 HD
ATOM     63  C   UNL A   1      44.757  25.482  31.339  1.00  0.00     0.074 A 
ATOM     64  C   UNL A   1      45.316  24.349  30.630  1.00  0.00     0.031 C 
ATOM     65  C   UNL A   1      45.252  25.972  32.503  1.00  0.00     0.034 A 
BRANCH  52  66
ATOM     66  C   UNL A   1      42.288  30.994  34.558  1.00  0.00     0.023 A 
ATOM     67  C   UNL A   1      41.575  30.775  35.755  1.00  0.00     0.012 A 
ATOM     68  C   UNL A   1      42.969  32.214  34.375  1.00  0.00     0.148 A 
ATOM     69  C   UNL A   1      41.509  31.764  36.736  1.00  0.00     0.002 A 
ATOM     70  C   UNL A   1      42.937  33.177  35.377  1.00  0.00     0.091 A 
ATOM     71  F   UNL A   1      43.626  32.413  33.223  1.00  0.00    -0.205 F 
ATOM     72  C   UNL A   1      42.199  32.959  36.552  1.00  0.00     0.022 A 
BRANCH  70  73
ATOM     73  S   UNL A   1      43.856  34.717  35.272  1.00  0.00     0.127 S 
ATOM     74  O   UNL A   1      43.084  35.452  34.269  1.00  0.00    -0.237 OA
ATOM     75  O   UNL A   1      43.737  35.240  36.633  1.00  0.00    -0.237 OA
ATOM     76  O   UNL A   1      45.208  34.353  34.876  1.00  0.00    -0.744 OA
ENDBRANCH  70  73
ENDBRANCH  52  66
BRANCH  53  77
ATOM     77  C   UNL A   1      42.730  24.155  27.301  1.00  0.00     0.023 A 
ATOM     78  C   UNL A   1      43.522  24.430  26.169  1.00  0.00     0.012 A 
ATOM     79  C   UNL A   1      42.060  22.920  27.387  1.00  0.00     0.148 A 
ATOM     80  C   UNL A   1      43.618  23.508  25.127  1.00  0.00     0.002 A 
ATOM     81  C   UNL A   1      42.208  21.981  26.373  1.00  0.00     0.091 A 
ATOM     82  F   UNL A   1      41.302  22.682  28.466  1.00  0.00    -0.205 F 
ATOM     83  C   UNL A   1      42.971  22.279  25.233  1.00  0.00     0.022 A 
BRANCH  81  84
ATOM     84  S   UNL A   1      41.523  20.324  26.494  1.00  0.00     0.127 S 
ATOM     85  O   UNL A   1      40.089  20.586  26.384  1.00  0.00    -0.237 OA
ATOM     86  O   UNL A   1      42.120  19.667  25.329  1.00  0.00    -0.237 OA
ATOM     87  O   UNL A   1      41.977  19.803  27.772  1.00  0.00    -0.744 OA
ENDBRANCH  81  84
ENDBRANCH  53  77
BRANCH  65  88
ATOM     88  C   UNL A   1      46.453  25.275  33.091  1.00  0.00     0.023 A 
ATOM     89  C   UNL A   1      47.750  25.731  32.778  1.00  0.00     0.012 A 
ATOM     90  C   UNL A   1      46.299  24.194  33.981  1.00  0.00     0.148 A 
ATOM     91  C   UNL A   1      48.874  25.092  33.302  1.00  0.00     0.002 A 
ATOM     92  C   UNL A   1      47.422  23.596  34.540  1.00  0.00     0.091 A 
ATOM     93  F   UNL A   1      45.059  23.761  34.254  1.00  0.00    -0.205 F 
ATOM     94  C   UNL A   1      48.710  24.032  34.189  1.00  0.00     0.022 A 
BRANCH  92  95
ATOM     95  S   UNL A   1      47.303  22.287  35.765  1.00  0.00     0.127 S 
ATOM     96  O   UNL A   1      46.674  22.983  36.885  1.00  0.00    -0.237 OA
ATOM     97  O   UNL A   1      46.445  21.309  35.095  1.00  0.00    -0.237 OA
ATOM     98  O   UNL A   1      48.668  21.832  35.994  1.00  0.00    -0.744 OA
ENDBRANCH  92  95
ENDBRANCH  65  88
ENDBRANCH  39  40
ENDBRANCH  31  34
ENDBRANCH  29  30
ENDBRANCH  28  29
ENDBRANCH   1  28
TORSDOF 19
ENDMDL
MODEL 3
REMARK VINA RESULT:     -12.3      1.549      1.961
REMARK SMILES [NH3+][C@]1(C(=O)NCCCCCCNC(=O)c2ccc(-c3c4nc(c(-c5cccc(S(=O)(=O)[O-])c5F)c5ccc([nH]5)c(-c5cccc(S(=O)(=O)[O-])c5F)c5nc(c(-c6cccc(S(=O)(=O)[O-])c6F)c6ccc3[nH]6)C=C5)C=C4)cc2)CCC[C@@H](Sc2ccc(F)c(F)c2)C1
REMARK SMILES IDX 9 1 8 2 7 3 6 4 5 5 3 6 4 7 2 9 78 10 91 11 79 12 81 13
REMARK SMILES IDX 80 14 1 15 82 19 83 20 84 21 90 22 85 23 88 24 86 25 89 26
REMARK SMILES IDX 87 27 10 28 11 29 12 30 13 31 14 33 15 34 16 35 77 36 17 37
REMARK SMILES IDX 76 38 18 39 19 40 20 41 70 42 21 43 75 44 69 45 71 46 22 47
REMARK SMILES IDX 74 48 68 49 67 50 23 52 55 53 35 54 54 55 36 56 39 57 53 58
REMARK SMILES IDX 72 59 37 60 38 61 52 63 73 64 40 65 24 66 25 67 33 68 26 69
REMARK SMILES IDX 28 70 34 71 27 72 29 73 30 74 31 75 32 76 56 77 57 78 65 79
REMARK SMILES IDX 58 80 60 81 66 82 59 83 61 84 62 85 63 86 64 87 41 88 42 89
REMARK SMILES IDX 50 90 43 91 45 92 51 93 44 94 46 95 47 96 48 97 49 98
REMARK H PARENT 5 8 1 16 1 17 1 18 12 32 71 51 39 62
REMARK Flexibility Score: inf
ROOT
ATOM      1  C   UNL A   1      31.816  28.053  26.195  1.00  0.00     0.002 C 
ENDROOT
BRANCH   1   2
ATOM      2  C   UNL A   1      31.803  28.605  24.775  1.00  0.00     0.002 C 
BRANCH   2   3
ATOM      3  C   UNL A   1      30.544  28.341  23.944  1.00  0.00     0.021 C 
BRANCH   3   4
ATOM      4  C   UNL A   1      30.634  27.349  22.775  1.00  0.00     0.116 C 
BRANCH   4   5
ATOM      5  N   UNL A   1      30.402  25.954  23.127  1.00  0.00    -0.351 N 
ATOM      6  C   UNL A   1      31.158  24.813  23.018  1.00  0.00     0.281 C 
ATOM      7  O   UNL A   1      30.691  23.796  23.541  1.00  0.00    -0.268 OA
ATOM      8  H   UNL A   1      29.516  25.798  23.527  1.00  0.00     0.163 HD
BRANCH   6   9
ATOM      9  C   UNL A   1      32.561  24.796  22.325  1.00  0.00     0.175 C 
ATOM     10  C   UNL A   1      33.557  25.752  23.035  1.00  0.00     0.079 C 
ATOM     11  C   UNL A   1      33.183  23.391  22.206  1.00  0.00     0.093 C 
ATOM     12  C   UNL A   1      34.171  25.200  24.319  1.00  0.00     0.008 C 
ATOM     13  C   UNL A   1      33.900  22.826  23.453  1.00  0.00     0.058 C 
ATOM     14  C   UNL A   1      34.824  23.845  24.108  1.00  0.00     0.015 C 
BRANCH   9  15
ATOM     15  N   UNL A   1      32.372  25.423  20.988  1.00  0.00    -0.345 N 
ATOM     16  H   UNL A   1      31.641  26.132  21.045  1.00  0.00     0.345 HD
ATOM     17  H   UNL A   1      32.102  24.709  20.312  1.00  0.00     0.345 HD
ATOM     18  H   UNL A   1      33.245  25.859  20.691  1.00  0.00     0.345 HD
ENDBRANCH   9  15
BRANCH  13  19
ATOM     19  S   UNL A   1      32.957  21.740  24.632  1.00  0.00    -0.122 SA
BRANCH  19  20
ATOM     20  C   UNL A   1      33.226  20.055  24.136  1.00  0.00     0.011 A 
ATOM     21  C   UNL A   1      32.332  19.337  23.338  1.00  0.00     0.018 A 
ATOM     22  C   UNL A   1      34.310  19.372  24.683  1.00  0.00     0.057 A 
ATOM     23  C   UNL A   1      32.599  18.001  22.999  1.00  0.00     0.043 A 
ATOM     24  C   UNL A   1      34.589  18.056  24.337  1.00  0.00     0.159 A 
ATOM     25  C   UNL A   1      33.743  17.375  23.483  1.00  0.00     0.158 A 
ATOM     26  F   UNL A   1      35.691  17.468  24.830  1.00  0.00    -0.204 F 
ATOM     27  F   UNL A   1      34.006  16.106  23.137  1.00  0.00    -0.204 F 
ENDBRANCH  19  20
ENDBRANCH  13  19
ENDBRANCH   6   9
ENDBRANCH   4   5
ENDBRANCH   3   4
ENDBRANCH   2   3
ENDBRANCH   1   2
BRANCH   1  28
ATOM     28  C   UNL A   1      33.191  27.999  26.853  1.00  0.00     0.021 C 
BRANCH  28  29
ATOM     29  C   UNL A   1      34.171  29.073  26.393  1.00  0.00     0.116 C 
BRANCH  29  30
ATOM     30  N   UNL A   1      33.840  30.392  26.909  1.00  0.00    -0.352 N 
ATOM     31  C   UNL A   1      34.483  31.148  27.854  1.00  0.00     0.251 C 
ATOM     32  H   UNL A   1      33.033  30.803  26.522  1.00  0.00     0.163 HD
ATOM     33  O   UNL A   1      33.944  32.170  28.283  1.00  0.00    -0.269 OA
BRANCH  31  34
ATOM     34  C   UNL A   1      35.806  30.739  28.377  1.00  0.00     0.039 A 
ATOM     35  C   UNL A   1      35.859  29.733  29.345  1.00  0.00     0.014 A 
ATOM     36  C   UNL A   1      36.987  31.346  27.938  1.00  0.00     0.014 A 
ATOM     37  C   UNL A   1      37.096  29.303  29.831  1.00  0.00     0.010 A 
ATOM     38  C   UNL A   1      38.223  30.859  28.363  1.00  0.00     0.010 A 
ATOM     39  C   UNL A   1      38.292  29.839  29.322  1.00  0.00    -0.014 A 
BRANCH  39  40
ATOM     40  C   UNL A   1      39.606  29.306  29.772  1.00  0.00     0.031 A 
ATOM     41  C   UNL A   1      40.353  29.940  30.915  1.00  0.00     0.074 A 
ATOM     42  C   UNL A   1      40.149  28.259  29.119  1.00  0.00     0.049 A 
ATOM     43  N   UNL A   1      41.472  29.560  31.477  1.00  0.00    -0.248 NA
ATOM     44  C   UNL A   1      39.789  31.174  31.487  1.00  0.00     0.031 C 
ATOM     45  C   UNL A   1      39.577  27.618  27.932  1.00  0.00     0.029 A 
ATOM     46  N   UNL A   1      41.303  27.556  29.352  1.00  0.00    -0.354 N 
ATOM     47  C   UNL A   1      41.757  30.512  32.448  1.00  0.00     0.074 A 
ATOM     48  C   UNL A   1      40.715  31.513  32.372  1.00  0.00     0.031 C 
ATOM     49  C   UNL A   1      40.367  26.599  27.559  1.00  0.00     0.029 A 
ATOM     50  C   UNL A   1      41.512  26.528  28.461  1.00  0.00     0.049 A 
ATOM     51  H   UNL A   1      41.924  27.767  30.087  1.00  0.00     0.167 HD
ATOM     52  C   UNL A   1      42.773  30.536  33.345  1.00  0.00     0.034 A 
ATOM     53  C   UNL A   1      42.507  25.623  28.383  1.00  0.00     0.034 A 
ATOM     54  C   UNL A   1      43.790  29.521  33.440  1.00  0.00     0.049 A 
ATOM     55  C   UNL A   1      43.591  25.638  29.426  1.00  0.00     0.074 A 
ATOM     56  C   UNL A   1      44.806  29.406  34.373  1.00  0.00     0.029 A 
ATOM     57  N   UNL A   1      43.930  28.454  32.566  1.00  0.00    -0.354 N 
ATOM     58  N   UNL A   1      43.740  26.441  30.451  1.00  0.00    -0.248 NA
ATOM     59  C   UNL A   1      44.620  24.594  29.325  1.00  0.00     0.031 C 
ATOM     60  C   UNL A   1      45.578  28.286  34.045  1.00  0.00     0.029 A 
ATOM     61  C   UNL A   1      45.024  27.684  32.927  1.00  0.00     0.049 A 
ATOM     62  H   UNL A   1      43.338  28.270  31.802  1.00  0.00     0.167 HD
ATOM     63  C   UNL A   1      44.863  25.985  31.132  1.00  0.00     0.074 A 
ATOM     64  C   UNL A   1      45.333  24.813  30.422  1.00  0.00     0.031 C 
ATOM     65  C   UNL A   1      45.463  26.500  32.234  1.00  0.00     0.034 A 
BRANCH  52  66
ATOM     66  C   UNL A   1      42.806  31.672  34.336  1.00  0.00     0.023 A 
ATOM     67  C   UNL A   1      43.416  32.891  33.976  1.00  0.00     0.012 A 
ATOM     68  C   UNL A   1      42.180  31.560  35.594  1.00  0.00     0.148 A 
ATOM     69  C   UNL A   1      43.436  33.967  34.863  1.00  0.00     0.002 A 
ATOM     70  C   UNL A   1      42.164  32.652  36.455  1.00  0.00     0.091 A 
ATOM     71  F   UNL A   1      41.621  30.388  35.928  1.00  0.00    -0.205 F 
ATOM     72  C   UNL A   1      42.801  33.851  36.096  1.00  0.00     0.022 A 
BRANCH  70  73
ATOM     73  S   UNL A   1      41.304  32.631  38.032  1.00  0.00     0.127 S 
ATOM     74  O   UNL A   1      41.434  34.026  38.456  1.00  0.00    -0.237 OA
ATOM     75  O   UNL A   1      39.949  32.240  37.638  1.00  0.00    -0.237 OA
ATOM     76  O   UNL A   1      42.002  31.659  38.858  1.00  0.00    -0.744 OA
ENDBRANCH  70  73
ENDBRANCH  52  66
BRANCH  53  77
ATOM     77  C   UNL A   1      42.482  24.580  27.320  1.00  0.00     0.023 A 
ATOM     78  C   UNL A   1      43.326  24.708  26.199  1.00  0.00     0.012 A 
ATOM     79  C   UNL A   1      41.651  23.449  27.428  1.00  0.00     0.148 A 
ATOM     80  C   UNL A   1      43.316  23.747  25.188  1.00  0.00     0.002 A 
ATOM     81  C   UNL A   1      41.690  22.465  26.447  1.00  0.00     0.091 A 
ATOM     82  F   UNL A   1      40.847  23.350  28.496  1.00  0.00    -0.205 F 
ATOM     83  C   UNL A   1      42.507  22.621  25.316  1.00  0.00     0.022 A 
BRANCH  81  84
ATOM     84  S   UNL A   1      40.786  20.920  26.602  1.00  0.00     0.127 S 
ATOM     85  O   UNL A   1      39.468  21.294  26.092  1.00  0.00    -0.237 OA
ATOM     86  O   UNL A   1      41.555  20.034  25.726  1.00  0.00    -0.237 OA
ATOM     87  O   UNL A   1      40.846  20.569  28.011  1.00  0.00    -0.744 OA
ENDBRANCH  81  84
ENDBRANCH  53  77
BRANCH  65  88
ATOM     88  C   UNL A   1      46.689  25.790  32.749  1.00  0.00     0.023 A 
ATOM     89  C   UNL A   1      47.966  26.182  32.300  1.00  0.00     0.012 A 
ATOM     90  C   UNL A   1      46.581  24.760  33.704  1.00  0.00     0.148 A 
ATOM     91  C   UNL A   1      49.112  25.530  32.755  1.00  0.00     0.002 A 
ATOM     92  C   UNL A   1      47.731  24.148  34.191  1.00  0.00     0.091 A 
ATOM     93  F   UNL A   1      45.358  24.385  34.107  1.00  0.00    -0.205 F 
ATOM     94  C   UNL A   1      48.995  24.520  33.707  1.00  0.00     0.022 A 
BRANCH  92  95
ATOM     95  S   UNL A   1      47.681  22.906  35.489  1.00  0.00     0.127 S 
ATOM     96  O   UNL A   1      46.955  21.820  34.833  1.00  0.00    -0.237 OA
ATOM     97  O   UNL A   1      49.101  22.639  35.719  1.00  0.00    -0.237 OA
ATOM     98  O   UNL A   1      46.996  23.531  36.612  1.00  0.00    -0.744 OA
ENDBRANCH  92  95
ENDBRANCH  65  88
ENDBRANCH  39  40
ENDBRANCH  31  34
ENDBRANCH  29  30
ENDBRANCH  28  29
ENDBRANCH   1  28
TORSDOF 19
ENDMDL
