MODEL 1
REMARK VINA RESULT:     -10.7      0.000      0.000
REMARK SMILES C[C@@H]1C[C@H]([NH3+])CN(S(=O)(=O)CCCC(=O)NCCCCCCNC(=O)c2ccc(-c3c4nc(c(-c5cccc(S(=O)(=O)[O-])c5F)c5ccc([nH]5)c(-c5cccc(S(=O)(=O)[O-])c5F)c5nc(c(-c6cccc(S(=O)(=O)[O-])c6F)c6ccc3[nH]6)C=C5)C=C4)cc2)C1
REMARK SMILES IDX 18 1 17 2 16 3 14 4 15 5 13 7 12 8 11 9 8 10 9 11 10 12 7 13
REMARK SMILES IDX 1 14 2 15 3 16 89 17 4 18 6 19 5 20 19 24 20 25 21 26 22 27
REMARK SMILES IDX 23 28 24 29 25 31 26 32 27 33 88 34 28 35 87 36 29 37 30 38
REMARK SMILES IDX 31 39 81 40 32 41 86 42 80 43 82 44 33 45 85 46 79 47 78 48
REMARK SMILES IDX 34 50 66 51 46 52 65 53 47 54 50 55 64 56 83 57 48 58 49 59
REMARK SMILES IDX 63 61 84 62 51 63 35 64 36 65 44 66 37 67 39 68 45 69 38 70
REMARK SMILES IDX 40 71 41 72 42 73 43 74 67 75 68 76 76 77 69 78 71 79 77 80
REMARK SMILES IDX 70 81 72 82 73 83 74 84 75 85 52 86 53 87 61 88 54 89 56 90
REMARK SMILES IDX 62 91 55 92 57 93 58 94 59 95 60 96
REMARK H PARENT 16 6 5 21 5 22 5 23 23 30 82 49 50 60
REMARK Flexibility Score: inf
ROOT
ATOM      1  C   UNL A   1      31.930  23.058  22.928  1.00  0.00     0.021 C 
ENDROOT
BRANCH   1   2
ATOM      2  C   UNL A   1      30.997  23.913  23.767  1.00  0.00     0.116 C 
BRANCH   2   3
ATOM      3  N   UNL A   1      30.791  23.469  25.122  1.00  0.00    -0.356 N 
ATOM      4  C   UNL A   1      30.856  24.158  26.291  1.00  0.00     0.220 C 
ATOM      5  O   UNL A   1      30.119  23.755  27.199  1.00  0.00    -0.275 OA
ATOM      6  H   UNL A   1      30.566  22.515  25.216  1.00  0.00     0.163 HD
BRANCH   4   7
ATOM      7  C   UNL A   1      31.707  25.406  26.528  1.00  0.00     0.101 C 
BRANCH   7   8
ATOM      8  C   UNL A   1      31.050  26.768  26.685  1.00  0.00     0.027 C 
BRANCH   8   9
ATOM      9  C   UNL A   1      31.800  27.921  27.323  1.00  0.00     0.155 C 
BRANCH   9  10
ATOM     10  S   UNL A   1      32.549  29.233  26.350  1.00  0.00     0.214 S 
ATOM     11  O   UNL A   1      33.974  29.161  26.633  1.00  0.00    -0.212 OA
ATOM     12  O   UNL A   1      31.804  30.436  26.647  1.00  0.00    -0.212 OA
BRANCH  10  13
ATOM     13  N   UNL A   1      32.407  28.986  24.645  1.00  0.00    -0.196 NA
ATOM     14  C   UNL A   1      34.103  28.227  21.895  1.00  0.00     0.009 C 
ATOM     15  C   UNL A   1      33.202  27.374  22.795  1.00  0.00     0.007 C 
ATOM     16  C   UNL A   1      31.762  27.279  22.283  1.00  0.00     0.071 C 
ATOM     17  C   UNL A   1      33.274  27.786  24.275  1.00  0.00     0.106 C 
ATOM     18  C   UNL A   1      30.927  28.500  22.638  1.00  0.00     0.196 C 
ATOM     19  C   UNL A   1      31.016  28.736  24.155  1.00  0.00     0.167 C 
BRANCH  18  20
ATOM     20  N   UNL A   1      31.331  29.682  21.861  1.00  0.00    -0.354 N 
ATOM     21  H   UNL A   1      30.602  30.393  21.919  1.00  0.00     0.344 HD
ATOM     22  H   UNL A   1      31.472  29.417  20.887  1.00  0.00     0.344 HD
ATOM     23  H   UNL A   1      32.202  30.056  22.240  1.00  0.00     0.344 HD
ENDBRANCH  18  20
ENDBRANCH  10  13
ENDBRANCH   9  10
ENDBRANCH   8   9
ENDBRANCH   7   8
ENDBRANCH   4   7
ENDBRANCH   2   3
ENDBRANCH   1   2
BRANCH   1  24
ATOM     24  C   UNL A   1      32.770  22.115  23.793  1.00  0.00     0.002 C 
BRANCH  24  25
ATOM     25  C   UNL A   1      34.094  22.699  24.320  1.00  0.00     0.002 C 
BRANCH  25  26
ATOM     26  C   UNL A   1      34.576  22.163  25.672  1.00  0.00     0.021 C 
BRANCH  26  27
ATOM     27  C   UNL A   1      36.004  22.548  26.044  1.00  0.00     0.116 C 
BRANCH  27  28
ATOM     28  N   UNL A   1      36.919  21.422  25.934  1.00  0.00    -0.352 N 
ATOM     29  C   UNL A   1      38.285  21.381  25.982  1.00  0.00     0.251 C 
ATOM     30  H   UNL A   1      36.484  20.548  25.804  1.00  0.00     0.163 HD
ATOM     31  O   UNL A   1      38.866  20.342  25.683  1.00  0.00    -0.269 OA
BRANCH  29  32
ATOM     32  C   UNL A   1      39.055  22.576  26.380  1.00  0.00     0.039 A 
ATOM     33  C   UNL A   1      38.721  23.801  25.801  1.00  0.00     0.014 A 
ATOM     34  C   UNL A   1      40.116  22.491  27.285  1.00  0.00     0.014 A 
ATOM     35  C   UNL A   1      39.432  24.945  26.154  1.00  0.00     0.010 A 
ATOM     36  C   UNL A   1      40.770  23.648  27.700  1.00  0.00     0.010 A 
ATOM     37  C   UNL A   1      40.445  24.884  27.126  1.00  0.00    -0.014 A 
BRANCH  37  38
ATOM     38  C   UNL A   1      41.145  26.119  27.553  1.00  0.00     0.031 A 
ATOM     39  C   UNL A   1      42.563  26.389  27.130  1.00  0.00     0.074 A 
ATOM     40  C   UNL A   1      40.499  26.987  28.355  1.00  0.00     0.049 A 
ATOM     41  N   UNL A   1      43.298  27.447  27.355  1.00  0.00    -0.248 NA
ATOM     42  C   UNL A   1      43.255  25.329  26.379  1.00  0.00     0.031 C 
ATOM     43  C   UNL A   1      39.156  26.786  28.906  1.00  0.00     0.029 A 
ATOM     44  N   UNL A   1      40.881  28.206  28.849  1.00  0.00    -0.354 N 
ATOM     45  C   UNL A   1      44.542  27.173  26.798  1.00  0.00     0.074 A 
ATOM     46  C   UNL A   1      44.476  25.832  26.261  1.00  0.00     0.031 C 
ATOM     47  C   UNL A   1      38.815  27.858  29.637  1.00  0.00     0.029 A 
ATOM     48  C   UNL A   1      39.923  28.807  29.631  1.00  0.00     0.049 A 
ATOM     49  H   UNL A   1      41.757  28.613  28.664  1.00  0.00     0.167 HD
ATOM     50  C   UNL A   1      45.630  27.975  26.716  1.00  0.00     0.034 A 
ATOM     51  C   UNL A   1      39.934  29.993  30.268  1.00  0.00     0.034 A 
ATOM     52  C   UNL A   1      45.677  29.318  27.233  1.00  0.00     0.049 A 
ATOM     53  C   UNL A   1      41.136  30.883  30.121  1.00  0.00     0.074 A 
ATOM     54  C   UNL A   1      46.698  30.246  27.128  1.00  0.00     0.029 A 
ATOM     55  N   UNL A   1      44.667  29.919  27.969  1.00  0.00    -0.354 N 
ATOM     56  N   UNL A   1      42.240  30.676  29.443  1.00  0.00    -0.248 NA
ATOM     57  C   UNL A   1      41.078  32.187  30.792  1.00  0.00     0.031 C 
ATOM     58  C   UNL A   1      46.320  31.394  27.834  1.00  0.00     0.029 A 
ATOM     59  C   UNL A   1      45.046  31.198  28.340  1.00  0.00     0.049 A 
ATOM     60  H   UNL A   1      43.806  29.498  28.194  1.00  0.00     0.167 HD
ATOM     61  C   UNL A   1      42.994  31.834  29.581  1.00  0.00     0.074 A 
ATOM     62  C   UNL A   1      42.204  32.751  30.377  1.00  0.00     0.031 C 
ATOM     63  C   UNL A   1      44.235  32.111  29.108  1.00  0.00     0.034 A 
BRANCH  50  64
ATOM     64  C   UNL A   1      46.847  27.439  26.004  1.00  0.00     0.023 A 
ATOM     65  C   UNL A   1      46.977  27.616  24.611  1.00  0.00     0.012 A 
ATOM     66  C   UNL A   1      47.886  26.810  26.719  1.00  0.00     0.148 A 
ATOM     67  C   UNL A   1      48.104  27.146  23.936  1.00  0.00     0.002 A 
ATOM     68  C   UNL A   1      49.026  26.388  26.047  1.00  0.00     0.091 A 
ATOM     69  F   UNL A   1      47.736  26.632  28.039  1.00  0.00    -0.205 F 
ATOM     70  C   UNL A   1      49.132  26.543  24.655  1.00  0.00     0.022 A 
BRANCH  68  71
ATOM     71  S   UNL A   1      50.443  25.675  26.891  1.00  0.00     0.127 S 
ATOM     72  O   UNL A   1      51.389  25.507  25.788  1.00  0.00    -0.237 OA
ATOM     73  O   UNL A   1      50.796  26.730  27.841  1.00  0.00    -0.237 OA
ATOM     74  O   UNL A   1      49.970  24.439  27.499  1.00  0.00    -0.744 OA
ENDBRANCH  68  71
ENDBRANCH  50  64
BRANCH  51  75
ATOM     75  C   UNL A   1      38.742  30.433  31.046  1.00  0.00     0.023 A 
ATOM     76  C   UNL A   1      38.633  30.089  32.408  1.00  0.00     0.012 A 
ATOM     77  C   UNL A   1      37.728  31.207  30.451  1.00  0.00     0.148 A 
ATOM     78  C   UNL A   1      37.518  30.475  33.152  1.00  0.00     0.002 A 
ATOM     79  C   UNL A   1      36.651  31.641  31.213  1.00  0.00     0.091 A 
ATOM     80  F   UNL A   1      37.847  31.519  29.152  1.00  0.00    -0.205 F 
ATOM     81  C   UNL A   1      36.532  31.258  32.558  1.00  0.00     0.022 A 
BRANCH  79  82
ATOM     82  S   UNL A   1      35.406  32.764  30.569  1.00  0.00     0.127 S 
ATOM     83  O   UNL A   1      34.356  32.657  31.578  1.00  0.00    -0.237 OA
ATOM     84  O   UNL A   1      36.127  34.038  30.562  1.00  0.00    -0.237 OA
ATOM     85  O   UNL A   1      35.068  32.260  29.245  1.00  0.00    -0.744 OA
ENDBRANCH  79  82
ENDBRANCH  51  75
BRANCH  63  86
ATOM     86  C   UNL A   1      44.802  33.472  29.422  1.00  0.00     0.023 A 
ATOM     87  C   UNL A   1      45.666  33.638  30.523  1.00  0.00     0.012 A 
ATOM     88  C   UNL A   1      44.499  34.582  28.609  1.00  0.00     0.148 A 
ATOM     89  C   UNL A   1      46.172  34.897  30.846  1.00  0.00     0.002 A 
ATOM     90  C   UNL A   1      45.052  35.822  28.903  1.00  0.00     0.091 A 
ATOM     91  F   UNL A   1      43.663  34.410  27.575  1.00  0.00    -0.205 F 
ATOM     92  C   UNL A   1      45.872  35.986  30.031  1.00  0.00     0.022 A 
BRANCH  90  93
ATOM     93  S   UNL A   1      44.804  37.257  27.852  1.00  0.00     0.127 S 
ATOM     94  O   UNL A   1      44.618  38.321  28.838  1.00  0.00    -0.237 OA
ATOM     95  O   UNL A   1      46.065  37.323  27.113  1.00  0.00    -0.237 OA
ATOM     96  O   UNL A   1      43.640  36.954  27.030  1.00  0.00    -0.744 OA
ENDBRANCH  90  93
ENDBRANCH  63  86
ENDBRANCH  37  38
ENDBRANCH  29  32
ENDBRANCH  27  28
ENDBRANCH  26  27
ENDBRANCH  25  26
ENDBRANCH  24  25
ENDBRANCH   1  24
TORSDOF 21
ENDMDL
MODEL 2
REMARK VINA RESULT:     -10.6      4.863     10.291
REMARK SMILES C[C@@H]1C[C@H]([NH3+])CN(S(=O)(=O)CCCC(=O)NCCCCCCNC(=O)c2ccc(-c3c4nc(c(-c5cccc(S(=O)(=O)[O-])c5F)c5ccc([nH]5)c(-c5cccc(S(=O)(=O)[O-])c5F)c5nc(c(-c6cccc(S(=O)(=O)[O-])c6F)c6ccc3[nH]6)C=C5)C=C4)cc2)C1
REMARK SMILES IDX 18 1 17 2 16 3 14 4 15 5 13 7 12 8 11 9 8 10 9 11 10 12 7 13
REMARK SMILES IDX 1 14 2 15 3 16 89 17 4 18 6 19 5 20 19 24 20 25 21 26 22 27
REMARK SMILES IDX 23 28 24 29 25 31 26 32 27 33 88 34 28 35 87 36 29 37 30 38
REMARK SMILES IDX 31 39 81 40 32 41 86 42 80 43 82 44 33 45 85 46 79 47 78 48
REMARK SMILES IDX 34 50 66 51 46 52 65 53 47 54 50 55 64 56 83 57 48 58 49 59
REMARK SMILES IDX 63 61 84 62 51 63 35 64 36 65 44 66 37 67 39 68 45 69 38 70
REMARK SMILES IDX 40 71 41 72 42 73 43 74 67 75 68 76 76 77 69 78 71 79 77 80
REMARK SMILES IDX 70 81 72 82 73 83 74 84 75 85 52 86 53 87 61 88 54 89 56 90
REMARK SMILES IDX 62 91 55 92 57 93 58 94 59 95 60 96
REMARK H PARENT 16 6 5 21 5 22 5 23 23 30 82 49 50 60
REMARK Flexibility Score: inf
ROOT
ATOM      1  C   UNL A   1      31.305  25.452  26.048  1.00  0.00     0.021 C 
ENDROOT
BRANCH   1   2
ATOM      2  C   UNL A   1      30.702  25.150  24.687  1.00  0.00     0.116 C 
BRANCH   2   3
ATOM      3  N   UNL A   1      31.406  25.699  23.555  1.00  0.00    -0.356 N 
ATOM      4  C   UNL A   1      32.047  25.073  22.534  1.00  0.00     0.220 C 
ATOM      5  O   UNL A   1      32.060  25.675  21.454  1.00  0.00    -0.275 OA
ATOM      6  H   UNL A   1      31.425  26.682  23.516  1.00  0.00     0.163 HD
BRANCH   4   7
ATOM      7  C   UNL A   1      32.677  23.681  22.613  1.00  0.00     0.101 C 
BRANCH   7   8
ATOM      8  C   UNL A   1      33.835  23.413  23.559  1.00  0.00     0.027 C 
BRANCH   8   9
ATOM      9  C   UNL A   1      34.306  21.997  23.824  1.00  0.00     0.155 C 
BRANCH   9  10
ATOM     10  S   UNL A   1      33.792  21.071  25.277  1.00  0.00     0.214 S 
ATOM     11  O   UNL A   1      32.496  21.619  25.647  1.00  0.00    -0.212 OA
ATOM     12  O   UNL A   1      34.899  21.121  26.204  1.00  0.00    -0.212 OA
BRANCH  10  13
ATOM     13  N   UNL A   1      33.507  19.397  24.953  1.00  0.00    -0.196 NA
ATOM     14  C   UNL A   1      34.296  16.884  22.934  1.00  0.00     0.009 C 
ATOM     15  C   UNL A   1      34.787  17.243  24.341  1.00  0.00     0.007 C 
ATOM     16  C   UNL A   1      34.031  16.500  25.447  1.00  0.00     0.071 C 
ATOM     17  C   UNL A   1      34.844  18.761  24.585  1.00  0.00     0.106 C 
ATOM     18  C   UNL A   1      32.688  17.137  25.774  1.00  0.00     0.196 C 
ATOM     19  C   UNL A   1      32.910  18.626  26.087  1.00  0.00     0.167 C 
BRANCH  18  20
ATOM     20  N   UNL A   1      31.709  16.930  24.695  1.00  0.00    -0.354 N 
ATOM     21  H   UNL A   1      31.532  17.816  24.222  1.00  0.00     0.344 HD
ATOM     22  H   UNL A   1      30.838  16.576  25.091  1.00  0.00     0.344 HD
ATOM     23  H   UNL A   1      32.078  16.254  24.026  1.00  0.00     0.344 HD
ENDBRANCH  18  20
ENDBRANCH  10  13
ENDBRANCH   9  10
ENDBRANCH   8   9
ENDBRANCH   7   8
ENDBRANCH   4   7
ENDBRANCH   2   3
ENDBRANCH   1   2
BRANCH   1  24
ATOM     24  C   UNL A   1      30.758  26.755  26.635  1.00  0.00     0.002 C 
BRANCH  24  25
ATOM     25  C   UNL A   1      31.730  27.949  26.623  1.00  0.00     0.002 C 
BRANCH  25  26
ATOM     26  C   UNL A   1      32.069  28.528  25.245  1.00  0.00     0.021 C 
BRANCH  26  27
ATOM     27  C   UNL A   1      33.135  29.619  25.250  1.00  0.00     0.116 C 
BRANCH  27  28
ATOM     28  N   UNL A   1      32.660  30.843  25.880  1.00  0.00    -0.352 N 
ATOM     29  C   UNL A   1      33.098  31.490  27.002  1.00  0.00     0.251 C 
ATOM     30  H   UNL A   1      31.901  31.274  25.424  1.00  0.00     0.163 HD
ATOM     31  O   UNL A   1      32.433  32.415  27.460  1.00  0.00    -0.269 OA
BRANCH  29  32
ATOM     32  C   UNL A   1      34.352  31.078  27.661  1.00  0.00     0.039 A 
ATOM     33  C   UNL A   1      35.334  32.046  27.879  1.00  0.00     0.014 A 
ATOM     34  C   UNL A   1      34.579  29.749  28.032  1.00  0.00     0.014 A 
ATOM     35  C   UNL A   1      36.530  31.687  28.495  1.00  0.00     0.010 A 
ATOM     36  C   UNL A   1      35.738  29.410  28.724  1.00  0.00     0.010 A 
ATOM     37  C   UNL A   1      36.732  30.371  28.948  1.00  0.00    -0.014 A 
BRANCH  37  38
ATOM     38  C   UNL A   1      37.976  30.015  29.672  1.00  0.00     0.031 A 
ATOM     39  C   UNL A   1      38.231  30.524  31.063  1.00  0.00     0.074 A 
ATOM     40  C   UNL A   1      38.893  29.251  29.048  1.00  0.00     0.049 A 
ATOM     41  N   UNL A   1      39.229  30.255  31.864  1.00  0.00    -0.248 NA
ATOM     42  C   UNL A   1      37.256  31.474  31.624  1.00  0.00     0.031 C 
ATOM     43  C   UNL A   1      38.798  28.778  27.665  1.00  0.00     0.029 A 
ATOM     44  N   UNL A   1      40.085  28.740  29.492  1.00  0.00    -0.354 N 
ATOM     45  C   UNL A   1      39.019  31.017  33.007  1.00  0.00     0.074 A 
ATOM     46  C   UNL A   1      37.819  31.792  32.781  1.00  0.00     0.031 C 
ATOM     47  C   UNL A   1      39.869  28.022  27.384  1.00  0.00     0.029 A 
ATOM     48  C   UNL A   1      40.741  27.980  28.553  1.00  0.00     0.049 A 
ATOM     49  H   UNL A   1      40.438  28.902  30.396  1.00  0.00     0.167 HD
ATOM     50  C   UNL A   1      39.741  31.047  34.153  1.00  0.00     0.034 A 
ATOM     51  C   UNL A   1      41.911  27.319  28.627  1.00  0.00     0.034 A 
ATOM     52  C   UNL A   1      40.921  30.253  34.377  1.00  0.00     0.049 A 
ATOM     53  C   UNL A   1      42.668  27.332  29.926  1.00  0.00     0.074 A 
ATOM     54  C   UNL A   1      41.679  30.144  35.529  1.00  0.00     0.029 A 
ATOM     55  N   UNL A   1      41.527  29.447  33.425  1.00  0.00    -0.354 N 
ATOM     56  N   UNL A   1      42.361  27.922  31.056  1.00  0.00    -0.248 NA
ATOM     57  C   UNL A   1      43.912  26.553  29.971  1.00  0.00     0.031 C 
ATOM     58  C   UNL A   1      42.764  29.301  35.262  1.00  0.00     0.029 A 
ATOM     59  C   UNL A   1      42.658  28.851  33.956  1.00  0.00     0.049 A 
ATOM     60  H   UNL A   1      41.200  29.318  32.505  1.00  0.00     0.167 HD
ATOM     61  C   UNL A   1      43.357  27.563  31.955  1.00  0.00     0.074 A 
ATOM     62  C   UNL A   1      44.255  26.674  31.246  1.00  0.00     0.031 C 
ATOM     63  C   UNL A   1      43.526  27.945  33.246  1.00  0.00     0.034 A 
BRANCH  50  64
ATOM     64  C   UNL A   1      39.254  31.936  35.269  1.00  0.00     0.023 A 
ATOM     65  C   UNL A   1      38.333  31.434  36.213  1.00  0.00     0.012 A 
ATOM     66  C   UNL A   1      39.746  33.248  35.417  1.00  0.00     0.148 A 
ATOM     67  C   UNL A   1      37.885  32.233  37.264  1.00  0.00     0.002 A 
ATOM     68  C   UNL A   1      39.331  34.021  36.495  1.00  0.00     0.091 A 
ATOM     69  F   UNL A   1      40.603  33.717  34.500  1.00  0.00    -0.205 F 
ATOM     70  C   UNL A   1      38.391  33.520  37.412  1.00  0.00     0.022 A 
BRANCH  68  71
ATOM     71  S   UNL A   1      39.985  35.662  36.823  1.00  0.00     0.127 S 
ATOM     72  O   UNL A   1      39.282  36.018  38.056  1.00  0.00    -0.237 OA
ATOM     73  O   UNL A   1      41.413  35.394  36.991  1.00  0.00    -0.237 OA
ATOM     74  O   UNL A   1      39.648  36.470  35.660  1.00  0.00    -0.744 OA
ENDBRANCH  68  71
ENDBRANCH  50  64
BRANCH  51  75
ATOM     75  C   UNL A   1      42.401  26.537  27.458  1.00  0.00     0.023 A 
ATOM     76  C   UNL A   1      43.220  27.161  26.496  1.00  0.00     0.012 A 
ATOM     77  C   UNL A   1      42.079  25.175  27.305  1.00  0.00     0.148 A 
ATOM     78  C   UNL A   1      43.677  26.454  25.384  1.00  0.00     0.002 A 
ATOM     79  C   UNL A   1      42.589  24.460  26.228  1.00  0.00     0.091 A 
ATOM     80  F   UNL A   1      41.294  24.601  28.228  1.00  0.00    -0.205 F 
ATOM     81  C   UNL A   1      43.370  25.103  25.254  1.00  0.00     0.022 A 
BRANCH  79  82
ATOM     82  S   UNL A   1      42.359  22.688  26.054  1.00  0.00     0.127 S 
ATOM     83  O   UNL A   1      43.073  22.414  24.810  1.00  0.00    -0.237 OA
ATOM     84  O   UNL A   1      43.008  22.181  27.264  1.00  0.00    -0.237 OA
ATOM     85  O   UNL A   1      40.917  22.479  26.016  1.00  0.00    -0.744 OA
ENDBRANCH  79  82
ENDBRANCH  51  75
BRANCH  63  86
ATOM     86  C   UNL A   1      44.716  27.381  33.979  1.00  0.00     0.023 A 
ATOM     87  C   UNL A   1      45.947  28.068  33.957  1.00  0.00     0.012 A 
ATOM     88  C   UNL A   1      44.608  26.183  34.713  1.00  0.00     0.148 A 
ATOM     89  C   UNL A   1      47.066  27.542  34.603  1.00  0.00     0.002 A 
ATOM     90  C   UNL A   1      45.712  25.695  35.401  1.00  0.00     0.091 A 
ATOM     91  F   UNL A   1      43.434  25.534  34.711  1.00  0.00    -0.205 F 
ATOM     92  C   UNL A   1      46.945  26.361  35.331  1.00  0.00     0.022 A 
BRANCH  90  93
ATOM     93  S   UNL A   1      45.622  24.238  36.447  1.00  0.00     0.127 S 
ATOM     94  O   UNL A   1      45.474  23.170  35.459  1.00  0.00    -0.237 OA
ATOM     95  O   UNL A   1      46.918  24.263  37.127  1.00  0.00    -0.237 OA
ATOM     96  O   UNL A   1      44.478  24.444  37.324  1.00  0.00    -0.744 OA
ENDBRANCH  90  93
ENDBRANCH  63  86
ENDBRANCH  37  38
ENDBRANCH  29  32
ENDBRANCH  27  28
ENDBRANCH  26  27
ENDBRANCH  25  26
ENDBRANCH  24  25
ENDBRANCH   1  24
TORSDOF 21
ENDMDL
MODEL 3
REMARK VINA RESULT:     -10.4      2.973      4.804
REMARK SMILES C[C@@H]1C[C@H]([NH3+])CN(S(=O)(=O)CCCC(=O)NCCCCCCNC(=O)c2ccc(-c3c4nc(c(-c5cccc(S(=O)(=O)[O-])c5F)c5ccc([nH]5)c(-c5cccc(S(=O)(=O)[O-])c5F)c5nc(c(-c6cccc(S(=O)(=O)[O-])c6F)c6ccc3[nH]6)C=C5)C=C4)cc2)C1
REMARK SMILES IDX 18 1 17 2 16 3 14 4 15 5 13 7 12 8 11 9 8 10 9 11 10 12 7 13
REMARK SMILES IDX 1 14 2 15 3 16 89 17 4 18 6 19 5 20 19 24 20 25 21 26 22 27
REMARK SMILES IDX 23 28 24 29 25 31 26 32 27 33 88 34 28 35 87 36 29 37 30 38
REMARK SMILES IDX 31 39 81 40 32 41 86 42 80 43 82 44 33 45 85 46 79 47 78 48
REMARK SMILES IDX 34 50 66 51 46 52 65 53 47 54 50 55 64 56 83 57 48 58 49 59
REMARK SMILES IDX 63 61 84 62 51 63 35 64 36 65 44 66 37 67 39 68 45 69 38 70
REMARK SMILES IDX 40 71 41 72 42 73 43 74 67 75 68 76 76 77 69 78 71 79 77 80
REMARK SMILES IDX 70 81 72 82 73 83 74 84 75 85 52 86 53 87 61 88 54 89 56 90
REMARK SMILES IDX 62 91 55 92 57 93 58 94 59 95 60 96
REMARK H PARENT 16 6 5 21 5 22 5 23 23 30 82 49 50 60
REMARK Flexibility Score: inf
ROOT
ATOM      1  C   UNL A   1      40.736  22.530  26.409  1.00  0.00     0.021 C 
ENDROOT
BRANCH   1   2
ATOM      2  C   UNL A   1      39.313  23.033  26.579  1.00  0.00     0.116 C 
BRANCH   2   3
ATOM      3  N   UNL A   1      38.273  22.101  26.220  1.00  0.00    -0.356 N 
ATOM      4  C   UNL A   1      37.385  22.133  25.193  1.00  0.00     0.220 C 
ATOM      5  O   UNL A   1      37.016  21.033  24.764  1.00  0.00    -0.275 OA
ATOM      6  H   UNL A   1      38.195  21.319  26.813  1.00  0.00     0.163 HD
BRANCH   4   7
ATOM      7  C   UNL A   1      36.878  23.402  24.507  1.00  0.00     0.101 C 
BRANCH   7   8
ATOM      8  C   UNL A   1      35.578  23.385  23.721  1.00  0.00     0.027 C 
BRANCH   8   9
ATOM      9  C   UNL A   1      34.382  24.194  24.183  1.00  0.00     0.155 C 
BRANCH   9  10
ATOM     10  S   UNL A   1      33.144  24.818  23.039  1.00  0.00     0.214 S 
ATOM     11  O   UNL A   1      31.912  24.129  23.388  1.00  0.00    -0.212 OA
ATOM     12  O   UNL A   1      33.709  24.683  21.715  1.00  0.00    -0.212 OA
BRANCH  10  13
ATOM     13  N   UNL A   1      32.806  26.500  23.250  1.00  0.00    -0.196 NA
ATOM     14  C   UNL A   1      30.635  28.907  22.537  1.00  0.00     0.009 C 
ATOM     15  C   UNL A   1      30.844  28.080  23.810  1.00  0.00     0.007 C 
ATOM     16  C   UNL A   1      31.729  28.783  24.843  1.00  0.00     0.071 C 
ATOM     17  C   UNL A   1      31.310  26.643  23.518  1.00  0.00     0.106 C 
ATOM     18  C   UNL A   1      33.213  28.652  24.537  1.00  0.00     0.196 C 
ATOM     19  C   UNL A   1      33.552  27.162  24.363  1.00  0.00     0.167 C 
BRANCH  18  20
ATOM     20  N   UNL A   1      33.603  29.456  23.368  1.00  0.00    -0.354 N 
ATOM     21  H   UNL A   1      34.615  29.587  23.367  1.00  0.00     0.344 HD
ATOM     22  H   UNL A   1      33.143  30.365  23.412  1.00  0.00     0.344 HD
ATOM     23  H   UNL A   1      33.322  28.973  22.515  1.00  0.00     0.344 HD
ENDBRANCH  18  20
ENDBRANCH  10  13
ENDBRANCH   9  10
ENDBRANCH   8   9
ENDBRANCH   7   8
ENDBRANCH   4   7
ENDBRANCH   2   3
ENDBRANCH   1   2
BRANCH   1  24
ATOM     24  C   UNL A   1      41.228  21.786  27.653  1.00  0.00     0.002 C 
BRANCH  24  25
ATOM     25  C   UNL A   1      41.148  20.249  27.583  1.00  0.00     0.002 C 
BRANCH  25  26
ATOM     26  C   UNL A   1      41.667  19.605  26.294  1.00  0.00     0.021 C 
BRANCH  26  27
ATOM     27  C   UNL A   1      43.047  18.964  26.406  1.00  0.00     0.116 C 
BRANCH  27  28
ATOM     28  N   UNL A   1      43.719  18.886  25.117  1.00  0.00    -0.352 N 
ATOM     29  C   UNL A   1      44.268  19.870  24.344  1.00  0.00     0.251 C 
ATOM     30  H   UNL A   1      43.788  17.978  24.742  1.00  0.00     0.163 HD
ATOM     31  O   UNL A   1      44.626  19.605  23.199  1.00  0.00    -0.269 OA
BRANCH  29  32
ATOM     32  C   UNL A   1      44.424  21.239  24.873  1.00  0.00     0.039 A 
ATOM     33  C   UNL A   1      45.087  21.405  26.091  1.00  0.00     0.014 A 
ATOM     34  C   UNL A   1      43.897  22.345  24.202  1.00  0.00     0.014 A 
ATOM     35  C   UNL A   1      45.246  22.683  26.619  1.00  0.00     0.010 A 
ATOM     36  C   UNL A   1      44.131  23.628  24.688  1.00  0.00     0.010 A 
ATOM     37  C   UNL A   1      44.793  23.809  25.909  1.00  0.00    -0.014 A 
BRANCH  37  38
ATOM     38  C   UNL A   1      45.035  25.172  26.441  1.00  0.00     0.031 A 
ATOM     39  C   UNL A   1      46.411  25.779  26.412  1.00  0.00     0.074 A 
ATOM     40  C   UNL A   1      44.005  25.849  26.983  1.00  0.00     0.049 A 
ATOM     41  N   UNL A   1      46.785  26.980  26.769  1.00  0.00    -0.248 NA
ATOM     42  C   UNL A   1      47.515  24.925  25.943  1.00  0.00     0.031 C 
ATOM     43  C   UNL A   1      42.647  25.325  27.153  1.00  0.00     0.029 A 
ATOM     44  N   UNL A   1      43.936  27.119  27.493  1.00  0.00    -0.354 N 
ATOM     45  C   UNL A   1      48.163  27.020  26.595  1.00  0.00     0.074 A 
ATOM     46  C   UNL A   1      48.566  25.708  26.137  1.00  0.00     0.031 C 
ATOM     47  C   UNL A   1      41.874  26.276  27.698  1.00  0.00     0.029 A 
ATOM     48  C   UNL A   1      42.684  27.463  27.944  1.00  0.00     0.049 A 
ATOM     49  H   UNL A   1      44.709  27.727  27.533  1.00  0.00     0.167 HD
ATOM     50  C   UNL A   1      49.011  28.061  26.770  1.00  0.00     0.034 A 
ATOM     51  C   UNL A   1      42.238  28.610  28.490  1.00  0.00     0.034 A 
ATOM     52  C   UNL A   1      48.595  29.369  27.202  1.00  0.00     0.049 A 
ATOM     53  C   UNL A   1      43.190  29.764  28.630  1.00  0.00     0.074 A 
ATOM     54  C   UNL A   1      49.358  30.517  27.331  1.00  0.00     0.029 A 
ATOM     55  N   UNL A   1      47.307  29.702  27.595  1.00  0.00    -0.354 N 
ATOM     56  N   UNL A   1      44.457  29.836  28.296  1.00  0.00    -0.248 NA
ATOM     57  C   UNL A   1      42.642  31.008  29.183  1.00  0.00     0.031 C 
ATOM     58  C   UNL A   1      48.539  31.533  27.837  1.00  0.00     0.029 A 
ATOM     59  C   UNL A   1      47.256  31.031  27.983  1.00  0.00     0.049 A 
ATOM     60  H   UNL A   1      46.541  29.084  27.598  1.00  0.00     0.167 HD
ATOM     61  C   UNL A   1      44.849  31.140  28.571  1.00  0.00     0.074 A 
ATOM     62  C   UNL A   1      43.675  31.831  29.064  1.00  0.00     0.031 C 
ATOM     63  C   UNL A   1      46.073  31.712  28.444  1.00  0.00     0.034 A 
BRANCH  50  64
ATOM     64  C   UNL A   1      50.469  27.841  26.454  1.00  0.00     0.023 A 
ATOM     65  C   UNL A   1      51.390  27.644  27.505  1.00  0.00     0.012 A 
ATOM     66  C   UNL A   1      50.920  27.774  25.121  1.00  0.00     0.148 A 
ATOM     67  C   UNL A   1      52.740  27.419  27.234  1.00  0.00     0.002 A 
ATOM     68  C   UNL A   1      52.257  27.501  24.859  1.00  0.00     0.091 A 
ATOM     69  F   UNL A   1      50.035  27.984  24.136  1.00  0.00    -0.205 F 
ATOM     70  C   UNL A   1      53.171  27.336  25.914  1.00  0.00     0.022 A 
BRANCH  68  71
ATOM     71  S   UNL A   1      52.898  27.292  23.194  1.00  0.00     0.127 S 
ATOM     72  O   UNL A   1      53.890  26.234  23.391  1.00  0.00    -0.237 OA
ATOM     73  O   UNL A   1      51.704  26.877  22.457  1.00  0.00    -0.237 OA
ATOM     74  O   UNL A   1      53.438  28.586  22.804  1.00  0.00    -0.744 OA
ENDBRANCH  68  71
ENDBRANCH  50  64
BRANCH  51  75
ATOM     75  C   UNL A   1      40.806  28.741  28.883  1.00  0.00     0.023 A 
ATOM     76  C   UNL A   1      39.819  28.860  27.885  1.00  0.00     0.012 A 
ATOM     77  C   UNL A   1      40.418  28.727  30.236  1.00  0.00     0.148 A 
ATOM     78  C   UNL A   1      38.474  29.001  28.229  1.00  0.00     0.002 A 
ATOM     79  C   UNL A   1      39.072  28.806  30.570  1.00  0.00     0.091 A 
ATOM     80  F   UNL A   1      41.374  28.620  31.170  1.00  0.00    -0.205 F 
ATOM     81  C   UNL A   1      38.099  28.965  29.569  1.00  0.00     0.022 A 
BRANCH  79  82
ATOM     82  S   UNL A   1      38.487  28.631  32.258  1.00  0.00     0.127 S 
ATOM     83  O   UNL A   1      39.260  29.658  32.951  1.00  0.00    -0.237 OA
ATOM     84  O   UNL A   1      37.061  28.924  32.114  1.00  0.00    -0.237 OA
ATOM     85  O   UNL A   1      38.781  27.255  32.636  1.00  0.00    -0.744 OA
ENDBRANCH  79  82
ENDBRANCH  51  75
BRANCH  63  86
ATOM     86  C   UNL A   1      46.193  33.166  28.824  1.00  0.00     0.023 A 
ATOM     87  C   UNL A   1      46.604  33.523  30.124  1.00  0.00     0.012 A 
ATOM     88  C   UNL A   1      45.925  34.180  27.883  1.00  0.00     0.148 A 
ATOM     89  C   UNL A   1      46.688  34.863  30.500  1.00  0.00     0.002 A 
ATOM     90  C   UNL A   1      46.066  35.513  28.248  1.00  0.00     0.091 A 
ATOM     91  F   UNL A   1      45.520  33.824  26.655  1.00  0.00    -0.205 F 
ATOM     92  C   UNL A   1      46.429  35.857  29.560  1.00  0.00     0.022 A 
BRANCH  90  93
ATOM     93  S   UNL A   1      45.851  36.857  27.076  1.00  0.00     0.127 S 
ATOM     94  O   UNL A   1      44.396  36.903  26.938  1.00  0.00    -0.237 OA
ATOM     95  O   UNL A   1      46.432  37.992  27.794  1.00  0.00    -0.237 OA
ATOM     96  O   UNL A   1      46.582  36.464  25.879  1.00  0.00    -0.744 OA
ENDBRANCH  90  93
ENDBRANCH  63  86
ENDBRANCH  37  38
ENDBRANCH  29  32
ENDBRANCH  27  28
ENDBRANCH  26  27
ENDBRANCH  25  26
ENDBRANCH  24  25
ENDBRANCH   1  24
TORSDOF 21
ENDMDL
