MODEL 1
REMARK VINA RESULT:     -12.3      0.000      0.000
REMARK SMILES Cc1ccc(Cl)c(Nc2ccccc2C(=O)N[C@@H](C)C(=O)NCCCCCCNC(=O)c2ccc(-c3c4nc(c(-c5cccc(S(=O)(=O)[O-])c5F)c5ccc([nH]5)c(-c5cccc(S(=O)(=O)[O-])c5F)c5nc(c(-c6cccc(S(=O)(=O)[O-])c6F)c6ccc3[nH]6)C=C5)C=C4)cc2)c1Cl
REMARK SMILES IDX 25 1 24 2 23 3 22 4 20 5 21 6 18 8 19 9 17 10 15 11 16 12
REMARK SMILES IDX 14 14 9 15 10 16 11 17 13 18 12 19 8 20 7 22 1 23 2 24 3 25
REMARK SMILES IDX 95 26 4 27 96 28 5 29 6 30 26 31 27 32 28 33 29 34 30 35
REMARK SMILES IDX 31 37 32 38 33 39 94 40 34 41 93 42 35 43 36 44 37 45 87 46
REMARK SMILES IDX 38 47 92 48 86 49 88 50 39 51 91 52 85 53 84 54 40 56 72 57
REMARK SMILES IDX 52 58 71 59 53 60 56 61 70 62 89 63 54 64 55 65 69 67 90 68
REMARK SMILES IDX 57 69 41 70 42 71 50 72 43 73 45 74 51 75 44 76 46 77 47 78
REMARK SMILES IDX 48 79 49 80 73 81 74 82 82 83 75 84 77 85 83 86 76 87 78 88
REMARK SMILES IDX 79 89 80 90 81 91 58 92 59 93 67 94 60 95 62 96 68 97 61 98
REMARK SMILES IDX 63 99 64 100 65 101 66 102
REMARK H PARENT 22 7 17 13 8 21 29 36 88 55 56 66
REMARK Flexibility Score: inf
ROOT
ATOM      1  C   UNL A   1      34.468  20.284  24.808  1.00  0.00     0.002 C 
ENDROOT
BRANCH   1   2
ATOM      2  C   UNL A   1      33.781  21.423  24.042  1.00  0.00     0.021 C 
BRANCH   2   3
ATOM      3  C   UNL A   1      32.260  21.287  23.880  1.00  0.00     0.116 C 
BRANCH   3   4
ATOM      4  N   UNL A   1      31.551  22.495  24.241  1.00  0.00    -0.354 N 
ATOM      5  C   UNL A   1      31.306  22.662  25.574  1.00  0.00     0.242 C 
ATOM      6  O   UNL A   1      30.321  22.094  26.042  1.00  0.00    -0.273 OA
ATOM      7  H   UNL A   1      31.264  23.154  23.570  1.00  0.00     0.163 HD
BRANCH   5   8
ATOM      8  C   UNL A   1      32.285  23.507  26.419  1.00  0.00     0.168 C 
ATOM      9  C   UNL A   1      33.081  22.748  27.469  1.00  0.00     0.041 C 
BRANCH   8  10
ATOM     10  N   UNL A   1      31.433  24.537  26.990  1.00  0.00    -0.340 N 
ATOM     11  C   UNL A   1      30.926  25.636  26.331  1.00  0.00     0.254 C 
ATOM     12  O   UNL A   1      29.760  25.944  26.595  1.00  0.00    -0.269 OA
ATOM     13  H   UNL A   1      31.195  24.440  27.940  1.00  0.00     0.164 HD
BRANCH  11  14
ATOM     14  C   UNL A   1      31.775  26.619  25.582  1.00  0.00     0.063 A 
ATOM     15  C   UNL A   1      31.641  27.176  24.292  1.00  0.00     0.051 A 
ATOM     16  C   UNL A   1      32.703  27.979  23.805  1.00  0.00     0.027 A 
ATOM     17  C   UNL A   1      33.815  28.304  24.579  1.00  0.00     0.002 A 
ATOM     18  C   UNL A   1      32.906  26.986  26.357  1.00  0.00     0.016 A 
ATOM     19  C   UNL A   1      33.905  27.827  25.873  1.00  0.00     0.001 A 
BRANCH  15  20
ATOM     20  N   UNL A   1      30.530  27.129  23.426  1.00  0.00    -0.352 N 
ATOM     21  H   UNL A   1      30.454  26.272  22.948  1.00  0.00     0.167 HD
BRANCH  20  22
ATOM     22  C   UNL A   1      29.497  28.043  23.089  1.00  0.00     0.077 A 
ATOM     23  C   UNL A   1      28.895  31.706  22.144  1.00  0.00     0.046 C 
ATOM     24  C   UNL A   1      28.633  30.263  22.484  1.00  0.00    -0.030 A 
ATOM     25  C   UNL A   1      27.349  29.894  22.915  1.00  0.00     0.006 A 
ATOM     26  C   UNL A   1      29.686  29.315  22.509  1.00  0.00     0.069 A 
ATOM     27  C   UNL A   1      27.112  28.609  23.386  1.00  0.00     0.023 A 
ATOM     28  Cl  UNL A   1      31.187  29.744  21.743  1.00  0.00    -0.082 Cl
ATOM     29  C   UNL A   1      28.174  27.708  23.488  1.00  0.00     0.066 A 
ATOM     30  Cl  UNL A   1      27.830  26.158  24.194  1.00  0.00    -0.082 Cl
ENDBRANCH  20  22
ENDBRANCH  15  20
ENDBRANCH  11  14
ENDBRANCH   8  10
ENDBRANCH   5   8
ENDBRANCH   3   4
ENDBRANCH   2   3
ENDBRANCH   1   2
BRANCH   1  31
ATOM     31  C   UNL A   1      35.956  20.491  25.098  1.00  0.00     0.002 C 
BRANCH  31  32
ATOM     32  C   UNL A   1      36.584  21.718  24.439  1.00  0.00     0.021 C 
BRANCH  32  33
ATOM     33  C   UNL A   1      37.802  22.269  25.159  1.00  0.00     0.116 C 
BRANCH  33  34
ATOM     34  N   UNL A   1      38.584  21.223  25.785  1.00  0.00    -0.352 N 
ATOM     35  C   UNL A   1      39.724  21.366  26.541  1.00  0.00     0.251 C 
ATOM     36  H   UNL A   1      38.263  20.301  25.653  1.00  0.00     0.163 HD
ATOM     37  O   UNL A   1      40.394  20.390  26.846  1.00  0.00    -0.269 OA
BRANCH  35  38
ATOM     38  C   UNL A   1      40.138  22.726  26.952  1.00  0.00     0.039 A 
ATOM     39  C   UNL A   1      41.061  22.865  27.990  1.00  0.00     0.014 A 
ATOM     40  C   UNL A   1      39.647  23.856  26.289  1.00  0.00     0.014 A 
ATOM     41  C   UNL A   1      41.516  24.137  28.339  1.00  0.00     0.010 A 
ATOM     42  C   UNL A   1      40.172  25.112  26.577  1.00  0.00     0.010 A 
ATOM     43  C   UNL A   1      41.093  25.269  27.623  1.00  0.00    -0.014 A 
BRANCH  43  44
ATOM     44  C   UNL A   1      41.588  26.625  27.976  1.00  0.00     0.031 A 
ATOM     45  C   UNL A   1      43.008  27.017  27.660  1.00  0.00     0.074 A 
ATOM     46  C   UNL A   1      40.779  27.485  28.624  1.00  0.00     0.049 A 
ATOM     47  N   UNL A   1      43.619  28.150  27.887  1.00  0.00    -0.248 NA
ATOM     48  C   UNL A   1      43.862  25.995  27.031  1.00  0.00     0.031 C 
ATOM     49  C   UNL A   1      39.411  27.197  29.060  1.00  0.00     0.029 A 
ATOM     50  N   UNL A   1      40.995  28.773  29.045  1.00  0.00    -0.354 N 
ATOM     51  C   UNL A   1      44.929  27.968  27.461  1.00  0.00     0.074 A 
ATOM     52  C   UNL A   1      45.039  26.602  27.002  1.00  0.00     0.031 C 
ATOM     53  C   UNL A   1      38.906  28.279  29.672  1.00  0.00     0.029 A 
ATOM     54  C   UNL A   1      39.921  29.328  29.701  1.00  0.00     0.049 A 
ATOM     55  H   UNL A   1      41.840  29.256  28.893  1.00  0.00     0.167 HD
ATOM     56  C   UNL A   1      45.944  28.865  27.424  1.00  0.00     0.034 A 
ATOM     57  C   UNL A   1      39.771  30.543  30.265  1.00  0.00     0.034 A 
ATOM     58  C   UNL A   1      45.821  30.233  27.848  1.00  0.00     0.049 A 
ATOM     59  C   UNL A   1      40.901  31.533  30.178  1.00  0.00     0.074 A 
ATOM     60  C   UNL A   1      46.761  31.244  27.769  1.00  0.00     0.029 A 
ATOM     61  N   UNL A   1      44.693  30.779  28.441  1.00  0.00    -0.354 N 
ATOM     62  N   UNL A   1      42.081  31.392  29.624  1.00  0.00    -0.248 NA
ATOM     63  C   UNL A   1      40.666  32.861  30.760  1.00  0.00     0.031 C 
ATOM     64  C   UNL A   1      46.216  32.393  28.349  1.00  0.00     0.029 A 
ATOM     65  C   UNL A   1      44.919  32.110  28.748  1.00  0.00     0.049 A 
ATOM     66  H   UNL A   1      43.857  30.293  28.617  1.00  0.00     0.167 HD
ATOM     67  C   UNL A   1      42.714  32.623  29.756  1.00  0.00     0.074 A 
ATOM     68  C   UNL A   1      41.777  33.502  30.423  1.00  0.00     0.031 C 
ATOM     69  C   UNL A   1      43.961  32.988  29.370  1.00  0.00     0.034 A 
BRANCH  56  70
ATOM     70  C   UNL A   1      47.267  28.402  26.868  1.00  0.00     0.023 A 
ATOM     71  C   UNL A   1      48.360  28.200  27.737  1.00  0.00     0.012 A 
ATOM     72  C   UNL A   1      47.413  28.115  25.497  1.00  0.00     0.148 A 
ATOM     73  C   UNL A   1      49.588  27.760  27.244  1.00  0.00     0.002 A 
ATOM     74  C   UNL A   1      48.626  27.628  25.022  1.00  0.00     0.091 A 
ATOM     75  F   UNL A   1      46.370  28.331  24.684  1.00  0.00    -0.205 F 
ATOM     76  C   UNL A   1      49.717  27.464  25.891  1.00  0.00     0.022 A 
BRANCH  74  77
ATOM     77  S   UNL A   1      48.869  27.135  23.313  1.00  0.00     0.127 S 
ATOM     78  O   UNL A   1      50.312  26.904  23.276  1.00  0.00    -0.237 OA
ATOM     79  O   UNL A   1      48.055  25.922  23.226  1.00  0.00    -0.237 OA
ATOM     80  O   UNL A   1      48.393  28.245  22.500  1.00  0.00    -0.744 OA
ENDBRANCH  74  77
ENDBRANCH  56  70
BRANCH  57  81
ATOM     81  C   UNL A   1      38.479  30.910  30.912  1.00  0.00     0.023 A 
ATOM     82  C   UNL A   1      38.275  30.620  32.276  1.00  0.00     0.012 A 
ATOM     83  C   UNL A   1      37.462  31.564  30.190  1.00  0.00     0.148 A 
ATOM     84  C   UNL A   1      37.068  30.940  32.899  1.00  0.00     0.002 A 
ATOM     85  C   UNL A   1      36.285  31.932  30.831  1.00  0.00     0.091 A 
ATOM     86  F   UNL A   1      37.672  31.823  28.892  1.00  0.00    -0.205 F 
ATOM     87  C   UNL A   1      36.078  31.603  32.180  1.00  0.00     0.022 A 
BRANCH  85  88
ATOM     88  S   UNL A   1      35.012  32.906  30.021  1.00  0.00     0.127 S 
ATOM     89  O   UNL A   1      34.499  31.964  29.029  1.00  0.00    -0.237 OA
ATOM     90  O   UNL A   1      34.101  33.191  31.130  1.00  0.00    -0.237 OA
ATOM     91  O   UNL A   1      35.691  34.079  29.487  1.00  0.00    -0.744 OA
ENDBRANCH  85  88
ENDBRANCH  57  81
BRANCH  69  92
ATOM     92  C   UNL A   1      44.380  34.415  29.616  1.00  0.00     0.023 A 
ATOM     93  C   UNL A   1      45.002  34.770  30.830  1.00  0.00     0.012 A 
ATOM     94  C   UNL A   1      44.216  35.389  28.612  1.00  0.00     0.148 A 
ATOM     95  C   UNL A   1      45.419  36.081  31.054  1.00  0.00     0.002 A 
ATOM     96  C   UNL A   1      44.683  36.681  28.822  1.00  0.00     0.091 A 
ATOM     97  F   UNL A   1      43.607  35.035  27.471  1.00  0.00    -0.205 F 
ATOM     98  C   UNL A   1      45.271  37.032  30.047  1.00  0.00     0.022 A 
BRANCH  96  99
ATOM     99  S   UNL A   1      44.627  37.944  27.546  1.00  0.00     0.127 S 
ATOM    100  O   UNL A   1      45.021  39.137  28.292  1.00  0.00    -0.237 OA
ATOM    101  O   UNL A   1      45.627  37.463  26.592  1.00  0.00    -0.237 OA
ATOM    102  O   UNL A   1      43.261  37.946  27.041  1.00  0.00    -0.744 OA
ENDBRANCH  96  99
ENDBRANCH  69  92
ENDBRANCH  43  44
ENDBRANCH  35  38
ENDBRANCH  33  34
ENDBRANCH  32  33
ENDBRANCH  31  32
ENDBRANCH   1  31
TORSDOF 20
ENDMDL
MODEL 2
REMARK VINA RESULT:     -11.9      1.555      3.355
REMARK SMILES Cc1ccc(Cl)c(Nc2ccccc2C(=O)N[C@@H](C)C(=O)NCCCCCCNC(=O)c2ccc(-c3c4nc(c(-c5cccc(S(=O)(=O)[O-])c5F)c5ccc([nH]5)c(-c5cccc(S(=O)(=O)[O-])c5F)c5nc(c(-c6cccc(S(=O)(=O)[O-])c6F)c6ccc3[nH]6)C=C5)C=C4)cc2)c1Cl
REMARK SMILES IDX 25 1 24 2 23 3 22 4 20 5 21 6 18 8 19 9 17 10 15 11 16 12
REMARK SMILES IDX 14 14 9 15 10 16 11 17 13 18 12 19 8 20 7 22 1 23 2 24 3 25
REMARK SMILES IDX 95 26 4 27 96 28 5 29 6 30 26 31 27 32 28 33 29 34 30 35
REMARK SMILES IDX 31 37 32 38 33 39 94 40 34 41 93 42 35 43 36 44 37 45 87 46
REMARK SMILES IDX 38 47 92 48 86 49 88 50 39 51 91 52 85 53 84 54 40 56 72 57
REMARK SMILES IDX 52 58 71 59 53 60 56 61 70 62 89 63 54 64 55 65 69 67 90 68
REMARK SMILES IDX 57 69 41 70 42 71 50 72 43 73 45 74 51 75 44 76 46 77 47 78
REMARK SMILES IDX 48 79 49 80 73 81 74 82 82 83 75 84 77 85 83 86 76 87 78 88
REMARK SMILES IDX 79 89 80 90 81 91 58 92 59 93 67 94 60 95 62 96 68 97 61 98
REMARK SMILES IDX 63 99 64 100 65 101 66 102
REMARK H PARENT 22 7 17 13 8 21 29 36 88 55 56 66
REMARK Flexibility Score: inf
ROOT
ATOM      1  C   UNL A   1      35.626  24.082  25.023  1.00  0.00     0.002 C 
ENDROOT
BRANCH   1   2
ATOM      2  C   UNL A   1      34.500  24.841  25.739  1.00  0.00     0.021 C 
BRANCH   2   3
ATOM      3  C   UNL A   1      34.371  26.327  25.376  1.00  0.00     0.116 C 
BRANCH   3   4
ATOM      4  N   UNL A   1      33.596  27.071  26.345  1.00  0.00    -0.354 N 
ATOM      5  C   UNL A   1      33.839  28.413  26.392  1.00  0.00     0.242 C 
ATOM      6  O   UNL A   1      34.800  28.790  27.060  1.00  0.00    -0.273 OA
ATOM      7  H   UNL A   1      32.937  26.638  26.933  1.00  0.00     0.163 HD
BRANCH   5   8
ATOM      8  C   UNL A   1      32.933  29.371  25.586  1.00  0.00     0.168 C 
ATOM      9  C   UNL A   1      31.486  29.461  26.048  1.00  0.00     0.041 C 
BRANCH   8  10
ATOM     10  N   UNL A   1      33.062  28.888  24.222  1.00  0.00    -0.340 N 
ATOM     11  C   UNL A   1      32.083  28.907  23.252  1.00  0.00     0.254 C 
ATOM     12  O   UNL A   1      32.449  29.205  22.111  1.00  0.00    -0.269 OA
ATOM     13  H   UNL A   1      33.934  28.510  23.965  1.00  0.00     0.164 HD
BRANCH  11  14
ATOM     14  C   UNL A   1      30.722  28.309  23.435  1.00  0.00     0.063 A 
ATOM     15  C   UNL A   1      30.315  27.012  23.817  1.00  0.00     0.051 A 
ATOM     16  C   UNL A   1      28.932  26.708  23.757  1.00  0.00     0.027 A 
ATOM     17  C   UNL A   1      27.968  27.658  23.425  1.00  0.00     0.002 A 
ATOM     18  C   UNL A   1      29.717  29.263  23.125  1.00  0.00     0.016 A 
ATOM     19  C   UNL A   1      28.360  28.950  23.133  1.00  0.00     0.001 A 
BRANCH  15  20
ATOM     20  N   UNL A   1      31.096  25.971  24.358  1.00  0.00    -0.352 N 
ATOM     21  H   UNL A   1      31.525  26.216  25.208  1.00  0.00     0.167 HD
BRANCH  20  22
ATOM     22  C   UNL A   1      31.402  24.646  23.948  1.00  0.00     0.077 A 
ATOM     23  C   UNL A   1      31.987  21.118  25.322  1.00  0.00     0.046 C 
ATOM     24  C   UNL A   1      31.869  22.268  24.357  1.00  0.00    -0.030 A 
ATOM     25  C   UNL A   1      32.491  22.162  23.103  1.00  0.00     0.006 A 
ATOM     26  C   UNL A   1      31.266  23.490  24.745  1.00  0.00     0.069 A 
ATOM     27  C   UNL A   1      32.537  23.258  22.251  1.00  0.00     0.023 A 
ATOM     28  Cl  UNL A   1      30.304  23.500  26.193  1.00  0.00    -0.082 Cl
ATOM     29  C   UNL A   1      32.018  24.482  22.677  1.00  0.00     0.066 A 
ATOM     30  Cl  UNL A   1      32.213  25.838  21.609  1.00  0.00    -0.082 Cl
ENDBRANCH  20  22
ENDBRANCH  15  20
ENDBRANCH  11  14
ENDBRANCH   8  10
ENDBRANCH   5   8
ENDBRANCH   3   4
ENDBRANCH   2   3
ENDBRANCH   1   2
BRANCH   1  31
ATOM     31  C   UNL A   1      35.349  22.603  24.745  1.00  0.00     0.002 C 
BRANCH  31  32
ATOM     32  C   UNL A   1      36.293  21.622  25.438  1.00  0.00     0.021 C 
BRANCH  32  33
ATOM     33  C   UNL A   1      37.768  21.885  25.195  1.00  0.00     0.116 C 
BRANCH  33  34
ATOM     34  N   UNL A   1      38.606  20.841  25.749  1.00  0.00    -0.352 N 
ATOM     35  C   UNL A   1      39.787  20.991  26.436  1.00  0.00     0.251 C 
ATOM     36  H   UNL A   1      38.294  19.917  25.616  1.00  0.00     0.163 HD
ATOM     37  O   UNL A   1      40.492  20.022  26.678  1.00  0.00    -0.269 OA
BRANCH  35  38
ATOM     38  C   UNL A   1      40.202  22.350  26.851  1.00  0.00     0.039 A 
ATOM     39  C   UNL A   1      41.152  22.485  27.864  1.00  0.00     0.014 A 
ATOM     40  C   UNL A   1      39.683  23.482  26.214  1.00  0.00     0.014 A 
ATOM     41  C   UNL A   1      41.606  23.757  28.215  1.00  0.00     0.010 A 
ATOM     42  C   UNL A   1      40.205  24.740  26.502  1.00  0.00     0.010 A 
ATOM     43  C   UNL A   1      41.153  24.893  27.524  1.00  0.00    -0.014 A 
BRANCH  43  44
ATOM     44  C   UNL A   1      41.647  26.249  27.879  1.00  0.00     0.031 A 
ATOM     45  C   UNL A   1      43.056  26.655  27.533  1.00  0.00     0.074 A 
ATOM     46  C   UNL A   1      40.847  27.097  28.554  1.00  0.00     0.049 A 
ATOM     47  N   UNL A   1      43.663  27.791  27.755  1.00  0.00    -0.248 NA
ATOM     48  C   UNL A   1      43.902  25.647  26.872  1.00  0.00     0.031 C 
ATOM     49  C   UNL A   1      39.493  26.793  29.020  1.00  0.00     0.029 A 
ATOM     50  N   UNL A   1      41.064  28.383  28.983  1.00  0.00    -0.354 N 
ATOM     51  C   UNL A   1      44.964  27.624  27.297  1.00  0.00     0.074 A 
ATOM     52  C   UNL A   1      45.073  26.262  26.822  1.00  0.00     0.031 C 
ATOM     53  C   UNL A   1      38.994  27.866  29.655  1.00  0.00     0.029 A 
ATOM     54  C   UNL A   1      40.001  28.922  29.670  1.00  0.00     0.049 A 
ATOM     55  H   UNL A   1      41.901  28.873  28.815  1.00  0.00     0.167 HD
ATOM     56  C   UNL A   1      45.971  28.528  27.244  1.00  0.00     0.034 A 
ATOM     57  C   UNL A   1      39.856  30.130  30.250  1.00  0.00     0.034 A 
ATOM     58  C   UNL A   1      45.848  29.891  27.684  1.00  0.00     0.049 A 
ATOM     59  C   UNL A   1      40.976  31.130  30.146  1.00  0.00     0.074 A 
ATOM     60  C   UNL A   1      46.779  30.910  27.593  1.00  0.00     0.029 A 
ATOM     61  N   UNL A   1      44.731  30.423  28.310  1.00  0.00    -0.354 N 
ATOM     62  N   UNL A   1      42.143  31.003  29.561  1.00  0.00    -0.248 NA
ATOM     63  C   UNL A   1      40.746  32.451  30.746  1.00  0.00     0.031 C 
ATOM     64  C   UNL A   1      46.238  32.049  28.197  1.00  0.00     0.029 A 
ATOM     65  C   UNL A   1      44.954  31.752  28.625  1.00  0.00     0.049 A 
ATOM     66  H   UNL A   1      43.903  29.928  28.501  1.00  0.00     0.167 HD
ATOM     67  C   UNL A   1      42.770  32.238  29.691  1.00  0.00     0.074 A 
ATOM     68  C   UNL A   1      41.844  33.104  30.389  1.00  0.00     0.031 C 
ATOM     69  C   UNL A   1      44.005  32.616  29.279  1.00  0.00     0.034 A 
BRANCH  56  70
ATOM     70  C   UNL A   1      47.283  28.082  26.652  1.00  0.00     0.023 A 
ATOM     71  C   UNL A   1      48.358  27.746  27.502  1.00  0.00     0.012 A 
ATOM     72  C   UNL A   1      47.437  27.941  25.259  1.00  0.00     0.148 A 
ATOM     73  C   UNL A   1      49.576  27.318  26.974  1.00  0.00     0.002 A 
ATOM     74  C   UNL A   1      48.637  27.465  24.743  1.00  0.00     0.091 A 
ATOM     75  F   UNL A   1      46.412  28.283  24.465  1.00  0.00    -0.205 F 
ATOM     76  C   UNL A   1      49.711  27.167  25.598  1.00  0.00     0.022 A 
BRANCH  74  77
ATOM     77  S   UNL A   1      48.883  27.154  22.992  1.00  0.00     0.127 S 
ATOM     78  O   UNL A   1      48.213  28.307  22.391  1.00  0.00    -0.237 OA
ATOM     79  O   UNL A   1      50.342  27.172  22.882  1.00  0.00    -0.237 OA
ATOM     80  O   UNL A   1      48.268  25.863  22.720  1.00  0.00    -0.744 OA
ENDBRANCH  74  77
ENDBRANCH  56  70
BRANCH  57  81
ATOM     81  C   UNL A   1      38.577  30.482  30.931  1.00  0.00     0.023 A 
ATOM     82  C   UNL A   1      38.380  30.110  32.276  1.00  0.00     0.012 A 
ATOM     83  C   UNL A   1      37.567  31.198  30.262  1.00  0.00     0.148 A 
ATOM     84  C   UNL A   1      37.185  30.414  32.930  1.00  0.00     0.002 A 
ATOM     85  C   UNL A   1      36.404  31.548  30.936  1.00  0.00     0.091 A 
ATOM     86  F   UNL A   1      37.770  31.534  28.980  1.00  0.00    -0.205 F 
ATOM     87  C   UNL A   1      36.202  31.140  32.264  1.00  0.00     0.022 A 
BRANCH  85  88
ATOM     88  S   UNL A   1      35.143  32.595  30.202  1.00  0.00     0.127 S 
ATOM     89  O   UNL A   1      34.649  31.752  29.115  1.00  0.00    -0.237 OA
ATOM     90  O   UNL A   1      34.212  32.773  31.317  1.00  0.00    -0.237 OA
ATOM     91  O   UNL A   1      35.829  33.814  29.795  1.00  0.00    -0.744 OA
ENDBRANCH  85  88
ENDBRANCH  57  81
BRANCH  69  92
ATOM     92  C   UNL A   1      44.419  34.044  29.529  1.00  0.00     0.023 A 
ATOM     93  C   UNL A   1      44.961  34.415  30.776  1.00  0.00     0.012 A 
ATOM     94  C   UNL A   1      44.332  35.003  28.499  1.00  0.00     0.148 A 
ATOM     95  C   UNL A   1      45.373  35.726  31.006  1.00  0.00     0.002 A 
ATOM     96  C   UNL A   1      44.795  36.294  28.719  1.00  0.00     0.091 A 
ATOM     97  F   UNL A   1      43.798  34.634  27.326  1.00  0.00    -0.205 F 
ATOM     98  C   UNL A   1      45.302  36.662  29.976  1.00  0.00     0.022 A 
BRANCH  96  99
ATOM     99  S   UNL A   1      44.837  37.535  27.422  1.00  0.00     0.127 S 
ATOM    100  O   UNL A   1      43.432  37.595  27.024  1.00  0.00    -0.237 OA
ATOM    101  O   UNL A   1      45.318  38.716  28.140  1.00  0.00    -0.237 OA
ATOM    102  O   UNL A   1      45.752  37.029  26.408  1.00  0.00    -0.744 OA
ENDBRANCH  96  99
ENDBRANCH  69  92
ENDBRANCH  43  44
ENDBRANCH  35  38
ENDBRANCH  33  34
ENDBRANCH  32  33
ENDBRANCH  31  32
ENDBRANCH   1  31
TORSDOF 20
ENDMDL
MODEL 3
REMARK VINA RESULT:     -11.5      5.746     10.706
REMARK SMILES Cc1ccc(Cl)c(Nc2ccccc2C(=O)N[C@@H](C)C(=O)NCCCCCCNC(=O)c2ccc(-c3c4nc(c(-c5cccc(S(=O)(=O)[O-])c5F)c5ccc([nH]5)c(-c5cccc(S(=O)(=O)[O-])c5F)c5nc(c(-c6cccc(S(=O)(=O)[O-])c6F)c6ccc3[nH]6)C=C5)C=C4)cc2)c1Cl
REMARK SMILES IDX 25 1 24 2 23 3 22 4 20 5 21 6 18 8 19 9 17 10 15 11 16 12
REMARK SMILES IDX 14 14 9 15 10 16 11 17 13 18 12 19 8 20 7 22 1 23 2 24 3 25
REMARK SMILES IDX 95 26 4 27 96 28 5 29 6 30 26 31 27 32 28 33 29 34 30 35
REMARK SMILES IDX 31 37 32 38 33 39 94 40 34 41 93 42 35 43 36 44 37 45 87 46
REMARK SMILES IDX 38 47 92 48 86 49 88 50 39 51 91 52 85 53 84 54 40 56 72 57
REMARK SMILES IDX 52 58 71 59 53 60 56 61 70 62 89 63 54 64 55 65 69 67 90 68
REMARK SMILES IDX 57 69 41 70 42 71 50 72 43 73 45 74 51 75 44 76 46 77 47 78
REMARK SMILES IDX 48 79 49 80 73 81 74 82 82 83 75 84 77 85 83 86 76 87 78 88
REMARK SMILES IDX 79 89 80 90 81 91 58 92 59 93 67 94 60 95 62 96 68 97 61 98
REMARK SMILES IDX 63 99 64 100 65 101 66 102
REMARK H PARENT 22 7 17 13 8 21 29 36 88 55 56 66
REMARK Flexibility Score: inf
ROOT
ATOM      1  C   UNL A   1      35.295  30.735  27.345  1.00  0.00     0.002 C 
ENDROOT
BRANCH   1   2
ATOM      2  C   UNL A   1      34.612  29.433  27.785  1.00  0.00     0.021 C 
BRANCH   2   3
ATOM      3  C   UNL A   1      33.886  28.661  26.675  1.00  0.00     0.116 C 
BRANCH   3   4
ATOM      4  N   UNL A   1      32.446  28.742  26.789  1.00  0.00    -0.354 N 
ATOM      5  C   UNL A   1      31.814  29.460  25.815  1.00  0.00     0.242 C 
ATOM      6  O   UNL A   1      31.767  30.681  25.954  1.00  0.00    -0.273 OA
ATOM      7  H   UNL A   1      31.953  28.309  27.522  1.00  0.00     0.163 HD
BRANCH   5   8
ATOM      8  C   UNL A   1      31.234  28.718  24.590  1.00  0.00     0.168 C 
ATOM      9  C   UNL A   1      30.232  29.499  23.754  1.00  0.00     0.041 C 
BRANCH   8  10
ATOM     10  N   UNL A   1      30.670  27.508  25.165  1.00  0.00    -0.340 N 
ATOM     11  C   UNL A   1      31.301  26.289  25.285  1.00  0.00     0.254 C 
ATOM     12  O   UNL A   1      31.105  25.672  26.337  1.00  0.00    -0.269 OA
ATOM     13  H   UNL A   1      29.746  27.565  25.501  1.00  0.00     0.164 HD
BRANCH  11  14
ATOM     14  C   UNL A   1      31.929  25.563  24.134  1.00  0.00     0.063 A 
ATOM     15  C   UNL A   1      32.842  24.487  24.095  1.00  0.00     0.051 A 
ATOM     16  C   UNL A   1      33.370  24.112  22.834  1.00  0.00     0.027 A 
ATOM     17  C   UNL A   1      32.957  24.704  21.642  1.00  0.00     0.002 A 
ATOM     18  C   UNL A   1      31.509  26.130  22.903  1.00  0.00     0.016 A 
ATOM     19  C   UNL A   1      32.001  25.700  21.673  1.00  0.00     0.001 A 
BRANCH  15  20
ATOM     20  N   UNL A   1      33.245  23.639  25.147  1.00  0.00    -0.352 N 
ATOM     21  H   UNL A   1      32.816  23.861  26.003  1.00  0.00     0.167 HD
BRANCH  20  22
ATOM     22  C   UNL A   1      34.135  22.537  25.245  1.00  0.00     0.077 A 
ATOM     23  C   UNL A   1      37.847  21.620  24.998  1.00  0.00     0.046 C 
ATOM     24  C   UNL A   1      36.356  21.486  25.162  1.00  0.00    -0.030 A 
ATOM     25  C   UNL A   1      35.766  20.228  24.969  1.00  0.00     0.006 A 
ATOM     26  C   UNL A   1      35.538  22.625  25.368  1.00  0.00     0.069 A 
ATOM     27  C   UNL A   1      34.383  20.097  24.957  1.00  0.00     0.023 A 
ATOM     28  Cl  UNL A   1      36.311  24.108  25.842  1.00  0.00    -0.082 Cl
ATOM     29  C   UNL A   1      33.585  21.237  25.074  1.00  0.00     0.066 A 
ATOM     30  Cl  UNL A   1      31.868  21.017  24.933  1.00  0.00    -0.082 Cl
ENDBRANCH  20  22
ENDBRANCH  15  20
ENDBRANCH  11  14
ENDBRANCH   8  10
ENDBRANCH   5   8
ENDBRANCH   3   4
ENDBRANCH   2   3
ENDBRANCH   1   2
BRANCH   1  31
ATOM     31  C   UNL A   1      35.112  31.926  28.289  1.00  0.00     0.002 C 
BRANCH  31  32
ATOM     32  C   UNL A   1      33.812  32.709  28.104  1.00  0.00     0.021 C 
BRANCH  32  33
ATOM     33  C   UNL A   1      33.981  34.217  28.076  1.00  0.00     0.116 C 
BRANCH  33  34
ATOM     34  N   UNL A   1      33.344  34.858  29.208  1.00  0.00    -0.352 N 
ATOM     35  C   UNL A   1      33.626  34.678  30.542  1.00  0.00     0.251 C 
ATOM     36  H   UNL A   1      32.624  35.497  28.998  1.00  0.00     0.163 HD
ATOM     37  O   UNL A   1      32.883  35.133  31.400  1.00  0.00    -0.269 OA
BRANCH  35  38
ATOM     38  C   UNL A   1      34.827  33.899  30.916  1.00  0.00     0.039 A 
ATOM     39  C   UNL A   1      36.086  34.399  30.581  1.00  0.00     0.014 A 
ATOM     40  C   UNL A   1      34.709  32.700  31.628  1.00  0.00     0.014 A 
ATOM     41  C   UNL A   1      37.229  33.711  30.991  1.00  0.00     0.010 A 
ATOM     42  C   UNL A   1      35.850  32.068  32.114  1.00  0.00     0.010 A 
ATOM     43  C   UNL A   1      37.122  32.553  31.779  1.00  0.00    -0.014 A 
BRANCH  43  44
ATOM     44  C   UNL A   1      38.336  31.827  32.236  1.00  0.00     0.031 A 
ATOM     45  C   UNL A   1      38.987  32.191  33.545  1.00  0.00     0.074 A 
ATOM     46  C   UNL A   1      38.880  30.875  31.454  1.00  0.00     0.049 A 
ATOM     47  N   UNL A   1      40.045  31.672  34.111  1.00  0.00    -0.248 NA
ATOM     48  C   UNL A   1      38.389  33.301  34.306  1.00  0.00     0.031 C 
ATOM     49  C   UNL A   1      38.393  30.486  30.129  1.00  0.00     0.029 A 
ATOM     50  N   UNL A   1      39.974  30.070  31.653  1.00  0.00    -0.354 N 
ATOM     51  C   UNL A   1      40.257  32.408  35.270  1.00  0.00     0.074 A 
ATOM     52  C   UNL A   1      39.245  33.440  35.306  1.00  0.00     0.031 C 
ATOM     53  C   UNL A   1      39.174  29.510  29.641  1.00  0.00     0.029 A 
ATOM     54  C   UNL A   1      40.235  29.223  30.601  1.00  0.00     0.049 A 
ATOM     55  H   UNL A   1      40.522  30.097  32.471  1.00  0.00     0.167 HD
ATOM     56  C   UNL A   1      41.189  32.225  36.236  1.00  0.00     0.034 A 
ATOM     57  C   UNL A   1      41.219  28.318  30.428  1.00  0.00     0.034 A 
ATOM     58  C   UNL A   1      42.170  31.175  36.215  1.00  0.00     0.049 A 
ATOM     59  C   UNL A   1      42.221  28.109  31.532  1.00  0.00     0.074 A 
ATOM     60  C   UNL A   1      43.101  30.850  37.184  1.00  0.00     0.029 A 
ATOM     61  N   UNL A   1      42.358  30.289  35.165  1.00  0.00    -0.354 N 
ATOM     62  N   UNL A   1      42.305  28.709  32.695  1.00  0.00    -0.248 NA
ATOM     63  C   UNL A   1      43.240  27.073  31.317  1.00  0.00     0.031 C 
ATOM     64  C   UNL A   1      43.877  29.790  36.706  1.00  0.00     0.029 A 
ATOM     65  C   UNL A   1      43.400  29.426  35.456  1.00  0.00     0.049 A 
ATOM     66  H   UNL A   1      41.829  30.276  34.336  1.00  0.00     0.167 HD
ATOM     67  C   UNL A   1      43.360  28.098  33.364  1.00  0.00     0.074 A 
ATOM     68  C   UNL A   1      43.869  27.067  32.484  1.00  0.00     0.031 C 
ATOM     69  C   UNL A   1      43.867  28.374  34.591  1.00  0.00     0.034 A 
BRANCH  56  70
ATOM     70  C   UNL A   1      41.163  33.159  37.419  1.00  0.00     0.023 A 
ATOM     71  C   UNL A   1      40.283  32.907  38.492  1.00  0.00     0.012 A 
ATOM     72  C   UNL A   1      42.048  34.252  37.496  1.00  0.00     0.148 A 
ATOM     73  C   UNL A   1      40.254  33.750  39.602  1.00  0.00     0.002 A 
ATOM     74  C   UNL A   1      42.048  35.059  38.628  1.00  0.00     0.091 A 
ATOM     75  F   UNL A   1      42.864  34.489  36.459  1.00  0.00    -0.205 F 
ATOM     76  C   UNL A   1      41.143  34.818  39.675  1.00  0.00     0.022 A 
BRANCH  74  77
ATOM     77  S   UNL A   1      43.212  36.407  38.857  1.00  0.00     0.127 S 
ATOM     78  O   UNL A   1      42.851  37.298  37.755  1.00  0.00    -0.237 OA
ATOM     79  O   UNL A   1      42.847  36.903  40.185  1.00  0.00    -0.237 OA
ATOM     80  O   UNL A   1      44.539  35.815  38.772  1.00  0.00    -0.744 OA
ENDBRANCH  74  77
ENDBRANCH  56  70
BRANCH  57  81
ATOM     81  C   UNL A   1      41.272  27.501  29.182  1.00  0.00     0.023 A 
ATOM     82  C   UNL A   1      40.524  26.309  29.099  1.00  0.00     0.012 A 
ATOM     83  C   UNL A   1      42.039  27.908  28.075  1.00  0.00     0.148 A 
ATOM     84  C   UNL A   1      40.570  25.519  27.950  1.00  0.00     0.002 A 
ATOM     85  C   UNL A   1      42.034  27.148  26.912  1.00  0.00     0.091 A 
ATOM     86  F   UNL A   1      42.750  29.040  28.177  1.00  0.00    -0.205 F 
ATOM     87  C   UNL A   1      41.317  25.943  26.854  1.00  0.00     0.022 A 
BRANCH  85  88
ATOM     88  S   UNL A   1      42.857  27.682  25.408  1.00  0.00     0.127 S 
ATOM     89  O   UNL A   1      42.794  26.476  24.586  1.00  0.00    -0.237 OA
ATOM     90  O   UNL A   1      41.994  28.777  24.965  1.00  0.00    -0.237 OA
ATOM     91  O   UNL A   1      44.192  28.100  25.815  1.00  0.00    -0.744 OA
ENDBRANCH  85  88
ENDBRANCH  57  81
BRANCH  69  92
ATOM     92  C   UNL A   1      45.008  27.520  35.083  1.00  0.00     0.023 A 
ATOM     93  C   UNL A   1      46.339  27.942  34.894  1.00  0.00     0.012 A 
ATOM     94  C   UNL A   1      44.754  26.331  35.796  1.00  0.00     0.148 A 
ATOM     95  C   UNL A   1      47.400  27.174  35.371  1.00  0.00     0.002 A 
ATOM     96  C   UNL A   1      45.814  25.600  36.316  1.00  0.00     0.091 A 
ATOM     97  F   UNL A   1      43.482  25.939  35.951  1.00  0.00    -0.205 F 
ATOM     98  C   UNL A   1      47.138  26.011  36.092  1.00  0.00     0.022 A 
BRANCH  96  99
ATOM     99  S   UNL A   1      45.569  24.146  37.341  1.00  0.00     0.127 S 
ATOM    100  O   UNL A   1      44.937  23.223  36.400  1.00  0.00    -0.237 OA
ATOM    101  O   UNL A   1      46.940  23.795  37.713  1.00  0.00    -0.237 OA
ATOM    102  O   UNL A   1      44.731  24.573  38.453  1.00  0.00    -0.744 OA
ENDBRANCH  96  99
ENDBRANCH  69  92
ENDBRANCH  43  44
ENDBRANCH  35  38
ENDBRANCH  33  34
ENDBRANCH  32  33
ENDBRANCH  31  32
ENDBRANCH   1  31
TORSDOF 20
ENDMDL
