MODEL 1
REMARK VINA RESULT:     -11.5      0.000      0.000
REMARK SMILES Nc1nonc1C(=O)N1[C@@H]2CC[C@H]1C[C@H](CC(=O)NCCCCCCNC(=O)c1ccc(-c3c4nc(c(-c5cccc(S(=O)(=O)[O-])c5F)c5ccc([nH]5)c(-c5cccc(S(=O)(=O)[O-])c5F)c5nc(c(-c6cccc(S(=O)(=O)[O-])c6F)c6ccc3[nH]6)C=C5)C=C4)cc1)C2
REMARK SMILES IDX 22 1 21 2 20 3 19 4 17 5 18 6 16 8 15 9 9 10 10 11 13 12
REMARK SMILES IDX 11 13 92 14 12 15 14 16 7 17 8 18 6 19 2 20 3 21 4 22 5 23
REMARK SMILES IDX 1 24 23 27 24 28 25 29 26 30 27 31 28 33 29 34 30 35 91 36
REMARK SMILES IDX 31 37 90 38 32 39 33 40 34 41 84 42 35 43 89 44 83 45 85 46
REMARK SMILES IDX 36 47 88 48 82 49 81 50 37 52 69 53 49 54 68 55 50 56 53 57
REMARK SMILES IDX 67 58 86 59 51 60 52 61 66 63 87 64 54 65 38 66 39 67 47 68
REMARK SMILES IDX 40 69 42 70 48 71 41 72 43 73 44 74 45 75 46 76 70 77 71 78
REMARK SMILES IDX 79 79 72 80 74 81 80 82 73 83 75 84 76 85 77 86 78 87 55 88
REMARK SMILES IDX 56 89 64 90 57 91 59 92 65 93 58 94 60 95 61 96 62 97 63 98
REMARK H PARENT 19 7 1 25 1 26 26 32 85 51 53 62
REMARK Flexibility Score: inf
ROOT
ATOM      1  C   UNL A   1      31.002  28.625  24.347  1.00  0.00     0.002 C 
ENDROOT
BRANCH   1   2
ATOM      2  C   UNL A   1      31.574  28.651  22.932  1.00  0.00     0.021 C 
BRANCH   2   3
ATOM      3  C   UNL A   1      32.967  28.022  22.785  1.00  0.00     0.116 C 
BRANCH   3   4
ATOM      4  N   UNL A   1      33.051  27.230  21.565  1.00  0.00    -0.356 N 
ATOM      5  C   UNL A   1      32.791  25.913  21.320  1.00  0.00     0.220 C 
ATOM      6  O   UNL A   1      33.032  25.478  20.192  1.00  0.00    -0.275 OA
ATOM      7  H   UNL A   1      33.347  27.736  20.775  1.00  0.00     0.163 HD
BRANCH   5   8
ATOM      8  C   UNL A   1      32.220  24.999  22.391  1.00  0.00     0.103 C 
BRANCH   8   9
ATOM      9  C   UNL A   1      33.219  24.636  23.516  1.00  0.00     0.002 C 
ATOM     10  N   UNL A   1      33.383  22.138  24.890  1.00  0.00    -0.331 N 
ATOM     11  C   UNL A   1      34.593  22.568  24.207  1.00  0.00     0.086 C 
ATOM     12  C   UNL A   1      33.035  23.255  25.738  1.00  0.00     0.086 C 
ATOM     13  C   UNL A   1      35.388  23.352  25.268  1.00  0.00     0.027 C 
ATOM     14  C   UNL A   1      34.127  23.465  23.053  1.00  0.00     0.029 C 
ATOM     15  C   UNL A   1      34.360  23.696  26.348  1.00  0.00     0.027 C 
ATOM     16  C   UNL A   1      32.462  24.345  24.832  1.00  0.00     0.029 C 
BRANCH  10  17
ATOM     17  C   UNL A   1      33.320  20.832  25.372  1.00  0.00     0.280 C 
ATOM     18  O   UNL A   1      33.635  20.583  26.535  1.00  0.00    -0.267 OA
BRANCH  17  19
ATOM     19  C   UNL A   1      33.024  19.800  24.375  1.00  0.00     0.216 A 
ATOM     20  C   UNL A   1      33.313  18.409  24.310  1.00  0.00     0.201 A 
ATOM     21  N   UNL A   1      32.712  17.878  23.251  1.00  0.00    -0.032 NA
ATOM     22  O   UNL A   1      32.121  18.941  22.591  1.00  0.00    -0.242 OA
ATOM     23  N   UNL A   1      32.301  20.123  23.291  1.00  0.00    -0.042 NA
BRANCH  20  24
ATOM     24  N   UNL A   1      34.087  17.669  25.125  1.00  0.00    -0.379 N 
ATOM     25  H   UNL A   1      33.674  17.015  25.735  1.00  0.00     0.158 HD
ATOM     26  H   UNL A   1      35.065  17.780  25.111  1.00  0.00     0.158 HD
ENDBRANCH  20  24
ENDBRANCH  17  19
ENDBRANCH  10  17
ENDBRANCH   8   9
ENDBRANCH   5   8
ENDBRANCH   3   4
ENDBRANCH   2   3
ENDBRANCH   1   2
BRANCH   1  27
ATOM     27  C   UNL A   1      31.708  27.659  25.300  1.00  0.00     0.002 C 
BRANCH  27  28
ATOM     28  C   UNL A   1      32.393  28.299  26.513  1.00  0.00     0.021 C 
BRANCH  28  29
ATOM     29  C   UNL A   1      33.724  28.992  26.227  1.00  0.00     0.116 C 
BRANCH  29  30
ATOM     30  N   UNL A   1      33.716  30.388  26.635  1.00  0.00    -0.352 N 
ATOM     31  C   UNL A   1      34.516  31.043  27.538  1.00  0.00     0.251 C 
ATOM     32  H   UNL A   1      33.033  30.948  26.197  1.00  0.00     0.163 HD
ATOM     33  O   UNL A   1      34.211  32.171  27.918  1.00  0.00    -0.269 OA
BRANCH  31  34
ATOM     34  C   UNL A   1      35.737  30.392  28.057  1.00  0.00     0.039 A 
ATOM     35  C   UNL A   1      36.910  30.441  27.297  1.00  0.00     0.014 A 
ATOM     36  C   UNL A   1      35.719  29.711  29.276  1.00  0.00     0.014 A 
ATOM     37  C   UNL A   1      38.078  29.852  27.788  1.00  0.00     0.010 A 
ATOM     38  C   UNL A   1      36.899  29.187  29.796  1.00  0.00     0.010 A 
ATOM     39  C   UNL A   1      38.089  29.242  29.054  1.00  0.00    -0.014 A 
BRANCH  39  40
ATOM     40  C   UNL A   1      39.333  28.663  29.622  1.00  0.00     0.031 A 
ATOM     41  C   UNL A   1      39.945  29.252  30.865  1.00  0.00     0.074 A 
ATOM     42  C   UNL A   1      39.961  27.667  28.969  1.00  0.00     0.049 A 
ATOM     43  N   UNL A   1      41.046  28.912  31.484  1.00  0.00    -0.248 NA
ATOM     44  C   UNL A   1      39.242  30.392  31.477  1.00  0.00     0.031 C 
ATOM     45  C   UNL A   1      39.507  27.060  27.716  1.00  0.00     0.029 A 
ATOM     46  N   UNL A   1      41.128  27.004  29.256  1.00  0.00    -0.354 N 
ATOM     47  C   UNL A   1      41.192  29.817  32.528  1.00  0.00     0.074 A 
ATOM     48  C   UNL A   1      40.083  30.743  32.438  1.00  0.00     0.031 C 
ATOM     49  C   UNL A   1      40.375  26.103  27.352  1.00  0.00     0.029 A 
ATOM     50  C   UNL A   1      41.461  26.047  28.326  1.00  0.00     0.049 A 
ATOM     51  H   UNL A   1      41.675  27.194  30.052  1.00  0.00     0.167 HD
ATOM     52  C   UNL A   1      42.143  29.859  33.491  1.00  0.00     0.034 A 
ATOM     53  C   UNL A   1      42.520  25.216  28.267  1.00  0.00     0.034 A 
ATOM     54  C   UNL A   1      43.216  28.908  33.602  1.00  0.00     0.049 A 
ATOM     55  C   UNL A   1      43.547  25.262  29.366  1.00  0.00     0.074 A 
ATOM     56  C   UNL A   1      44.170  28.797  34.597  1.00  0.00     0.029 A 
ATOM     57  N   UNL A   1      43.487  27.912  32.677  1.00  0.00    -0.354 N 
ATOM     58  N   UNL A   1      43.576  26.012  30.439  1.00  0.00    -0.248 NA
ATOM     59  C   UNL A   1      44.673  24.322  29.260  1.00  0.00     0.031 C 
ATOM     60  C   UNL A   1      45.034  27.749  34.261  1.00  0.00     0.029 A 
ATOM     61  C   UNL A   1      44.602  27.191  33.067  1.00  0.00     0.049 A 
ATOM     62  H   UNL A   1      42.963  27.741  31.861  1.00  0.00     0.167 HD
ATOM     63  C   UNL A   1      44.695  25.610  31.158  1.00  0.00     0.074 A 
ATOM     64  C   UNL A   1      45.311  24.538  30.403  1.00  0.00     0.031 C 
ATOM     65  C   UNL A   1      45.177  26.091  32.331  1.00  0.00     0.034 A 
BRANCH  52  66
ATOM     66  C   UNL A   1      42.033  30.948  34.529  1.00  0.00     0.023 A 
ATOM     67  C   UNL A   1      41.313  30.709  35.718  1.00  0.00     0.012 A 
ATOM     68  C   UNL A   1      42.659  32.196  34.344  1.00  0.00     0.148 A 
ATOM     69  C   UNL A   1      41.175  31.707  36.682  1.00  0.00     0.002 A 
ATOM     70  C   UNL A   1      42.557  33.171  35.330  1.00  0.00     0.091 A 
ATOM     71  F   UNL A   1      43.321  32.418  33.200  1.00  0.00    -0.205 F 
ATOM     72  C   UNL A   1      41.803  32.934  36.491  1.00  0.00     0.022 A 
BRANCH  70  73
ATOM     73  S   UNL A   1      43.399  34.754  35.210  1.00  0.00     0.127 S 
ATOM     74  O   UNL A   1      44.800  34.340  35.168  1.00  0.00    -0.237 OA
ATOM     75  O   UNL A   1      42.883  35.286  33.948  1.00  0.00    -0.237 OA
ATOM     76  O   UNL A   1      42.996  35.506  36.391  1.00  0.00    -0.744 OA
ENDBRANCH  70  73
ENDBRANCH  52  66
BRANCH  53  77
ATOM     77  C   UNL A   1      42.606  24.199  27.180  1.00  0.00     0.023 A 
ATOM     78  C   UNL A   1      43.355  24.499  26.026  1.00  0.00     0.012 A 
ATOM     79  C   UNL A   1      41.999  22.934  27.297  1.00  0.00     0.148 A 
ATOM     80  C   UNL A   1      43.479  23.568  24.995  1.00  0.00     0.002 A 
ATOM     81  C   UNL A   1      42.169  21.992  26.288  1.00  0.00     0.091 A 
ATOM     82  F   UNL A   1      41.285  22.672  28.401  1.00  0.00    -0.205 F 
ATOM     83  C   UNL A   1      42.895  22.312  25.130  1.00  0.00     0.022 A 
BRANCH  81  84
ATOM     84  S   UNL A   1      41.565  20.305  26.424  1.00  0.00     0.127 S 
ATOM     85  O   UNL A   1      42.022  19.929  27.758  1.00  0.00    -0.237 OA
ATOM     86  O   UNL A   1      40.119  20.494  26.295  1.00  0.00    -0.237 OA
ATOM     87  O   UNL A   1      42.177  19.579  25.319  1.00  0.00    -0.744 OA
ENDBRANCH  81  84
ENDBRANCH  53  77
BRANCH  65  88
ATOM     88  C   UNL A   1      46.414  25.443  32.898  1.00  0.00     0.023 A 
ATOM     89  C   UNL A   1      47.683  25.981  32.608  1.00  0.00     0.012 A 
ATOM     90  C   UNL A   1      46.312  24.346  33.777  1.00  0.00     0.148 A 
ATOM     91  C   UNL A   1      48.834  25.419  33.158  1.00  0.00     0.002 A 
ATOM     92  C   UNL A   1      47.459  23.822  34.361  1.00  0.00     0.091 A 
ATOM     93  F   UNL A   1      45.097  23.835  34.024  1.00  0.00    -0.205 F 
ATOM     94  C   UNL A   1      48.722  24.349  34.044  1.00  0.00     0.022 A 
BRANCH  92  95
ATOM     95  S   UNL A   1      47.399  22.510  35.586  1.00  0.00     0.127 S 
ATOM     96  O   UNL A   1      47.033  21.355  34.769  1.00  0.00    -0.237 OA
ATOM     97  O   UNL A   1      48.775  22.490  36.088  1.00  0.00    -0.237 OA
ATOM     98  O   UNL A   1      46.406  22.922  36.568  1.00  0.00    -0.744 OA
ENDBRANCH  92  95
ENDBRANCH  65  88
ENDBRANCH  39  40
ENDBRANCH  31  34
ENDBRANCH  29  30
ENDBRANCH  28  29
ENDBRANCH  27  28
ENDBRANCH   1  27
TORSDOF 20
ENDMDL
MODEL 2
REMARK VINA RESULT:     -11.4      2.034      2.403
REMARK SMILES Nc1nonc1C(=O)N1[C@@H]2CC[C@H]1C[C@H](CC(=O)NCCCCCCNC(=O)c1ccc(-c3c4nc(c(-c5cccc(S(=O)(=O)[O-])c5F)c5ccc([nH]5)c(-c5cccc(S(=O)(=O)[O-])c5F)c5nc(c(-c6cccc(S(=O)(=O)[O-])c6F)c6ccc3[nH]6)C=C5)C=C4)cc1)C2
REMARK SMILES IDX 22 1 21 2 20 3 19 4 17 5 18 6 16 8 15 9 9 10 10 11 13 12
REMARK SMILES IDX 11 13 92 14 12 15 14 16 7 17 8 18 6 19 2 20 3 21 4 22 5 23
REMARK SMILES IDX 1 24 23 27 24 28 25 29 26 30 27 31 28 33 29 34 30 35 91 36
REMARK SMILES IDX 31 37 90 38 32 39 33 40 34 41 84 42 35 43 89 44 83 45 85 46
REMARK SMILES IDX 36 47 88 48 82 49 81 50 37 52 69 53 49 54 68 55 50 56 53 57
REMARK SMILES IDX 67 58 86 59 51 60 52 61 66 63 87 64 54 65 38 66 39 67 47 68
REMARK SMILES IDX 40 69 42 70 48 71 41 72 43 73 44 74 45 75 46 76 70 77 71 78
REMARK SMILES IDX 79 79 72 80 74 81 80 82 73 83 75 84 76 85 77 86 78 87 55 88
REMARK SMILES IDX 56 89 64 90 57 91 59 92 65 93 58 94 60 95 61 96 62 97 63 98
REMARK H PARENT 19 7 1 25 1 26 26 32 85 51 53 62
REMARK Flexibility Score: inf
ROOT
ATOM      1  C   UNL A   1      31.061  28.600  24.313  1.00  0.00     0.002 C 
ENDROOT
BRANCH   1   2
ATOM      2  C   UNL A   1      31.409  28.216  22.876  1.00  0.00     0.021 C 
BRANCH   2   3
ATOM      3  C   UNL A   1      32.895  27.919  22.628  1.00  0.00     0.116 C 
BRANCH   3   4
ATOM      4  N   UNL A   1      33.055  26.957  21.545  1.00  0.00    -0.356 N 
ATOM      5  C   UNL A   1      32.814  25.616  21.481  1.00  0.00     0.220 C 
ATOM      6  O   UNL A   1      33.125  25.023  20.446  1.00  0.00    -0.275 OA
ATOM      7  H   UNL A   1      33.399  27.345  20.708  1.00  0.00     0.163 HD
BRANCH   5   8
ATOM      8  C   UNL A   1      32.179  24.863  22.638  1.00  0.00     0.103 C 
BRANCH   8   9
ATOM      9  C   UNL A   1      33.132  24.609  23.831  1.00  0.00     0.002 C 
ATOM     10  N   UNL A   1      34.154  22.078  24.670  1.00  0.00    -0.331 N 
ATOM     11  C   UNL A   1      35.149  23.082  24.328  1.00  0.00     0.086 C 
ATOM     12  C   UNL A   1      33.312  22.727  25.649  1.00  0.00     0.086 C 
ATOM     13  C   UNL A   1      35.463  23.795  25.656  1.00  0.00     0.027 C 
ATOM     14  C   UNL A   1      34.471  24.015  23.316  1.00  0.00     0.029 C 
ATOM     15  C   UNL A   1      34.289  23.445  26.572  1.00  0.00     0.027 C 
ATOM     16  C   UNL A   1      32.437  23.729  24.895  1.00  0.00     0.029 C 
BRANCH  10  17
ATOM     17  C   UNL A   1      34.574  20.762  24.854  1.00  0.00     0.280 C 
ATOM     18  O   UNL A   1      35.751  20.515  25.110  1.00  0.00    -0.267 OA
BRANCH  17  19
ATOM     19  C   UNL A   1      33.575  19.730  24.563  1.00  0.00     0.216 A 
ATOM     20  C   UNL A   1      32.800  18.875  25.394  1.00  0.00     0.201 A 
ATOM     21  N   UNL A   1      31.932  18.197  24.650  1.00  0.00    -0.032 NA
ATOM     22  O   UNL A   1      32.215  18.548  23.342  1.00  0.00    -0.242 OA
ATOM     23  N   UNL A   1      33.217  19.504  23.289  1.00  0.00    -0.042 NA
BRANCH  20  24
ATOM     24  N   UNL A   1      32.884  18.688  26.724  1.00  0.00    -0.379 N 
ATOM     25  H   UNL A   1      32.265  18.068  27.174  1.00  0.00     0.158 HD
ATOM     26  H   UNL A   1      33.564  19.171  27.247  1.00  0.00     0.158 HD
ENDBRANCH  20  24
ENDBRANCH  17  19
ENDBRANCH  10  17
ENDBRANCH   8   9
ENDBRANCH   5   8
ENDBRANCH   3   4
ENDBRANCH   2   3
ENDBRANCH   1   2
BRANCH   1  27
ATOM     27  C   UNL A   1      31.590  27.634  25.374  1.00  0.00     0.002 C 
BRANCH  27  28
ATOM     28  C   UNL A   1      32.574  28.231  26.387  1.00  0.00     0.021 C 
BRANCH  28  29
ATOM     29  C   UNL A   1      33.570  29.241  25.821  1.00  0.00     0.116 C 
BRANCH  29  30
ATOM     30  N   UNL A   1      33.245  30.606  26.202  1.00  0.00    -0.352 N 
ATOM     31  C   UNL A   1      33.754  31.379  27.217  1.00  0.00     0.251 C 
ATOM     32  H   UNL A   1      32.556  31.042  25.649  1.00  0.00     0.163 HD
ATOM     33  O   UNL A   1      33.194  32.428  27.525  1.00  0.00    -0.269 OA
BRANCH  31  34
ATOM     34  C   UNL A   1      34.969  30.947  27.940  1.00  0.00     0.039 A 
ATOM     35  C   UNL A   1      34.937  29.760  28.678  1.00  0.00     0.014 A 
ATOM     36  C   UNL A   1      36.129  31.726  27.912  1.00  0.00     0.014 A 
ATOM     37  C   UNL A   1      36.087  29.328  29.343  1.00  0.00     0.010 A 
ATOM     38  C   UNL A   1      37.292  31.258  28.517  1.00  0.00     0.010 A 
ATOM     39  C   UNL A   1      37.282  30.060  29.247  1.00  0.00    -0.014 A 
BRANCH  39  40
ATOM     40  C   UNL A   1      38.532  29.589  29.896  1.00  0.00     0.031 A 
ATOM     41  C   UNL A   1      38.947  30.141  31.234  1.00  0.00     0.074 A 
ATOM     42  C   UNL A   1      39.341  28.734  29.240  1.00  0.00     0.049 A 
ATOM     43  N   UNL A   1      40.020  29.884  31.936  1.00  0.00    -0.248 NA
ATOM     44  C   UNL A   1      38.050  31.132  31.852  1.00  0.00     0.031 C 
ATOM     45  C   UNL A   1      39.085  28.185  27.907  1.00  0.00     0.029 A 
ATOM     46  N   UNL A   1      40.551  28.195  29.596  1.00  0.00    -0.354 N 
ATOM     47  C   UNL A   1      39.952  30.709  33.052  1.00  0.00     0.074 A 
ATOM     48  C   UNL A   1      38.747  31.500  32.916  1.00  0.00     0.031 C 
ATOM     49  C   UNL A   1      40.099  27.373  27.565  1.00  0.00     0.029 A 
ATOM     50  C   UNL A   1      41.088  27.366  28.639  1.00  0.00     0.049 A 
ATOM     51  H   UNL A   1      40.993  28.382  30.455  1.00  0.00     0.167 HD
ATOM     52  C   UNL A   1      40.798  30.785  34.107  1.00  0.00     0.034 A 
ATOM     53  C   UNL A   1      42.246  26.677  28.628  1.00  0.00     0.034 A 
ATOM     54  C   UNL A   1      41.969  29.964  34.258  1.00  0.00     0.049 A 
ATOM     55  C   UNL A   1      43.153  26.754  29.826  1.00  0.00     0.074 A 
ATOM     56  C   UNL A   1      42.833  29.885  35.335  1.00  0.00     0.029 A 
ATOM     57  N   UNL A   1      42.449  29.089  33.296  1.00  0.00    -0.354 N 
ATOM     58  N   UNL A   1      42.986  27.409  30.948  1.00  0.00    -0.248 NA
ATOM     59  C   UNL A   1      44.395  25.968  29.767  1.00  0.00     0.031 C 
ATOM     60  C   UNL A   1      43.851  28.980  35.013  1.00  0.00     0.029 A 
ATOM     61  C   UNL A   1      43.607  28.477  33.745  1.00  0.00     0.049 A 
ATOM     62  H   UNL A   1      42.029  28.926  32.421  1.00  0.00     0.167 HD
ATOM     63  C   UNL A   1      44.077  27.085  31.746  1.00  0.00     0.074 A 
ATOM     64  C   UNL A   1      44.892  26.163  30.982  1.00  0.00     0.031 C 
ATOM     65  C   UNL A   1      44.383  27.520  32.994  1.00  0.00     0.034 A 
BRANCH  52  66
ATOM     66  C   UNL A   1      40.454  31.761  35.205  1.00  0.00     0.023 A 
ATOM     67  C   UNL A   1      41.193  32.954  35.335  1.00  0.00     0.012 A 
ATOM     68  C   UNL A   1      39.386  31.513  36.090  1.00  0.00     0.148 A 
ATOM     69  C   UNL A   1      40.911  33.860  36.356  1.00  0.00     0.002 A 
ATOM     70  C   UNL A   1      39.081  32.443  37.077  1.00  0.00     0.091 A 
ATOM     71  F   UNL A   1      38.706  30.364  35.970  1.00  0.00    -0.205 F 
ATOM     72  C   UNL A   1      39.851  33.609  37.221  1.00  0.00     0.022 A 
BRANCH  70  73
ATOM     73  S   UNL A   1      37.682  32.244  38.187  1.00  0.00     0.127 S 
ATOM     74  O   UNL A   1      37.425  30.809  38.083  1.00  0.00    -0.237 OA
ATOM     75  O   UNL A   1      38.240  32.671  39.471  1.00  0.00    -0.237 OA
ATOM     76  O   UNL A   1      36.636  33.114  37.666  1.00  0.00    -0.744 OA
ENDBRANCH  70  73
ENDBRANCH  52  66
BRANCH  53  77
ATOM     77  C   UNL A   1      42.561  25.774  27.485  1.00  0.00     0.023 A 
ATOM     78  C   UNL A   1      43.374  26.256  26.440  1.00  0.00     0.012 A 
ATOM     79  C   UNL A   1      42.108  24.441  27.445  1.00  0.00     0.148 A 
ATOM     80  C   UNL A   1      43.710  25.436  25.363  1.00  0.00     0.002 A 
ATOM     81  C   UNL A   1      42.490  23.614  26.394  1.00  0.00     0.091 A 
ATOM     82  F   UNL A   1      41.331  24.004  28.446  1.00  0.00    -0.205 F 
ATOM     83  C   UNL A   1      43.277  24.114  25.344  1.00  0.00     0.022 A 
BRANCH  81  84
ATOM     84  S   UNL A   1      42.091  21.863  26.342  1.00  0.00     0.127 S 
ATOM     85  O   UNL A   1      40.656  21.890  26.072  1.00  0.00    -0.237 OA
ATOM     86  O   UNL A   1      42.921  21.400  25.229  1.00  0.00    -0.237 OA
ATOM     87  O   UNL A   1      42.479  21.333  27.643  1.00  0.00    -0.744 OA
ENDBRANCH  81  84
ENDBRANCH  53  77
BRANCH  65  88
ATOM     88  C   UNL A   1      45.635  26.981  33.635  1.00  0.00     0.023 A 
ATOM     89  C   UNL A   1      46.844  27.695  33.524  1.00  0.00     0.012 A 
ATOM     90  C   UNL A   1      45.595  25.804  34.410  1.00  0.00     0.148 A 
ATOM     91  C   UNL A   1      48.001  27.230  34.147  1.00  0.00     0.002 A 
ATOM     92  C   UNL A   1      46.741  25.374  35.069  1.00  0.00     0.091 A 
ATOM     93  F   UNL A   1      44.441  25.126  34.487  1.00  0.00    -0.205 F 
ATOM     94  C   UNL A   1      47.948  26.079  34.929  1.00  0.00     0.022 A 
BRANCH  92  95
ATOM     95  S   UNL A   1      46.739  23.958  36.175  1.00  0.00     0.127 S 
ATOM     96  O   UNL A   1      48.121  23.950  36.652  1.00  0.00    -0.237 OA
ATOM     97  O   UNL A   1      45.750  24.351  37.181  1.00  0.00    -0.237 OA
ATOM     98  O   UNL A   1      46.350  22.814  35.363  1.00  0.00    -0.744 OA
ENDBRANCH  92  95
ENDBRANCH  65  88
ENDBRANCH  39  40
ENDBRANCH  31  34
ENDBRANCH  29  30
ENDBRANCH  28  29
ENDBRANCH  27  28
ENDBRANCH   1  27
TORSDOF 20
ENDMDL
MODEL 3
REMARK VINA RESULT:     -11.4      4.914     10.008
REMARK SMILES Nc1nonc1C(=O)N1[C@@H]2CC[C@H]1C[C@H](CC(=O)NCCCCCCNC(=O)c1ccc(-c3c4nc(c(-c5cccc(S(=O)(=O)[O-])c5F)c5ccc([nH]5)c(-c5cccc(S(=O)(=O)[O-])c5F)c5nc(c(-c6cccc(S(=O)(=O)[O-])c6F)c6ccc3[nH]6)C=C5)C=C4)cc1)C2
REMARK SMILES IDX 22 1 21 2 20 3 19 4 17 5 18 6 16 8 15 9 9 10 10 11 13 12
REMARK SMILES IDX 11 13 92 14 12 15 14 16 7 17 8 18 6 19 2 20 3 21 4 22 5 23
REMARK SMILES IDX 1 24 23 27 24 28 25 29 26 30 27 31 28 33 29 34 30 35 91 36
REMARK SMILES IDX 31 37 90 38 32 39 33 40 34 41 84 42 35 43 89 44 83 45 85 46
REMARK SMILES IDX 36 47 88 48 82 49 81 50 37 52 69 53 49 54 68 55 50 56 53 57
REMARK SMILES IDX 67 58 86 59 51 60 52 61 66 63 87 64 54 65 38 66 39 67 47 68
REMARK SMILES IDX 40 69 42 70 48 71 41 72 43 73 44 74 45 75 46 76 70 77 71 78
REMARK SMILES IDX 79 79 72 80 74 81 80 82 73 83 75 84 76 85 77 86 78 87 55 88
REMARK SMILES IDX 56 89 64 90 57 91 59 92 65 93 58 94 60 95 61 96 62 97 63 98
REMARK H PARENT 19 7 1 25 1 26 26 32 85 51 53 62
REMARK Flexibility Score: inf
ROOT
ATOM      1  C   UNL A   1      34.279  20.196  24.711  1.00  0.00     0.002 C 
ENDROOT
BRANCH   1   2
ATOM      2  C   UNL A   1      32.791  20.141  25.052  1.00  0.00     0.021 C 
BRANCH   2   3
ATOM      3  C   UNL A   1      32.041  21.471  24.885  1.00  0.00     0.116 C 
BRANCH   3   4
ATOM      4  N   UNL A   1      31.301  21.802  26.096  1.00  0.00    -0.356 N 
ATOM      5  C   UNL A   1      30.685  22.952  26.495  1.00  0.00     0.220 C 
ATOM      6  O   UNL A   1      30.196  22.982  27.626  1.00  0.00    -0.275 OA
ATOM      7  H   UNL A   1      31.232  21.063  26.742  1.00  0.00     0.163 HD
BRANCH   5   8
ATOM      8  C   UNL A   1      30.590  24.165  25.584  1.00  0.00     0.103 C 
BRANCH   8   9
ATOM      9  C   UNL A   1      31.545  25.322  25.966  1.00  0.00     0.002 C 
ATOM     10  N   UNL A   1      32.062  27.667  24.422  1.00  0.00    -0.331 N 
ATOM     11  C   UNL A   1      31.552  27.892  25.765  1.00  0.00     0.086 C 
ATOM     12  C   UNL A   1      33.219  26.822  24.615  1.00  0.00     0.086 C 
ATOM     13  C   UNL A   1      32.807  28.037  26.646  1.00  0.00     0.027 C 
ATOM     14  C   UNL A   1      30.739  26.640  26.119  1.00  0.00     0.029 C 
ATOM     15  C   UNL A   1      33.938  27.432  25.812  1.00  0.00     0.027 C 
ATOM     16  C   UNL A   1      32.701  25.422  24.946  1.00  0.00     0.029 C 
BRANCH  10  17
ATOM     17  C   UNL A   1      32.109  28.745  23.540  1.00  0.00     0.280 C 
ATOM     18  O   UNL A   1      33.172  29.323  23.320  1.00  0.00    -0.267 OA
BRANCH  17  19
ATOM     19  C   UNL A   1      30.813  29.220  23.048  1.00  0.00     0.216 A 
ATOM     20  C   UNL A   1      29.974  30.304  23.428  1.00  0.00     0.201 A 
ATOM     21  N   UNL A   1      28.953  30.395  22.583  1.00  0.00    -0.032 NA
ATOM     22  O   UNL A   1      29.087  29.318  21.726  1.00  0.00    -0.242 OA
ATOM     23  N   UNL A   1      30.241  28.602  22.002  1.00  0.00    -0.042 NA
BRANCH  20  24
ATOM     24  N   UNL A   1      30.096  31.138  24.477  1.00  0.00    -0.379 N 
ATOM     25  H   UNL A   1      29.423  31.128  25.195  1.00  0.00     0.158 HD
ATOM     26  H   UNL A   1      30.860  31.757  24.528  1.00  0.00     0.158 HD
ENDBRANCH  20  24
ENDBRANCH  17  19
ENDBRANCH  10  17
ENDBRANCH   8   9
ENDBRANCH   5   8
ENDBRANCH   3   4
ENDBRANCH   2   3
ENDBRANCH   1   2
BRANCH   1  27
ATOM     27  C   UNL A   1      35.112  21.081  25.639  1.00  0.00     0.002 C 
BRANCH  27  28
ATOM     28  C   UNL A   1      35.639  22.382  25.023  1.00  0.00     0.021 C 
BRANCH  28  29
ATOM     29  C   UNL A   1      37.130  22.395  24.688  1.00  0.00     0.116 C 
BRANCH  29  30
ATOM     30  N   UNL A   1      37.855  21.332  25.366  1.00  0.00    -0.352 N 
ATOM     31  C   UNL A   1      38.996  21.394  26.127  1.00  0.00     0.251 C 
ATOM     32  H   UNL A   1      37.468  20.431  25.264  1.00  0.00     0.163 HD
ATOM     33  O   UNL A   1      39.586  20.360  26.428  1.00  0.00    -0.269 OA
BRANCH  31  34
ATOM     34  C   UNL A   1      39.516  22.702  26.578  1.00  0.00     0.039 A 
ATOM     35  C   UNL A   1      40.574  22.736  27.491  1.00  0.00     0.014 A 
ATOM     36  C   UNL A   1      38.945  23.893  26.122  1.00  0.00     0.014 A 
ATOM     37  C   UNL A   1      41.093  23.966  27.904  1.00  0.00     0.010 A 
ATOM     38  C   UNL A   1      39.508  25.114  26.479  1.00  0.00     0.010 A 
ATOM     39  C   UNL A   1      40.581  25.166  27.382  1.00  0.00    -0.014 A 
BRANCH  39  40
ATOM     40  C   UNL A   1      41.155  26.482  27.760  1.00  0.00     0.031 A 
ATOM     41  C   UNL A   1      42.600  26.791  27.470  1.00  0.00     0.074 A 
ATOM     42  C   UNL A   1      40.403  27.363  28.447  1.00  0.00     0.049 A 
ATOM     43  N   UNL A   1      43.288  27.864  27.760  1.00  0.00    -0.248 NA
ATOM     44  C   UNL A   1      43.380  25.745  26.787  1.00  0.00     0.031 C 
ATOM     45  C   UNL A   1      39.012  27.150  28.853  1.00  0.00     0.029 A 
ATOM     46  N   UNL A   1      40.708  28.605  28.945  1.00  0.00    -0.354 N 
ATOM     47  C   UNL A   1      44.588  27.609  27.338  1.00  0.00     0.074 A 
ATOM     48  C   UNL A   1      44.598  26.265  26.801  1.00  0.00     0.031 C 
ATOM     49  C   UNL A   1      38.580  28.231  29.521  1.00  0.00     0.029 A 
ATOM     50  C   UNL A   1      39.667  29.200  29.618  1.00  0.00     0.049 A 
ATOM     51  H   UNL A   1      41.588  29.030  28.831  1.00  0.00     0.167 HD
ATOM     52  C   UNL A   1      45.668  28.425  27.367  1.00  0.00     0.034 A 
ATOM     53  C   UNL A   1      39.596  30.393  30.240  1.00  0.00     0.034 A 
ATOM     54  C   UNL A   1      45.640  29.776  27.860  1.00  0.00     0.049 A 
ATOM     55  C   UNL A   1      40.801  31.294  30.232  1.00  0.00     0.074 A 
ATOM     56  C   UNL A   1      46.649  30.722  27.838  1.00  0.00     0.029 A 
ATOM     57  N   UNL A   1      44.550  30.369  28.479  1.00  0.00    -0.354 N 
ATOM     58  N   UNL A   1      41.971  31.103  29.676  1.00  0.00    -0.248 NA
ATOM     59  C   UNL A   1      40.662  32.591  30.912  1.00  0.00     0.031 C 
ATOM     60  C   UNL A   1      46.176  31.880  28.467  1.00  0.00     0.029 A 
ATOM     61  C   UNL A   1      44.864  31.662  28.858  1.00  0.00     0.049 A 
ATOM     62  H   UNL A   1      43.680  29.934  28.626  1.00  0.00     0.167 HD
ATOM     63  C   UNL A   1      42.696  32.268  29.900  1.00  0.00     0.074 A 
ATOM     64  C   UNL A   1      41.826  33.165  30.632  1.00  0.00     0.031 C 
ATOM     65  C   UNL A   1      43.970  32.564  29.542  1.00  0.00     0.034 A 
BRANCH  52  66
ATOM     66  C   UNL A   1      46.960  27.888  26.804  1.00  0.00     0.023 A 
ATOM     67  C   UNL A   1      47.947  27.387  27.678  1.00  0.00     0.012 A 
ATOM     68  C   UNL A   1      47.190  27.855  25.415  1.00  0.00     0.148 A 
ATOM     69  C   UNL A   1      49.160  26.908  27.184  1.00  0.00     0.002 A 
ATOM     70  C   UNL A   1      48.383  27.333  24.927  1.00  0.00     0.091 A 
ATOM     71  F   UNL A   1      46.253  28.355  24.597  1.00  0.00    -0.205 F 
ATOM     72  C   UNL A   1      49.374  26.874  25.810  1.00  0.00     0.022 A 
BRANCH  70  73
ATOM     73  S   UNL A   1      48.715  27.173  23.168  1.00  0.00     0.127 S 
ATOM     74  O   UNL A   1      50.163  27.370  23.123  1.00  0.00    -0.237 OA
ATOM     75  O   UNL A   1      48.279  25.804  22.892  1.00  0.00    -0.237 OA
ATOM     76  O   UNL A   1      47.916  28.203  22.520  1.00  0.00    -0.744 OA
ENDBRANCH  70  73
ENDBRANCH  52  66
BRANCH  53  77
ATOM     77  C   UNL A   1      38.305  30.844  30.833  1.00  0.00     0.023 A 
ATOM     78  C   UNL A   1      38.068  30.616  32.203  1.00  0.00     0.012 A 
ATOM     79  C   UNL A   1      37.340  31.533  30.074  1.00  0.00     0.148 A 
ATOM     80  C   UNL A   1      36.883  31.041  32.802  1.00  0.00     0.002 A 
ATOM     81  C   UNL A   1      36.184  32.000  30.689  1.00  0.00     0.091 A 
ATOM     82  F   UNL A   1      37.582  31.735  28.772  1.00  0.00    -0.205 F 
ATOM     83  C   UNL A   1      35.946  31.742  32.049  1.00  0.00     0.022 A 
BRANCH  81  84
ATOM     84  S   UNL A   1      34.976  33.022  29.838  1.00  0.00     0.127 S 
ATOM     85  O   UNL A   1      35.816  34.076  29.277  1.00  0.00    -0.237 OA
ATOM     86  O   UNL A   1      34.427  32.083  28.858  1.00  0.00    -0.237 OA
ATOM     87  O   UNL A   1      34.028  33.446  30.860  1.00  0.00    -0.744 OA
ENDBRANCH  81  84
ENDBRANCH  53  77
BRANCH  65  88
ATOM     88  C   UNL A   1      44.499  33.929  29.904  1.00  0.00     0.023 A 
ATOM     89  C   UNL A   1      45.236  34.104  31.091  1.00  0.00     0.012 A 
ATOM     90  C   UNL A   1      44.327  35.020  29.028  1.00  0.00     0.148 A 
ATOM     91  C   UNL A   1      45.767  35.351  31.418  1.00  0.00     0.002 A 
ATOM     92  C   UNL A   1      44.902  36.248  29.337  1.00  0.00     0.091 A 
ATOM     93  F   UNL A   1      43.604  34.840  27.913  1.00  0.00    -0.205 F 
ATOM     94  C   UNL A   1      45.611  36.419  30.536  1.00  0.00     0.022 A 
BRANCH  92  95
ATOM     95  S   UNL A   1      44.835  37.649  28.214  1.00  0.00     0.127 S 
ATOM     96  O   UNL A   1      45.354  37.066  26.978  1.00  0.00    -0.237 OA
ATOM     97  O   UNL A   1      43.405  37.959  28.188  1.00  0.00    -0.237 OA
ATOM     98  O   UNL A   1      45.665  38.685  28.814  1.00  0.00    -0.744 OA
ENDBRANCH  92  95
ENDBRANCH  65  88
ENDBRANCH  39  40
ENDBRANCH  31  34
ENDBRANCH  29  30
ENDBRANCH  28  29
ENDBRANCH  27  28
ENDBRANCH   1  27
TORSDOF 20
ENDMDL
