MODEL 1
REMARK VINA RESULT:     -12.3      0.000      0.000
REMARK SMILES Cc1cc(OC(F)(F)F)cc2c1O[C@H](C(F)(F)F)C(C(=O)NCCCCCCNC(=O)c1ccc(-c3c4nc(c(-c5cccc(S(=O)(=O)[O-])c5F)c5ccc([nH]5)c(-c5cccc(S(=O)(=O)[O-])c5F)c5nc(c(-c6cccc(S(=O)(=O)[O-])c6F)c6ccc3[nH]6)C=C5)C=C4)cc1)=C2
REMARK SMILES IDX 26 1 25 2 24 3 23 4 22 5 20 6 21 7 19 9 1 10 2 11 3 12 12 13
REMARK SMILES IDX 4 14 11 15 13 16 10 17 95 18 14 19 5 20 6 21 7 22 8 23 9 24
REMARK SMILES IDX 15 25 16 26 17 27 18 28 27 29 28 30 29 31 30 32 31 34 32 35
REMARK SMILES IDX 33 36 94 37 34 38 93 39 35 40 36 41 37 42 87 43 38 44 92 45
REMARK SMILES IDX 86 46 88 47 39 48 91 49 85 50 84 51 40 53 72 54 52 55 71 56
REMARK SMILES IDX 53 57 56 58 70 59 89 60 54 61 55 62 69 64 90 65 57 66 41 67
REMARK SMILES IDX 42 68 50 69 43 70 45 71 51 72 44 73 46 74 47 75 48 76 49 77
REMARK SMILES IDX 73 78 74 79 82 80 75 81 77 82 83 83 76 84 78 85 79 86 80 87
REMARK SMILES IDX 81 88 58 89 59 90 67 91 60 92 62 93 68 94 61 95 63 96 64 97
REMARK SMILES IDX 65 98 66 99
REMARK H PARENT 22 8 29 33 88 52 56 63
REMARK Flexibility Score: inf
ROOT
ATOM      1  C   UNL A   1      35.339  21.638  24.681  1.00  0.00     0.002 C 
ENDROOT
BRANCH   1   2
ATOM      2  C   UNL A   1      33.936  21.511  24.069  1.00  0.00     0.002 C 
BRANCH   2   3
ATOM      3  C   UNL A   1      32.815  21.195  25.065  1.00  0.00     0.021 C 
BRANCH   3   4
ATOM      4  C   UNL A   1      31.490  21.878  24.736  1.00  0.00     0.116 C 
BRANCH   4   5
ATOM      5  N   UNL A   1      30.781  22.285  25.938  1.00  0.00    -0.352 N 
ATOM      6  C   UNL A   1      30.465  23.445  26.557  1.00  0.00     0.251 C 
ATOM      7  O   UNL A   1      29.805  23.321  27.596  1.00  0.00    -0.270 OA
ATOM      8  H   UNL A   1      30.442  21.507  26.436  1.00  0.00     0.163 HD
BRANCH   6   9
ATOM      9  C   UNL A   1      30.846  24.811  26.088  1.00  0.00     0.067 C 
ATOM     10  C   UNL A   1      32.756  29.531  25.440  1.00  0.00     0.048 C 
ATOM     11  C   UNL A   1      31.673  28.722  24.781  1.00  0.00    -0.005 A 
ATOM     12  C   UNL A   1      30.935  29.263  23.718  1.00  0.00     0.054 A 
ATOM     13  C   UNL A   1      31.361  27.438  25.241  1.00  0.00     0.131 A 
ATOM     14  C   UNL A   1      29.909  28.528  23.119  1.00  0.00     0.130 A 
ATOM     15  C   UNL A   1      30.342  26.691  24.652  1.00  0.00     0.021 A 
ATOM     16  O   UNL A   1      32.060  26.980  26.319  1.00  0.00    -0.475 OA
ATOM     17  C   UNL A   1      29.622  27.240  23.587  1.00  0.00     0.058 A 
ATOM     18  C   UNL A   1      30.020  25.370  25.184  1.00  0.00     0.025 C 
ATOM     19  C   UNL A   1      32.084  25.544  26.524  1.00  0.00     0.314 C 
BRANCH  14  20
ATOM     20  O   UNL A   1      29.118  28.941  22.084  1.00  0.00    -0.406 OA
BRANCH  20  21
ATOM     21  C   UNL A   1      27.970  29.711  22.401  1.00  0.00     0.573 C 
ATOM     22  F   UNL A   1      27.600  30.491  21.362  1.00  0.00    -0.132 F 
ATOM     23  F   UNL A   1      26.938  28.924  22.769  1.00  0.00    -0.132 F 
ATOM     24  F   UNL A   1      28.270  30.521  23.443  1.00  0.00    -0.132 F 
ENDBRANCH  20  21
ENDBRANCH  14  20
BRANCH  19  25
ATOM     25  C   UNL A   1      33.365  24.962  25.902  1.00  0.00     0.429 C 
ATOM     26  F   UNL A   1      33.772  23.864  26.582  1.00  0.00    -0.167 F 
ATOM     27  F   UNL A   1      33.183  24.572  24.617  1.00  0.00    -0.167 F 
ATOM     28  F   UNL A   1      34.388  25.847  25.900  1.00  0.00    -0.167 F 
ENDBRANCH  19  25
ENDBRANCH   6   9
ENDBRANCH   4   5
ENDBRANCH   3   4
ENDBRANCH   2   3
ENDBRANCH   1   2
BRANCH   1  29
ATOM     29  C   UNL A   1      36.098  22.920  24.324  1.00  0.00     0.021 C 
BRANCH  29  30
ATOM     30  C   UNL A   1      36.966  23.475  25.450  1.00  0.00     0.116 C 
BRANCH  30  31
ATOM     31  N   UNL A   1      37.933  22.494  25.913  1.00  0.00    -0.352 N 
ATOM     32  C   UNL A   1      39.154  22.710  26.498  1.00  0.00     0.251 C 
ATOM     33  H   UNL A   1      37.678  21.551  25.790  1.00  0.00     0.163 HD
ATOM     34  O   UNL A   1      39.952  21.786  26.636  1.00  0.00    -0.269 OA
BRANCH  32  35
ATOM     35  C   UNL A   1      39.502  24.069  26.954  1.00  0.00     0.039 A 
ATOM     36  C   UNL A   1      39.272  24.421  28.286  1.00  0.00     0.014 A 
ATOM     37  C   UNL A   1      40.061  24.987  26.058  1.00  0.00     0.014 A 
ATOM     38  C   UNL A   1      39.645  25.689  28.733  1.00  0.00     0.010 A 
ATOM     39  C   UNL A   1      40.474  26.233  26.517  1.00  0.00     0.010 A 
ATOM     40  C   UNL A   1      40.261  26.597  27.856  1.00  0.00    -0.014 A 
BRANCH  40  41
ATOM     41  C   UNL A   1      40.671  27.942  28.318  1.00  0.00     0.031 A 
ATOM     42  C   UNL A   1      42.125  28.318  28.328  1.00  0.00     0.074 A 
ATOM     43  C   UNL A   1      39.741  28.801  28.778  1.00  0.00     0.049 A 
ATOM     44  N   UNL A   1      42.680  29.437  28.712  1.00  0.00    -0.248 NA
ATOM     45  C   UNL A   1      43.082  27.303  27.858  1.00  0.00     0.031 C 
ATOM     46  C   UNL A   1      38.306  28.526  28.871  1.00  0.00     0.029 A 
ATOM     47  N   UNL A   1      39.868  30.076  29.270  1.00  0.00    -0.354 N 
ATOM     48  C   UNL A   1      44.046  29.256  28.550  1.00  0.00     0.074 A 
ATOM     49  C   UNL A   1      44.244  27.911  28.059  1.00  0.00     0.031 C 
ATOM     50  C   UNL A   1      37.685  29.602  29.382  1.00  0.00     0.029 A 
ATOM     51  C   UNL A   1      38.676  30.636  29.664  1.00  0.00     0.049 A 
ATOM     52  H   UNL A   1      40.731  30.545  29.335  1.00  0.00     0.167 HD
ATOM     53  C   UNL A   1      45.045  30.144  28.757  1.00  0.00     0.034 A 
ATOM     54  C   UNL A   1      38.412  31.851  30.185  1.00  0.00     0.034 A 
ATOM     55  C   UNL A   1      44.844  31.495  29.196  1.00  0.00     0.049 A 
ATOM     56  C   UNL A   1      39.537  32.827  30.382  1.00  0.00     0.074 A 
ATOM     57  C   UNL A   1      45.790  32.491  29.366  1.00  0.00     0.029 A 
ATOM     58  N   UNL A   1      43.616  32.044  29.530  1.00  0.00    -0.354 N 
ATOM     59  N   UNL A   1      40.810  32.679  30.104  1.00  0.00    -0.248 NA
ATOM     60  C   UNL A   1      39.191  34.147  30.932  1.00  0.00     0.031 C 
ATOM     61  C   UNL A   1      45.133  33.643  29.806  1.00  0.00     0.029 A 
ATOM     62  C   UNL A   1      43.779  33.365  29.905  1.00  0.00     0.049 A 
ATOM     63  H   UNL A   1      42.757  31.565  29.504  1.00  0.00     0.167 HD
ATOM     64  C   UNL A   1      41.412  33.891  30.419  1.00  0.00     0.074 A 
ATOM     65  C   UNL A   1      40.364  34.768  30.900  1.00  0.00     0.031 C 
ATOM     66  C   UNL A   1      42.718  34.239  30.329  1.00  0.00     0.034 A 
BRANCH  53  67
ATOM     67  C   UNL A   1      46.447  29.714  28.434  1.00  0.00     0.023 A 
ATOM     68  C   UNL A   1      46.961  29.982  27.149  1.00  0.00     0.012 A 
ATOM     69  C   UNL A   1      47.280  29.145  29.414  1.00  0.00     0.148 A 
ATOM     70  C   UNL A   1      48.285  29.680  26.840  1.00  0.00     0.002 A 
ATOM     71  C   UNL A   1      48.608  28.872  29.107  1.00  0.00     0.091 A 
ATOM     72  F   UNL A   1      46.762  28.889  30.623  1.00  0.00    -0.205 F 
ATOM     73  C   UNL A   1      49.110  29.135  27.820  1.00  0.00     0.022 A 
BRANCH  71  74
ATOM     74  S   UNL A   1      49.772  28.217  30.307  1.00  0.00     0.127 S 
ATOM     75  O   UNL A   1      49.708  29.228  31.363  1.00  0.00    -0.237 OA
ATOM     76  O   UNL A   1      49.164  26.933  30.652  1.00  0.00    -0.237 OA
ATOM     77  O   UNL A   1      51.053  28.126  29.620  1.00  0.00    -0.744 OA
ENDBRANCH  71  74
ENDBRANCH  53  67
BRANCH  54  78
ATOM     78  C   UNL A   1      37.003  32.234  30.472  1.00  0.00     0.023 A 
ATOM     79  C   UNL A   1      36.487  32.020  31.764  1.00  0.00     0.012 A 
ATOM     80  C   UNL A   1      36.198  32.857  29.499  1.00  0.00     0.148 A 
ATOM     81  C   UNL A   1      35.186  32.409  32.080  1.00  0.00     0.002 A 
ATOM     82  C   UNL A   1      34.915  33.275  29.831  1.00  0.00     0.091 A 
ATOM     83  F   UNL A   1      36.713  33.045  28.276  1.00  0.00    -0.205 F 
ATOM     84  C   UNL A   1      34.403  33.043  31.119  1.00  0.00     0.022 A 
BRANCH  82  85
ATOM     85  S   UNL A   1      33.865  34.185  28.694  1.00  0.00     0.127 S 
ATOM     86  O   UNL A   1      34.755  35.260  28.260  1.00  0.00    -0.237 OA
ATOM     87  O   UNL A   1      33.579  33.173  27.677  1.00  0.00    -0.237 OA
ATOM     88  O   UNL A   1      32.708  34.605  29.471  1.00  0.00    -0.744 OA
ENDBRANCH  82  85
ENDBRANCH  54  78
BRANCH  66  89
ATOM     89  C   UNL A   1      43.113  35.629  30.741  1.00  0.00     0.023 A 
ATOM     90  C   UNL A   1      43.511  35.864  32.071  1.00  0.00     0.012 A 
ATOM     91  C   UNL A   1      43.234  36.654  29.783  1.00  0.00     0.148 A 
ATOM     92  C   UNL A   1      44.023  37.105  32.444  1.00  0.00     0.002 A 
ATOM     93  C   UNL A   1      43.776  37.878  30.154  1.00  0.00     0.091 A 
ATOM     94  F   UNL A   1      42.841  36.402  28.526  1.00  0.00    -0.205 F 
ATOM     95  C   UNL A   1      44.168  38.106  31.484  1.00  0.00     0.022 A 
BRANCH  93  96
ATOM     96  S   UNL A   1      44.077  39.202  28.978  1.00  0.00     0.127 S 
ATOM     97  O   UNL A   1      42.771  39.329  28.333  1.00  0.00    -0.237 OA
ATOM     98  O   UNL A   1      44.436  40.317  29.854  1.00  0.00    -0.237 OA
ATOM     99  O   UNL A   1      45.153  38.737  28.113  1.00  0.00    -0.744 OA
ENDBRANCH  93  96
ENDBRANCH  66  89
ENDBRANCH  40  41
ENDBRANCH  32  35
ENDBRANCH  30  31
ENDBRANCH  29  30
ENDBRANCH   1  29
TORSDOF 19
ENDMDL
MODEL 2
REMARK VINA RESULT:     -12.1      5.110      9.930
REMARK SMILES Cc1cc(OC(F)(F)F)cc2c1O[C@H](C(F)(F)F)C(C(=O)NCCCCCCNC(=O)c1ccc(-c3c4nc(c(-c5cccc(S(=O)(=O)[O-])c5F)c5ccc([nH]5)c(-c5cccc(S(=O)(=O)[O-])c5F)c5nc(c(-c6cccc(S(=O)(=O)[O-])c6F)c6ccc3[nH]6)C=C5)C=C4)cc1)=C2
REMARK SMILES IDX 26 1 25 2 24 3 23 4 22 5 20 6 21 7 19 9 1 10 2 11 3 12 12 13
REMARK SMILES IDX 4 14 11 15 13 16 10 17 95 18 14 19 5 20 6 21 7 22 8 23 9 24
REMARK SMILES IDX 15 25 16 26 17 27 18 28 27 29 28 30 29 31 30 32 31 34 32 35
REMARK SMILES IDX 33 36 94 37 34 38 93 39 35 40 36 41 37 42 87 43 38 44 92 45
REMARK SMILES IDX 86 46 88 47 39 48 91 49 85 50 84 51 40 53 72 54 52 55 71 56
REMARK SMILES IDX 53 57 56 58 70 59 89 60 54 61 55 62 69 64 90 65 57 66 41 67
REMARK SMILES IDX 42 68 50 69 43 70 45 71 51 72 44 73 46 74 47 75 48 76 49 77
REMARK SMILES IDX 73 78 74 79 82 80 75 81 77 82 83 83 76 84 78 85 79 86 80 87
REMARK SMILES IDX 81 88 58 89 59 90 67 91 60 92 62 93 68 94 61 95 63 96 64 97
REMARK SMILES IDX 65 98 66 99
REMARK H PARENT 22 8 29 33 88 52 56 63
REMARK Flexibility Score: inf
ROOT
ATOM      1  C   UNL A   1      31.368  28.048  25.291  1.00  0.00     0.002 C 
ENDROOT
BRANCH   1   2
ATOM      2  C   UNL A   1      30.769  26.648  25.485  1.00  0.00     0.002 C 
BRANCH   2   3
ATOM      3  C   UNL A   1      29.849  26.169  24.358  1.00  0.00     0.021 C 
BRANCH   3   4
ATOM      4  C   UNL A   1      30.403  24.982  23.574  1.00  0.00     0.116 C 
BRANCH   4   5
ATOM      5  N   UNL A   1      31.438  25.392  22.639  1.00  0.00    -0.352 N 
ATOM      6  C   UNL A   1      32.714  25.043  22.357  1.00  0.00     0.251 C 
ATOM      7  O   UNL A   1      33.235  25.670  21.427  1.00  0.00    -0.270 OA
ATOM      8  H   UNL A   1      31.127  26.121  22.055  1.00  0.00     0.163 HD
BRANCH   6   9
ATOM      9  C   UNL A   1      33.504  23.993  23.068  1.00  0.00     0.067 C 
ATOM     10  C   UNL A   1      37.074  21.117  25.376  1.00  0.00     0.048 C 
ATOM     11  C   UNL A   1      35.676  20.878  24.874  1.00  0.00    -0.005 A 
ATOM     12  C   UNL A   1      35.082  19.614  25.011  1.00  0.00     0.054 A 
ATOM     13  C   UNL A   1      34.965  21.896  24.230  1.00  0.00     0.131 A 
ATOM     14  C   UNL A   1      33.795  19.377  24.523  1.00  0.00     0.130 A 
ATOM     15  C   UNL A   1      33.679  21.675  23.739  1.00  0.00     0.021 A 
ATOM     16  O   UNL A   1      35.607  23.088  24.060  1.00  0.00    -0.475 OA
ATOM     17  C   UNL A   1      33.097  20.414  23.892  1.00  0.00     0.058 A 
ATOM     18  C   UNL A   1      32.983  22.751  23.039  1.00  0.00     0.025 C 
ATOM     19  C   UNL A   1      34.778  24.253  23.823  1.00  0.00     0.314 C 
BRANCH  14  20
ATOM     20  O   UNL A   1      33.111  18.195  24.590  1.00  0.00    -0.406 OA
BRANCH  20  21
ATOM     21  C   UNL A   1      33.303  17.264  23.538  1.00  0.00     0.573 C 
ATOM     22  F   UNL A   1      32.478  17.521  22.500  1.00  0.00    -0.132 F 
ATOM     23  F   UNL A   1      34.583  17.261  23.112  1.00  0.00    -0.132 F 
ATOM     24  F   UNL A   1      33.014  16.026  24.001  1.00  0.00    -0.132 F 
ENDBRANCH  20  21
ENDBRANCH  14  20
BRANCH  19  25
ATOM     25  C   UNL A   1      34.535  24.986  25.154  1.00  0.00     0.429 C 
ATOM     26  F   UNL A   1      33.497  24.432  25.823  1.00  0.00    -0.167 F 
ATOM     27  F   UNL A   1      35.606  24.919  25.981  1.00  0.00    -0.167 F 
ATOM     28  F   UNL A   1      34.259  26.298  24.978  1.00  0.00    -0.167 F 
ENDBRANCH  19  25
ENDBRANCH   6   9
ENDBRANCH   4   5
ENDBRANCH   3   4
ENDBRANCH   2   3
ENDBRANCH   1   2
BRANCH   1  29
ATOM     29  C   UNL A   1      32.148  28.602  26.489  1.00  0.00     0.021 C 
BRANCH  29  30
ATOM     30  C   UNL A   1      33.310  29.519  26.118  1.00  0.00     0.116 C 
BRANCH  30  31
ATOM     31  N   UNL A   1      33.048  30.896  26.501  1.00  0.00    -0.352 N 
ATOM     32  C   UNL A   1      33.691  31.657  27.443  1.00  0.00     0.251 C 
ATOM     33  H   UNL A   1      32.312  31.341  26.022  1.00  0.00     0.163 HD
ATOM     34  O   UNL A   1      33.217  32.730  27.807  1.00  0.00    -0.269 OA
BRANCH  32  35
ATOM     35  C   UNL A   1      34.957  31.167  28.019  1.00  0.00     0.039 A 
ATOM     36  C   UNL A   1      36.092  31.981  27.963  1.00  0.00     0.014 A 
ATOM     37  C   UNL A   1      35.012  29.904  28.619  1.00  0.00     0.014 A 
ATOM     38  C   UNL A   1      37.278  31.542  28.551  1.00  0.00     0.010 A 
ATOM     39  C   UNL A   1      36.183  29.489  29.244  1.00  0.00     0.010 A 
ATOM     40  C   UNL A   1      37.327  30.300  29.207  1.00  0.00    -0.014 A 
BRANCH  40  41
ATOM     41  C   UNL A   1      38.577  29.825  29.843  1.00  0.00     0.031 A 
ATOM     42  C   UNL A   1      38.982  30.362  31.186  1.00  0.00     0.074 A 
ATOM     43  C   UNL A   1      39.370  28.955  29.189  1.00  0.00     0.049 A 
ATOM     44  N   UNL A   1      40.045  30.083  31.894  1.00  0.00    -0.248 NA
ATOM     45  C   UNL A   1      38.086  31.350  31.811  1.00  0.00     0.031 C 
ATOM     46  C   UNL A   1      39.108  28.410  27.856  1.00  0.00     0.029 A 
ATOM     47  N   UNL A   1      40.566  28.390  29.551  1.00  0.00    -0.354 N 
ATOM     48  C   UNL A   1      39.957  30.871  33.034  1.00  0.00     0.074 A 
ATOM     49  C   UNL A   1      38.752  31.662  32.915  1.00  0.00     0.031 C 
ATOM     50  C   UNL A   1      40.111  27.583  27.515  1.00  0.00     0.029 A 
ATOM     51  C   UNL A   1      41.091  27.549  28.598  1.00  0.00     0.049 A 
ATOM     52  H   UNL A   1      41.007  28.568  30.413  1.00  0.00     0.167 HD
ATOM     53  C   UNL A   1      40.787  30.905  34.100  1.00  0.00     0.034 A 
ATOM     54  C   UNL A   1      42.228  26.827  28.601  1.00  0.00     0.034 A 
ATOM     55  C   UNL A   1      41.955  30.083  34.240  1.00  0.00     0.049 A 
ATOM     56  C   UNL A   1      43.120  26.865  29.811  1.00  0.00     0.074 A 
ATOM     57  C   UNL A   1      42.818  29.998  35.318  1.00  0.00     0.029 A 
ATOM     58  N   UNL A   1      42.422  29.203  33.278  1.00  0.00    -0.354 N 
ATOM     59  N   UNL A   1      42.954  27.522  30.933  1.00  0.00    -0.248 NA
ATOM     60  C   UNL A   1      44.338  26.040  29.772  1.00  0.00     0.031 C 
ATOM     61  C   UNL A   1      43.811  29.065  35.006  1.00  0.00     0.029 A 
ATOM     62  C   UNL A   1      43.561  28.568  33.736  1.00  0.00     0.049 A 
ATOM     63  H   UNL A   1      42.004  29.052  32.399  1.00  0.00     0.167 HD
ATOM     64  C   UNL A   1      44.027  27.172  31.742  1.00  0.00     0.074 A 
ATOM     65  C   UNL A   1      44.835  26.236  30.987  1.00  0.00     0.031 C 
ATOM     66  C   UNL A   1      44.322  27.599  32.994  1.00  0.00     0.034 A 
BRANCH  53  67
ATOM     67  C   UNL A   1      40.422  31.804  35.247  1.00  0.00     0.023 A 
ATOM     68  C   UNL A   1      41.038  33.069  35.342  1.00  0.00     0.012 A 
ATOM     69  C   UNL A   1      39.413  31.449  36.160  1.00  0.00     0.148 A 
ATOM     70  C   UNL A   1      40.660  33.966  36.338  1.00  0.00     0.002 A 
ATOM     71  C   UNL A   1      39.021  32.360  37.134  1.00  0.00     0.091 A 
ATOM     72  F   UNL A   1      38.854  30.235  36.054  1.00  0.00    -0.205 F 
ATOM     73  C   UNL A   1      39.646  33.616  37.227  1.00  0.00     0.022 A 
BRANCH  71  74
ATOM     74  S   UNL A   1      37.693  32.034  38.298  1.00  0.00     0.127 S 
ATOM     75  O   UNL A   1      38.363  32.257  39.580  1.00  0.00    -0.237 OA
ATOM     76  O   UNL A   1      36.712  33.056  37.935  1.00  0.00    -0.237 OA
ATOM     77  O   UNL A   1      37.270  30.662  38.055  1.00  0.00    -0.744 OA
ENDBRANCH  71  74
ENDBRANCH  53  67
BRANCH  54  78
ATOM     78  C   UNL A   1      42.535  25.939  27.448  1.00  0.00     0.023 A 
ATOM     79  C   UNL A   1      43.334  26.432  26.399  1.00  0.00     0.012 A 
ATOM     80  C   UNL A   1      42.093  24.603  27.412  1.00  0.00     0.148 A 
ATOM     81  C   UNL A   1      43.679  25.613  25.325  1.00  0.00     0.002 A 
ATOM     82  C   UNL A   1      42.471  23.781  26.356  1.00  0.00     0.091 A 
ATOM     83  F   UNL A   1      41.331  24.159  28.421  1.00  0.00    -0.205 F 
ATOM     84  C   UNL A   1      43.255  24.287  25.307  1.00  0.00     0.022 A 
BRANCH  82  85
ATOM     85  S   UNL A   1      42.057  22.034  26.289  1.00  0.00     0.127 S 
ATOM     86  O   UNL A   1      42.888  21.572  25.179  1.00  0.00    -0.237 OA
ATOM     87  O   UNL A   1      42.484  21.576  27.612  1.00  0.00    -0.237 OA
ATOM     88  O   UNL A   1      40.619  21.975  26.064  1.00  0.00    -0.744 OA
ENDBRANCH  82  85
ENDBRANCH  54  78
BRANCH  66  89
ATOM     89  C   UNL A   1      45.559  27.061  33.654  1.00  0.00     0.023 A 
ATOM     90  C   UNL A   1      46.754  27.802  33.581  1.00  0.00     0.012 A 
ATOM     91  C   UNL A   1      45.497  25.912  34.467  1.00  0.00     0.148 A 
ATOM     92  C   UNL A   1      47.876  27.404  34.307  1.00  0.00     0.002 A 
ATOM     93  C   UNL A   1      46.608  25.540  35.213  1.00  0.00     0.091 A 
ATOM     94  F   UNL A   1      44.347  25.224  34.511  1.00  0.00    -0.205 F 
ATOM     95  C   UNL A   1      47.798  26.283  35.132  1.00  0.00     0.022 A 
BRANCH  93  96
ATOM     96  S   UNL A   1      46.586  24.162  36.365  1.00  0.00     0.127 S 
ATOM     97  O   UNL A   1      47.984  24.107  36.789  1.00  0.00    -0.237 OA
ATOM     98  O   UNL A   1      45.654  24.631  37.389  1.00  0.00    -0.237 OA
ATOM     99  O   UNL A   1      46.124  23.008  35.605  1.00  0.00    -0.744 OA
ENDBRANCH  93  96
ENDBRANCH  66  89
ENDBRANCH  40  41
ENDBRANCH  32  35
ENDBRANCH  30  31
ENDBRANCH  29  30
ENDBRANCH   1  29
TORSDOF 19
ENDMDL
MODEL 3
REMARK VINA RESULT:     -12.0      4.565      9.883
REMARK SMILES Cc1cc(OC(F)(F)F)cc2c1O[C@H](C(F)(F)F)C(C(=O)NCCCCCCNC(=O)c1ccc(-c3c4nc(c(-c5cccc(S(=O)(=O)[O-])c5F)c5ccc([nH]5)c(-c5cccc(S(=O)(=O)[O-])c5F)c5nc(c(-c6cccc(S(=O)(=O)[O-])c6F)c6ccc3[nH]6)C=C5)C=C4)cc1)=C2
REMARK SMILES IDX 26 1 25 2 24 3 23 4 22 5 20 6 21 7 19 9 1 10 2 11 3 12 12 13
REMARK SMILES IDX 4 14 11 15 13 16 10 17 95 18 14 19 5 20 6 21 7 22 8 23 9 24
REMARK SMILES IDX 15 25 16 26 17 27 18 28 27 29 28 30 29 31 30 32 31 34 32 35
REMARK SMILES IDX 33 36 94 37 34 38 93 39 35 40 36 41 37 42 87 43 38 44 92 45
REMARK SMILES IDX 86 46 88 47 39 48 91 49 85 50 84 51 40 53 72 54 52 55 71 56
REMARK SMILES IDX 53 57 56 58 70 59 89 60 54 61 55 62 69 64 90 65 57 66 41 67
REMARK SMILES IDX 42 68 50 69 43 70 45 71 51 72 44 73 46 74 47 75 48 76 49 77
REMARK SMILES IDX 73 78 74 79 82 80 75 81 77 82 83 83 76 84 78 85 79 86 80 87
REMARK SMILES IDX 81 88 58 89 59 90 67 91 60 92 62 93 68 94 61 95 63 96 64 97
REMARK SMILES IDX 65 98 66 99
REMARK H PARENT 22 8 29 33 88 52 56 63
REMARK Flexibility Score: inf
ROOT
ATOM      1  C   UNL A   1      31.471  28.633  25.858  1.00  0.00     0.002 C 
ENDROOT
BRANCH   1   2
ATOM      2  C   UNL A   1      30.734  27.470  25.178  1.00  0.00     0.002 C 
BRANCH   2   3
ATOM      3  C   UNL A   1      30.734  27.501  23.647  1.00  0.00     0.021 C 
BRANCH   3   4
ATOM      4  C   UNL A   1      30.649  26.120  23.003  1.00  0.00     0.116 C 
BRANCH   4   5
ATOM      5  N   UNL A   1      31.573  25.988  21.888  1.00  0.00    -0.352 N 
ATOM      6  C   UNL A   1      32.673  25.259  21.594  1.00  0.00     0.251 C 
ATOM      7  O   UNL A   1      33.152  25.464  20.472  1.00  0.00    -0.270 OA
ATOM      8  H   UNL A   1      31.333  26.593  21.150  1.00  0.00     0.163 HD
BRANCH   6   9
ATOM      9  C   UNL A   1      33.323  24.264  22.499  1.00  0.00     0.067 C 
ATOM     10  C   UNL A   1      36.443  21.551  25.541  1.00  0.00     0.048 C 
ATOM     11  C   UNL A   1      35.126  21.289  24.862  1.00  0.00    -0.005 A 
ATOM     12  C   UNL A   1      34.484  20.051  25.019  1.00  0.00     0.054 A 
ATOM     13  C   UNL A   1      34.543  22.257  24.037  1.00  0.00     0.131 A 
ATOM     14  C   UNL A   1      33.275  19.791  24.370  1.00  0.00     0.130 A 
ATOM     15  C   UNL A   1      33.335  22.013  23.384  1.00  0.00     0.021 A 
ATOM     16  O   UNL A   1      35.236  23.419  23.861  1.00  0.00    -0.475 OA
ATOM     17  C   UNL A   1      32.703  20.779  23.558  1.00  0.00     0.058 A 
ATOM     18  C   UNL A   1      32.778  23.033  22.501  1.00  0.00     0.025 C 
ATOM     19  C   UNL A   1      34.481  24.571  23.407  1.00  0.00     0.314 C 
BRANCH  14  20
ATOM     20  O   UNL A   1      32.556  18.630  24.437  1.00  0.00    -0.406 OA
BRANCH  20  21
ATOM     21  C   UNL A   1      32.996  17.538  23.648  1.00  0.00     0.573 C 
ATOM     22  F   UNL A   1      32.339  17.489  22.469  1.00  0.00    -0.132 F 
ATOM     23  F   UNL A   1      34.326  17.598  23.426  1.00  0.00    -0.132 F 
ATOM     24  F   UNL A   1      32.736  16.391  24.318  1.00  0.00    -0.132 F 
ENDBRANCH  20  21
ENDBRANCH  14  20
BRANCH  19  25
ATOM     25  C   UNL A   1      34.070  25.423  24.621  1.00  0.00     0.429 C 
ATOM     26  F   UNL A   1      33.961  26.727  24.276  1.00  0.00    -0.167 F 
ATOM     27  F   UNL A   1      32.866  25.056  25.123  1.00  0.00    -0.167 F 
ATOM     28  F   UNL A   1      34.959  25.338  25.637  1.00  0.00    -0.167 F 
ENDBRANCH  19  25
ENDBRANCH   6   9
ENDBRANCH   4   5
ENDBRANCH   3   4
ENDBRANCH   2   3
ENDBRANCH   1   2
BRANCH   1  29
ATOM     29  C   UNL A   1      32.542  28.229  26.876  1.00  0.00     0.021 C 
BRANCH  29  30
ATOM     30  C   UNL A   1      33.889  28.919  26.685  1.00  0.00     0.116 C 
BRANCH  30  31
ATOM     31  N   UNL A   1      33.827  30.325  27.052  1.00  0.00    -0.352 N 
ATOM     32  C   UNL A   1      34.646  31.023  27.900  1.00  0.00     0.251 C 
ATOM     33  H   UNL A   1      33.099  30.843  26.637  1.00  0.00     0.163 HD
ATOM     34  O   UNL A   1      34.338  32.150  28.278  1.00  0.00    -0.269 OA
BRANCH  32  35
ATOM     35  C   UNL A   1      35.902  30.400  28.358  1.00  0.00     0.039 A 
ATOM     36  C   UNL A   1      37.058  30.550  27.588  1.00  0.00     0.014 A 
ATOM     37  C   UNL A   1      35.930  29.676  29.555  1.00  0.00     0.014 A 
ATOM     38  C   UNL A   1      38.260  30.005  28.043  1.00  0.00     0.010 A 
ATOM     39  C   UNL A   1      37.137  29.173  30.028  1.00  0.00     0.010 A 
ATOM     40  C   UNL A   1      38.309  29.326  29.272  1.00  0.00    -0.014 A 
BRANCH  40  41
ATOM     41  C   UNL A   1      39.578  28.750  29.771  1.00  0.00     0.031 A 
ATOM     42  C   UNL A   1      40.250  29.352  30.972  1.00  0.00     0.074 A 
ATOM     43  C   UNL A   1      40.150  27.724  29.114  1.00  0.00     0.049 A 
ATOM     44  N   UNL A   1      41.370  29.001  31.548  1.00  0.00    -0.248 NA
ATOM     45  C   UNL A   1      39.586  30.506  31.603  1.00  0.00     0.031 C 
ATOM     46  C   UNL A   1      39.620  27.095  27.902  1.00  0.00     0.029 A 
ATOM     47  N   UNL A   1      41.313  27.039  29.362  1.00  0.00    -0.354 N 
ATOM     48  C   UNL A   1      41.555  29.898  32.591  1.00  0.00     0.074 A 
ATOM     49  C   UNL A   1      40.450  30.828  32.557  1.00  0.00     0.031 C 
ATOM     50  C   UNL A   1      40.452  26.113  27.518  1.00  0.00     0.029 A 
ATOM     51  C   UNL A   1      41.578  26.050  28.445  1.00  0.00     0.049 A 
ATOM     52  H   UNL A   1      41.902  27.238  30.125  1.00  0.00     0.167 HD
ATOM     53  C   UNL A   1      42.541  29.921  33.516  1.00  0.00     0.034 A 
ATOM     54  C   UNL A   1      42.609  25.186  28.367  1.00  0.00     0.034 A 
ATOM     55  C   UNL A   1      43.611  28.967  33.579  1.00  0.00     0.049 A 
ATOM     56  C   UNL A   1      43.678  25.217  29.423  1.00  0.00     0.074 A 
ATOM     57  C   UNL A   1      44.616  28.869  34.525  1.00  0.00     0.029 A 
ATOM     58  N   UNL A   1      43.813  27.945  32.667  1.00  0.00    -0.354 N 
ATOM     59  N   UNL A   1      43.768  25.994  30.476  1.00  0.00    -0.248 NA
ATOM     60  C   UNL A   1      44.768  24.237  29.304  1.00  0.00     0.031 C 
ATOM     61  C   UNL A   1      45.431  27.786  34.181  1.00  0.00     0.029 A 
ATOM     62  C   UNL A   1      44.928  27.210  33.025  1.00  0.00     0.049 A 
ATOM     63  H   UNL A   1      43.249  27.769  31.880  1.00  0.00     0.167 HD
ATOM     64  C   UNL A   1      44.906  25.581  31.157  1.00  0.00     0.074 A 
ATOM     65  C   UNL A   1      45.469  24.478  30.405  1.00  0.00     0.031 C 
ATOM     66  C   UNL A   1      45.443  26.081  32.296  1.00  0.00     0.034 A 
BRANCH  53  67
ATOM     67  C   UNL A   1      42.469  30.966  34.593  1.00  0.00     0.023 A 
ATOM     68  C   UNL A   1      41.861  30.635  35.821  1.00  0.00     0.012 A 
ATOM     69  C   UNL A   1      43.082  32.222  34.434  1.00  0.00     0.148 A 
ATOM     70  C   UNL A   1      41.855  31.546  36.875  1.00  0.00     0.002 A 
ATOM     71  C   UNL A   1      43.098  33.114  35.500  1.00  0.00     0.091 A 
ATOM     72  F   UNL A   1      43.642  32.514  33.252  1.00  0.00    -0.205 F 
ATOM     73  C   UNL A   1      42.481  32.780  36.718  1.00  0.00     0.022 A 
BRANCH  71  74
ATOM     74  S   UNL A   1      43.918  34.710  35.424  1.00  0.00     0.127 S 
ATOM     75  O   UNL A   1      45.262  34.330  34.986  1.00  0.00    -0.237 OA
ATOM     76  O   UNL A   1      43.124  35.413  34.418  1.00  0.00    -0.237 OA
ATOM     77  O   UNL A   1      43.843  35.267  36.767  1.00  0.00    -0.744 OA
ENDBRANCH  71  74
ENDBRANCH  53  67
BRANCH  54  78
ATOM     78  C   UNL A   1      42.623  24.159  27.291  1.00  0.00     0.023 A 
ATOM     79  C   UNL A   1      43.307  24.436  26.092  1.00  0.00     0.012 A 
ATOM     80  C   UNL A   1      42.019  22.900  27.467  1.00  0.00     0.148 A 
ATOM     81  C   UNL A   1      43.380  23.480  25.080  1.00  0.00     0.002 A 
ATOM     82  C   UNL A   1      42.126  21.938  26.469  1.00  0.00     0.091 A 
ATOM     83  F   UNL A   1      41.371  22.663  28.616  1.00  0.00    -0.205 F 
ATOM     84  C   UNL A   1      42.798  22.230  25.271  1.00  0.00     0.022 A 
BRANCH  82  85
ATOM     85  S   UNL A   1      41.495  20.267  26.658  1.00  0.00     0.127 S 
ATOM     86  O   UNL A   1      40.061  20.505  26.811  1.00  0.00    -0.237 OA
ATOM     87  O   UNL A   1      41.887  19.654  25.389  1.00  0.00    -0.237 OA
ATOM     88  O   UNL A   1      42.168  19.719  27.828  1.00  0.00    -0.744 OA
ENDBRANCH  82  85
ENDBRANCH  54  78
BRANCH  66  89
ATOM     89  C   UNL A   1      46.695  25.447  32.829  1.00  0.00     0.023 A 
ATOM     90  C   UNL A   1      47.944  26.004  32.492  1.00  0.00     0.012 A 
ATOM     91  C   UNL A   1      46.627  24.406  33.775  1.00  0.00     0.148 A 
ATOM     92  C   UNL A   1      49.111  25.531  33.089  1.00  0.00     0.002 A 
ATOM     93  C   UNL A   1      47.790  23.962  34.391  1.00  0.00     0.091 A 
ATOM     94  F   UNL A   1      45.424  23.892  34.071  1.00  0.00    -0.205 F 
ATOM     95  C   UNL A   1      49.033  24.521  34.047  1.00  0.00     0.022 A 
BRANCH  93  96
ATOM     96  S   UNL A   1      47.787  22.723  35.692  1.00  0.00     0.127 S 
ATOM     97  O   UNL A   1      47.627  21.488  34.926  1.00  0.00    -0.237 OA
ATOM     98  O   UNL A   1      49.108  22.904  36.293  1.00  0.00    -0.237 OA
ATOM     99  O   UNL A   1      46.670  23.058  36.566  1.00  0.00    -0.744 OA
ENDBRANCH  93  96
ENDBRANCH  66  89
ENDBRANCH  40  41
ENDBRANCH  32  35
ENDBRANCH  30  31
ENDBRANCH  29  30
ENDBRANCH   1  29
TORSDOF 19
ENDMDL
