MODEL 1
REMARK VINA RESULT:     -11.7      0.000      0.000
REMARK SMILES Cc1cc(Cl)ccc1-c1ccc(C(=O)NCCCCCCNC(=O)c2ccc(-c3c4nc(c(-c5cccc(S(=O)(=O)[O-])c5F)c5ccc([nH]5)c(-c5cccc(S(=O)(=O)[O-])c5F)c5nc(c(-c6cccc(S(=O)(=O)[O-])c6F)c6ccc3[nH]6)C=C5)C=C4)cc2)c(Cl)c1
REMARK SMILES IDX 19 1 18 2 17 3 16 4 15 5 13 6 14 7 12 9 9 10 10 11 90 12
REMARK SMILES IDX 11 13 88 14 89 15 8 16 1 17 2 18 3 19 4 20 7 21 5 22 6 23
REMARK SMILES IDX 20 24 21 25 22 26 23 27 24 29 25 30 26 31 87 32 27 33 86 34
REMARK SMILES IDX 28 35 29 36 30 37 80 38 31 39 85 40 79 41 81 42 32 43 84 44
REMARK SMILES IDX 78 45 77 46 33 48 65 49 45 50 64 51 46 52 49 53 63 54 82 55
REMARK SMILES IDX 47 56 48 57 62 59 83 60 50 61 34 62 35 63 43 64 36 65 38 66
REMARK SMILES IDX 44 67 37 68 39 69 40 70 41 71 42 72 66 73 67 74 75 75 68 76
REMARK SMILES IDX 70 77 76 78 69 79 71 80 72 81 73 82 74 83 51 84 52 85 60 86
REMARK SMILES IDX 53 87 55 88 61 89 54 90 56 91 57 92 58 93 59 94
REMARK H PARENT 15 8 22 28 81 47 49 58
REMARK Flexibility Score: inf
ROOT
ATOM      1  C   UNL A   1      31.564  28.467  26.576  1.00  0.00     0.002 C 
ENDROOT
BRANCH   1   2
ATOM      2  C   UNL A   1      31.062  27.890  25.249  1.00  0.00     0.002 C 
BRANCH   2   3
ATOM      3  C   UNL A   1      30.699  28.944  24.202  1.00  0.00     0.021 C 
BRANCH   3   4
ATOM      4  C   UNL A   1      30.965  28.514  22.753  1.00  0.00     0.116 C 
BRANCH   4   5
ATOM      5  N   UNL A   1      32.360  28.745  22.437  1.00  0.00    -0.352 N 
ATOM      6  C   UNL A   1      33.486  27.971  22.491  1.00  0.00     0.252 C 
ATOM      7  O   UNL A   1      34.548  28.553  22.245  1.00  0.00    -0.269 OA
ATOM      8  H   UNL A   1      32.536  29.658  22.113  1.00  0.00     0.163 HD
BRANCH   6   9
ATOM      9  C   UNL A   1      33.536  26.494  22.700  1.00  0.00     0.058 A 
ATOM     10  C   UNL A   1      33.630  23.771  23.547  1.00  0.00    -0.017 A 
ATOM     11  C   UNL A   1      33.989  24.790  24.425  1.00  0.00     0.009 A 
ATOM     12  C   UNL A   1      33.235  24.123  22.251  1.00  0.00     0.030 A 
ATOM     13  C   UNL A   1      33.962  26.123  23.998  1.00  0.00     0.016 A 
ATOM     14  C   UNL A   1      33.119  25.465  21.850  1.00  0.00     0.054 A 
ATOM     15  Cl  UNL A   1      32.235  25.658  20.387  1.00  0.00    -0.083 Cl
BRANCH  10  16
ATOM     16  C   UNL A   1      33.545  22.365  23.955  1.00  0.00    -0.015 A 
ATOM     17  C   UNL A   1      36.081  22.195  24.338  1.00  0.00     0.045 C 
ATOM     18  C   UNL A   1      34.682  21.637  24.379  1.00  0.00    -0.042 A 
ATOM     19  C   UNL A   1      34.519  20.329  24.872  1.00  0.00     0.024 A 
ATOM     20  C   UNL A   1      33.251  19.758  24.966  1.00  0.00     0.041 A 
ATOM     21  C   UNL A   1      32.278  21.758  24.042  1.00  0.00     0.010 A 
ATOM     22  Cl  UNL A   1      33.074  18.176  25.617  1.00  0.00    -0.084 Cl
ATOM     23  C   UNL A   1      32.130  20.465  24.549  1.00  0.00     0.021 A 
ENDBRANCH  10  16
ENDBRANCH   6   9
ENDBRANCH   4   5
ENDBRANCH   3   4
ENDBRANCH   2   3
ENDBRANCH   1   2
BRANCH   1  24
ATOM     24  C   UNL A   1      33.041  28.197  26.879  1.00  0.00     0.021 C 
BRANCH  24  25
ATOM     25  C   UNL A   1      34.010  29.153  26.187  1.00  0.00     0.116 C 
BRANCH  25  26
ATOM     26  N   UNL A   1      33.898  30.500  26.728  1.00  0.00    -0.352 N 
ATOM     27  C   UNL A   1      34.600  31.079  27.750  1.00  0.00     0.251 C 
ATOM     28  H   UNL A   1      33.224  31.075  26.299  1.00  0.00     0.163 HD
ATOM     29  O   UNL A   1      34.189  32.123  28.266  1.00  0.00    -0.269 OA
BRANCH  27  30
ATOM     30  C   UNL A   1      35.850  30.458  28.227  1.00  0.00     0.039 A 
ATOM     31  C   UNL A   1      37.057  30.777  27.601  1.00  0.00     0.014 A 
ATOM     32  C   UNL A   1      35.823  29.543  29.285  1.00  0.00     0.014 A 
ATOM     33  C   UNL A   1      38.245  30.208  28.065  1.00  0.00     0.010 A 
ATOM     34  C   UNL A   1      37.012  29.040  29.795  1.00  0.00     0.010 A 
ATOM     35  C   UNL A   1      38.234  29.354  29.181  1.00  0.00    -0.014 A 
BRANCH  35  36
ATOM     36  C   UNL A   1      39.488  28.773  29.718  1.00  0.00     0.031 A 
ATOM     37  C   UNL A   1      40.124  29.352  30.951  1.00  0.00     0.074 A 
ATOM     38  C   UNL A   1      40.095  27.774  29.048  1.00  0.00     0.049 A 
ATOM     39  N   UNL A   1      41.231  28.999  31.553  1.00  0.00    -0.248 NA
ATOM     40  C   UNL A   1      39.445  30.500  31.574  1.00  0.00     0.031 C 
ATOM     41  C   UNL A   1      39.612  27.178  27.801  1.00  0.00     0.029 A 
ATOM     42  N   UNL A   1      41.258  27.097  29.312  1.00  0.00    -0.354 N 
ATOM     43  C   UNL A   1      41.396  29.898  32.600  1.00  0.00     0.074 A 
ATOM     44  C   UNL A   1      40.302  30.840  32.523  1.00  0.00     0.031 C 
ATOM     45  C   UNL A   1      40.458  26.209  27.420  1.00  0.00     0.029 A 
ATOM     46  C   UNL A   1      41.558  26.136  28.377  1.00  0.00     0.049 A 
ATOM     47  H   UNL A   1      41.823  27.282  30.096  1.00  0.00     0.167 HD
ATOM     48  C   UNL A   1      42.353  29.918  33.559  1.00  0.00     0.034 A 
ATOM     49  C   UNL A   1      42.601  25.286  28.303  1.00  0.00     0.034 A 
ATOM     50  C   UNL A   1      43.421  28.959  33.646  1.00  0.00     0.049 A 
ATOM     51  C   UNL A   1      43.642  25.316  29.387  1.00  0.00     0.074 A 
ATOM     52  C   UNL A   1      44.394  28.836  34.621  1.00  0.00     0.029 A 
ATOM     53  N   UNL A   1      43.665  27.963  32.710  1.00  0.00    -0.354 N 
ATOM     54  N   UNL A   1      43.699  26.070  30.458  1.00  0.00    -0.248 NA
ATOM     55  C   UNL A   1      44.746  24.353  29.270  1.00  0.00     0.031 C 
ATOM     56  C   UNL A   1      45.245  27.784  34.259  1.00  0.00     0.029 A 
ATOM     57  C   UNL A   1      44.782  27.231  33.075  1.00  0.00     0.049 A 
ATOM     58  H   UNL A   1      43.123  27.801  31.905  1.00  0.00     0.167 HD
ATOM     59  C   UNL A   1      44.820  25.649  31.164  1.00  0.00     0.074 A 
ATOM     60  C   UNL A   1      45.404  24.561  30.403  1.00  0.00     0.031 C 
ATOM     61  C   UNL A   1      45.326  26.123  32.329  1.00  0.00     0.034 A 
BRANCH  48  62
ATOM     62  C   UNL A   1      42.254  30.995  34.611  1.00  0.00     0.023 A 
ATOM     63  C   UNL A   1      41.538  30.745  35.801  1.00  0.00     0.012 A 
ATOM     64  C   UNL A   1      42.873  32.248  34.432  1.00  0.00     0.148 A 
ATOM     65  C   UNL A   1      41.391  31.739  36.768  1.00  0.00     0.002 A 
ATOM     66  C   UNL A   1      42.764  33.217  35.424  1.00  0.00     0.091 A 
ATOM     67  F   UNL A   1      43.531  32.482  33.288  1.00  0.00    -0.205 F 
ATOM     68  C   UNL A   1      42.010  32.972  36.583  1.00  0.00     0.022 A 
BRANCH  66  69
ATOM     69  S   UNL A   1      43.595  34.806  35.313  1.00  0.00     0.127 S 
ATOM     70  O   UNL A   1      45.002  34.406  35.342  1.00  0.00    -0.237 OA
ATOM     71  O   UNL A   1      43.133  35.308  34.018  1.00  0.00    -0.237 OA
ATOM     72  O   UNL A   1      43.134  35.577  36.458  1.00  0.00    -0.744 OA
ENDBRANCH  66  69
ENDBRANCH  48  62
BRANCH  49  73
ATOM     73  C   UNL A   1      42.652  24.273  27.212  1.00  0.00     0.023 A 
ATOM     74  C   UNL A   1      43.393  24.559  26.049  1.00  0.00     0.012 A 
ATOM     75  C   UNL A   1      42.022  23.020  27.336  1.00  0.00     0.148 A 
ATOM     76  C   UNL A   1      43.487  23.626  25.017  1.00  0.00     0.002 A 
ATOM     77  C   UNL A   1      42.162  22.074  26.326  1.00  0.00     0.091 A 
ATOM     78  F   UNL A   1      41.321  22.770  28.450  1.00  0.00    -0.205 F 
ATOM     79  C   UNL A   1      42.880  22.381  25.159  1.00  0.00     0.022 A 
BRANCH  77  80
ATOM     80  S   UNL A   1      41.524  20.401  26.470  1.00  0.00     0.127 S 
ATOM     81  O   UNL A   1      42.181  19.732  25.349  1.00  0.00    -0.237 OA
ATOM     82  O   UNL A   1      42.011  20.008  27.793  1.00  0.00    -0.237 OA
ATOM     83  O   UNL A   1      40.076  20.519  26.370  1.00  0.00    -0.744 OA
ENDBRANCH  77  80
ENDBRANCH  49  73
BRANCH  61  84
ATOM     84  C   UNL A   1      46.558  25.449  32.878  1.00  0.00     0.023 A 
ATOM     85  C   UNL A   1      47.836  25.946  32.554  1.00  0.00     0.012 A 
ATOM     86  C   UNL A   1      46.445  24.364  33.769  1.00  0.00     0.148 A 
ATOM     87  C   UNL A   1      48.983  25.351  33.079  1.00  0.00     0.002 A 
ATOM     88  C   UNL A   1      47.589  23.809  34.329  1.00  0.00     0.091 A 
ATOM     89  F   UNL A   1      45.221  23.893  34.050  1.00  0.00    -0.205 F 
ATOM     90  C   UNL A   1      48.858  24.291  33.975  1.00  0.00     0.022 A 
BRANCH  88  91
ATOM     91  S   UNL A   1      47.521  22.509  35.567  1.00  0.00     0.127 S 
ATOM     92  O   UNL A   1      46.996  21.386  34.792  1.00  0.00    -0.237 OA
ATOM     93  O   UNL A   1      48.926  22.378  35.955  1.00  0.00    -0.237 OA
ATOM     94  O   UNL A   1      46.647  23.003  36.622  1.00  0.00    -0.744 OA
ENDBRANCH  88  91
ENDBRANCH  61  84
ENDBRANCH  35  36
ENDBRANCH  27  30
ENDBRANCH  25  26
ENDBRANCH  24  25
ENDBRANCH   1  24
TORSDOF 17
ENDMDL
MODEL 2
REMARK VINA RESULT:     -11.6      2.103      3.903
REMARK SMILES Cc1cc(Cl)ccc1-c1ccc(C(=O)NCCCCCCNC(=O)c2ccc(-c3c4nc(c(-c5cccc(S(=O)(=O)[O-])c5F)c5ccc([nH]5)c(-c5cccc(S(=O)(=O)[O-])c5F)c5nc(c(-c6cccc(S(=O)(=O)[O-])c6F)c6ccc3[nH]6)C=C5)C=C4)cc2)c(Cl)c1
REMARK SMILES IDX 19 1 18 2 17 3 16 4 15 5 13 6 14 7 12 9 9 10 10 11 90 12
REMARK SMILES IDX 11 13 88 14 89 15 8 16 1 17 2 18 3 19 4 20 7 21 5 22 6 23
REMARK SMILES IDX 20 24 21 25 22 26 23 27 24 29 25 30 26 31 87 32 27 33 86 34
REMARK SMILES IDX 28 35 29 36 30 37 80 38 31 39 85 40 79 41 81 42 32 43 84 44
REMARK SMILES IDX 78 45 77 46 33 48 65 49 45 50 64 51 46 52 49 53 63 54 82 55
REMARK SMILES IDX 47 56 48 57 62 59 83 60 50 61 34 62 35 63 43 64 36 65 38 66
REMARK SMILES IDX 44 67 37 68 39 69 40 70 41 71 42 72 66 73 67 74 75 75 68 76
REMARK SMILES IDX 70 77 76 78 69 79 71 80 72 81 73 82 74 83 51 84 52 85 60 86
REMARK SMILES IDX 53 87 55 88 61 89 54 90 56 91 57 92 58 93 59 94
REMARK H PARENT 15 8 22 28 81 47 49 58
REMARK Flexibility Score: inf
ROOT
ATOM      1  C   UNL A   1      33.114  26.644  25.739  1.00  0.00     0.002 C 
ENDROOT
BRANCH   1   2
ATOM      2  C   UNL A   1      34.208  25.600  25.498  1.00  0.00     0.002 C 
BRANCH   2   3
ATOM      3  C   UNL A   1      34.045  24.318  26.316  1.00  0.00     0.021 C 
BRANCH   3   4
ATOM      4  C   UNL A   1      34.085  23.028  25.485  1.00  0.00     0.116 C 
BRANCH   4   5
ATOM      5  N   UNL A   1      32.845  22.304  25.672  1.00  0.00    -0.352 N 
ATOM      6  C   UNL A   1      31.526  22.619  25.496  1.00  0.00     0.252 C 
ATOM      7  O   UNL A   1      30.716  21.766  25.874  1.00  0.00    -0.269 OA
ATOM      8  H   UNL A   1      32.980  21.384  25.996  1.00  0.00     0.163 HD
BRANCH   6   9
ATOM      9  C   UNL A   1      30.989  23.825  24.797  1.00  0.00     0.058 A 
ATOM     10  C   UNL A   1      29.916  26.305  23.882  1.00  0.00    -0.017 A 
ATOM     11  C   UNL A   1      29.739  25.911  25.206  1.00  0.00     0.009 A 
ATOM     12  C   UNL A   1      30.622  25.450  23.027  1.00  0.00     0.030 A 
ATOM     13  C   UNL A   1      30.248  24.683  25.645  1.00  0.00     0.016 A 
ATOM     14  C   UNL A   1      31.213  24.261  23.488  1.00  0.00     0.054 A 
ATOM     15  Cl  UNL A   1      32.356  23.604  22.384  1.00  0.00    -0.083 Cl
BRANCH  10  16
ATOM     16  C   UNL A   1      29.493  27.616  23.380  1.00  0.00    -0.015 A 
ATOM     17  C   UNL A   1      31.900  28.310  22.803  1.00  0.00     0.045 C 
ATOM     18  C   UNL A   1      30.410  28.538  22.824  1.00  0.00    -0.042 A 
ATOM     19  C   UNL A   1      29.929  29.729  22.250  1.00  0.00     0.024 A 
ATOM     20  C   UNL A   1      28.562  29.995  22.206  1.00  0.00     0.041 A 
ATOM     21  C   UNL A   1      28.118  27.917  23.341  1.00  0.00     0.010 A 
ATOM     22  Cl  UNL A   1      27.996  31.436  21.458  1.00  0.00    -0.084 Cl
ATOM     23  C   UNL A   1      27.654  29.096  22.754  1.00  0.00     0.021 A 
ENDBRANCH  10  16
ENDBRANCH   6   9
ENDBRANCH   4   5
ENDBRANCH   3   4
ENDBRANCH   2   3
ENDBRANCH   1   2
BRANCH   1  24
ATOM     24  C   UNL A   1      33.527  27.815  26.636  1.00  0.00     0.021 C 
BRANCH  24  25
ATOM     25  C   UNL A   1      34.180  28.977  25.892  1.00  0.00     0.116 C 
BRANCH  25  26
ATOM     26  N   UNL A   1      33.938  30.243  26.571  1.00  0.00    -0.352 N 
ATOM     27  C   UNL A   1      34.577  30.771  27.659  1.00  0.00     0.251 C 
ATOM     28  H   UNL A   1      33.215  30.794  26.196  1.00  0.00     0.163 HD
ATOM     29  O   UNL A   1      34.066  31.711  28.278  1.00  0.00    -0.269 OA
BRANCH  27  30
ATOM     30  C   UNL A   1      35.877  30.223  28.088  1.00  0.00     0.039 A 
ATOM     31  C   UNL A   1      37.009  30.450  27.302  1.00  0.00     0.014 A 
ATOM     32  C   UNL A   1      35.971  29.466  29.260  1.00  0.00     0.014 A 
ATOM     33  C   UNL A   1      38.246  29.952  27.716  1.00  0.00     0.010 A 
ATOM     34  C   UNL A   1      37.214  29.039  29.709  1.00  0.00     0.010 A 
ATOM     35  C   UNL A   1      38.361  29.262  28.934  1.00  0.00    -0.014 A 
BRANCH  35  36
ATOM     36  C   UNL A   1      39.672  28.762  29.416  1.00  0.00     0.031 A 
ATOM     37  C   UNL A   1      40.378  29.453  30.549  1.00  0.00     0.074 A 
ATOM     38  C   UNL A   1      40.262  27.733  28.777  1.00  0.00     0.049 A 
ATOM     39  N   UNL A   1      41.538  29.180  31.088  1.00  0.00    -0.248 NA
ATOM     40  C   UNL A   1      39.707  30.625  31.135  1.00  0.00     0.031 C 
ATOM     41  C   UNL A   1      39.708  27.028  27.619  1.00  0.00     0.029 A 
ATOM     42  N   UNL A   1      41.465  27.112  29.000  1.00  0.00    -0.354 N 
ATOM     43  C   UNL A   1      41.749  30.161  32.049  1.00  0.00     0.074 A 
ATOM     44  C   UNL A   1      40.620  31.063  31.987  1.00  0.00     0.031 C 
ATOM     45  C   UNL A   1      40.557  26.057  27.248  1.00  0.00     0.029 A 
ATOM     46  C   UNL A   1      41.727  26.091  28.119  1.00  0.00     0.049 A 
ATOM     47  H   UNL A   1      42.080  27.374  29.722  1.00  0.00     0.167 HD
ATOM     48  C   UNL A   1      42.774  30.284  32.928  1.00  0.00     0.034 A 
ATOM     49  C   UNL A   1      42.792  25.270  28.029  1.00  0.00     0.034 A 
ATOM     50  C   UNL A   1      43.878  29.366  33.003  1.00  0.00     0.049 A 
ATOM     51  C   UNL A   1      43.909  25.413  29.024  1.00  0.00     0.074 A 
ATOM     52  C   UNL A   1      44.925  29.348  33.906  1.00  0.00     0.029 A 
ATOM     53  N   UNL A   1      44.087  28.309  32.128  1.00  0.00    -0.354 N 
ATOM     54  N   UNL A   1      44.020  26.250  30.028  1.00  0.00    -0.248 NA
ATOM     55  C   UNL A   1      45.034  24.478  28.894  1.00  0.00     0.031 C 
ATOM     56  C   UNL A   1      45.783  28.297  33.559  1.00  0.00     0.029 A 
ATOM     57  C   UNL A   1      45.253  27.640  32.460  1.00  0.00     0.049 A 
ATOM     58  H   UNL A   1      43.492  28.069  31.382  1.00  0.00     0.167 HD
ATOM     59  C   UNL A   1      45.204  25.917  30.675  1.00  0.00     0.074 A 
ATOM     60  C   UNL A   1      45.767  24.791  29.954  1.00  0.00     0.031 C 
ATOM     61  C   UNL A   1      45.779  26.495  31.759  1.00  0.00     0.034 A 
BRANCH  48  62
ATOM     62  C   UNL A   1      42.716  31.436  33.900  1.00  0.00     0.023 A 
ATOM     63  C   UNL A   1      43.379  32.643  33.593  1.00  0.00     0.012 A 
ATOM     64  C   UNL A   1      42.000  31.334  35.110  1.00  0.00     0.148 A 
ATOM     65  C   UNL A   1      43.380  33.706  34.496  1.00  0.00     0.002 A 
ATOM     66  C   UNL A   1      41.965  32.417  35.981  1.00  0.00     0.091 A 
ATOM     67  F   UNL A   1      41.393  30.175  35.401  1.00  0.00    -0.205 F 
ATOM     68  C   UNL A   1      42.667  33.596  35.685  1.00  0.00     0.022 A 
BRANCH  66  69
ATOM     69  S   UNL A   1      41.004  32.399  37.500  1.00  0.00     0.127 S 
ATOM     70  O   UNL A   1      41.870  31.625  38.388  1.00  0.00    -0.237 OA
ATOM     71  O   UNL A   1      40.914  33.823  37.827  1.00  0.00    -0.237 OA
ATOM     72  O   UNL A   1      39.733  31.777  37.158  1.00  0.00    -0.744 OA
ENDBRANCH  66  69
ENDBRANCH  48  62
BRANCH  49  73
ATOM     73  C   UNL A   1      42.797  24.177  27.016  1.00  0.00     0.023 A 
ATOM     74  C   UNL A   1      43.525  24.355  25.823  1.00  0.00     0.012 A 
ATOM     75  C   UNL A   1      42.135  22.955  27.242  1.00  0.00     0.148 A 
ATOM     76  C   UNL A   1      43.576  23.346  24.863  1.00  0.00     0.002 A 
ATOM     77  C   UNL A   1      42.233  21.933  26.304  1.00  0.00     0.091 A 
ATOM     78  F   UNL A   1      41.447  22.808  28.383  1.00  0.00    -0.205 F 
ATOM     79  C   UNL A   1      42.939  22.132  25.106  1.00  0.00     0.022 A 
BRANCH  77  80
ATOM     80  S   UNL A   1      41.552  20.294  26.582  1.00  0.00     0.127 S 
ATOM     81  O   UNL A   1      40.119  20.573  26.656  1.00  0.00    -0.237 OA
ATOM     82  O   UNL A   1      41.979  19.585  25.375  1.00  0.00    -0.237 OA
ATOM     83  O   UNL A   1      42.163  19.814  27.813  1.00  0.00    -0.744 OA
ENDBRANCH  77  80
ENDBRANCH  49  73
BRANCH  61  84
ATOM     84  C   UNL A   1      47.072  25.902  32.260  1.00  0.00     0.023 A 
ATOM     85  C   UNL A   1      48.300  26.356  31.743  1.00  0.00     0.012 A 
ATOM     86  C   UNL A   1      47.067  24.942  33.291  1.00  0.00     0.148 A 
ATOM     87  C   UNL A   1      49.505  25.837  32.219  1.00  0.00     0.002 A 
ATOM     88  C   UNL A   1      48.272  24.468  33.796  1.00  0.00     0.091 A 
ATOM     89  F   UNL A   1      45.887  24.508  33.756  1.00  0.00    -0.205 F 
ATOM     90  C   UNL A   1      49.490  24.904  33.253  1.00  0.00     0.022 A 
BRANCH  88  91
ATOM     91  S   UNL A   1      48.352  23.340  35.192  1.00  0.00     0.127 S 
ATOM     92  O   UNL A   1      47.633  24.088  36.222  1.00  0.00    -0.237 OA
ATOM     93  O   UNL A   1      47.641  22.167  34.684  1.00  0.00    -0.237 OA
ATOM     94  O   UNL A   1      49.768  23.123  35.452  1.00  0.00    -0.744 OA
ENDBRANCH  88  91
ENDBRANCH  61  84
ENDBRANCH  35  36
ENDBRANCH  27  30
ENDBRANCH  25  26
ENDBRANCH  24  25
ENDBRANCH   1  24
TORSDOF 17
ENDMDL
MODEL 3
REMARK VINA RESULT:     -11.5      3.041      8.567
REMARK SMILES Cc1cc(Cl)ccc1-c1ccc(C(=O)NCCCCCCNC(=O)c2ccc(-c3c4nc(c(-c5cccc(S(=O)(=O)[O-])c5F)c5ccc([nH]5)c(-c5cccc(S(=O)(=O)[O-])c5F)c5nc(c(-c6cccc(S(=O)(=O)[O-])c6F)c6ccc3[nH]6)C=C5)C=C4)cc2)c(Cl)c1
REMARK SMILES IDX 19 1 18 2 17 3 16 4 15 5 13 6 14 7 12 9 9 10 10 11 90 12
REMARK SMILES IDX 11 13 88 14 89 15 8 16 1 17 2 18 3 19 4 20 7 21 5 22 6 23
REMARK SMILES IDX 20 24 21 25 22 26 23 27 24 29 25 30 26 31 87 32 27 33 86 34
REMARK SMILES IDX 28 35 29 36 30 37 80 38 31 39 85 40 79 41 81 42 32 43 84 44
REMARK SMILES IDX 78 45 77 46 33 48 65 49 45 50 64 51 46 52 49 53 63 54 82 55
REMARK SMILES IDX 47 56 48 57 62 59 83 60 50 61 34 62 35 63 43 64 36 65 38 66
REMARK SMILES IDX 44 67 37 68 39 69 40 70 41 71 42 72 66 73 67 74 75 75 68 76
REMARK SMILES IDX 70 77 76 78 69 79 71 80 72 81 73 82 74 83 51 84 52 85 60 86
REMARK SMILES IDX 53 87 55 88 61 89 54 90 56 91 57 92 58 93 59 94
REMARK H PARENT 15 8 22 28 81 47 49 58
REMARK Flexibility Score: inf
ROOT
ATOM      1  C   UNL A   1      33.343  26.596  26.277  1.00  0.00     0.002 C 
ENDROOT
BRANCH   1   2
ATOM      2  C   UNL A   1      34.014  25.772  25.173  1.00  0.00     0.002 C 
BRANCH   2   3
ATOM      3  C   UNL A   1      34.504  24.396  25.627  1.00  0.00     0.021 C 
BRANCH   3   4
ATOM      4  C   UNL A   1      33.718  23.802  26.804  1.00  0.00     0.116 C 
BRANCH   4   5
ATOM      5  N   UNL A   1      32.843  22.757  26.313  1.00  0.00    -0.352 N 
ATOM      6  C   UNL A   1      31.690  22.752  25.578  1.00  0.00     0.252 C 
ATOM      7  O   UNL A   1      31.146  21.651  25.441  1.00  0.00    -0.269 OA
ATOM      8  H   UNL A   1      33.144  21.853  26.563  1.00  0.00     0.163 HD
BRANCH   6   9
ATOM      9  C   UNL A   1      31.104  23.913  24.843  1.00  0.00     0.058 A 
ATOM     10  C   UNL A   1      29.932  26.318  23.854  1.00  0.00    -0.017 A 
ATOM     11  C   UNL A   1      29.774  25.961  25.190  1.00  0.00     0.009 A 
ATOM     12  C   UNL A   1      30.667  25.465  23.024  1.00  0.00     0.030 A 
ATOM     13  C   UNL A   1      30.333  24.769  25.666  1.00  0.00     0.016 A 
ATOM     14  C   UNL A   1      31.306  24.316  23.520  1.00  0.00     0.054 A 
ATOM     15  Cl  UNL A   1      32.471  23.669  22.432  1.00  0.00    -0.083 Cl
BRANCH  10  16
ATOM     16  C   UNL A   1      29.455  27.595  23.312  1.00  0.00    -0.015 A 
ATOM     17  C   UNL A   1      31.788  28.240  22.447  1.00  0.00     0.045 C 
ATOM     18  C   UNL A   1      30.308  28.475  22.605  1.00  0.00    -0.042 A 
ATOM     19  C   UNL A   1      29.766  29.627  22.006  1.00  0.00     0.024 A 
ATOM     20  C   UNL A   1      28.401  29.895  22.086  1.00  0.00     0.041 A 
ATOM     21  C   UNL A   1      28.083  27.898  23.395  1.00  0.00     0.010 A 
ATOM     22  Cl  UNL A   1      27.757  31.285  21.305  1.00  0.00    -0.084 Cl
ATOM     23  C   UNL A   1      27.557  29.038  22.782  1.00  0.00     0.021 A 
ENDBRANCH  10  16
ENDBRANCH   6   9
ENDBRANCH   4   5
ENDBRANCH   3   4
ENDBRANCH   2   3
ENDBRANCH   1   2
BRANCH   1  24
ATOM     24  C   UNL A   1      32.642  27.870  25.793  1.00  0.00     0.021 C 
BRANCH  24  25
ATOM     25  C   UNL A   1      33.591  29.005  25.416  1.00  0.00     0.116 C 
BRANCH  25  26
ATOM     26  N   UNL A   1      33.029  30.302  25.765  1.00  0.00    -0.352 N 
ATOM     27  C   UNL A   1      33.321  31.107  26.832  1.00  0.00     0.251 C 
ATOM     28  H   UNL A   1      32.345  30.648  25.148  1.00  0.00     0.163 HD
ATOM     29  O   UNL A   1      32.558  32.031  27.134  1.00  0.00    -0.269 OA
BRANCH  27  30
ATOM     30  C   UNL A   1      34.549  30.875  27.615  1.00  0.00     0.039 A 
ATOM     31  C   UNL A   1      34.732  29.648  28.255  1.00  0.00     0.014 A 
ATOM     32  C   UNL A   1      35.511  31.883  27.731  1.00  0.00     0.014 A 
ATOM     33  C   UNL A   1      35.904  29.417  28.980  1.00  0.00     0.010 A 
ATOM     34  C   UNL A   1      36.709  31.624  28.385  1.00  0.00     0.010 A 
ATOM     35  C   UNL A   1      36.911  30.395  29.030  1.00  0.00    -0.014 A 
BRANCH  35  36
ATOM     36  C   UNL A   1      38.182  30.155  29.756  1.00  0.00     0.031 A 
ATOM     37  C   UNL A   1      39.252  29.292  29.146  1.00  0.00     0.074 A 
ATOM     38  C   UNL A   1      38.337  30.651  30.999  1.00  0.00     0.049 A 
ATOM     39  N   UNL A   1      40.413  28.947  29.639  1.00  0.00    -0.248 NA
ATOM     40  C   UNL A   1      38.968  28.715  27.822  1.00  0.00     0.031 C 
ATOM     41  C   UNL A   1      37.340  31.441  31.724  1.00  0.00     0.029 A 
ATOM     42  N   UNL A   1      39.384  30.548  31.879  1.00  0.00    -0.354 N 
ATOM     43  C   UNL A   1      40.981  28.090  28.704  1.00  0.00     0.074 A 
ATOM     44  C   UNL A   1      40.018  27.931  27.637  1.00  0.00     0.031 C 
ATOM     45  C   UNL A   1      37.832  31.772  32.928  1.00  0.00     0.029 A 
ATOM     46  C   UNL A   1      39.163  31.191  33.072  1.00  0.00     0.049 A 
ATOM     47  H   UNL A   1      40.214  30.059  31.674  1.00  0.00     0.167 HD
ATOM     48  C   UNL A   1      42.208  27.513  28.714  1.00  0.00     0.034 A 
ATOM     49  C   UNL A   1      39.950  31.305  34.161  1.00  0.00     0.034 A 
ATOM     50  C   UNL A   1      43.172  27.700  29.764  1.00  0.00     0.049 A 
ATOM     51  C   UNL A   1      41.313  30.671  34.143  1.00  0.00     0.074 A 
ATOM     52  C   UNL A   1      44.471  27.232  29.837  1.00  0.00     0.029 A 
ATOM     53  N   UNL A   1      42.935  28.404  30.937  1.00  0.00    -0.354 N 
ATOM     54  N   UNL A   1      41.897  29.994  33.185  1.00  0.00    -0.248 NA
ATOM     55  C   UNL A   1      42.138  30.844  35.346  1.00  0.00     0.031 C 
ATOM     56  C   UNL A   1      45.010  27.628  31.067  1.00  0.00     0.029 A 
ATOM     57  C   UNL A   1      44.057  28.370  31.747  1.00  0.00     0.049 A 
ATOM     58  H   UNL A   1      42.092  28.860  31.160  1.00  0.00     0.167 HD
ATOM     59  C   UNL A   1      43.172  29.694  33.650  1.00  0.00     0.074 A 
ATOM     60  C   UNL A   1      43.278  30.279  34.973  1.00  0.00     0.031 C 
ATOM     61  C   UNL A   1      44.162  28.993  33.044  1.00  0.00     0.034 A 
BRANCH  48  62
ATOM     62  C   UNL A   1      42.579  26.658  27.528  1.00  0.00     0.023 A 
ATOM     63  C   UNL A   1      43.297  27.228  26.454  1.00  0.00     0.012 A 
ATOM     64  C   UNL A   1      42.230  25.294  27.474  1.00  0.00     0.148 A 
ATOM     65  C   UNL A   1      43.611  26.472  25.325  1.00  0.00     0.002 A 
ATOM     66  C   UNL A   1      42.592  24.535  26.366  1.00  0.00     0.091 A 
ATOM     67  F   UNL A   1      41.529  24.770  28.489  1.00  0.00    -0.205 F 
ATOM     68  C   UNL A   1      43.266  25.124  25.285  1.00  0.00     0.022 A 
BRANCH  66  69
ATOM     69  S   UNL A   1      42.264  22.772  26.260  1.00  0.00     0.127 S 
ATOM     70  O   UNL A   1      42.922  22.275  27.467  1.00  0.00    -0.237 OA
ATOM     71  O   UNL A   1      40.801  22.725  26.302  1.00  0.00    -0.237 OA
ATOM     72  O   UNL A   1      42.845  22.335  24.999  1.00  0.00    -0.744 OA
ENDBRANCH  66  69
ENDBRANCH  48  62
BRANCH  49  73
ATOM     73  C   UNL A   1      39.500  32.135  35.313  1.00  0.00     0.023 A 
ATOM     74  C   UNL A   1      39.750  33.521  35.294  1.00  0.00     0.012 A 
ATOM     75  C   UNL A   1      38.789  31.579  36.394  1.00  0.00     0.148 A 
ATOM     76  C   UNL A   1      39.322  34.336  36.341  1.00  0.00     0.002 A 
ATOM     77  C   UNL A   1      38.320  32.405  37.409  1.00  0.00     0.091 A 
ATOM     78  F   UNL A   1      38.565  30.258  36.392  1.00  0.00    -0.205 F 
ATOM     79  C   UNL A   1      38.600  33.781  37.394  1.00  0.00     0.022 A 
BRANCH  77  80
ATOM     80  S   UNL A   1      37.275  31.804  38.742  1.00  0.00     0.127 S 
ATOM     81  O   UNL A   1      38.150  31.960  39.902  1.00  0.00    -0.237 OA
ATOM     82  O   UNL A   1      36.153  32.742  38.687  1.00  0.00    -0.237 OA
ATOM     83  O   UNL A   1      36.935  30.433  38.392  1.00  0.00    -0.744 OA
ENDBRANCH  77  80
ENDBRANCH  49  73
BRANCH  61  84
ATOM     84  C   UNL A   1      45.464  28.842  33.788  1.00  0.00     0.023 A 
ATOM     85  C   UNL A   1      46.480  29.804  33.630  1.00  0.00     0.012 A 
ATOM     86  C   UNL A   1      45.652  27.781  34.696  1.00  0.00     0.148 A 
ATOM     87  C   UNL A   1      47.679  29.693  34.336  1.00  0.00     0.002 A 
ATOM     88  C   UNL A   1      46.826  27.705  35.434  1.00  0.00     0.091 A 
ATOM     89  F   UNL A   1      44.681  26.864  34.818  1.00  0.00    -0.205 F 
ATOM     90  C   UNL A   1      47.846  28.651  35.246  1.00  0.00     0.022 A 
BRANCH  88  91
ATOM     91  S   UNL A   1      47.089  26.457  36.700  1.00  0.00     0.127 S 
ATOM     92  O   UNL A   1      45.955  26.694  37.592  1.00  0.00    -0.237 OA
ATOM     93  O   UNL A   1      47.010  25.215  35.930  1.00  0.00    -0.237 OA
ATOM     94  O   UNL A   1      48.400  26.732  37.270  1.00  0.00    -0.744 OA
ENDBRANCH  88  91
ENDBRANCH  61  84
ENDBRANCH  35  36
ENDBRANCH  27  30
ENDBRANCH  25  26
ENDBRANCH  24  25
ENDBRANCH   1  24
TORSDOF 17
ENDMDL
