MODEL 1
REMARK VINA RESULT:     -12.0      0.000      0.000
REMARK SMILES O=C(C[N@@H+]1CCC[C@@H]1c1nc2ccccc2s1)Nc1sc2c(c1C(=O)NCCCCCCNC(=O)c1ccc(-c3c4nc(c(-c5cccc(S(=O)(=O)[O-])c5F)c5ccc([nH]5)c(-c5cccc(S(=O)(=O)[O-])c5F)c5nc(c(-c6cccc(S(=O)(=O)[O-])c6F)c6ccc3[nH]6)C=C5)C=C4)cc1)CCCC2
REMARK SMILES IDX 29 1 28 2 27 3 26 4 24 5 25 6 23 8 19 9 20 10 21 11 22 12
REMARK SMILES IDX 102 13 99 14 101 15 100 16 18 17 1 18 2 19 3 21 4 22 5 23
REMARK SMILES IDX 8 24 6 26 7 27 9 28 10 29 17 30 11 31 16 32 12 33 15 34
REMARK SMILES IDX 13 35 14 36 30 37 31 38 32 39 33 40 34 41 35 43 36 44 37 45
REMARK SMILES IDX 98 46 38 47 97 48 39 49 40 50 41 51 91 52 42 53 96 54 90 55
REMARK SMILES IDX 92 56 43 57 95 58 89 59 88 60 44 62 76 63 56 64 75 65 57 66
REMARK SMILES IDX 60 67 74 68 93 69 58 70 59 71 73 73 94 74 61 75 45 76 46 77
REMARK SMILES IDX 54 78 47 79 49 80 55 81 48 82 50 83 51 84 52 85 53 86 77 87
REMARK SMILES IDX 78 88 86 89 79 90 81 91 87 92 80 93 82 94 83 95 84 96 85 97
REMARK SMILES IDX 62 98 63 99 71 100 64 101 66 102 72 103 65 104 67 105 68 106
REMARK SMILES IDX 69 107 70 108
REMARK H PARENT 26 7 18 20 4 25 33 42 92 61 60 72
REMARK Flexibility Score: inf
ROOT
ATOM      1  C   UNL A   1      33.994  31.068  27.596  1.00  0.00     0.002 C 
ENDROOT
BRANCH   1   2
ATOM      2  C   UNL A   1      32.536  30.994  27.133  1.00  0.00     0.021 C 
BRANCH   2   3
ATOM      3  C   UNL A   1      32.084  29.573  26.781  1.00  0.00     0.116 C 
BRANCH   3   4
ATOM      4  N   UNL A   1      32.719  29.160  25.553  1.00  0.00    -0.352 N 
ATOM      5  C   UNL A   1      32.258  28.669  24.365  1.00  0.00     0.254 C 
ATOM      6  O   UNL A   1      33.151  28.438  23.539  1.00  0.00    -0.269 OA
ATOM      7  H   UNL A   1      33.698  29.254  25.577  1.00  0.00     0.163 HD
BRANCH   5   8
ATOM      8  C   UNL A   1      30.838  28.509  23.990  1.00  0.00     0.078 A 
ATOM      9  C   UNL A   1      30.333  27.207  23.973  1.00  0.00     0.109 A 
ATOM     10  S   UNL A   1      28.680  27.103  23.615  1.00  0.00    -0.122 S 
ATOM     11  C   UNL A   1      28.572  28.764  23.370  1.00  0.00     0.011 A 
ATOM     12  C   UNL A   1      29.763  29.438  23.614  1.00  0.00    -0.019 A 
ATOM     13  C   UNL A   1      27.257  29.373  22.986  1.00  0.00     0.047 C 
ATOM     14  C   UNL A   1      29.777  30.936  23.471  1.00  0.00     0.037 C 
ATOM     15  C   UNL A   1      27.453  30.797  22.475  1.00  0.00     0.006 C 
ATOM     16  C   UNL A   1      28.380  31.573  23.413  1.00  0.00     0.005 C 
BRANCH   9  17
ATOM     17  N   UNL A   1      30.994  26.026  24.288  1.00  0.00    -0.312 N 
ATOM     18  O   UNL A   1      30.626  26.102  26.583  1.00  0.00    -0.268 OA
ATOM     19  C   UNL A   1      31.126  25.577  25.585  1.00  0.00     0.280 C 
ATOM     20  H   UNL A   1      31.381  25.491  23.558  1.00  0.00     0.170 HD
BRANCH  19  21
ATOM     21  C   UNL A   1      31.964  24.321  25.761  1.00  0.00     0.364 C 
BRANCH  21  22
ATOM     22  N   UNL A   1      33.396  24.485  26.125  1.00  0.00    -0.319 N 
ATOM     23  C   UNL A   1      34.041  25.665  25.526  1.00  0.00     0.263 C 
ATOM     24  C   UNL A   1      34.234  23.309  25.635  1.00  0.00     0.245 C 
ATOM     25  H   UNL A   1      33.371  24.567  27.141  1.00  0.00     0.349 HD
ATOM     26  C   UNL A   1      34.437  25.232  24.140  1.00  0.00     0.068 C 
ATOM     27  C   UNL A   1      34.978  23.840  24.383  1.00  0.00     0.079 C 
BRANCH  24  28
ATOM     28  C   UNL A   1      33.547  21.959  25.363  1.00  0.00     0.151 A 
ATOM     29  N   UNL A   1      33.037  21.573  24.210  1.00  0.00    -0.235 NA
ATOM     30  S   UNL A   1      33.403  20.761  26.609  1.00  0.00    -0.113 S 
ATOM     31  C   UNL A   1      32.828  20.209  24.199  1.00  0.00     0.082 A 
ATOM     32  C   UNL A   1      32.998  19.574  25.426  1.00  0.00     0.055 A 
ATOM     33  C   UNL A   1      32.506  19.438  23.065  1.00  0.00     0.030 A 
ATOM     34  C   UNL A   1      32.850  18.184  25.564  1.00  0.00     0.021 A 
ATOM     35  C   UNL A   1      32.381  18.051  23.183  1.00  0.00     0.002 A 
ATOM     36  C   UNL A   1      32.552  17.434  24.419  1.00  0.00     0.002 A 
ENDBRANCH  24  28
ENDBRANCH  21  22
ENDBRANCH  19  21
ENDBRANCH   9  17
ENDBRANCH   5   8
ENDBRANCH   3   4
ENDBRANCH   2   3
ENDBRANCH   1   2
BRANCH   1  37
ATOM     37  C   UNL A   1      34.386  32.416  28.208  1.00  0.00     0.002 C 
BRANCH  37  38
ATOM     38  C   UNL A   1      33.353  33.535  28.032  1.00  0.00     0.021 C 
BRANCH  38  39
ATOM     39  C   UNL A   1      33.837  34.921  28.447  1.00  0.00     0.116 C 
BRANCH  39  40
ATOM     40  N   UNL A   1      33.131  35.402  29.624  1.00  0.00    -0.352 N 
ATOM     41  C   UNL A   1      33.294  35.046  30.939  1.00  0.00     0.251 C 
ATOM     42  H   UNL A   1      32.437  36.080  29.453  1.00  0.00     0.163 HD
ATOM     43  O   UNL A   1      32.441  35.352  31.766  1.00  0.00    -0.269 OA
BRANCH  41  44
ATOM     44  C   UNL A   1      34.499  34.298  31.356  1.00  0.00     0.039 A 
ATOM     45  C   UNL A   1      35.761  34.846  31.109  1.00  0.00     0.014 A 
ATOM     46  C   UNL A   1      34.385  33.038  31.951  1.00  0.00     0.014 A 
ATOM     47  C   UNL A   1      36.907  34.141  31.485  1.00  0.00     0.010 A 
ATOM     48  C   UNL A   1      35.523  32.371  32.390  1.00  0.00     0.010 A 
ATOM     49  C   UNL A   1      36.797  32.905  32.140  1.00  0.00    -0.014 A 
BRANCH  49  50
ATOM     50  C   UNL A   1      38.000  32.132  32.542  1.00  0.00     0.031 A 
ATOM     51  C   UNL A   1      38.723  32.480  33.816  1.00  0.00     0.074 A 
ATOM     52  C   UNL A   1      38.487  31.179  31.725  1.00  0.00     0.049 A 
ATOM     53  N   UNL A   1      39.825  31.972  34.305  1.00  0.00    -0.248 NA
ATOM     54  C   UNL A   1      38.151  33.563  34.633  1.00  0.00     0.031 C 
ATOM     55  C   UNL A   1      37.920  30.805  30.428  1.00  0.00     0.029 A 
ATOM     56  N   UNL A   1      39.588  30.370  31.852  1.00  0.00    -0.354 N 
ATOM     57  C   UNL A   1      40.100  32.698  35.458  1.00  0.00     0.074 A 
ATOM     58  C   UNL A   1      39.069  33.705  35.579  1.00  0.00     0.031 C 
ATOM     59  C   UNL A   1      38.677  29.841  29.879  1.00  0.00     0.029 A 
ATOM     60  C   UNL A   1      39.794  29.544  30.771  1.00  0.00     0.049 A 
ATOM     61  H   UNL A   1      40.177  30.380  32.641  1.00  0.00     0.167 HD
ATOM     62  C   UNL A   1      41.100  32.524  36.353  1.00  0.00     0.034 A 
ATOM     63  C   UNL A   1      40.772  28.651  30.527  1.00  0.00     0.034 A 
ATOM     64  C   UNL A   1      42.090  31.485  36.259  1.00  0.00     0.049 A 
ATOM     65  C   UNL A   1      41.834  28.429  31.571  1.00  0.00     0.074 A 
ATOM     66  C   UNL A   1      43.093  31.167  37.155  1.00  0.00     0.029 A 
ATOM     67  N   UNL A   1      42.197  30.591  35.204  1.00  0.00    -0.354 N 
ATOM     68  N   UNL A   1      41.989  29.023  32.729  1.00  0.00    -0.248 NA
ATOM     69  C   UNL A   1      42.828  27.382  31.296  1.00  0.00     0.031 C 
ATOM     70  C   UNL A   1      43.817  30.088  36.636  1.00  0.00     0.029 A 
ATOM     71  C   UNL A   1      43.249  29.720  35.427  1.00  0.00     0.049 A 
ATOM     72  H   UNL A   1      41.612  30.578  34.413  1.00  0.00     0.167 HD
ATOM     73  C   UNL A   1      43.067  28.395  33.340  1.00  0.00     0.074 A 
ATOM     74  C   UNL A   1      43.519  27.362  32.429  1.00  0.00     0.031 C 
ATOM     75  C   UNL A   1      43.641  28.655  34.540  1.00  0.00     0.034 A 
BRANCH  62  76
ATOM     76  C   UNL A   1      41.140  33.442  37.548  1.00  0.00     0.023 A 
ATOM     77  C   UNL A   1      41.992  34.567  37.531  1.00  0.00     0.012 A 
ATOM     78  C   UNL A   1      40.306  33.226  38.662  1.00  0.00     0.148 A 
ATOM     79  C   UNL A   1      42.040  35.439  38.617  1.00  0.00     0.002 A 
ATOM     80  C   UNL A   1      40.326  34.126  39.721  1.00  0.00     0.091 A 
ATOM     81  F   UNL A   1      39.519  32.140  38.671  1.00  0.00    -0.205 F 
ATOM     82  C   UNL A   1      41.200  35.225  39.706  1.00  0.00     0.022 A 
BRANCH  80  83
ATOM     83  S   UNL A   1      39.225  33.983  41.134  1.00  0.00     0.127 S 
ATOM     84  O   UNL A   1      39.571  35.179  41.900  1.00  0.00    -0.237 OA
ATOM     85  O   UNL A   1      37.905  34.026  40.503  1.00  0.00    -0.237 OA
ATOM     86  O   UNL A   1      39.551  32.715  41.770  1.00  0.00    -0.744 OA
ENDBRANCH  80  83
ENDBRANCH  62  76
BRANCH  63  87
ATOM     87  C   UNL A   1      40.743  27.839  29.278  1.00  0.00     0.023 A 
ATOM     88  C   UNL A   1      39.797  26.804  29.149  1.00  0.00     0.012 A 
ATOM     89  C   UNL A   1      41.621  28.103  28.210  1.00  0.00     0.148 A 
ATOM     90  C   UNL A   1      39.747  26.024  27.993  1.00  0.00     0.002 A 
ATOM     91  C   UNL A   1      41.530  27.358  27.039  1.00  0.00     0.091 A 
ATOM     92  F   UNL A   1      42.521  29.086  28.354  1.00  0.00    -0.205 F 
ATOM     93  C   UNL A   1      40.606  26.307  26.936  1.00  0.00     0.022 A 
BRANCH  91  94
ATOM     94  S   UNL A   1      42.504  27.739  25.579  1.00  0.00     0.127 S 
ATOM     95  O   UNL A   1      42.247  26.574  24.735  1.00  0.00    -0.237 OA
ATOM     96  O   UNL A   1      41.887  28.984  25.118  1.00  0.00    -0.237 OA
ATOM     97  O   UNL A   1      43.874  27.890  26.051  1.00  0.00    -0.744 OA
ENDBRANCH  91  94
ENDBRANCH  63  87
BRANCH  75  98
ATOM     98  C   UNL A   1      44.788  27.780  34.973  1.00  0.00     0.023 A 
ATOM     99  C   UNL A   1      46.113  28.164  34.690  1.00  0.00     0.012 A 
ATOM    100  C   UNL A   1      44.550  26.615  35.728  1.00  0.00     0.148 A 
ATOM    101  C   UNL A   1      47.183  27.384  35.124  1.00  0.00     0.002 A 
ATOM    102  C   UNL A   1      45.625  25.869  36.200  1.00  0.00     0.091 A 
ATOM    103  F   UNL A   1      43.282  26.254  35.969  1.00  0.00    -0.205 F 
ATOM    104  C   UNL A   1      46.941  26.245  35.889  1.00  0.00     0.022 A 
BRANCH 102 105
ATOM    105  S   UNL A   1      45.402  24.446  37.273  1.00  0.00     0.127 S 
ATOM    106  O   UNL A   1      44.705  23.512  36.390  1.00  0.00    -0.237 OA
ATOM    107  O   UNL A   1      46.782  24.073  37.588  1.00  0.00    -0.237 OA
ATOM    108  O   UNL A   1      44.635  24.924  38.416  1.00  0.00    -0.744 OA
ENDBRANCH 102 105
ENDBRANCH  75  98
ENDBRANCH  49  50
ENDBRANCH  41  44
ENDBRANCH  39  40
ENDBRANCH  38  39
ENDBRANCH  37  38
ENDBRANCH   1  37
TORSDOF 20
ENDMDL
MODEL 2
REMARK VINA RESULT:     -11.4      6.355     10.857
REMARK SMILES O=C(C[N@@H+]1CCC[C@@H]1c1nc2ccccc2s1)Nc1sc2c(c1C(=O)NCCCCCCNC(=O)c1ccc(-c3c4nc(c(-c5cccc(S(=O)(=O)[O-])c5F)c5ccc([nH]5)c(-c5cccc(S(=O)(=O)[O-])c5F)c5nc(c(-c6cccc(S(=O)(=O)[O-])c6F)c6ccc3[nH]6)C=C5)C=C4)cc1)CCCC2
REMARK SMILES IDX 29 1 28 2 27 3 26 4 24 5 25 6 23 8 19 9 20 10 21 11 22 12
REMARK SMILES IDX 102 13 99 14 101 15 100 16 18 17 1 18 2 19 3 21 4 22 5 23
REMARK SMILES IDX 8 24 6 26 7 27 9 28 10 29 17 30 11 31 16 32 12 33 15 34
REMARK SMILES IDX 13 35 14 36 30 37 31 38 32 39 33 40 34 41 35 43 36 44 37 45
REMARK SMILES IDX 98 46 38 47 97 48 39 49 40 50 41 51 91 52 42 53 96 54 90 55
REMARK SMILES IDX 92 56 43 57 95 58 89 59 88 60 44 62 76 63 56 64 75 65 57 66
REMARK SMILES IDX 60 67 74 68 93 69 58 70 59 71 73 73 94 74 61 75 45 76 46 77
REMARK SMILES IDX 54 78 47 79 49 80 55 81 48 82 50 83 51 84 52 85 53 86 77 87
REMARK SMILES IDX 78 88 86 89 79 90 81 91 87 92 80 93 82 94 83 95 84 96 85 97
REMARK SMILES IDX 62 98 63 99 71 100 64 101 66 102 72 103 65 104 67 105 68 106
REMARK SMILES IDX 69 107 70 108
REMARK H PARENT 26 7 18 20 4 25 33 42 92 61 60 72
REMARK Flexibility Score: inf
ROOT
ATOM      1  C   UNL A   1      36.990  21.551  24.772  1.00  0.00     0.002 C 
ENDROOT
BRANCH   1   2
ATOM      2  C   UNL A   1      35.926  21.599  25.873  1.00  0.00     0.021 C 
BRANCH   2   3
ATOM      3  C   UNL A   1      35.360  23.004  26.106  1.00  0.00     0.116 C 
BRANCH   3   4
ATOM      4  N   UNL A   1      34.048  22.898  26.696  1.00  0.00    -0.352 N 
ATOM      5  C   UNL A   1      32.871  22.332  26.295  1.00  0.00     0.254 C 
ATOM      6  O   UNL A   1      31.951  22.456  27.117  1.00  0.00    -0.269 OA
ATOM      7  H   UNL A   1      33.988  23.325  27.580  1.00  0.00     0.163 HD
BRANCH   5   8
ATOM      8  C   UNL A   1      32.669  21.536  25.068  1.00  0.00     0.078 A 
ATOM      9  C   UNL A   1      32.291  22.234  23.918  1.00  0.00     0.109 A 
ATOM     10  S   UNL A   1      32.157  21.273  22.529  1.00  0.00    -0.122 S 
ATOM     11  C   UNL A   1      32.498  19.873  23.398  1.00  0.00     0.011 A 
ATOM     12  C   UNL A   1      32.780  20.108  24.738  1.00  0.00    -0.019 A 
ATOM     13  C   UNL A   1      32.528  18.551  22.691  1.00  0.00     0.047 C 
ATOM     14  C   UNL A   1      33.143  18.934  25.608  1.00  0.00     0.037 C 
ATOM     15  C   UNL A   1      32.498  17.403  23.696  1.00  0.00     0.006 C 
ATOM     16  C   UNL A   1      33.499  17.661  24.824  1.00  0.00     0.005 C 
BRANCH   9  17
ATOM     17  N   UNL A   1      32.098  23.601  23.770  1.00  0.00    -0.312 N 
ATOM     18  O   UNL A   1      34.213  24.096  22.939  1.00  0.00    -0.268 OA
ATOM     19  C   UNL A   1      33.095  24.444  23.324  1.00  0.00     0.280 C 
ATOM     20  H   UNL A   1      31.218  23.983  23.991  1.00  0.00     0.170 HD
BRANCH  19  21
ATOM     21  C   UNL A   1      32.746  25.923  23.315  1.00  0.00     0.364 C 
BRANCH  21  22
ATOM     22  N   UNL A   1      33.359  26.789  24.358  1.00  0.00    -0.319 N 
ATOM     23  C   UNL A   1      33.655  26.095  25.622  1.00  0.00     0.263 C 
ATOM     24  C   UNL A   1      32.423  27.924  24.761  1.00  0.00     0.245 C 
ATOM     25  H   UNL A   1      34.219  27.113  23.916  1.00  0.00     0.349 HD
ATOM     26  C   UNL A   1      32.355  26.094  26.380  1.00  0.00     0.068 C 
ATOM     27  C   UNL A   1      31.839  27.495  26.130  1.00  0.00     0.079 C 
BRANCH  24  28
ATOM     28  C   UNL A   1      31.323  28.373  23.783  1.00  0.00     0.151 A 
ATOM     29  N   UNL A   1      30.034  28.126  23.909  1.00  0.00    -0.235 NA
ATOM     30  S   UNL A   1      31.705  29.314  22.378  1.00  0.00    -0.113 S 
ATOM     31  C   UNL A   1      29.295  28.953  23.088  1.00  0.00     0.082 A 
ATOM     32  C   UNL A   1      30.038  29.705  22.181  1.00  0.00     0.055 A 
ATOM     33  C   UNL A   1      27.896  29.112  23.128  1.00  0.00     0.030 A 
ATOM     34  C   UNL A   1      29.426  30.614  21.302  1.00  0.00     0.021 A 
ATOM     35  C   UNL A   1      27.278  30.032  22.277  1.00  0.00     0.002 A 
ATOM     36  C   UNL A   1      28.037  30.773  21.375  1.00  0.00     0.002 A 
ENDBRANCH  24  28
ENDBRANCH  21  22
ENDBRANCH  19  21
ENDBRANCH   9  17
ENDBRANCH   5   8
ENDBRANCH   3   4
ENDBRANCH   2   3
ENDBRANCH   1   2
BRANCH   1  37
ATOM     37  C   UNL A   1      38.424  21.426  25.298  1.00  0.00     0.002 C 
BRANCH  37  38
ATOM     38  C   UNL A   1      39.015  20.012  25.244  1.00  0.00     0.021 C 
BRANCH  38  39
ATOM     39  C   UNL A   1      39.769  19.588  26.500  1.00  0.00     0.116 C 
BRANCH  39  40
ATOM     40  N   UNL A   1      40.961  18.821  26.173  1.00  0.00    -0.352 N 
ATOM     41  C   UNL A   1      42.221  19.266  25.863  1.00  0.00     0.251 C 
ATOM     42  H   UNL A   1      40.846  17.842  26.173  1.00  0.00     0.163 HD
ATOM     43  O   UNL A   1      43.034  18.497  25.357  1.00  0.00    -0.269 OA
BRANCH  41  44
ATOM     44  C   UNL A   1      42.598  20.668  26.142  1.00  0.00     0.039 A 
ATOM     45  C   UNL A   1      42.693  21.572  25.082  1.00  0.00     0.014 A 
ATOM     46  C   UNL A   1      42.900  21.077  27.445  1.00  0.00     0.014 A 
ATOM     47  C   UNL A   1      43.063  22.896  25.332  1.00  0.00     0.010 A 
ATOM     48  C   UNL A   1      43.198  22.411  27.701  1.00  0.00     0.010 A 
ATOM     49  C   UNL A   1      43.306  23.329  26.645  1.00  0.00    -0.014 A 
BRANCH  49  50
ATOM     50  C   UNL A   1      43.710  24.728  26.937  1.00  0.00     0.031 A 
ATOM     51  C   UNL A   1      42.729  25.673  27.578  1.00  0.00     0.074 A 
ATOM     52  C   UNL A   1      44.922  25.169  26.550  1.00  0.00     0.049 A 
ATOM     53  N   UNL A   1      42.866  26.944  27.851  1.00  0.00    -0.248 NA
ATOM     54  C   UNL A   1      41.408  25.125  27.932  1.00  0.00     0.031 C 
ATOM     55  C   UNL A   1      45.930  24.370  25.850  1.00  0.00     0.029 A 
ATOM     56  N   UNL A   1      45.502  26.407  26.667  1.00  0.00    -0.354 N 
ATOM     57  C   UNL A   1      41.642  27.358  28.366  1.00  0.00     0.074 A 
ATOM     58  C   UNL A   1      40.763  26.209  28.336  1.00  0.00     0.031 C 
ATOM     59  C   UNL A   1      47.003  25.138  25.600  1.00  0.00     0.029 A 
ATOM     60  C   UNL A   1      46.752  26.486  26.099  1.00  0.00     0.049 A 
ATOM     61  H   UNL A   1      45.064  27.167  27.114  1.00  0.00     0.167 HD
ATOM     62  C   UNL A   1      41.290  28.571  28.850  1.00  0.00     0.034 A 
ATOM     63  C   UNL A   1      47.599  27.529  25.992  1.00  0.00     0.034 A 
ATOM     64  C   UNL A   1      42.185  29.694  28.929  1.00  0.00     0.049 A 
ATOM     65  C   UNL A   1      47.209  28.850  26.599  1.00  0.00     0.074 A 
ATOM     66  C   UNL A   1      41.956  30.941  29.480  1.00  0.00     0.029 A 
ATOM     67  N   UNL A   1      43.486  29.702  28.447  1.00  0.00    -0.354 N 
ATOM     68  N   UNL A   1      46.102  29.178  27.220  1.00  0.00    -0.248 NA
ATOM     69  C   UNL A   1      48.203  29.931  26.533  1.00  0.00     0.031 C 
ATOM     70  C   UNL A   1      43.114  31.710  29.318  1.00  0.00     0.029 A 
ATOM     71  C   UNL A   1      44.072  30.932  28.688  1.00  0.00     0.049 A 
ATOM     72  H   UNL A   1      43.926  28.945  27.999  1.00  0.00     0.167 HD
ATOM     73  C   UNL A   1      46.282  30.485  27.656  1.00  0.00     0.074 A 
ATOM     74  C   UNL A   1      47.611  30.884  27.242  1.00  0.00     0.031 C 
ATOM     75  C   UNL A   1      45.421  31.289  28.328  1.00  0.00     0.034 A 
BRANCH  62  76
ATOM     76  C   UNL A   1      39.891  28.734  29.386  1.00  0.00     0.023 A 
ATOM     77  C   UNL A   1      39.600  28.323  30.705  1.00  0.00     0.012 A 
ATOM     78  C   UNL A   1      38.880  29.335  28.613  1.00  0.00     0.148 A 
ATOM     79  C   UNL A   1      38.319  28.474  31.230  1.00  0.00     0.002 A 
ATOM     80  C   UNL A   1      37.616  29.525  29.161  1.00  0.00     0.091 A 
ATOM     81  F   UNL A   1      39.167  29.700  27.355  1.00  0.00    -0.205 F 
ATOM     82  C   UNL A   1      37.330  29.084  30.463  1.00  0.00     0.022 A 
BRANCH  80  83
ATOM     83  S   UNL A   1      36.297  30.373  28.283  1.00  0.00     0.127 S 
ATOM     84  O   UNL A   1      36.747  31.762  28.346  1.00  0.00    -0.237 OA
ATOM     85  O   UNL A   1      36.373  29.767  26.952  1.00  0.00    -0.237 OA
ATOM     86  O   UNL A   1      35.074  30.076  29.014  1.00  0.00    -0.744 OA
ENDBRANCH  80  83
ENDBRANCH  62  76
BRANCH  63  87
ATOM     87  C   UNL A   1      48.934  27.341  25.357  1.00  0.00     0.023 A 
ATOM     88  C   UNL A   1      50.036  26.985  26.159  1.00  0.00     0.012 A 
ATOM     89  C   UNL A   1      49.112  27.481  23.968  1.00  0.00     0.148 A 
ATOM     90  C   UNL A   1      51.299  26.805  25.594  1.00  0.00     0.002 A 
ATOM     91  C   UNL A   1      50.362  27.246  23.404  1.00  0.00     0.091 A 
ATOM     92  F   UNL A   1      48.055  27.830  23.222  1.00  0.00    -0.205 F 
ATOM     93  C   UNL A   1      51.460  26.926  24.218  1.00  0.00     0.022 A 
BRANCH  91  94
ATOM     94  S   UNL A   1      50.632  27.249  21.629  1.00  0.00     0.127 S 
ATOM     95  O   UNL A   1      50.446  28.660  21.299  1.00  0.00    -0.237 OA
ATOM     96  O   UNL A   1      52.011  26.769  21.530  1.00  0.00    -0.237 OA
ATOM     97  O   UNL A   1      49.640  26.332  21.081  1.00  0.00    -0.744 OA
ENDBRANCH  91  94
ENDBRANCH  63  87
BRANCH  75  98
ATOM     98  C   UNL A   1      45.899  32.664  28.712  1.00  0.00     0.023 A 
ATOM     99  C   UNL A   1      46.605  32.853  29.917  1.00  0.00     0.012 A 
ATOM    100  C   UNL A   1      45.713  33.753  27.839  1.00  0.00     0.148 A 
ATOM    101  C   UNL A   1      47.089  34.114  30.261  1.00  0.00     0.002 A 
ATOM    102  C   UNL A   1      46.243  34.997  28.166  1.00  0.00     0.091 A 
ATOM    103  F   UNL A   1      45.021  33.558  26.708  1.00  0.00    -0.205 F 
ATOM    104  C   UNL A   1      46.920  35.181  29.382  1.00  0.00     0.022 A 
BRANCH 102 105
ATOM    105  S   UNL A   1      46.156  36.398  27.046  1.00  0.00     0.127 S 
ATOM    106  O   UNL A   1      46.841  35.877  25.863  1.00  0.00    -0.237 OA
ATOM    107  O   UNL A   1      44.713  36.580  26.885  1.00  0.00    -0.237 OA
ATOM    108  O   UNL A   1      46.827  37.496  27.728  1.00  0.00    -0.744 OA
ENDBRANCH 102 105
ENDBRANCH  75  98
ENDBRANCH  49  50
ENDBRANCH  41  44
ENDBRANCH  39  40
ENDBRANCH  38  39
ENDBRANCH  37  38
ENDBRANCH   1  37
TORSDOF 20
ENDMDL
MODEL 3
REMARK VINA RESULT:     -11.2      0.925      7.334
REMARK SMILES O=C(C[N@@H+]1CCC[C@@H]1c1nc2ccccc2s1)Nc1sc2c(c1C(=O)NCCCCCCNC(=O)c1ccc(-c3c4nc(c(-c5cccc(S(=O)(=O)[O-])c5F)c5ccc([nH]5)c(-c5cccc(S(=O)(=O)[O-])c5F)c5nc(c(-c6cccc(S(=O)(=O)[O-])c6F)c6ccc3[nH]6)C=C5)C=C4)cc1)CCCC2
REMARK SMILES IDX 29 1 28 2 27 3 26 4 24 5 25 6 23 8 19 9 20 10 21 11 22 12
REMARK SMILES IDX 102 13 99 14 101 15 100 16 18 17 1 18 2 19 3 21 4 22 5 23
REMARK SMILES IDX 8 24 6 26 7 27 9 28 10 29 17 30 11 31 16 32 12 33 15 34
REMARK SMILES IDX 13 35 14 36 30 37 31 38 32 39 33 40 34 41 35 43 36 44 37 45
REMARK SMILES IDX 98 46 38 47 97 48 39 49 40 50 41 51 91 52 42 53 96 54 90 55
REMARK SMILES IDX 92 56 43 57 95 58 89 59 88 60 44 62 76 63 56 64 75 65 57 66
REMARK SMILES IDX 60 67 74 68 93 69 58 70 59 71 73 73 94 74 61 75 45 76 46 77
REMARK SMILES IDX 54 78 47 79 49 80 55 81 48 82 50 83 51 84 52 85 53 86 77 87
REMARK SMILES IDX 78 88 86 89 79 90 81 91 87 92 80 93 82 94 83 95 84 96 85 97
REMARK SMILES IDX 62 98 63 99 71 100 64 101 66 102 72 103 65 104 67 105 68 106
REMARK SMILES IDX 69 107 70 108
REMARK H PARENT 26 7 18 20 4 25 33 42 92 61 60 72
REMARK Flexibility Score: inf
ROOT
ATOM      1  C   UNL A   1      34.201  30.496  27.651  1.00  0.00     0.002 C 
ENDROOT
BRANCH   1   2
ATOM      2  C   UNL A   1      32.817  30.280  27.033  1.00  0.00     0.021 C 
BRANCH   2   3
ATOM      3  C   UNL A   1      32.490  28.805  26.781  1.00  0.00     0.116 C 
BRANCH   3   4
ATOM      4  N   UNL A   1      33.130  28.375  25.562  1.00  0.00    -0.352 N 
ATOM      5  C   UNL A   1      32.677  27.839  24.391  1.00  0.00     0.254 C 
ATOM      6  O   UNL A   1      33.573  27.608  23.566  1.00  0.00    -0.269 OA
ATOM      7  H   UNL A   1      34.107  28.495  25.578  1.00  0.00     0.163 HD
BRANCH   5   8
ATOM      8  C   UNL A   1      31.260  27.632  24.027  1.00  0.00     0.078 A 
ATOM      9  C   UNL A   1      30.807  26.311  23.986  1.00  0.00     0.109 A 
ATOM     10  S   UNL A   1      29.155  26.150  23.643  1.00  0.00    -0.122 S 
ATOM     11  C   UNL A   1      28.979  27.811  23.438  1.00  0.00     0.011 A 
ATOM     12  C   UNL A   1      30.146  28.525  23.684  1.00  0.00    -0.019 A 
ATOM     13  C   UNL A   1      27.637  28.375  23.081  1.00  0.00     0.047 C 
ATOM     14  C   UNL A   1      30.099  30.026  23.574  1.00  0.00     0.037 C 
ATOM     15  C   UNL A   1      27.771  29.817  22.601  1.00  0.00     0.006 C 
ATOM     16  C   UNL A   1      28.677  30.608  23.546  1.00  0.00     0.005 C 
BRANCH   9  17
ATOM     17  N   UNL A   1      31.517  25.151  24.266  1.00  0.00    -0.312 N 
ATOM     18  O   UNL A   1      30.801  24.908  26.466  1.00  0.00    -0.268 OA
ATOM     19  C   UNL A   1      31.492  24.551  25.508  1.00  0.00     0.280 C 
ATOM     20  H   UNL A   1      32.057  24.741  23.553  1.00  0.00     0.170 HD
BRANCH  19  21
ATOM     21  C   UNL A   1      32.404  23.347  25.673  1.00  0.00     0.364 C 
BRANCH  21  22
ATOM     22  N   UNL A   1      33.692  23.541  26.389  1.00  0.00    -0.319 N 
ATOM     23  C   UNL A   1      34.367  24.815  26.085  1.00  0.00     0.263 C 
ATOM     24  C   UNL A   1      34.711  22.474  26.005  1.00  0.00     0.245 C 
ATOM     25  H   UNL A   1      33.421  23.505  27.371  1.00  0.00     0.349 HD
ATOM     26  C   UNL A   1      35.112  24.564  24.801  1.00  0.00     0.068 C 
ATOM     27  C   UNL A   1      35.687  23.182  25.031  1.00  0.00     0.079 C 
BRANCH  24  28
ATOM     28  C   UNL A   1      34.215  21.130  25.442  1.00  0.00     0.151 A 
ATOM     29  N   UNL A   1      34.933  20.279  24.737  1.00  0.00    -0.235 NA
ATOM     30  S   UNL A   1      32.593  20.585  25.727  1.00  0.00    -0.113 S 
ATOM     31  C   UNL A   1      34.325  19.041  24.698  1.00  0.00     0.082 A 
ATOM     32  C   UNL A   1      33.032  18.999  25.214  1.00  0.00     0.055 A 
ATOM     33  C   UNL A   1      34.914  17.852  24.225  1.00  0.00     0.030 A 
ATOM     34  C   UNL A   1      32.298  17.802  25.270  1.00  0.00     0.021 A 
ATOM     35  C   UNL A   1      34.204  16.650  24.299  1.00  0.00     0.002 A 
ATOM     36  C   UNL A   1      32.912  16.629  24.815  1.00  0.00     0.002 A 
ENDBRANCH  24  28
ENDBRANCH  21  22
ENDBRANCH  19  21
ENDBRANCH   9  17
ENDBRANCH   5   8
ENDBRANCH   3   4
ENDBRANCH   2   3
ENDBRANCH   1   2
BRANCH   1  37
ATOM     37  C   UNL A   1      34.547  31.968  27.904  1.00  0.00     0.002 C 
BRANCH  37  38
ATOM     38  C   UNL A   1      33.358  32.934  27.850  1.00  0.00     0.021 C 
BRANCH  38  39
ATOM     39  C   UNL A   1      33.732  34.410  27.936  1.00  0.00     0.116 C 
BRANCH  39  40
ATOM     40  N   UNL A   1      33.030  35.076  29.022  1.00  0.00    -0.352 N 
ATOM     41  C   UNL A   1      33.202  34.940  30.377  1.00  0.00     0.251 C 
ATOM     42  H   UNL A   1      32.332  35.713  28.747  1.00  0.00     0.163 HD
ATOM     43  O   UNL A   1      32.351  35.375  31.148  1.00  0.00    -0.269 OA
BRANCH  41  44
ATOM     44  C   UNL A   1      34.413  34.276  30.904  1.00  0.00     0.039 A 
ATOM     45  C   UNL A   1      34.282  33.066  31.592  1.00  0.00     0.014 A 
ATOM     46  C   UNL A   1      35.671  34.868  30.759  1.00  0.00     0.014 A 
ATOM     47  C   UNL A   1      35.417  32.437  32.108  1.00  0.00     0.010 A 
ATOM     48  C   UNL A   1      36.807  34.205  31.210  1.00  0.00     0.010 A 
ATOM     49  C   UNL A   1      36.689  32.995  31.910  1.00  0.00    -0.014 A 
BRANCH  49  50
ATOM     50  C   UNL A   1      37.911  32.350  32.456  1.00  0.00     0.031 A 
ATOM     51  C   UNL A   1      38.592  31.255  31.680  1.00  0.00     0.074 A 
ATOM     52  C   UNL A   1      38.355  32.689  33.681  1.00  0.00     0.049 A 
ATOM     53  N   UNL A   1      39.624  30.525  32.014  1.00  0.00    -0.248 NA
ATOM     54  C   UNL A   1      38.018  30.913  30.367  1.00  0.00     0.031 C 
ATOM     55  C   UNL A   1      37.735  33.680  34.563  1.00  0.00     0.029 A 
ATOM     56  N   UNL A   1      39.418  32.216  34.409  1.00  0.00    -0.354 N 
ATOM     57  C   UNL A   1      39.798  29.613  30.979  1.00  0.00     0.074 A 
ATOM     58  C   UNL A   1      38.743  29.859  30.019  1.00  0.00     0.031 C 
ATOM     59  C   UNL A   1      38.427  33.741  35.712  1.00  0.00     0.029 A 
ATOM     60  C   UNL A   1      39.525  32.780  35.660  1.00  0.00     0.049 A 
ATOM     61  H   UNL A   1      40.045  31.537  34.069  1.00  0.00     0.167 HD
ATOM     62  C   UNL A   1      40.764  28.679  30.822  1.00  0.00     0.034 A 
ATOM     63  C   UNL A   1      40.407  32.546  36.650  1.00  0.00     0.034 A 
ATOM     64  C   UNL A   1      41.843  28.477  31.752  1.00  0.00     0.049 A 
ATOM     65  C   UNL A   1      41.512  31.550  36.424  1.00  0.00     0.074 A 
ATOM     66  C   UNL A   1      42.920  27.617  31.647  1.00  0.00     0.029 A 
ATOM     67  N   UNL A   1      41.982  29.149  32.957  1.00  0.00    -0.354 N 
ATOM     68  N   UNL A   1      41.748  30.805  35.371  1.00  0.00    -0.248 NA
ATOM     69  C   UNL A   1      42.500  31.395  37.502  1.00  0.00     0.031 C 
ATOM     70  C   UNL A   1      43.705  27.758  32.796  1.00  0.00     0.029 A 
ATOM     71  C   UNL A   1      43.128  28.725  33.605  1.00  0.00     0.049 A 
ATOM     72  H   UNL A   1      41.357  29.827  33.301  1.00  0.00     0.167 HD
ATOM     73  C   UNL A   1      42.931  30.127  35.640  1.00  0.00     0.074 A 
ATOM     74  C   UNL A   1      43.373  30.563  36.949  1.00  0.00     0.031 C 
ATOM     75  C   UNL A   1      43.588  29.218  34.878  1.00  0.00     0.034 A 
BRANCH  62  76
ATOM     76  C   UNL A   1      40.733  27.840  29.571  1.00  0.00     0.023 A 
ATOM     77  C   UNL A   1      39.823  26.765  29.477  1.00  0.00     0.012 A 
ATOM     78  C   UNL A   1      41.562  28.139  28.473  1.00  0.00     0.148 A 
ATOM     79  C   UNL A   1      39.765  25.981  28.327  1.00  0.00     0.002 A 
ATOM     80  C   UNL A   1      41.465  27.381  27.311  1.00  0.00     0.091 A 
ATOM     81  F   UNL A   1      42.436  29.149  28.587  1.00  0.00    -0.205 F 
ATOM     82  C   UNL A   1      40.578  26.295  27.241  1.00  0.00     0.022 A 
BRANCH  80  83
ATOM     83  S   UNL A   1      42.411  27.755  25.830  1.00  0.00     0.127 S 
ATOM     84  O   UNL A   1      41.993  29.128  25.552  1.00  0.00    -0.237 OA
ATOM     85  O   UNL A   1      43.790  27.621  26.301  1.00  0.00    -0.237 OA
ATOM     86  O   UNL A   1      42.011  26.766  24.839  1.00  0.00    -0.744 OA
ENDBRANCH  80  83
ENDBRANCH  62  76
BRANCH  63  87
ATOM     87  C   UNL A   1      40.331  33.333  37.914  1.00  0.00     0.023 A 
ATOM     88  C   UNL A   1      41.272  34.354  38.150  1.00  0.00     0.012 A 
ATOM     89  C   UNL A   1      39.320  33.098  38.865  1.00  0.00     0.148 A 
ATOM     90  C   UNL A   1      41.229  35.105  39.325  1.00  0.00     0.002 A 
ATOM     91  C   UNL A   1      39.250  33.886  40.009  1.00  0.00     0.091 A 
ATOM     92  F   UNL A   1      38.440  32.115  38.629  1.00  0.00    -0.205 F 
ATOM     93  C   UNL A   1      40.213  34.879  40.248  1.00  0.00     0.022 A 
BRANCH  91  94
ATOM     94  S   UNL A   1      37.901  33.754  41.187  1.00  0.00     0.127 S 
ATOM     95  O   UNL A   1      38.483  32.896  42.215  1.00  0.00    -0.237 OA
ATOM     96  O   UNL A   1      37.706  35.149  41.584  1.00  0.00    -0.237 OA
ATOM     97  O   UNL A   1      36.785  33.185  40.441  1.00  0.00    -0.744 OA
ENDBRANCH  91  94
ENDBRANCH  63  87
BRANCH  75  98
ATOM     98  C   UNL A   1      44.885  28.666  35.408  1.00  0.00     0.023 A 
ATOM     99  C   UNL A   1      46.092  29.355  35.173  1.00  0.00     0.012 A 
ATOM    100  C   UNL A   1      44.894  27.504  36.203  1.00  0.00     0.148 A 
ATOM    101  C   UNL A   1      47.292  28.876  35.695  1.00  0.00     0.002 A 
ATOM    102  C   UNL A   1      46.088  27.060  36.761  1.00  0.00     0.091 A 
ATOM    103  F   UNL A   1      43.740  26.851  36.397  1.00  0.00    -0.205 F 
ATOM    104  C   UNL A   1      47.289  27.738  36.498  1.00  0.00     0.022 A 
BRANCH 102 105
ATOM    105  S   UNL A   1      46.156  25.662  37.886  1.00  0.00     0.127 S 
ATOM    106  O   UNL A   1      47.564  25.663  38.280  1.00  0.00    -0.237 OA
ATOM    107  O   UNL A   1      45.226  26.065  38.943  1.00  0.00    -0.237 OA
ATOM    108  O   UNL A   1      45.720  24.506  37.113  1.00  0.00    -0.744 OA
ENDBRANCH 102 105
ENDBRANCH  75  98
ENDBRANCH  49  50
ENDBRANCH  41  44
ENDBRANCH  39  40
ENDBRANCH  38  39
ENDBRANCH  37  38
ENDBRANCH   1  37
TORSDOF 20
ENDMDL
