MODEL 1
REMARK VINA RESULT:     -12.1      0.000      0.000
REMARK SMILES O=C(CCNc1cc(N2CCC3(CC2)OCCO3)c2noc3c2c1C(=O)c1ccccc1-3)NCCCCCCNC(=O)c1ccc(-c2c3nc(c(-c4cccc(S(=O)(=O)[O-])c4F)c4ccc([nH]4)c(-c4cccc(S(=O)(=O)[O-])c4F)c4nc(c(-c5cccc(S(=O)(=O)[O-])c5F)c5ccc2[nH]5)C=C4)C=C3)cc1
REMARK SMILES IDX 36 1 35 2 34 3 33 4 1 5 2 6 3 8 4 9 5 10 6 12 7 13 24 14
REMARK SMILES IDX 8 15 23 16 25 17 19 18 22 19 26 20 27 21 20 22 21 23 32 24
REMARK SMILES IDX 28 25 31 26 29 27 30 28 9 29 10 30 14 31 11 32 13 33 12 34
REMARK SMILES IDX 15 35 18 36 16 37 17 38 37 39 38 40 39 41 40 42 41 43 42 45
REMARK SMILES IDX 43 46 44 47 105 48 45 49 104 50 46 51 47 52 48 53 98 54
REMARK SMILES IDX 49 55 103 56 97 57 99 58 50 59 102 60 96 61 95 62 51 64
REMARK SMILES IDX 83 65 63 66 82 67 64 68 67 69 81 70 100 71 65 72 66 73 80 75
REMARK SMILES IDX 101 76 68 77 52 78 53 79 61 80 54 81 56 82 62 83 55 84 57 85
REMARK SMILES IDX 58 86 59 87 60 88 84 89 85 90 93 91 86 92 88 93 94 94 87 95
REMARK SMILES IDX 89 96 90 97 91 98 92 99 69 100 70 101 78 102 71 103 73 104
REMARK SMILES IDX 79 105 72 106 74 107 75 108 76 109 77 110
REMARK H PARENT 33 7 5 11 40 44 99 63 67 74
REMARK Flexibility Score: inf
ROOT
ATOM      1  C   UNL A   1      39.231  31.742  30.031  1.00  0.00     0.002 C 
ENDROOT
BRANCH   1   2
ATOM      2  C   UNL A   1      37.927  32.041  29.269  1.00  0.00     0.021 C 
BRANCH   2   3
ATOM      3  C   UNL A   1      36.688  31.380  29.868  1.00  0.00     0.116 C 
BRANCH   3   4
ATOM      4  N   UNL A   1      35.663  31.256  28.861  1.00  0.00    -0.356 N 
ATOM      5  O   UNL A   1      34.678  33.320  29.081  1.00  0.00    -0.275 OA
ATOM      6  C   UNL A   1      34.723  32.207  28.568  1.00  0.00     0.221 C 
ATOM      7  H   UNL A   1      35.636  30.419  28.342  1.00  0.00     0.163 HD
BRANCH   6   8
ATOM      8  C   UNL A   1      33.647  31.709  27.628  1.00  0.00     0.121 C 
BRANCH   8   9
ATOM      9  C   UNL A   1      33.806  30.244  27.237  1.00  0.00     0.123 C 
BRANCH   9  10
ATOM     10  N   UNL A   1      32.565  29.480  27.455  1.00  0.00    -0.384 N 
ATOM     11  H   UNL A   1      32.085  29.544  28.313  1.00  0.00     0.160 HD
BRANCH  10  12
ATOM     12  C   UNL A   1      32.069  28.657  26.425  1.00  0.00     0.048 A 
ATOM     13  C   UNL A   1      32.561  27.287  26.414  1.00  0.00     0.054 A 
ATOM     14  C   UNL A   1      31.278  29.145  25.362  1.00  0.00     0.059 A 
ATOM     15  C   UNL A   1      32.308  26.287  25.413  1.00  0.00     0.069 A 
ATOM     16  C   UNL A   1      31.040  28.148  24.438  1.00  0.00     0.065 A 
ATOM     17  C   UNL A   1      30.715  30.502  25.095  1.00  0.00     0.196 C 
ATOM     18  C   UNL A   1      31.482  26.802  24.379  1.00  0.00     0.138 A 
ATOM     19  C   UNL A   1      30.244  28.370  23.368  1.00  0.00     0.176 A 
ATOM     20  O   UNL A   1      30.974  31.470  25.797  1.00  0.00    -0.288 OA
ATOM     21  C   UNL A   1      29.783  30.670  23.923  1.00  0.00     0.034 A 
ATOM     22  N   UNL A   1      30.952  26.245  23.261  1.00  0.00    -0.077 NA
ATOM     23  O   UNL A   1      30.173  27.233  22.638  1.00  0.00    -0.355 OA
ATOM     24  C   UNL A   1      29.543  29.585  23.048  1.00  0.00     0.032 A 
ATOM     25  C   UNL A   1      29.140  31.892  23.720  1.00  0.00     0.013 A 
ATOM     26  C   UNL A   1      28.657  29.732  21.983  1.00  0.00     0.013 A 
ATOM     27  C   UNL A   1      28.250  32.032  22.655  1.00  0.00     0.001 A 
ATOM     28  C   UNL A   1      28.010  30.958  21.793  1.00  0.00     0.001 A 
BRANCH  15  29
ATOM     29  N   UNL A   1      32.839  25.019  25.480  1.00  0.00    -0.369 N 
ATOM     30  C   UNL A   1      32.404  24.086  26.516  1.00  0.00     0.122 C 
ATOM     31  C   UNL A   1      33.813  24.535  24.516  1.00  0.00     0.122 C 
ATOM     32  C   UNL A   1      31.813  22.852  25.837  1.00  0.00     0.087 C 
ATOM     33  C   UNL A   1      33.261  23.311  23.806  1.00  0.00     0.087 C 
ATOM     34  C   UNL A   1      32.781  22.259  24.808  1.00  0.00     0.171 C 
ATOM     35  O   UNL A   1      33.922  21.685  25.481  1.00  0.00    -0.347 OA
ATOM     36  O   UNL A   1      32.100  21.220  24.077  1.00  0.00    -0.347 OA
ATOM     37  C   UNL A   1      33.690  20.275  25.439  1.00  0.00     0.192 C 
ATOM     38  C   UNL A   1      32.965  20.088  24.137  1.00  0.00     0.192 C 
ENDBRANCH  15  29
ENDBRANCH  10  12
ENDBRANCH   9  10
ENDBRANCH   8   9
ENDBRANCH   6   8
ENDBRANCH   3   4
ENDBRANCH   2   3
ENDBRANCH   1   2
BRANCH   1  39
ATOM     39  C   UNL A   1      39.305  32.288  31.463  1.00  0.00     0.002 C 
BRANCH  39  40
ATOM     40  C   UNL A   1      40.485  31.777  32.292  1.00  0.00     0.021 C 
BRANCH  40  41
ATOM     41  C   UNL A   1      40.174  30.517  33.097  1.00  0.00     0.116 C 
BRANCH  41  42
ATOM     42  N   UNL A   1      38.778  30.118  33.045  1.00  0.00    -0.352 N 
ATOM     43  C   UNL A   1      38.220  29.079  32.330  1.00  0.00     0.251 C 
ATOM     44  H   UNL A   1      38.154  30.654  33.587  1.00  0.00     0.163 HD
ATOM     45  O   UNL A   1      37.025  28.832  32.387  1.00  0.00    -0.269 OA
BRANCH  43  46
ATOM     46  C   UNL A   1      39.123  28.286  31.475  1.00  0.00     0.039 A 
ATOM     47  C   UNL A   1      40.477  28.188  31.813  1.00  0.00     0.014 A 
ATOM     48  C   UNL A   1      38.643  27.804  30.257  1.00  0.00     0.014 A 
ATOM     49  C   UNL A   1      41.382  27.743  30.860  1.00  0.00     0.010 A 
ATOM     50  C   UNL A   1      39.548  27.311  29.320  1.00  0.00     0.010 A 
ATOM     51  C   UNL A   1      40.921  27.334  29.601  1.00  0.00    -0.014 A 
BRANCH  51  52
ATOM     52  C   UNL A   1      41.925  26.934  28.609  1.00  0.00     0.031 A 
ATOM     53  C   UNL A   1      42.721  28.053  28.043  1.00  0.00     0.074 A 
ATOM     54  C   UNL A   1      42.447  25.691  28.576  1.00  0.00     0.049 A 
ATOM     55  N   UNL A   1      43.724  28.571  28.682  1.00  0.00    -0.248 NA
ATOM     56  C   UNL A   1      42.315  28.802  26.857  1.00  0.00     0.031 C 
ATOM     57  C   UNL A   1      42.468  24.768  29.720  1.00  0.00     0.029 A 
ATOM     58  N   UNL A   1      43.246  25.084  27.637  1.00  0.00    -0.354 N 
ATOM     59  C   UNL A   1      44.049  29.747  28.043  1.00  0.00     0.074 A 
ATOM     60  C   UNL A   1      43.167  29.839  26.900  1.00  0.00     0.031 C 
ATOM     61  C   UNL A   1      43.404  23.823  29.492  1.00  0.00     0.029 A 
ATOM     62  C   UNL A   1      43.910  23.966  28.134  1.00  0.00     0.049 A 
ATOM     63  H   UNL A   1      43.340  25.406  26.712  1.00  0.00     0.167 HD
ATOM     64  C   UNL A   1      45.014  30.589  28.499  1.00  0.00     0.034 A 
ATOM     65  C   UNL A   1      45.110  23.502  27.693  1.00  0.00     0.034 A 
ATOM     66  C   UNL A   1      45.682  30.172  29.696  1.00  0.00     0.049 A 
ATOM     67  C   UNL A   1      46.029  24.631  28.101  1.00  0.00     0.074 A 
ATOM     68  C   UNL A   1      45.499  30.353  31.051  1.00  0.00     0.029 A 
ATOM     69  N   UNL A   1      46.681  29.231  29.598  1.00  0.00    -0.354 N 
ATOM     70  N   UNL A   1      46.467  24.859  29.313  1.00  0.00    -0.248 NA
ATOM     71  C   UNL A   1      46.172  25.761  27.181  1.00  0.00     0.031 C 
ATOM     72  C   UNL A   1      46.074  29.201  31.675  1.00  0.00     0.029 A 
ATOM     73  C   UNL A   1      46.533  28.367  30.656  1.00  0.00     0.049 A 
ATOM     74  H   UNL A   1      47.372  29.186  28.899  1.00  0.00     0.167 HD
ATOM     75  C   UNL A   1      46.644  26.243  29.386  1.00  0.00     0.074 A 
ATOM     76  C   UNL A   1      46.470  26.732  28.033  1.00  0.00     0.031 C 
ATOM     77  C   UNL A   1      46.750  26.939  30.555  1.00  0.00     0.034 A 
BRANCH  64  78
ATOM     78  C   UNL A   1      45.465  31.773  27.744  1.00  0.00     0.023 A 
ATOM     79  C   UNL A   1      46.740  31.711  27.151  1.00  0.00     0.012 A 
ATOM     80  C   UNL A   1      44.739  32.974  27.717  1.00  0.00     0.148 A 
ATOM     81  C   UNL A   1      47.304  32.839  26.563  1.00  0.00     0.002 A 
ATOM     82  C   UNL A   1      45.306  34.098  27.124  1.00  0.00     0.091 A 
ATOM     83  F   UNL A   1      43.528  33.007  28.293  1.00  0.00    -0.205 F 
ATOM     84  C   UNL A   1      46.590  34.033  26.555  1.00  0.00     0.022 A 
BRANCH  82  85
ATOM     85  S   UNL A   1      44.474  35.688  27.049  1.00  0.00     0.127 S 
ATOM     86  O   UNL A   1      43.337  35.394  26.178  1.00  0.00    -0.237 OA
ATOM     87  O   UNL A   1      44.125  35.917  28.452  1.00  0.00    -0.237 OA
ATOM     88  O   UNL A   1      45.452  36.625  26.513  1.00  0.00    -0.744 OA
ENDBRANCH  82  85
ENDBRANCH  64  78
BRANCH  65  89
ATOM     89  C   UNL A   1      45.066  22.923  26.303  1.00  0.00     0.023 A 
ATOM     90  C   UNL A   1      45.552  23.738  25.247  1.00  0.00     0.012 A 
ATOM     91  C   UNL A   1      44.588  21.646  25.961  1.00  0.00     0.148 A 
ATOM     92  C   UNL A   1      45.669  23.267  23.939  1.00  0.00     0.002 A 
ATOM     93  C   UNL A   1      44.755  21.157  24.664  1.00  0.00     0.091 A 
ATOM     94  F   UNL A   1      43.985  20.905  26.899  1.00  0.00    -0.205 F 
ATOM     95  C   UNL A   1      45.298  21.962  23.653  1.00  0.00     0.022 A 
BRANCH  93  96
ATOM     96  S   UNL A   1      44.376  19.456  24.218  1.00  0.00     0.127 S 
ATOM     97  O   UNL A   1      44.466  19.493  22.759  1.00  0.00    -0.237 OA
ATOM     98  O   UNL A   1      45.460  18.736  24.885  1.00  0.00    -0.237 OA
ATOM     99  O   UNL A   1      43.043  19.199  24.743  1.00  0.00    -0.744 OA
ENDBRANCH  93  96
ENDBRANCH  65  89
BRANCH  77 100
ATOM    100  C   UNL A   1      46.905  26.131  31.806  1.00  0.00     0.023 A 
ATOM    101  C   UNL A   1      48.208  25.904  32.290  1.00  0.00     0.012 A 
ATOM    102  C   UNL A   1      45.801  25.676  32.557  1.00  0.00     0.148 A 
ATOM    103  C   UNL A   1      48.413  25.262  33.510  1.00  0.00     0.002 A 
ATOM    104  C   UNL A   1      46.012  25.060  33.786  1.00  0.00     0.091 A 
ATOM    105  F   UNL A   1      44.564  25.889  32.083  1.00  0.00    -0.205 F 
ATOM    106  C   UNL A   1      47.316  24.850  34.263  1.00  0.00     0.022 A 
BRANCH 104 107
ATOM    107  S   UNL A   1      44.665  24.534  34.854  1.00  0.00     0.127 S 
ATOM    108  O   UNL A   1      45.261  23.410  35.579  1.00  0.00    -0.237 OA
ATOM    109  O   UNL A   1      44.442  25.728  35.668  1.00  0.00    -0.237 OA
ATOM    110  O   UNL A   1      43.564  24.163  33.974  1.00  0.00    -0.744 OA
ENDBRANCH 104 107
ENDBRANCH  77 100
ENDBRANCH  51  52
ENDBRANCH  43  46
ENDBRANCH  41  42
ENDBRANCH  40  41
ENDBRANCH  39  40
ENDBRANCH   1  39
TORSDOF 20
ENDMDL
MODEL 2
REMARK VINA RESULT:     -11.8      3.149      6.927
REMARK SMILES O=C(CCNc1cc(N2CCC3(CC2)OCCO3)c2noc3c2c1C(=O)c1ccccc1-3)NCCCCCCNC(=O)c1ccc(-c2c3nc(c(-c4cccc(S(=O)(=O)[O-])c4F)c4ccc([nH]4)c(-c4cccc(S(=O)(=O)[O-])c4F)c4nc(c(-c5cccc(S(=O)(=O)[O-])c5F)c5ccc2[nH]5)C=C4)C=C3)cc1
REMARK SMILES IDX 36 1 35 2 34 3 33 4 1 5 2 6 3 8 4 9 5 10 6 12 7 13 24 14
REMARK SMILES IDX 8 15 23 16 25 17 19 18 22 19 26 20 27 21 20 22 21 23 32 24
REMARK SMILES IDX 28 25 31 26 29 27 30 28 9 29 10 30 14 31 11 32 13 33 12 34
REMARK SMILES IDX 15 35 18 36 16 37 17 38 37 39 38 40 39 41 40 42 41 43 42 45
REMARK SMILES IDX 43 46 44 47 105 48 45 49 104 50 46 51 47 52 48 53 98 54
REMARK SMILES IDX 49 55 103 56 97 57 99 58 50 59 102 60 96 61 95 62 51 64
REMARK SMILES IDX 83 65 63 66 82 67 64 68 67 69 81 70 100 71 65 72 66 73 80 75
REMARK SMILES IDX 101 76 68 77 52 78 53 79 61 80 54 81 56 82 62 83 55 84 57 85
REMARK SMILES IDX 58 86 59 87 60 88 84 89 85 90 93 91 86 92 88 93 94 94 87 95
REMARK SMILES IDX 89 96 90 97 91 98 92 99 69 100 70 101 78 102 71 103 73 104
REMARK SMILES IDX 79 105 72 106 74 107 75 108 76 109 77 110
REMARK H PARENT 33 7 5 11 40 44 99 63 67 74
REMARK Flexibility Score: inf
ROOT
ATOM      1  C   UNL A   1      38.748  30.450  32.125  1.00  0.00     0.002 C 
ENDROOT
BRANCH   1   2
ATOM      2  C   UNL A   1      37.594  31.236  31.477  1.00  0.00     0.021 C 
BRANCH   2   3
ATOM      3  C   UNL A   1      36.345  30.400  31.206  1.00  0.00     0.116 C 
BRANCH   3   4
ATOM      4  N   UNL A   1      36.156  30.250  29.783  1.00  0.00    -0.356 N 
ATOM      5  O   UNL A   1      34.842  32.093  29.388  1.00  0.00    -0.275 OA
ATOM      6  C   UNL A   1      35.401  31.075  28.993  1.00  0.00     0.221 C 
ATOM      7  H   UNL A   1      36.607  29.492  29.343  1.00  0.00     0.163 HD
BRANCH   6   8
ATOM      8  C   UNL A   1      35.208  30.541  27.591  1.00  0.00     0.121 C 
BRANCH   8   9
ATOM      9  C   UNL A   1      34.548  29.168  27.544  1.00  0.00     0.123 C 
BRANCH   9  10
ATOM     10  N   UNL A   1      33.091  29.266  27.342  1.00  0.00    -0.384 N 
ATOM     11  H   UNL A   1      32.556  29.896  27.877  1.00  0.00     0.160 HD
BRANCH  10  12
ATOM     12  C   UNL A   1      32.470  28.451  26.376  1.00  0.00     0.048 A 
ATOM     13  C   UNL A   1      32.938  27.074  26.310  1.00  0.00     0.054 A 
ATOM     14  C   UNL A   1      31.572  28.951  25.408  1.00  0.00     0.059 A 
ATOM     15  C   UNL A   1      32.560  26.078  25.345  1.00  0.00     0.069 A 
ATOM     16  C   UNL A   1      31.217  27.958  24.517  1.00  0.00     0.065 A 
ATOM     17  C   UNL A   1      31.001  30.316  25.205  1.00  0.00     0.196 C 
ATOM     18  C   UNL A   1      31.629  26.606  24.410  1.00  0.00     0.138 A 
ATOM     19  C   UNL A   1      30.309  28.192  23.544  1.00  0.00     0.176 A 
ATOM     20  O   UNL A   1      31.352  31.279  25.873  1.00  0.00    -0.288 OA
ATOM     21  C   UNL A   1      29.946  30.498  24.145  1.00  0.00     0.034 A 
ATOM     22  N   UNL A   1      30.969  26.057  23.360  1.00  0.00    -0.077 NA
ATOM     23  O   UNL A   1      30.139  27.057  22.828  1.00  0.00    -0.355 OA
ATOM     24  C   UNL A   1      29.593  29.417  23.304  1.00  0.00     0.032 A 
ATOM     25  C   UNL A   1      29.301  31.730  24.015  1.00  0.00     0.013 A 
ATOM     26  C   UNL A   1      28.594  29.578  22.346  1.00  0.00     0.013 A 
ATOM     27  C   UNL A   1      28.299  31.883  23.057  1.00  0.00     0.001 A 
ATOM     28  C   UNL A   1      27.948  30.813  22.229  1.00  0.00     0.001 A 
BRANCH  15  29
ATOM     29  N   UNL A   1      33.076  24.803  25.353  1.00  0.00    -0.369 N 
ATOM     30  C   UNL A   1      32.791  23.893  26.457  1.00  0.00     0.122 C 
ATOM     31  C   UNL A   1      33.887  24.289  24.260  1.00  0.00     0.122 C 
ATOM     32  C   UNL A   1      32.085  22.658  25.897  1.00  0.00     0.087 C 
ATOM     33  C   UNL A   1      33.216  23.063  23.664  1.00  0.00     0.087 C 
ATOM     34  C   UNL A   1      32.878  22.035  24.744  1.00  0.00     0.171 C 
ATOM     35  O   UNL A   1      34.100  21.452  25.246  1.00  0.00    -0.347 OA
ATOM     36  O   UNL A   1      32.080  20.996  24.143  1.00  0.00    -0.347 OA
ATOM     37  C   UNL A   1      33.845  20.046  25.264  1.00  0.00     0.192 C 
ATOM     38  C   UNL A   1      32.928  19.851  24.090  1.00  0.00     0.192 C 
ENDBRANCH  15  29
ENDBRANCH  10  12
ENDBRANCH   9  10
ENDBRANCH   8   9
ENDBRANCH   6   8
ENDBRANCH   3   4
ENDBRANCH   2   3
ENDBRANCH   1   2
BRANCH   1  39
ATOM     39  C   UNL A   1      38.547  30.065  33.597  1.00  0.00     0.002 C 
BRANCH  39  40
ATOM     40  C   UNL A   1      39.016  31.110  34.612  1.00  0.00     0.021 C 
BRANCH  40  41
ATOM     41  C   UNL A   1      40.377  30.801  35.232  1.00  0.00     0.116 C 
BRANCH  41  42
ATOM     42  N   UNL A   1      40.393  29.589  36.035  1.00  0.00    -0.352 N 
ATOM     43  C   UNL A   1      41.279  28.535  35.957  1.00  0.00     0.251 C 
ATOM     44  H   UNL A   1      39.688  29.513  36.717  1.00  0.00     0.163 HD
ATOM     45  O   UNL A   1      41.197  27.575  36.707  1.00  0.00    -0.269 OA
BRANCH  43  46
ATOM     46  C   UNL A   1      42.319  28.602  34.914  1.00  0.00     0.039 A 
ATOM     47  C   UNL A   1      41.973  28.349  33.582  1.00  0.00     0.014 A 
ATOM     48  C   UNL A   1      43.652  28.740  35.303  1.00  0.00     0.014 A 
ATOM     49  C   UNL A   1      42.976  28.079  32.661  1.00  0.00     0.010 A 
ATOM     50  C   UNL A   1      44.657  28.516  34.365  1.00  0.00     0.010 A 
ATOM     51  C   UNL A   1      44.318  28.132  33.060  1.00  0.00    -0.014 A 
BRANCH  51  52
ATOM     52  C   UNL A   1      45.335  27.774  32.066  1.00  0.00     0.031 A 
ATOM     53  C   UNL A   1      44.905  26.757  31.073  1.00  0.00     0.074 A 
ATOM     54  C   UNL A   1      46.343  28.608  31.738  1.00  0.00     0.049 A 
ATOM     55  N   UNL A   1      44.174  27.070  30.047  1.00  0.00    -0.248 NA
ATOM     56  C   UNL A   1      45.064  25.321  31.280  1.00  0.00     0.031 C 
ATOM     57  C   UNL A   1      46.315  30.065  31.934  1.00  0.00     0.029 A 
ATOM     58  N   UNL A   1      47.469  28.391  30.980  1.00  0.00    -0.354 N 
ATOM     59  C   UNL A   1      43.711  25.891  29.504  1.00  0.00     0.074 A 
ATOM     60  C   UNL A   1      44.310  24.828  30.284  1.00  0.00     0.031 C 
ATOM     61  C   UNL A   1      47.252  30.623  31.140  1.00  0.00     0.029 A 
ATOM     62  C   UNL A   1      48.053  29.571  30.529  1.00  0.00     0.049 A 
ATOM     63  H   UNL A   1      47.824  27.496  30.777  1.00  0.00     0.167 HD
ATOM     64  C   UNL A   1      42.848  25.853  28.455  1.00  0.00     0.034 A 
ATOM     65  C   UNL A   1      48.780  29.705  29.387  1.00  0.00     0.034 A 
ATOM     66  C   UNL A   1      42.447  27.129  27.939  1.00  0.00     0.049 A 
ATOM     67  C   UNL A   1      47.725  29.444  28.336  1.00  0.00     0.074 A 
ATOM     68  C   UNL A   1      41.425  28.022  28.182  1.00  0.00     0.029 A 
ATOM     69  N   UNL A   1      43.303  27.793  27.091  1.00  0.00    -0.354 N 
ATOM     70  N   UNL A   1      46.805  30.291  27.950  1.00  0.00    -0.248 NA
ATOM     71  C   UNL A   1      47.465  28.052  27.961  1.00  0.00     0.031 C 
ATOM     72  C   UNL A   1      41.946  29.308  27.833  1.00  0.00     0.029 A 
ATOM     73  C   UNL A   1      43.271  29.122  27.440  1.00  0.00     0.049 A 
ATOM     74  H   UNL A   1      43.838  27.391  26.370  1.00  0.00     0.167 HD
ATOM     75  C   UNL A   1      45.715  29.503  27.569  1.00  0.00     0.074 A 
ATOM     76  C   UNL A   1      46.199  28.137  27.576  1.00  0.00     0.031 C 
ATOM     77  C   UNL A   1      44.441  29.975  27.436  1.00  0.00     0.034 A 
BRANCH  64  78
ATOM     78  C   UNL A   1      42.464  24.600  27.779  1.00  0.00     0.023 A 
ATOM     79  C   UNL A   1      41.269  23.984  28.195  1.00  0.00     0.012 A 
ATOM     80  C   UNL A   1      43.300  23.951  26.855  1.00  0.00     0.148 A 
ATOM     81  C   UNL A   1      40.920  22.722  27.725  1.00  0.00     0.002 A 
ATOM     82  C   UNL A   1      42.945  22.691  26.386  1.00  0.00     0.091 A 
ATOM     83  F   UNL A   1      44.435  24.559  26.479  1.00  0.00    -0.205 F 
ATOM     84  C   UNL A   1      41.761  22.073  26.826  1.00  0.00     0.022 A 
BRANCH  82  85
ATOM     85  S   UNL A   1      43.948  21.765  25.218  1.00  0.00     0.127 S 
ATOM     86  O   UNL A   1      43.819  22.569  24.005  1.00  0.00    -0.237 OA
ATOM     87  O   UNL A   1      45.269  21.813  25.846  1.00  0.00    -0.237 OA
ATOM     88  O   UNL A   1      43.360  20.434  25.156  1.00  0.00    -0.744 OA
ENDBRANCH  82  85
ENDBRANCH  64  78
BRANCH  65  89
ATOM     89  C   UNL A   1      50.111  29.001  29.427  1.00  0.00     0.023 A 
ATOM     90  C   UNL A   1      50.594  28.602  30.700  1.00  0.00     0.012 A 
ATOM     91  C   UNL A   1      50.914  28.702  28.312  1.00  0.00     0.148 A 
ATOM     92  C   UNL A   1      51.754  27.841  30.849  1.00  0.00     0.002 A 
ATOM     93  C   UNL A   1      52.044  27.895  28.456  1.00  0.00     0.091 A 
ATOM     94  F   UNL A   1      50.570  29.189  27.113  1.00  0.00    -0.205 F 
ATOM     95  C   UNL A   1      52.464  27.461  29.721  1.00  0.00     0.022 A 
BRANCH  93  96
ATOM     96  S   UNL A   1      52.982  27.288  27.047  1.00  0.00     0.127 S 
ATOM     97  O   UNL A   1      51.925  26.943  26.098  1.00  0.00    -0.237 OA
ATOM     98  O   UNL A   1      53.766  28.471  26.694  1.00  0.00    -0.237 OA
ATOM     99  O   UNL A   1      53.752  26.157  27.543  1.00  0.00    -0.744 OA
ENDBRANCH  93  96
ENDBRANCH  65  89
BRANCH  77 100
ATOM    100  C   UNL A   1      44.266  31.461  27.490  1.00  0.00     0.023 A 
ATOM    101  C   UNL A   1      44.328  32.179  26.280  1.00  0.00     0.012 A 
ATOM    102  C   UNL A   1      43.952  32.145  28.682  1.00  0.00     0.148 A 
ATOM    103  C   UNL A   1      44.055  33.545  26.247  1.00  0.00     0.002 A 
ATOM    104  C   UNL A   1      43.655  33.504  28.639  1.00  0.00     0.091 A 
ATOM    105  F   UNL A   1      43.905  31.454  29.832  1.00  0.00    -0.205 F 
ATOM    106  C   UNL A   1      43.709  34.205  27.423  1.00  0.00     0.022 A 
BRANCH 104 107
ATOM    107  S   UNL A   1      43.153  34.436  30.091  1.00  0.00     0.127 S 
ATOM    108  O   UNL A   1      42.968  35.784  29.549  1.00  0.00    -0.237 OA
ATOM    109  O   UNL A   1      41.912  33.760  30.468  1.00  0.00    -0.237 OA
ATOM    110  O   UNL A   1      44.244  34.321  31.051  1.00  0.00    -0.744 OA
ENDBRANCH 104 107
ENDBRANCH  77 100
ENDBRANCH  51  52
ENDBRANCH  43  46
ENDBRANCH  41  42
ENDBRANCH  40  41
ENDBRANCH  39  40
ENDBRANCH   1  39
TORSDOF 20
ENDMDL
MODEL 3
REMARK VINA RESULT:     -11.7      3.215      8.212
REMARK SMILES O=C(CCNc1cc(N2CCC3(CC2)OCCO3)c2noc3c2c1C(=O)c1ccccc1-3)NCCCCCCNC(=O)c1ccc(-c2c3nc(c(-c4cccc(S(=O)(=O)[O-])c4F)c4ccc([nH]4)c(-c4cccc(S(=O)(=O)[O-])c4F)c4nc(c(-c5cccc(S(=O)(=O)[O-])c5F)c5ccc2[nH]5)C=C4)C=C3)cc1
REMARK SMILES IDX 36 1 35 2 34 3 33 4 1 5 2 6 3 8 4 9 5 10 6 12 7 13 24 14
REMARK SMILES IDX 8 15 23 16 25 17 19 18 22 19 26 20 27 21 20 22 21 23 32 24
REMARK SMILES IDX 28 25 31 26 29 27 30 28 9 29 10 30 14 31 11 32 13 33 12 34
REMARK SMILES IDX 15 35 18 36 16 37 17 38 37 39 38 40 39 41 40 42 41 43 42 45
REMARK SMILES IDX 43 46 44 47 105 48 45 49 104 50 46 51 47 52 48 53 98 54
REMARK SMILES IDX 49 55 103 56 97 57 99 58 50 59 102 60 96 61 95 62 51 64
REMARK SMILES IDX 83 65 63 66 82 67 64 68 67 69 81 70 100 71 65 72 66 73 80 75
REMARK SMILES IDX 101 76 68 77 52 78 53 79 61 80 54 81 56 82 62 83 55 84 57 85
REMARK SMILES IDX 58 86 59 87 60 88 84 89 85 90 93 91 86 92 88 93 94 94 87 95
REMARK SMILES IDX 89 96 90 97 91 98 92 99 69 100 70 101 78 102 71 103 73 104
REMARK SMILES IDX 79 105 72 106 74 107 75 108 76 109 77 110
REMARK H PARENT 33 7 5 11 40 44 99 63 67 74
REMARK Flexibility Score: inf
ROOT
ATOM      1  C   UNL A   1      32.384  28.948  24.568  1.00  0.00     0.002 C 
ENDROOT
BRANCH   1   2
ATOM      2  C   UNL A   1      31.050  28.314  24.133  1.00  0.00     0.021 C 
BRANCH   2   3
ATOM      3  C   UNL A   1      31.206  27.059  23.277  1.00  0.00     0.116 C 
BRANCH   3   4
ATOM      4  N   UNL A   1      32.383  26.330  23.686  1.00  0.00    -0.356 N 
ATOM      5  O   UNL A   1      33.172  25.713  21.618  1.00  0.00    -0.275 OA
ATOM      6  C   UNL A   1      33.249  25.689  22.842  1.00  0.00     0.221 C 
ATOM      7  H   UNL A   1      32.579  26.290  24.651  1.00  0.00     0.163 HD
BRANCH   6   8
ATOM      8  C   UNL A   1      34.257  24.827  23.569  1.00  0.00     0.121 C 
BRANCH   8   9
ATOM      9  C   UNL A   1      34.546  25.290  24.992  1.00  0.00     0.123 C 
BRANCH   9  10
ATOM     10  N   UNL A   1      34.486  24.176  25.955  1.00  0.00    -0.384 N 
ATOM     11  H   UNL A   1      33.808  24.172  26.669  1.00  0.00     0.160 HD
BRANCH  10  12
ATOM     12  C   UNL A   1      35.407  23.116  25.845  1.00  0.00     0.048 A 
ATOM     13  C   UNL A   1      36.802  23.459  26.083  1.00  0.00     0.054 A 
ATOM     14  C   UNL A   1      35.053  21.834  25.372  1.00  0.00     0.059 A 
ATOM     15  C   UNL A   1      37.942  22.599  25.918  1.00  0.00     0.069 A 
ATOM     16  C   UNL A   1      36.172  21.035  25.252  1.00  0.00     0.065 A 
ATOM     17  C   UNL A   1      33.731  21.256  24.985  1.00  0.00     0.196 C 
ATOM     18  C   UNL A   1      37.545  21.309  25.477  1.00  0.00     0.138 A 
ATOM     19  C   UNL A   1      36.063  19.740  24.881  1.00  0.00     0.176 A 
ATOM     20  O   UNL A   1      32.708  21.926  24.948  1.00  0.00    -0.288 OA
ATOM     21  C   UNL A   1      33.665  19.790  24.644  1.00  0.00     0.034 A 
ATOM     22  N   UNL A   1      38.237  20.171  25.220  1.00  0.00    -0.077 NA
ATOM     23  O   UNL A   1      37.299  19.192  24.854  1.00  0.00    -0.355 OA
ATOM     24  C   UNL A   1      34.851  19.020  24.594  1.00  0.00     0.032 A 
ATOM     25  C   UNL A   1      32.427  19.191  24.403  1.00  0.00     0.013 A 
ATOM     26  C   UNL A   1      34.785  17.658  24.310  1.00  0.00     0.013 A 
ATOM     27  C   UNL A   1      32.367  17.826  24.123  1.00  0.00     0.001 A 
ATOM     28  C   UNL A   1      33.539  17.065  24.079  1.00  0.00     0.001 A 
BRANCH  15  29
ATOM     29  N   UNL A   1      39.230  23.023  26.149  1.00  0.00    -0.369 N 
ATOM     30  C   UNL A   1      39.494  24.388  26.596  1.00  0.00     0.122 C 
ATOM     31  C   UNL A   1      40.375  22.139  26.002  1.00  0.00     0.122 C 
ATOM     32  C   UNL A   1      40.209  24.325  27.945  1.00  0.00     0.087 C 
ATOM     33  C   UNL A   1      41.112  22.037  27.327  1.00  0.00     0.087 C 
ATOM     34  C   UNL A   1      41.445  23.423  27.883  1.00  0.00     0.171 C 
ATOM     35  O   UNL A   1      42.460  24.036  27.060  1.00  0.00    -0.347 OA
ATOM     36  O   UNL A   1      41.965  23.258  29.217  1.00  0.00    -0.347 OA
ATOM     37  C   UNL A   1      43.413  24.552  27.992  1.00  0.00     0.192 C 
ATOM     38  C   UNL A   1      43.354  23.564  29.122  1.00  0.00     0.192 C 
ENDBRANCH  15  29
ENDBRANCH  10  12
ENDBRANCH   9  10
ENDBRANCH   8   9
ENDBRANCH   6   8
ENDBRANCH   3   4
ENDBRANCH   2   3
ENDBRANCH   1   2
BRANCH   1  39
ATOM     39  C   UNL A   1      32.681  28.905  26.073  1.00  0.00     0.002 C 
BRANCH  39  40
ATOM     40  C   UNL A   1      34.130  28.574  26.440  1.00  0.00     0.021 C 
BRANCH  40  41
ATOM     41  C   UNL A   1      34.630  29.291  27.691  1.00  0.00     0.116 C 
BRANCH  41  42
ATOM     42  N   UNL A   1      34.861  30.713  27.499  1.00  0.00    -0.352 N 
ATOM     43  C   UNL A   1      35.998  31.434  27.796  1.00  0.00     0.251 C 
ATOM     44  H   UNL A   1      34.115  31.223  27.108  1.00  0.00     0.163 HD
ATOM     45  O   UNL A   1      36.075  32.631  27.566  1.00  0.00    -0.269 OA
BRANCH  43  46
ATOM     46  C   UNL A   1      37.116  30.704  28.424  1.00  0.00     0.039 A 
ATOM     47  C   UNL A   1      37.634  31.159  29.641  1.00  0.00     0.014 A 
ATOM     48  C   UNL A   1      37.743  29.687  27.703  1.00  0.00     0.014 A 
ATOM     49  C   UNL A   1      38.874  30.699  30.062  1.00  0.00     0.010 A 
ATOM     50  C   UNL A   1      38.964  29.192  28.154  1.00  0.00     0.010 A 
ATOM     51  C   UNL A   1      39.553  29.738  29.303  1.00  0.00    -0.014 A 
BRANCH  51  52
ATOM     52  C   UNL A   1      40.889  29.334  29.758  1.00  0.00     0.031 A 
ATOM     53  C   UNL A   1      42.011  30.087  29.143  1.00  0.00     0.074 A 
ATOM     54  C   UNL A   1      41.090  28.738  30.951  1.00  0.00     0.049 A 
ATOM     55  N   UNL A   1      42.350  31.269  29.558  1.00  0.00    -0.248 NA
ATOM     56  C   UNL A   1      42.663  29.678  27.902  1.00  0.00     0.031 C 
ATOM     57  C   UNL A   1      40.171  28.832  32.094  1.00  0.00     0.029 A 
ATOM     58  N   UNL A   1      42.213  28.137  31.469  1.00  0.00    -0.354 N 
ATOM     59  C   UNL A   1      43.201  31.802  28.615  1.00  0.00     0.074 A 
ATOM     60  C   UNL A   1      43.389  30.771  27.616  1.00  0.00     0.031 C 
ATOM     61  C   UNL A   1      40.845  28.502  33.216  1.00  0.00     0.029 A 
ATOM     62  C   UNL A   1      42.166  28.007  32.854  1.00  0.00     0.049 A 
ATOM     63  H   UNL A   1      42.970  27.833  30.919  1.00  0.00     0.167 HD
ATOM     64  C   UNL A   1      43.690  33.067  28.696  1.00  0.00     0.034 A 
ATOM     65  C   UNL A   1      43.246  27.983  33.681  1.00  0.00     0.034 A 
ATOM     66  C   UNL A   1      43.265  33.820  29.839  1.00  0.00     0.049 A 
ATOM     67  C   UNL A   1      43.779  29.386  33.507  1.00  0.00     0.074 A 
ATOM     68  C   UNL A   1      42.223  34.673  30.136  1.00  0.00     0.029 A 
ATOM     69  N   UNL A   1      43.894  33.599  31.043  1.00  0.00    -0.354 N 
ATOM     70  N   UNL A   1      43.280  30.467  34.052  1.00  0.00    -0.248 NA
ATOM     71  C   UNL A   1      44.690  29.637  32.388  1.00  0.00     0.031 C 
ATOM     72  C   UNL A   1      42.019  34.556  31.547  1.00  0.00     0.029 A 
ATOM     73  C   UNL A   1      42.923  33.605  32.016  1.00  0.00     0.049 A 
ATOM     74  H   UNL A   1      44.859  33.462  31.181  1.00  0.00     0.167 HD
ATOM     75  C   UNL A   1      43.563  31.498  33.152  1.00  0.00     0.074 A 
ATOM     76  C   UNL A   1      44.454  30.922  32.165  1.00  0.00     0.031 C 
ATOM     77  C   UNL A   1      42.931  32.708  33.153  1.00  0.00     0.034 A 
BRANCH  64  78
ATOM     78  C   UNL A   1      44.711  33.593  27.771  1.00  0.00     0.023 A 
ATOM     79  C   UNL A   1      44.255  34.308  26.648  1.00  0.00     0.012 A 
ATOM     80  C   UNL A   1      46.077  33.291  27.901  1.00  0.00     0.148 A 
ATOM     81  C   UNL A   1      45.140  34.695  25.647  1.00  0.00     0.002 A 
ATOM     82  C   UNL A   1      46.957  33.682  26.897  1.00  0.00     0.091 A 
ATOM     83  F   UNL A   1      46.483  32.603  28.978  1.00  0.00    -0.205 F 
ATOM     84  C   UNL A   1      46.489  34.377  25.768  1.00  0.00     0.022 A 
BRANCH  82  85
ATOM     85  S   UNL A   1      48.719  33.334  26.952  1.00  0.00     0.127 S 
ATOM     86  O   UNL A   1      48.738  31.942  27.399  1.00  0.00    -0.237 OA
ATOM     87  O   UNL A   1      49.112  33.532  25.557  1.00  0.00    -0.237 OA
ATOM     88  O   UNL A   1      49.288  34.301  27.881  1.00  0.00    -0.744 OA
ENDBRANCH  82  85
ENDBRANCH  64  78
BRANCH  65  89
ATOM     89  C   UNL A   1      44.093  26.745  33.540  1.00  0.00     0.023 A 
ATOM     90  C   UNL A   1      45.127  26.776  32.569  1.00  0.00     0.012 A 
ATOM     91  C   UNL A   1      43.949  25.564  34.289  1.00  0.00     0.148 A 
ATOM     92  C   UNL A   1      46.046  25.736  32.431  1.00  0.00     0.002 A 
ATOM     93  C   UNL A   1      44.901  24.548  34.188  1.00  0.00     0.091 A 
ATOM     94  F   UNL A   1      42.897  25.437  35.108  1.00  0.00    -0.205 F 
ATOM     95  C   UNL A   1      45.951  24.631  33.264  1.00  0.00     0.022 A 
BRANCH  93  96
ATOM     96  S   UNL A   1      44.904  23.116  35.277  1.00  0.00     0.127 S 
ATOM     97  O   UNL A   1      46.100  22.398  34.840  1.00  0.00    -0.237 OA
ATOM     98  O   UNL A   1      45.012  23.755  36.588  1.00  0.00    -0.237 OA
ATOM     99  O   UNL A   1      43.648  22.425  35.024  1.00  0.00    -0.744 OA
ENDBRANCH  93  96
ENDBRANCH  65  89
BRANCH  77 100
ATOM    100  C   UNL A   1      42.048  33.003  34.326  1.00  0.00     0.023 A 
ATOM    101  C   UNL A   1      42.599  33.724  35.403  1.00  0.00     0.012 A 
ATOM    102  C   UNL A   1      40.678  32.671  34.347  1.00  0.00     0.148 A 
ATOM    103  C   UNL A   1      41.800  34.133  36.469  1.00  0.00     0.002 A 
ATOM    104  C   UNL A   1      39.881  33.105  35.401  1.00  0.00     0.091 A 
ATOM    105  F   UNL A   1      40.164  31.976  33.320  1.00  0.00    -0.205 F 
ATOM    106  C   UNL A   1      40.440  33.834  36.463  1.00  0.00     0.022 A 
BRANCH 104 107
ATOM    107  S   UNL A   1      38.109  32.811  35.466  1.00  0.00     0.127 S 
ATOM    108  O   UNL A   1      37.646  33.410  34.213  1.00  0.00    -0.237 OA
ATOM    109  O   UNL A   1      38.047  31.350  35.498  1.00  0.00    -0.237 OA
ATOM    110  O   UNL A   1      37.624  33.482  36.666  1.00  0.00    -0.744 OA
ENDBRANCH 104 107
ENDBRANCH  77 100
ENDBRANCH  51  52
ENDBRANCH  43  46
ENDBRANCH  41  42
ENDBRANCH  40  41
ENDBRANCH  39  40
ENDBRANCH   1  39
TORSDOF 20
ENDMDL
