MODEL 1
REMARK VINA RESULT:     -11.7      0.000      0.000
REMARK SMILES C=CCn1nc(C(=O)NCCCCCCNC(=O)c2ccc(-c3c4nc(c(-c5cccc(S(=O)(=O)[O-])c5F)c5ccc([nH]5)c(-c5cccc(S(=O)(=O)[O-])c5F)c5nc(c(-c6cccc(S(=O)(=O)[O-])c6F)c6ccc3[nH]6)C=C5)C=C4)cc2)c2c1CC[C@@H]([NH+]1CCC(C(C)(C)O)CC1)C2
REMARK SMILES IDX 12 1 11 2 10 3 9 4 7 5 8 6 6 8 4 9 5 10 83 11 82 12 84 13
REMARK SMILES IDX 97 14 85 15 86 16 3 17 2 18 1 19 87 20 88 21 96 22 89 24
REMARK SMILES IDX 95 25 90 26 91 27 92 28 93 29 94 30 13 32 14 33 15 34 16 35
REMARK SMILES IDX 17 36 18 38 19 39 20 40 81 41 21 42 80 43 22 44 23 45 24 46
REMARK SMILES IDX 74 47 25 48 79 49 73 50 75 51 26 52 78 53 72 54 71 55 27 57
REMARK SMILES IDX 59 58 39 59 58 60 40 61 43 62 57 63 76 64 41 65 42 66 56 68
REMARK SMILES IDX 77 69 44 70 28 71 29 72 37 73 30 74 32 75 38 76 31 77 33 78
REMARK SMILES IDX 34 79 35 80 36 81 60 82 61 83 69 84 62 85 64 86 70 87 63 88
REMARK SMILES IDX 65 89 66 90 67 91 68 92 45 93 46 94 54 95 47 96 49 97 55 98
REMARK SMILES IDX 48 99 50 100 51 101 52 102 53 103
REMARK H PARENT 9 7 87 23 94 31 16 37 75 56 43 67
REMARK Flexibility Score: inf
ROOT
ATOM      1  C   UNL A   1      34.577  32.040  28.103  1.00  0.00     0.002 C 
ENDROOT
BRANCH   1   2
ATOM      2  C   UNL A   1      33.389  31.356  27.432  1.00  0.00     0.021 C 
BRANCH   2   3
ATOM      3  C   UNL A   1      33.615  29.873  27.094  1.00  0.00     0.116 C 
BRANCH   3   4
ATOM      4  N   UNL A   1      33.938  29.672  25.696  1.00  0.00    -0.351 N 
ATOM      5  C   UNL A   1      33.329  29.017  24.651  1.00  0.00     0.272 C 
ATOM      6  O   UNL A   1      33.791  29.308  23.540  1.00  0.00    -0.267 OA
ATOM      7  H   UNL A   1      34.783  30.103  25.434  1.00  0.00     0.163 HD
BRANCH   5   8
ATOM      8  C   UNL A   1      32.196  28.069  24.795  1.00  0.00     0.153 A 
ATOM      9  N   UNL A   1      30.171  27.399  24.469  1.00  0.00    -0.265 N 
ATOM     10  N   UNL A   1      30.960  28.497  24.454  1.00  0.00    -0.167 NA
ATOM     11  C   UNL A   1      30.769  26.367  25.130  1.00  0.00     0.043 A 
ATOM     12  C   UNL A   1      32.110  26.699  25.174  1.00  0.00     0.012 A 
ATOM     13  C   UNL A   1      30.186  25.074  25.572  1.00  0.00     0.062 C 
ATOM     14  C   UNL A   1      33.146  25.695  25.507  1.00  0.00     0.105 C 
ATOM     15  C   UNL A   1      31.280  24.109  26.064  1.00  0.00     0.072 C 
ATOM     16  C   UNL A   1      32.684  24.224  25.414  1.00  0.00     0.189 C 
BRANCH   9  17
ATOM     17  C   UNL A   1      28.911  27.503  23.723  1.00  0.00     0.171 C 
BRANCH  17  18
ATOM     18  C   UNL A   1      28.636  28.774  22.977  1.00  0.00    -0.011 C 
ATOM     19  C   UNL A   1      27.431  29.342  22.841  1.00  0.00     0.006 C 
ENDBRANCH  17  18
ENDBRANCH   9  17
BRANCH  16  20
ATOM     20  N   UNL A   1      33.059  23.664  24.110  1.00  0.00    -0.332 N 
ATOM     21  C   UNL A   1      33.033  22.232  23.872  1.00  0.00     0.262 C 
ATOM     22  C   UNL A   1      34.216  24.244  23.441  1.00  0.00     0.262 C 
ATOM     23  H   UNL A   1      32.203  24.003  23.672  1.00  0.00     0.348 HD
ATOM     24  C   UNL A   1      34.267  21.504  24.386  1.00  0.00     0.068 C 
ATOM     25  C   UNL A   1      35.526  23.755  24.027  1.00  0.00     0.068 C 
ATOM     26  C   UNL A   1      35.628  22.222  24.224  1.00  0.00     0.031 C 
BRANCH  26  27
ATOM     27  C   UNL A   1      36.636  21.873  25.375  1.00  0.00     0.062 C 
ATOM     28  C   UNL A   1      37.588  20.728  25.017  1.00  0.00     0.042 C 
ATOM     29  C   UNL A   1      37.448  23.105  25.793  1.00  0.00     0.042 C 
BRANCH  27  30
ATOM     30  O   UNL A   1      35.917  21.428  26.536  1.00  0.00    -0.390 OA
ATOM     31  H   UNL A   1      35.052  21.867  26.569  1.00  0.00     0.211 HD
ENDBRANCH  27  30
ENDBRANCH  26  27
ENDBRANCH  16  20
ENDBRANCH   5   8
ENDBRANCH   3   4
ENDBRANCH   2   3
ENDBRANCH   1   2
BRANCH   1  32
ATOM     32  C   UNL A   1      34.491  33.573  28.134  1.00  0.00     0.002 C 
BRANCH  32  33
ATOM     33  C   UNL A   1      33.213  34.183  28.736  1.00  0.00     0.021 C 
BRANCH  33  34
ATOM     34  C   UNL A   1      33.436  35.518  29.430  1.00  0.00     0.116 C 
BRANCH  34  35
ATOM     35  N   UNL A   1      32.748  35.588  30.725  1.00  0.00    -0.352 N 
ATOM     36  C   UNL A   1      33.000  34.891  31.894  1.00  0.00     0.251 C 
ATOM     37  H   UNL A   1      31.998  36.224  30.768  1.00  0.00     0.163 HD
ATOM     38  O   UNL A   1      32.163  34.828  32.776  1.00  0.00    -0.269 OA
BRANCH  36  39
ATOM     39  C   UNL A   1      34.306  34.228  32.047  1.00  0.00     0.039 A 
ATOM     40  C   UNL A   1      34.457  32.849  31.879  1.00  0.00     0.014 A 
ATOM     41  C   UNL A   1      35.402  35.033  32.335  1.00  0.00     0.014 A 
ATOM     42  C   UNL A   1      35.738  32.307  31.929  1.00  0.00     0.010 A 
ATOM     43  C   UNL A   1      36.663  34.541  32.166  1.00  0.00     0.010 A 
ATOM     44  C   UNL A   1      36.836  33.170  32.058  1.00  0.00    -0.014 A 
BRANCH  44  45
ATOM     45  C   UNL A   1      38.202  32.678  32.040  1.00  0.00     0.031 A 
ATOM     46  C   UNL A   1      38.879  32.652  33.356  1.00  0.00     0.074 A 
ATOM     47  C   UNL A   1      38.743  32.093  30.950  1.00  0.00     0.049 A 
ATOM     48  N   UNL A   1      39.801  33.455  33.767  1.00  0.00    -0.248 NA
ATOM     49  C   UNL A   1      38.383  31.732  34.389  1.00  0.00     0.031 C 
ATOM     50  C   UNL A   1      38.098  31.757  29.671  1.00  0.00     0.029 A 
ATOM     51  N   UNL A   1      39.974  31.543  30.815  1.00  0.00    -0.354 N 
ATOM     52  C   UNL A   1      40.181  32.983  35.020  1.00  0.00     0.074 A 
ATOM     53  C   UNL A   1      39.141  32.077  35.434  1.00  0.00     0.031 C 
ATOM     54  C   UNL A   1      38.851  30.848  29.014  1.00  0.00     0.029 A 
ATOM     55  C   UNL A   1      40.104  30.693  29.724  1.00  0.00     0.049 A 
ATOM     56  H   UNL A   1      40.714  31.728  31.439  1.00  0.00     0.167 HD
ATOM     57  C   UNL A   1      41.442  33.185  35.492  1.00  0.00     0.034 A 
ATOM     58  C   UNL A   1      41.163  29.898  29.451  1.00  0.00     0.034 A 
ATOM     59  C   UNL A   1      42.162  34.131  34.670  1.00  0.00     0.049 A 
ATOM     60  C   UNL A   1      42.326  30.476  30.163  1.00  0.00     0.074 A 
ATOM     61  C   UNL A   1      41.966  35.442  34.286  1.00  0.00     0.029 A 
ATOM     62  N   UNL A   1      43.067  33.608  33.775  1.00  0.00    -0.354 N 
ATOM     63  N   UNL A   1      42.831  31.643  29.870  1.00  0.00    -0.248 NA
ATOM     64  C   UNL A   1      42.640  29.976  31.492  1.00  0.00     0.031 C 
ATOM     65  C   UNL A   1      42.373  35.486  32.919  1.00  0.00     0.029 A 
ATOM     66  C   UNL A   1      42.857  34.223  32.569  1.00  0.00     0.049 A 
ATOM     67  H   UNL A   1      43.741  32.917  33.966  1.00  0.00     0.167 HD
ATOM     68  C   UNL A   1      43.110  32.218  31.104  1.00  0.00     0.074 A 
ATOM     69  C   UNL A   1      43.089  31.104  32.052  1.00  0.00     0.031 C 
ATOM     70  C   UNL A   1      43.037  33.571  31.287  1.00  0.00     0.034 A 
BRANCH  57  71
ATOM     71  C   UNL A   1      42.182  32.285  36.455  1.00  0.00     0.023 A 
ATOM     72  C   UNL A   1      42.857  32.913  37.528  1.00  0.00     0.012 A 
ATOM     73  C   UNL A   1      42.477  30.923  36.223  1.00  0.00     0.148 A 
ATOM     74  C   UNL A   1      43.825  32.242  38.282  1.00  0.00     0.002 A 
ATOM     75  C   UNL A   1      43.384  30.238  37.025  1.00  0.00     0.091 A 
ATOM     76  F   UNL A   1      41.993  30.306  35.143  1.00  0.00    -0.205 F 
ATOM     77  C   UNL A   1      44.086  30.901  38.034  1.00  0.00     0.022 A 
BRANCH  75  78
ATOM     78  S   UNL A   1      43.727  28.491  36.777  1.00  0.00     0.127 S 
ATOM     79  O   UNL A   1      42.382  27.924  36.791  1.00  0.00    -0.237 OA
ATOM     80  O   UNL A   1      44.385  28.497  35.471  1.00  0.00    -0.237 OA
ATOM     81  O   UNL A   1      44.598  28.103  37.880  1.00  0.00    -0.744 OA
ENDBRANCH  75  78
ENDBRANCH  57  71
BRANCH  58  82
ATOM     82  C   UNL A   1      41.189  28.561  28.820  1.00  0.00     0.023 A 
ATOM     83  C   UNL A   1      40.214  27.607  29.164  1.00  0.00     0.012 A 
ATOM     84  C   UNL A   1      41.993  28.319  27.682  1.00  0.00     0.148 A 
ATOM     85  C   UNL A   1      40.019  26.464  28.379  1.00  0.00     0.002 A 
ATOM     86  C   UNL A   1      41.795  27.183  26.904  1.00  0.00     0.091 A 
ATOM     87  F   UNL A   1      42.883  29.249  27.311  1.00  0.00    -0.205 F 
ATOM     88  C   UNL A   1      40.800  26.257  27.244  1.00  0.00     0.022 A 
BRANCH  86  89
ATOM     89  S   UNL A   1      42.737  26.871  25.404  1.00  0.00     0.127 S 
ATOM     90  O   UNL A   1      42.180  25.595  24.956  1.00  0.00    -0.237 OA
ATOM     91  O   UNL A   1      42.380  28.020  24.576  1.00  0.00    -0.237 OA
ATOM     92  O   UNL A   1      44.133  26.804  25.819  1.00  0.00    -0.744 OA
ENDBRANCH  86  89
ENDBRANCH  58  82
BRANCH  70  93
ATOM     93  C   UNL A   1      42.854  34.445  30.066  1.00  0.00     0.023 A 
ATOM     94  C   UNL A   1      41.577  34.778  29.566  1.00  0.00     0.012 A 
ATOM     95  C   UNL A   1      43.978  35.088  29.522  1.00  0.00     0.148 A 
ATOM     96  C   UNL A   1      41.424  35.708  28.533  1.00  0.00     0.002 A 
ATOM     97  C   UNL A   1      43.820  36.046  28.526  1.00  0.00     0.091 A 
ATOM     98  F   UNL A   1      45.187  34.774  30.012  1.00  0.00    -0.205 F 
ATOM     99  C   UNL A   1      42.546  36.352  28.021  1.00  0.00     0.022 A 
BRANCH  97 100
ATOM    100  S   UNL A   1      45.208  37.001  27.910  1.00  0.00     0.127 S 
ATOM    101  O   UNL A   1      45.759  37.569  29.139  1.00  0.00    -0.237 OA
ATOM    102  O   UNL A   1      46.043  35.976  27.282  1.00  0.00    -0.237 OA
ATOM    103  O   UNL A   1      44.647  37.965  26.971  1.00  0.00    -0.744 OA
ENDBRANCH  97 100
ENDBRANCH  70  93
ENDBRANCH  44  45
ENDBRANCH  36  39
ENDBRANCH  34  35
ENDBRANCH  33  34
ENDBRANCH  32  33
ENDBRANCH   1  32
TORSDOF 21
ENDMDL
MODEL 2
REMARK VINA RESULT:     -11.6      1.951      6.567
REMARK SMILES C=CCn1nc(C(=O)NCCCCCCNC(=O)c2ccc(-c3c4nc(c(-c5cccc(S(=O)(=O)[O-])c5F)c5ccc([nH]5)c(-c5cccc(S(=O)(=O)[O-])c5F)c5nc(c(-c6cccc(S(=O)(=O)[O-])c6F)c6ccc3[nH]6)C=C5)C=C4)cc2)c2c1CC[C@@H]([NH+]1CCC(C(C)(C)O)CC1)C2
REMARK SMILES IDX 12 1 11 2 10 3 9 4 7 5 8 6 6 8 4 9 5 10 83 11 82 12 84 13
REMARK SMILES IDX 97 14 85 15 86 16 3 17 2 18 1 19 87 20 88 21 96 22 89 24
REMARK SMILES IDX 95 25 90 26 91 27 92 28 93 29 94 30 13 32 14 33 15 34 16 35
REMARK SMILES IDX 17 36 18 38 19 39 20 40 81 41 21 42 80 43 22 44 23 45 24 46
REMARK SMILES IDX 74 47 25 48 79 49 73 50 75 51 26 52 78 53 72 54 71 55 27 57
REMARK SMILES IDX 59 58 39 59 58 60 40 61 43 62 57 63 76 64 41 65 42 66 56 68
REMARK SMILES IDX 77 69 44 70 28 71 29 72 37 73 30 74 32 75 38 76 31 77 33 78
REMARK SMILES IDX 34 79 35 80 36 81 60 82 61 83 69 84 62 85 64 86 70 87 63 88
REMARK SMILES IDX 65 89 66 90 67 91 68 92 45 93 46 94 54 95 47 96 49 97 55 98
REMARK SMILES IDX 48 99 50 100 51 101 52 102 53 103
REMARK H PARENT 9 7 87 23 94 31 16 37 75 56 43 67
REMARK Flexibility Score: inf
ROOT
ATOM      1  C   UNL A   1      34.328  32.053  28.064  1.00  0.00     0.002 C 
ENDROOT
BRANCH   1   2
ATOM      2  C   UNL A   1      33.272  31.283  27.275  1.00  0.00     0.021 C 
BRANCH   2   3
ATOM      3  C   UNL A   1      33.626  29.811  27.006  1.00  0.00     0.116 C 
BRANCH   3   4
ATOM      4  N   UNL A   1      34.067  29.593  25.644  1.00  0.00    -0.351 N 
ATOM      5  C   UNL A   1      33.470  29.109  24.503  1.00  0.00     0.272 C 
ATOM      6  O   UNL A   1      34.112  29.335  23.468  1.00  0.00    -0.267 OA
ATOM      7  H   UNL A   1      35.007  29.850  25.502  1.00  0.00     0.163 HD
BRANCH   5   8
ATOM      8  C   UNL A   1      32.163  28.408  24.467  1.00  0.00     0.153 A 
ATOM      9  N   UNL A   1      30.102  28.170  23.873  1.00  0.00    -0.265 N 
ATOM     10  N   UNL A   1      31.089  29.085  24.002  1.00  0.00    -0.167 NA
ATOM     11  C   UNL A   1      30.395  27.024  24.552  1.00  0.00     0.043 A 
ATOM     12  C   UNL A   1      31.759  27.076  24.770  1.00  0.00     0.012 A 
ATOM     13  C   UNL A   1      29.517  25.868  24.861  1.00  0.00     0.062 C 
ATOM     14  C   UNL A   1      32.525  25.876  25.177  1.00  0.00     0.105 C 
ATOM     15  C   UNL A   1      30.326  24.690  25.434  1.00  0.00     0.072 C 
ATOM     16  C   UNL A   1      31.796  24.532  24.961  1.00  0.00     0.189 C 
BRANCH   9  17
ATOM     17  C   UNL A   1      28.992  28.543  22.989  1.00  0.00     0.171 C 
BRANCH  17  18
ATOM     18  C   UNL A   1      29.138  29.783  22.159  1.00  0.00    -0.011 C 
ATOM     19  C   UNL A   1      28.151  30.369  21.468  1.00  0.00     0.006 C 
ENDBRANCH  17  18
ENDBRANCH   9  17
BRANCH  16  20
ATOM     20  N   UNL A   1      32.213  23.935  23.686  1.00  0.00    -0.332 N 
ATOM     21  C   UNL A   1      31.686  22.655  23.248  1.00  0.00     0.262 C 
ATOM     22  C   UNL A   1      33.624  24.022  23.338  1.00  0.00     0.262 C 
ATOM     23  H   UNL A   1      31.683  24.618  23.147  1.00  0.00     0.348 HD
ATOM     24  C   UNL A   1      32.385  21.459  23.880  1.00  0.00     0.068 C 
ATOM     25  C   UNL A   1      34.467  23.009  24.087  1.00  0.00     0.068 C 
ATOM     26  C   UNL A   1      33.916  21.561  24.082  1.00  0.00     0.031 C 
BRANCH  26  27
ATOM     27  C   UNL A   1      34.413  20.770  25.343  1.00  0.00     0.062 C 
ATOM     28  C   UNL A   1      35.112  21.659  26.376  1.00  0.00     0.042 C 
ATOM     29  C   UNL A   1      33.258  20.014  26.013  1.00  0.00     0.042 C 
BRANCH  27  30
ATOM     30  O   UNL A   1      35.388  19.791  24.953  1.00  0.00    -0.390 OA
ATOM     31  H   UNL A   1      35.400  19.714  23.986  1.00  0.00     0.211 HD
ENDBRANCH  27  30
ENDBRANCH  26  27
ENDBRANCH  16  20
ENDBRANCH   5   8
ENDBRANCH   3   4
ENDBRANCH   2   3
ENDBRANCH   1   2
BRANCH   1  32
ATOM     32  C   UNL A   1      34.246  33.579  27.910  1.00  0.00     0.002 C 
BRANCH  32  33
ATOM     33  C   UNL A   1      33.030  34.275  28.547  1.00  0.00     0.021 C 
BRANCH  33  34
ATOM     34  C   UNL A   1      33.348  35.632  29.158  1.00  0.00     0.116 C 
BRANCH  34  35
ATOM     35  N   UNL A   1      32.846  35.749  30.532  1.00  0.00    -0.352 N 
ATOM     36  C   UNL A   1      33.199  35.031  31.663  1.00  0.00     0.251 C 
ATOM     37  H   UNL A   1      32.158  36.438  30.671  1.00  0.00     0.163 HD
ATOM     38  O   UNL A   1      32.484  35.028  32.648  1.00  0.00    -0.269 OA
BRANCH  36  39
ATOM     39  C   UNL A   1      34.461  34.272  31.644  1.00  0.00     0.039 A 
ATOM     40  C   UNL A   1      34.483  32.877  31.721  1.00  0.00     0.014 A 
ATOM     41  C   UNL A   1      35.640  34.997  31.515  1.00  0.00     0.014 A 
ATOM     42  C   UNL A   1      35.704  32.222  31.587  1.00  0.00     0.010 A 
ATOM     43  C   UNL A   1      36.792  34.353  31.167  1.00  0.00     0.010 A 
ATOM     44  C   UNL A   1      36.851  32.974  31.293  1.00  0.00    -0.014 A 
BRANCH  44  45
ATOM     45  C   UNL A   1      38.140  32.346  31.066  1.00  0.00     0.031 A 
ATOM     46  C   UNL A   1      38.110  31.139  30.208  1.00  0.00     0.074 A 
ATOM     47  C   UNL A   1      39.300  32.930  31.432  1.00  0.00     0.049 A 
ATOM     48  N   UNL A   1      38.245  29.915  30.591  1.00  0.00    -0.248 NA
ATOM     49  C   UNL A   1      37.744  31.286  28.792  1.00  0.00     0.031 C 
ATOM     50  C   UNL A   1      39.516  34.269  32.003  1.00  0.00     0.029 A 
ATOM     51  N   UNL A   1      40.565  32.486  31.230  1.00  0.00    -0.354 N 
ATOM     52  C   UNL A   1      38.235  29.152  29.427  1.00  0.00     0.074 A 
ATOM     53  C   UNL A   1      37.709  30.011  28.397  1.00  0.00     0.031 C 
ATOM     54  C   UNL A   1      40.813  34.616  31.857  1.00  0.00     0.029 A 
ATOM     55  C   UNL A   1      41.542  33.464  31.368  1.00  0.00     0.049 A 
ATOM     56  H   UNL A   1      40.774  31.551  31.003  1.00  0.00     0.167 HD
ATOM     57  C   UNL A   1      38.897  27.965  29.361  1.00  0.00     0.034 A 
ATOM     58  C   UNL A   1      42.854  33.331  31.068  1.00  0.00     0.034 A 
ATOM     59  C   UNL A   1      39.331  27.536  30.671  1.00  0.00     0.049 A 
ATOM     60  C   UNL A   1      43.156  31.881  31.103  1.00  0.00     0.074 A 
ATOM     61  C   UNL A   1      38.704  27.258  31.868  1.00  0.00     0.029 A 
ATOM     62  N   UNL A   1      40.656  27.741  30.979  1.00  0.00    -0.354 N 
ATOM     63  N   UNL A   1      43.094  31.168  32.195  1.00  0.00    -0.248 NA
ATOM     64  C   UNL A   1      43.076  31.130  29.861  1.00  0.00     0.031 C 
ATOM     65  C   UNL A   1      39.573  27.789  32.867  1.00  0.00     0.029 A 
ATOM     66  C   UNL A   1      40.707  28.297  32.230  1.00  0.00     0.049 A 
ATOM     67  H   UNL A   1      41.427  27.528  30.405  1.00  0.00     0.167 HD
ATOM     68  C   UNL A   1      42.502  29.976  31.795  1.00  0.00     0.074 A 
ATOM     69  C   UNL A   1      42.629  29.963  30.338  1.00  0.00     0.031 C 
ATOM     70  C   UNL A   1      41.707  29.261  32.646  1.00  0.00     0.034 A 
BRANCH  57  71
ATOM     71  C   UNL A   1      39.492  27.351  28.115  1.00  0.00     0.023 A 
ATOM     72  C   UNL A   1      39.099  26.029  27.802  1.00  0.00     0.012 A 
ATOM     73  C   UNL A   1      40.593  27.876  27.403  1.00  0.00     0.148 A 
ATOM     74  C   UNL A   1      39.807  25.247  26.883  1.00  0.00     0.002 A 
ATOM     75  C   UNL A   1      41.247  27.122  26.434  1.00  0.00     0.091 A 
ATOM     76  F   UNL A   1      41.112  29.057  27.745  1.00  0.00    -0.205 F 
ATOM     77  C   UNL A   1      40.881  25.796  26.194  1.00  0.00     0.022 A 
BRANCH  75  78
ATOM     78  S   UNL A   1      42.615  27.797  25.481  1.00  0.00     0.127 S 
ATOM     79  O   UNL A   1      42.919  26.689  24.582  1.00  0.00    -0.237 OA
ATOM     80  O   UNL A   1      41.993  28.959  24.846  1.00  0.00    -0.237 OA
ATOM     81  O   UNL A   1      43.644  28.132  26.457  1.00  0.00    -0.744 OA
ENDBRANCH  75  78
ENDBRANCH  57  71
BRANCH  58  82
ATOM     82  C   UNL A   1      43.795  34.336  30.530  1.00  0.00     0.023 A 
ATOM     83  C   UNL A   1      45.120  34.377  31.003  1.00  0.00     0.012 A 
ATOM     84  C   UNL A   1      43.478  35.065  29.360  1.00  0.00     0.148 A 
ATOM     85  C   UNL A   1      46.107  35.091  30.313  1.00  0.00     0.002 A 
ATOM     86  C   UNL A   1      44.463  35.772  28.677  1.00  0.00     0.091 A 
ATOM     87  F   UNL A   1      42.235  34.985  28.868  1.00  0.00    -0.205 F 
ATOM     88  C   UNL A   1      45.782  35.778  29.146  1.00  0.00     0.022 A 
BRANCH  86  89
ATOM     89  S   UNL A   1      44.126  36.647  27.143  1.00  0.00     0.127 S 
ATOM     90  O   UNL A   1      45.470  37.031  26.711  1.00  0.00    -0.237 OA
ATOM     91  O   UNL A   1      43.495  35.609  26.333  1.00  0.00    -0.237 OA
ATOM     92  O   UNL A   1      43.269  37.769  27.506  1.00  0.00    -0.744 OA
ENDBRANCH  86  89
ENDBRANCH  58  82
BRANCH  70  93
ATOM     93  C   UNL A   1      41.659  29.683  34.097  1.00  0.00     0.023 A 
ATOM     94  C   UNL A   1      42.714  29.411  34.994  1.00  0.00     0.012 A 
ATOM     95  C   UNL A   1      40.617  30.525  34.522  1.00  0.00     0.148 A 
ATOM     96  C   UNL A   1      42.721  29.942  36.287  1.00  0.00     0.002 A 
ATOM     97  C   UNL A   1      40.647  31.088  35.793  1.00  0.00     0.091 A 
ATOM     98  F   UNL A   1      39.624  30.788  33.659  1.00  0.00    -0.205 F 
ATOM     99  C   UNL A   1      41.692  30.792  36.683  1.00  0.00     0.022 A 
BRANCH  97 100
ATOM    100  S   UNL A   1      39.422  32.287  36.322  1.00  0.00     0.127 S 
ATOM    101  O   UNL A   1      39.793  32.508  37.719  1.00  0.00    -0.237 OA
ATOM    102  O   UNL A   1      39.685  33.420  35.433  1.00  0.00    -0.237 OA
ATOM    103  O   UNL A   1      38.125  31.655  36.111  1.00  0.00    -0.744 OA
ENDBRANCH  97 100
ENDBRANCH  70  93
ENDBRANCH  44  45
ENDBRANCH  36  39
ENDBRANCH  34  35
ENDBRANCH  33  34
ENDBRANCH  32  33
ENDBRANCH   1  32
TORSDOF 21
ENDMDL
MODEL 3
REMARK VINA RESULT:     -11.4      3.655      9.840
REMARK SMILES C=CCn1nc(C(=O)NCCCCCCNC(=O)c2ccc(-c3c4nc(c(-c5cccc(S(=O)(=O)[O-])c5F)c5ccc([nH]5)c(-c5cccc(S(=O)(=O)[O-])c5F)c5nc(c(-c6cccc(S(=O)(=O)[O-])c6F)c6ccc3[nH]6)C=C5)C=C4)cc2)c2c1CC[C@@H]([NH+]1CCC(C(C)(C)O)CC1)C2
REMARK SMILES IDX 12 1 11 2 10 3 9 4 7 5 8 6 6 8 4 9 5 10 83 11 82 12 84 13
REMARK SMILES IDX 97 14 85 15 86 16 3 17 2 18 1 19 87 20 88 21 96 22 89 24
REMARK SMILES IDX 95 25 90 26 91 27 92 28 93 29 94 30 13 32 14 33 15 34 16 35
REMARK SMILES IDX 17 36 18 38 19 39 20 40 81 41 21 42 80 43 22 44 23 45 24 46
REMARK SMILES IDX 74 47 25 48 79 49 73 50 75 51 26 52 78 53 72 54 71 55 27 57
REMARK SMILES IDX 59 58 39 59 58 60 40 61 43 62 57 63 76 64 41 65 42 66 56 68
REMARK SMILES IDX 77 69 44 70 28 71 29 72 37 73 30 74 32 75 38 76 31 77 33 78
REMARK SMILES IDX 34 79 35 80 36 81 60 82 61 83 69 84 62 85 64 86 70 87 63 88
REMARK SMILES IDX 65 89 66 90 67 91 68 92 45 93 46 94 54 95 47 96 49 97 55 98
REMARK SMILES IDX 48 99 50 100 51 101 52 102 53 103
REMARK H PARENT 9 7 87 23 94 31 16 37 75 56 43 67
REMARK Flexibility Score: inf
ROOT
ATOM      1  C   UNL A   1      39.797  23.591  26.514  1.00  0.00     0.002 C 
ENDROOT
BRANCH   1   2
ATOM      2  C   UNL A   1      38.406  24.095  26.893  1.00  0.00     0.021 C 
BRANCH   2   3
ATOM      3  C   UNL A   1      37.254  23.412  26.137  1.00  0.00     0.116 C 
BRANCH   3   4
ATOM      4  N   UNL A   1      37.586  22.060  25.738  1.00  0.00    -0.351 N 
ATOM      5  C   UNL A   1      36.933  21.075  25.032  1.00  0.00     0.272 C 
ATOM      6  O   UNL A   1      37.668  20.147  24.671  1.00  0.00    -0.267 OA
ATOM      7  H   UNL A   1      38.480  21.782  26.039  1.00  0.00     0.163 HD
BRANCH   5   8
ATOM      8  C   UNL A   1      35.491  21.103  24.683  1.00  0.00     0.153 A 
ATOM      9  N   UNL A   1      33.476  20.329  24.688  1.00  0.00    -0.265 N 
ATOM     10  N   UNL A   1      34.768  19.975  24.870  1.00  0.00    -0.167 NA
ATOM     11  C   UNL A   1      33.375  21.538  24.064  1.00  0.00     0.043 A 
ATOM     12  C   UNL A   1      34.615  22.128  24.225  1.00  0.00     0.012 A 
ATOM     13  C   UNL A   1      32.178  22.193  23.481  1.00  0.00     0.062 C 
ATOM     14  C   UNL A   1      34.820  23.575  23.988  1.00  0.00     0.105 C 
ATOM     15  C   UNL A   1      32.474  23.655  23.096  1.00  0.00     0.072 C 
ATOM     16  C   UNL A   1      33.527  24.419  23.941  1.00  0.00     0.189 C 
BRANCH   9  17
ATOM     17  C   UNL A   1      32.475  19.418  25.256  1.00  0.00     0.171 C 
BRANCH  17  18
ATOM     18  C   UNL A   1      32.454  18.001  24.769  1.00  0.00    -0.011 C 
ATOM     19  C   UNL A   1      32.869  16.938  25.470  1.00  0.00     0.006 C 
ENDBRANCH  17  18
ENDBRANCH   9  17
BRANCH  16  20
ATOM     20  N   UNL A   1      33.278  25.027  25.254  1.00  0.00    -0.332 N 
ATOM     21  C   UNL A   1      31.927  25.194  25.760  1.00  0.00     0.262 C 
ATOM     22  C   UNL A   1      34.078  26.189  25.614  1.00  0.00     0.262 C 
ATOM     23  H   UNL A   1      33.626  24.204  25.745  1.00  0.00     0.348 HD
ATOM     24  C   UNL A   1      31.217  26.423  25.208  1.00  0.00     0.068 C 
ATOM     25  C   UNL A   1      33.592  27.456  24.938  1.00  0.00     0.068 C 
ATOM     26  C   UNL A   1      32.065  27.703  25.021  1.00  0.00     0.031 C 
BRANCH  26  27
ATOM     27  C   UNL A   1      31.575  28.581  23.815  1.00  0.00     0.062 C 
ATOM     28  C   UNL A   1      32.636  28.752  22.723  1.00  0.00     0.042 C 
ATOM     29  C   UNL A   1      30.292  28.009  23.200  1.00  0.00     0.042 C 
BRANCH  27  30
ATOM     30  O   UNL A   1      31.270  29.908  24.268  1.00  0.00    -0.390 OA
ATOM     31  H   UNL A   1      31.695  30.063  25.127  1.00  0.00     0.211 HD
ENDBRANCH  27  30
ENDBRANCH  26  27
ENDBRANCH  16  20
ENDBRANCH   5   8
ENDBRANCH   3   4
ENDBRANCH   2   3
ENDBRANCH   1   2
BRANCH   1  32
ATOM     32  C   UNL A   1      40.371  22.537  27.472  1.00  0.00     0.002 C 
BRANCH  32  33
ATOM     33  C   UNL A   1      40.667  21.149  26.878  1.00  0.00     0.021 C 
BRANCH  33  34
ATOM     34  C   UNL A   1      41.896  20.475  27.470  1.00  0.00     0.116 C 
BRANCH  34  35
ATOM     35  N   UNL A   1      42.910  20.183  26.450  1.00  0.00    -0.352 N 
ATOM     36  C   UNL A   1      43.629  21.054  25.649  1.00  0.00     0.251 C 
ATOM     37  H   UNL A   1      43.108  19.229  26.316  1.00  0.00     0.163 HD
ATOM     38  O   UNL A   1      44.197  20.657  24.648  1.00  0.00    -0.269 OA
BRANCH  36  39
ATOM     39  C   UNL A   1      43.692  22.474  26.038  1.00  0.00     0.039 A 
ATOM     40  C   UNL A   1      43.183  23.485  25.220  1.00  0.00     0.014 A 
ATOM     41  C   UNL A   1      44.251  22.773  27.275  1.00  0.00     0.014 A 
ATOM     42  C   UNL A   1      43.177  24.792  25.700  1.00  0.00     0.010 A 
ATOM     43  C   UNL A   1      44.045  24.003  27.828  1.00  0.00     0.010 A 
ATOM     44  C   UNL A   1      43.597  25.034  27.016  1.00  0.00    -0.014 A 
BRANCH  44  45
ATOM     45  C   UNL A   1      43.543  26.360  27.604  1.00  0.00     0.031 A 
ATOM     46  C   UNL A   1      44.653  27.264  27.223  1.00  0.00     0.074 A 
ATOM     47  C   UNL A   1      42.461  26.807  28.277  1.00  0.00     0.049 A 
ATOM     48  N   UNL A   1      45.647  27.621  27.963  1.00  0.00    -0.248 NA
ATOM     49  C   UNL A   1      44.757  27.705  25.825  1.00  0.00     0.031 C 
ATOM     50  C   UNL A   1      41.159  26.148  28.466  1.00  0.00     0.029 A 
ATOM     51  N   UNL A   1      42.257  28.031  28.822  1.00  0.00    -0.354 N 
ATOM     52  C   UNL A   1      46.371  28.537  27.204  1.00  0.00     0.074 A 
ATOM     53  C   UNL A   1      45.910  28.379  25.849  1.00  0.00     0.031 C 
ATOM     54  C   UNL A   1      40.242  27.066  28.842  1.00  0.00     0.029 A 
ATOM     55  C   UNL A   1      40.927  28.315  29.105  1.00  0.00     0.049 A 
ATOM     56  H   UNL A   1      42.989  28.666  29.001  1.00  0.00     0.167 HD
ATOM     57  C   UNL A   1      47.101  29.519  27.801  1.00  0.00     0.034 A 
ATOM     58  C   UNL A   1      40.431  29.509  29.499  1.00  0.00     0.034 A 
ATOM     59  C   UNL A   1      47.216  29.293  29.223  1.00  0.00     0.049 A 
ATOM     60  C   UNL A   1      41.559  30.267  30.090  1.00  0.00     0.074 A 
ATOM     61  C   UNL A   1      47.709  28.278  30.017  1.00  0.00     0.029 A 
ATOM     62  N   UNL A   1      46.391  30.038  30.035  1.00  0.00    -0.354 N 
ATOM     63  N   UNL A   1      42.169  29.897  31.183  1.00  0.00    -0.248 NA
ATOM     64  C   UNL A   1      42.309  31.169  29.231  1.00  0.00     0.031 C 
ATOM     65  C   UNL A   1      46.786  28.181  31.101  1.00  0.00     0.029 A 
ATOM     66  C   UNL A   1      45.826  29.184  30.945  1.00  0.00     0.049 A 
ATOM     67  H   UNL A   1      46.235  31.008  29.972  1.00  0.00     0.167 HD
ATOM     68  C   UNL A   1      43.514  30.125  30.922  1.00  0.00     0.074 A 
ATOM     69  C   UNL A   1      43.526  31.018  29.763  1.00  0.00     0.031 C 
ATOM     70  C   UNL A   1      44.486  29.338  31.475  1.00  0.00     0.034 A 
BRANCH  57  71
ATOM     71  C   UNL A   1      47.408  30.876  27.210  1.00  0.00     0.023 A 
ATOM     72  C   UNL A   1      48.746  31.326  27.302  1.00  0.00     0.012 A 
ATOM     73  C   UNL A   1      46.438  31.829  26.829  1.00  0.00     0.148 A 
ATOM     74  C   UNL A   1      49.089  32.665  27.094  1.00  0.00     0.002 A 
ATOM     75  C   UNL A   1      46.794  33.144  26.548  1.00  0.00     0.091 A 
ATOM     76  F   UNL A   1      45.141  31.517  26.863  1.00  0.00    -0.205 F 
ATOM     77  C   UNL A   1      48.112  33.576  26.712  1.00  0.00     0.022 A 
BRANCH  75  78
ATOM     78  S   UNL A   1      45.579  34.354  26.006  1.00  0.00     0.127 S 
ATOM     79  O   UNL A   1      44.940  33.650  24.900  1.00  0.00    -0.237 OA
ATOM     80  O   UNL A   1      44.754  34.507  27.204  1.00  0.00    -0.237 OA
ATOM     81  O   UNL A   1      46.343  35.544  25.654  1.00  0.00    -0.744 OA
ENDBRANCH  75  78
ENDBRANCH  57  71
BRANCH  58  82
ATOM     82  C   UNL A   1      39.122  30.124  29.192  1.00  0.00     0.023 A 
ATOM     83  C   UNL A   1      38.436  29.758  28.019  1.00  0.00     0.012 A 
ATOM     84  C   UNL A   1      38.420  30.854  30.180  1.00  0.00     0.148 A 
ATOM     85  C   UNL A   1      37.083  30.075  27.850  1.00  0.00     0.002 A 
ATOM     86  C   UNL A   1      37.075  31.166  30.008  1.00  0.00     0.091 A 
ATOM     87  F   UNL A   1      39.046  31.156  31.325  1.00  0.00    -0.205 F 
ATOM     88  C   UNL A   1      36.400  30.768  28.847  1.00  0.00     0.022 A 
BRANCH  86  89
ATOM     89  S   UNL A   1      36.120  32.021  31.268  1.00  0.00     0.127 S 
ATOM     90  O   UNL A   1      36.143  31.060  32.371  1.00  0.00    -0.237 OA
ATOM     91  O   UNL A   1      36.917  33.225  31.489  1.00  0.00    -0.237 OA
ATOM     92  O   UNL A   1      34.800  32.238  30.688  1.00  0.00    -0.744 OA
ENDBRANCH  86  89
ENDBRANCH  58  82
BRANCH  70  93
ATOM     93  C   UNL A   1      44.077  28.351  32.545  1.00  0.00     0.023 A 
ATOM     94  C   UNL A   1      43.945  26.971  32.282  1.00  0.00     0.012 A 
ATOM     95  C   UNL A   1      44.001  28.792  33.877  1.00  0.00     0.148 A 
ATOM     96  C   UNL A   1      43.718  26.055  33.314  1.00  0.00     0.002 A 
ATOM     97  C   UNL A   1      43.819  27.875  34.907  1.00  0.00     0.091 A 
ATOM     98  F   UNL A   1      44.140  30.104  34.118  1.00  0.00    -0.205 F 
ATOM     99  C   UNL A   1      43.668  26.507  34.630  1.00  0.00     0.022 A 
BRANCH  97 100
ATOM    100  S   UNL A   1      43.869  28.371  36.630  1.00  0.00     0.127 S 
ATOM    101  O   UNL A   1      45.198  28.971  36.738  1.00  0.00    -0.237 OA
ATOM    102  O   UNL A   1      42.760  29.323  36.716  1.00  0.00    -0.237 OA
ATOM    103  O   UNL A   1      43.666  27.153  37.405  1.00  0.00    -0.744 OA
ENDBRANCH  97 100
ENDBRANCH  70  93
ENDBRANCH  44  45
ENDBRANCH  36  39
ENDBRANCH  34  35
ENDBRANCH  33  34
ENDBRANCH  32  33
ENDBRANCH   1  32
TORSDOF 21
ENDMDL
