MODEL 1
REMARK VINA RESULT:     -12.5      0.000      0.000
REMARK SMILES Cc1cc(Cl)c2c(c1)C=C(C(=O)NCCCCCCNC(=O)c1ccc(-c3c4nc(c(-c5cccc(S(=O)(=O)[O-])c5F)c5ccc([nH]5)c(-c5cccc(S(=O)(=O)[O-])c5F)c5nc(c(-c6cccc(S(=O)(=O)[O-])c6F)c6ccc3[nH]6)C=C5)C=C4)cc1)[C@@H](C(F)(F)F)O2
REMARK SMILES IDX 17 1 16 2 15 3 14 4 13 5 11 6 12 7 10 9 1 10 2 11 3 12 8 13
REMARK SMILES IDX 4 14 7 15 5 16 6 17 9 18 91 19 86 20 87 21 88 22 89 23 90 24
REMARK SMILES IDX 18 25 19 26 20 27 21 28 22 30 23 31 24 32 85 33 25 34 84 35
REMARK SMILES IDX 26 36 27 37 28 38 78 39 29 40 83 41 77 42 79 43 30 44 82 45
REMARK SMILES IDX 76 46 75 47 31 49 63 50 43 51 62 52 44 53 47 54 61 55 80 56
REMARK SMILES IDX 45 57 46 58 60 60 81 61 48 62 32 63 33 64 41 65 34 66 36 67
REMARK SMILES IDX 42 68 35 69 37 70 38 71 39 72 40 73 64 74 65 75 73 76 66 77
REMARK SMILES IDX 68 78 74 79 67 80 69 81 70 82 71 83 72 84 49 85 50 86 58 87
REMARK SMILES IDX 51 88 53 89 59 90 52 91 54 92 55 93 56 94 57 95
REMARK H PARENT 13 8 20 29 79 48 47 59
REMARK Flexibility Score: inf
ROOT
ATOM      1  C   UNL A   1      35.178  20.567  25.104  1.00  0.00     0.002 C 
ENDROOT
BRANCH   1   2
ATOM      2  C   UNL A   1      33.776  20.832  25.671  1.00  0.00     0.002 C 
BRANCH   2   3
ATOM      3  C   UNL A   1      32.630  20.668  24.670  1.00  0.00     0.021 C 
BRANCH   3   4
ATOM      4  C   UNL A   1      31.724  21.890  24.573  1.00  0.00     0.116 C 
BRANCH   4   5
ATOM      5  N   UNL A   1      31.097  22.196  25.846  1.00  0.00    -0.352 N 
ATOM      6  C   UNL A   1      30.770  23.309  26.543  1.00  0.00     0.251 C 
ATOM      7  O   UNL A   1      30.204  23.107  27.623  1.00  0.00    -0.270 OA
ATOM      8  H   UNL A   1      30.843  21.379  26.331  1.00  0.00     0.163 HD
BRANCH   6   9
ATOM      9  C   UNL A   1      31.045  24.713  26.106  1.00  0.00     0.067 C 
ATOM     10  C   UNL A   1      28.709  29.064  22.374  1.00  0.00     0.044 C 
ATOM     11  C   UNL A   1      29.624  28.491  23.414  1.00  0.00    -0.049 A 
ATOM     12  C   UNL A   1      30.651  29.267  23.963  1.00  0.00     0.028 A 
ATOM     13  C   UNL A   1      29.473  27.161  23.832  1.00  0.00     0.015 A 
ATOM     14  C   UNL A   1      31.503  28.726  24.925  1.00  0.00     0.084 A 
ATOM     15  C   UNL A   1      30.327  26.615  24.798  1.00  0.00     0.019 A 
ATOM     16  Cl  UNL A   1      32.740  29.733  25.587  1.00  0.00    -0.080 Cl
ATOM     17  C   UNL A   1      31.346  27.400  25.339  1.00  0.00     0.146 A 
ATOM     18  C   UNL A   1      30.131  25.253  25.280  1.00  0.00     0.025 C 
ATOM     19  O   UNL A   1      32.182  26.931  26.310  1.00  0.00    -0.474 OA
ATOM     20  C   UNL A   1      32.264  25.498  26.502  1.00  0.00     0.314 C 
BRANCH  20  21
ATOM     21  C   UNL A   1      33.547  24.972  25.832  1.00  0.00     0.429 C 
ATOM     22  F   UNL A   1      34.496  25.937  25.791  1.00  0.00    -0.167 F 
ATOM     23  F   UNL A   1      34.091  23.928  26.502  1.00  0.00    -0.167 F 
ATOM     24  F   UNL A   1      33.327  24.552  24.566  1.00  0.00    -0.167 F 
ENDBRANCH  20  21
ENDBRANCH   6   9
ENDBRANCH   4   5
ENDBRANCH   3   4
ENDBRANCH   2   3
ENDBRANCH   1   2
BRANCH   1  25
ATOM     25  C   UNL A   1      35.964  21.816  24.696  1.00  0.00     0.021 C 
BRANCH  25  26
ATOM     26  C   UNL A   1      36.996  22.273  25.721  1.00  0.00     0.116 C 
BRANCH  26  27
ATOM     27  N   UNL A   1      38.014  21.260  25.946  1.00  0.00    -0.352 N 
ATOM     28  C   UNL A   1      39.333  21.425  26.281  1.00  0.00     0.251 C 
ATOM     29  H   UNL A   1      37.716  20.328  25.844  1.00  0.00     0.163 HD
ATOM     30  O   UNL A   1      40.111  20.475  26.209  1.00  0.00    -0.269 OA
BRANCH  28  31
ATOM     31  C   UNL A   1      39.813  22.750  26.719  1.00  0.00     0.039 A 
ATOM     32  C   UNL A   1      40.688  22.831  27.803  1.00  0.00     0.014 A 
ATOM     33  C   UNL A   1      39.394  23.908  26.056  1.00  0.00     0.014 A 
ATOM     34  C   UNL A   1      41.179  24.076  28.197  1.00  0.00     0.010 A 
ATOM     35  C   UNL A   1      39.942  25.137  26.403  1.00  0.00     0.010 A 
ATOM     36  C   UNL A   1      40.827  25.237  27.486  1.00  0.00    -0.014 A 
BRANCH  36  37
ATOM     37  C   UNL A   1      41.362  26.563  27.874  1.00  0.00     0.031 A 
ATOM     38  C   UNL A   1      42.790  26.918  27.563  1.00  0.00     0.074 A 
ATOM     39  C   UNL A   1      40.579  27.425  28.551  1.00  0.00     0.049 A 
ATOM     40  N   UNL A   1      43.445  28.015  27.841  1.00  0.00    -0.248 NA
ATOM     41  C   UNL A   1      43.599  25.900  26.868  1.00  0.00     0.031 C 
ATOM     42  C   UNL A   1      39.198  27.167  28.962  1.00  0.00     0.029 A 
ATOM     43  N   UNL A   1      40.836  28.688  29.025  1.00  0.00    -0.354 N 
ATOM     44  C   UNL A   1      44.737  27.815  27.374  1.00  0.00     0.074 A 
ATOM     45  C   UNL A   1      44.793  26.474  26.838  1.00  0.00     0.031 C 
ATOM     46  C   UNL A   1      38.722  28.244  29.607  1.00  0.00     0.029 A 
ATOM     47  C   UNL A   1      39.771  29.256  29.686  1.00  0.00     0.049 A 
ATOM     48  H   UNL A   1      41.699  29.143  28.904  1.00  0.00     0.167 HD
ATOM     49  C   UNL A   1      45.775  28.684  27.355  1.00  0.00     0.034 A 
ATOM     50  C   UNL A   1      39.653  30.458  30.285  1.00  0.00     0.034 A 
ATOM     51  C   UNL A   1      45.700  30.031  27.853  1.00  0.00     0.049 A 
ATOM     52  C   UNL A   1      40.821  31.408  30.244  1.00  0.00     0.074 A 
ATOM     53  C   UNL A   1      46.676  31.010  27.822  1.00  0.00     0.029 A 
ATOM     54  N   UNL A   1      44.591  30.588  28.471  1.00  0.00    -0.354 N 
ATOM     55  N   UNL A   1      41.992  31.252  29.674  1.00  0.00    -0.248 NA
ATOM     56  C   UNL A   1      40.644  32.712  30.900  1.00  0.00     0.031 C 
ATOM     57  C   UNL A   1      46.167  32.152  28.445  1.00  0.00     0.029 A 
ATOM     58  C   UNL A   1      44.862  31.895  28.838  1.00  0.00     0.049 A 
ATOM     59  H   UNL A   1      43.738  30.122  28.626  1.00  0.00     0.167 HD
ATOM     60  C   UNL A   1      42.678  32.445  29.876  1.00  0.00     0.074 A 
ATOM     61  C   UNL A   1      41.782  33.324  30.599  1.00  0.00     0.031 C 
ATOM     62  C   UNL A   1      43.942  32.775  29.512  1.00  0.00     0.034 A 
BRANCH  49  63
ATOM     63  C   UNL A   1      47.062  28.236  26.713  1.00  0.00     0.023 A 
ATOM     64  C   UNL A   1      48.118  27.783  27.531  1.00  0.00     0.012 A 
ATOM     65  C   UNL A   1      47.196  28.172  25.313  1.00  0.00     0.148 A 
ATOM     66  C   UNL A   1      49.296  27.298  26.967  1.00  0.00     0.002 A 
ATOM     67  C   UNL A   1      48.355  27.640  24.758  1.00  0.00     0.091 A 
ATOM     68  F   UNL A   1      46.188  28.623  24.553  1.00  0.00    -0.205 F 
ATOM     69  C   UNL A   1      49.408  27.212  25.582  1.00  0.00     0.022 A 
BRANCH  67  70
ATOM     70  S   UNL A   1      48.569  27.405  22.990  1.00  0.00     0.127 S 
ATOM     71  O   UNL A   1      48.393  25.959  22.861  1.00  0.00    -0.237 OA
ATOM     72  O   UNL A   1      47.475  28.205  22.440  1.00  0.00    -0.237 OA
ATOM     73  O   UNL A   1      49.903  27.898  22.676  1.00  0.00    -0.744 OA
ENDBRANCH  67  70
ENDBRANCH  49  63
BRANCH  50  74
ATOM     74  C   UNL A   1      38.354  30.860  30.897  1.00  0.00     0.023 A 
ATOM     75  C   UNL A   1      38.145  30.642  32.273  1.00  0.00     0.012 A 
ATOM     76  C   UNL A   1      37.349  31.499  30.144  1.00  0.00     0.148 A 
ATOM     77  C   UNL A   1      36.951  31.028  32.883  1.00  0.00     0.002 A 
ATOM     78  C   UNL A   1      36.186  31.933  30.770  1.00  0.00     0.091 A 
ATOM     79  F   UNL A   1      37.562  31.687  28.835  1.00  0.00    -0.205 F 
ATOM     80  C   UNL A   1      35.978  31.684  32.135  1.00  0.00     0.022 A 
BRANCH  78  81
ATOM     81  S   UNL A   1      34.940  32.910  29.922  1.00  0.00     0.127 S 
ATOM     82  O   UNL A   1      34.028  33.244  31.012  1.00  0.00    -0.237 OA
ATOM     83  O   UNL A   1      35.732  34.031  29.414  1.00  0.00    -0.237 OA
ATOM     84  O   UNL A   1      34.395  32.042  28.887  1.00  0.00    -0.744 OA
ENDBRANCH  78  81
ENDBRANCH  50  74
BRANCH  62  85
ATOM     85  C   UNL A   1      44.447  34.150  29.870  1.00  0.00     0.023 A 
ATOM     86  C   UNL A   1      45.270  34.315  31.001  1.00  0.00     0.012 A 
ATOM     87  C   UNL A   1      44.208  35.249  29.020  1.00  0.00     0.148 A 
ATOM     88  C   UNL A   1      45.832  35.556  31.292  1.00  0.00     0.002 A 
ATOM     89  C   UNL A   1      44.816  36.470  29.288  1.00  0.00     0.091 A 
ATOM     90  F   UNL A   1      43.410  35.073  27.957  1.00  0.00    -0.205 F 
ATOM     91  C   UNL A   1      45.618  36.628  30.429  1.00  0.00     0.022 A 
BRANCH  89  92
ATOM     92  S   UNL A   1      44.691  37.877  28.177  1.00  0.00     0.127 S 
ATOM     93  O   UNL A   1      43.267  38.198  28.263  1.00  0.00    -0.237 OA
ATOM     94  O   UNL A   1      45.575  38.852  28.814  1.00  0.00    -0.237 OA
ATOM     95  O   UNL A   1      45.144  37.405  26.876  1.00  0.00    -0.744 OA
ENDBRANCH  89  92
ENDBRANCH  62  85
ENDBRANCH  36  37
ENDBRANCH  28  31
ENDBRANCH  26  27
ENDBRANCH  25  26
ENDBRANCH   1  25
TORSDOF 17
ENDMDL
MODEL 2
REMARK VINA RESULT:     -12.3      5.106      9.773
REMARK SMILES Cc1cc(Cl)c2c(c1)C=C(C(=O)NCCCCCCNC(=O)c1ccc(-c3c4nc(c(-c5cccc(S(=O)(=O)[O-])c5F)c5ccc([nH]5)c(-c5cccc(S(=O)(=O)[O-])c5F)c5nc(c(-c6cccc(S(=O)(=O)[O-])c6F)c6ccc3[nH]6)C=C5)C=C4)cc1)[C@@H](C(F)(F)F)O2
REMARK SMILES IDX 17 1 16 2 15 3 14 4 13 5 11 6 12 7 10 9 1 10 2 11 3 12 8 13
REMARK SMILES IDX 4 14 7 15 5 16 6 17 9 18 91 19 86 20 87 21 88 22 89 23 90 24
REMARK SMILES IDX 18 25 19 26 20 27 21 28 22 30 23 31 24 32 85 33 25 34 84 35
REMARK SMILES IDX 26 36 27 37 28 38 78 39 29 40 83 41 77 42 79 43 30 44 82 45
REMARK SMILES IDX 76 46 75 47 31 49 63 50 43 51 62 52 44 53 47 54 61 55 80 56
REMARK SMILES IDX 45 57 46 58 60 60 81 61 48 62 32 63 33 64 41 65 34 66 36 67
REMARK SMILES IDX 42 68 35 69 37 70 38 71 39 72 40 73 64 74 65 75 73 76 66 77
REMARK SMILES IDX 68 78 74 79 67 80 69 81 70 82 71 83 72 84 49 85 50 86 58 87
REMARK SMILES IDX 51 88 53 89 59 90 52 91 54 92 55 93 56 94 57 95
REMARK H PARENT 13 8 20 29 79 48 47 59
REMARK Flexibility Score: inf
ROOT
ATOM      1  C   UNL A   1      31.718  28.243  25.724  1.00  0.00     0.002 C 
ENDROOT
BRANCH   1   2
ATOM      2  C   UNL A   1      30.788  27.054  25.442  1.00  0.00     0.002 C 
BRANCH   2   3
ATOM      3  C   UNL A   1      30.302  26.941  23.996  1.00  0.00     0.021 C 
BRANCH   3   4
ATOM      4  C   UNL A   1      30.544  25.569  23.376  1.00  0.00     0.116 C 
BRANCH   4   5
ATOM      5  N   UNL A   1      31.505  25.633  22.290  1.00  0.00    -0.352 N 
ATOM      6  C   UNL A   1      32.646  24.993  21.942  1.00  0.00     0.251 C 
ATOM      7  O   UNL A   1      33.154  25.364  20.877  1.00  0.00    -0.270 OA
ATOM      8  H   UNL A   1      31.264  26.325  21.632  1.00  0.00     0.163 HD
BRANCH   6   9
ATOM      9  C   UNL A   1      33.305  23.912  22.736  1.00  0.00     0.067 C 
ATOM     10  C   UNL A   1      32.351  18.049  24.479  1.00  0.00     0.044 C 
ATOM     11  C   UNL A   1      33.113  19.331  24.325  1.00  0.00    -0.049 A 
ATOM     12  C   UNL A   1      34.394  19.468  24.871  1.00  0.00     0.028 A 
ATOM     13  C   UNL A   1      32.538  20.416  23.647  1.00  0.00     0.015 A 
ATOM     14  C   UNL A   1      35.094  20.665  24.729  1.00  0.00     0.084 A 
ATOM     15  C   UNL A   1      33.239  21.620  23.502  1.00  0.00     0.019 A 
ATOM     16  Cl  UNL A   1      36.680  20.774  25.402  1.00  0.00    -0.080 Cl
ATOM     17  C   UNL A   1      34.517  21.743  24.051  1.00  0.00     0.146 A 
ATOM     18  C   UNL A   1      32.669  22.727  22.744  1.00  0.00     0.025 C 
ATOM     19  O   UNL A   1      35.258  22.878  23.907  1.00  0.00    -0.474 OA
ATOM     20  C   UNL A   1      34.572  24.095  23.524  1.00  0.00     0.314 C 
BRANCH  20  21
ATOM     21  C   UNL A   1      34.370  24.974  24.772  1.00  0.00     0.429 C 
ATOM     22  F   UNL A   1      34.316  26.283  24.432  1.00  0.00    -0.167 F 
ATOM     23  F   UNL A   1      33.213  24.697  25.419  1.00  0.00    -0.167 F 
ATOM     24  F   UNL A   1      35.367  24.819  25.672  1.00  0.00    -0.167 F 
ENDBRANCH  20  21
ENDBRANCH   6   9
ENDBRANCH   4   5
ENDBRANCH   3   4
ENDBRANCH   2   3
ENDBRANCH   1   2
BRANCH   1  25
ATOM     25  C   UNL A   1      32.853  27.962  26.712  1.00  0.00     0.021 C 
BRANCH  25  26
ATOM     26  C   UNL A   1      34.114  28.784  26.473  1.00  0.00     0.116 C 
BRANCH  26  27
ATOM     27  N   UNL A   1      33.922  30.179  26.834  1.00  0.00    -0.352 N 
ATOM     28  C   UNL A   1      34.624  30.941  27.731  1.00  0.00     0.251 C 
ATOM     29  H   UNL A   1      33.187  30.640  26.369  1.00  0.00     0.163 HD
ATOM     30  O   UNL A   1      34.189  32.035  28.085  1.00  0.00    -0.269 OA
BRANCH  28  31
ATOM     31  C   UNL A   1      35.900  30.435  28.274  1.00  0.00     0.039 A 
ATOM     32  C   UNL A   1      35.891  29.710  29.466  1.00  0.00     0.014 A 
ATOM     33  C   UNL A   1      37.101  30.681  27.601  1.00  0.00     0.014 A 
ATOM     34  C   UNL A   1      37.087  29.192  29.964  1.00  0.00     0.010 A 
ATOM     35  C   UNL A   1      38.279  30.101  28.059  1.00  0.00     0.010 A 
ATOM     36  C   UNL A   1      38.287  29.364  29.253  1.00  0.00    -0.014 A 
BRANCH  36  37
ATOM     37  C   UNL A   1      39.561  28.796  29.754  1.00  0.00     0.031 A 
ATOM     38  C   UNL A   1      40.222  29.389  30.967  1.00  0.00     0.074 A 
ATOM     39  C   UNL A   1      40.146  27.783  29.086  1.00  0.00     0.049 A 
ATOM     40  N   UNL A   1      41.346  29.046  31.541  1.00  0.00    -0.248 NA
ATOM     41  C   UNL A   1      39.547  30.530  31.610  1.00  0.00     0.031 C 
ATOM     42  C   UNL A   1      39.629  27.167  27.862  1.00  0.00     0.029 A 
ATOM     43  N   UNL A   1      41.311  27.100  29.334  1.00  0.00    -0.354 N 
ATOM     44  C   UNL A   1      41.521  29.933  32.595  1.00  0.00     0.074 A 
ATOM     45  C   UNL A   1      40.415  30.864  32.555  1.00  0.00     0.031 C 
ATOM     46  C   UNL A   1      40.460  26.186  27.478  1.00  0.00     0.029 A 
ATOM     47  C   UNL A   1      41.585  26.121  28.405  1.00  0.00     0.049 A 
ATOM     48  H   UNL A   1      41.894  27.292  30.102  1.00  0.00     0.167 HD
ATOM     49  C   UNL A   1      42.492  29.949  33.537  1.00  0.00     0.034 A 
ATOM     50  C   UNL A   1      42.624  25.267  28.316  1.00  0.00     0.034 A 
ATOM     51  C   UNL A   1      43.568  28.996  33.594  1.00  0.00     0.049 A 
ATOM     52  C   UNL A   1      43.688  25.302  29.380  1.00  0.00     0.074 A 
ATOM     53  C   UNL A   1      44.565  28.889  34.545  1.00  0.00     0.029 A 
ATOM     54  N   UNL A   1      43.785  27.989  32.666  1.00  0.00    -0.354 N 
ATOM     55  N   UNL A   1      43.762  26.059  30.449  1.00  0.00    -0.248 NA
ATOM     56  C   UNL A   1      44.797  24.345  29.248  1.00  0.00     0.031 C 
ATOM     57  C   UNL A   1      45.403  27.832  34.178  1.00  0.00     0.029 A 
ATOM     58  C   UNL A   1      44.910  27.262  33.015  1.00  0.00     0.049 A 
ATOM     59  H   UNL A   1      43.223  27.818  31.877  1.00  0.00     0.167 HD
ATOM     60  C   UNL A   1      44.904  25.652  31.129  1.00  0.00     0.074 A 
ATOM     61  C   UNL A   1      45.477  24.562  30.365  1.00  0.00     0.031 C 
ATOM     62  C   UNL A   1      45.440  26.147  32.272  1.00  0.00     0.034 A 
BRANCH  49  63
ATOM     63  C   UNL A   1      42.404  30.985  34.627  1.00  0.00     0.023 A 
ATOM     64  C   UNL A   1      41.725  30.671  35.823  1.00  0.00     0.012 A 
ATOM     65  C   UNL A   1      43.065  32.223  34.513  1.00  0.00     0.148 A 
ATOM     66  C   UNL A   1      41.684  31.581  36.878  1.00  0.00     0.002 A 
ATOM     67  C   UNL A   1      43.061  33.105  35.588  1.00  0.00     0.091 A 
ATOM     68  F   UNL A   1      43.690  32.511  33.363  1.00  0.00    -0.205 F 
ATOM     69  C   UNL A   1      42.364  32.790  36.766  1.00  0.00     0.022 A 
BRANCH  67  70
ATOM     70  S   UNL A   1      43.975  34.652  35.583  1.00  0.00     0.127 S 
ATOM     71  O   UNL A   1      43.150  35.479  34.702  1.00  0.00    -0.237 OA
ATOM     72  O   UNL A   1      43.936  35.035  36.993  1.00  0.00    -0.237 OA
ATOM     73  O   UNL A   1      45.302  34.335  35.072  1.00  0.00    -0.744 OA
ENDBRANCH  67  70
ENDBRANCH  49  63
BRANCH  50  74
ATOM     74  C   UNL A   1      42.660  24.253  27.223  1.00  0.00     0.023 A 
ATOM     75  C   UNL A   1      43.374  24.538  26.043  1.00  0.00     0.012 A 
ATOM     76  C   UNL A   1      42.040  22.995  27.362  1.00  0.00     0.148 A 
ATOM     77  C   UNL A   1      43.448  23.602  25.010  1.00  0.00     0.002 A 
ATOM     78  C   UNL A   1      42.168  22.045  26.354  1.00  0.00     0.091 A 
ATOM     79  F   UNL A   1      41.356  22.747  28.487  1.00  0.00    -0.205 F 
ATOM     80  C   UNL A   1      42.857  22.352  25.172  1.00  0.00     0.022 A 
BRANCH  78  81
ATOM     81  S   UNL A   1      41.561  20.363  26.530  1.00  0.00     0.127 S 
ATOM     82  O   UNL A   1      40.115  20.562  26.496  1.00  0.00    -0.237 OA
ATOM     83  O   UNL A   1      42.123  19.717  25.343  1.00  0.00    -0.237 OA
ATOM     84  O   UNL A   1      42.102  19.879  27.792  1.00  0.00    -0.744 OA
ENDBRANCH  78  81
ENDBRANCH  50  74
BRANCH  62  85
ATOM     85  C   UNL A   1      46.707  25.518  32.793  1.00  0.00     0.023 A 
ATOM     86  C   UNL A   1      47.954  26.062  32.427  1.00  0.00     0.012 A 
ATOM     87  C   UNL A   1      46.657  24.471  33.736  1.00  0.00     0.148 A 
ATOM     88  C   UNL A   1      49.133  25.562  32.977  1.00  0.00     0.002 A 
ATOM     89  C   UNL A   1      47.833  24.015  34.320  1.00  0.00     0.091 A 
ATOM     90  F   UNL A   1      45.461  23.959  34.059  1.00  0.00    -0.205 F 
ATOM     91  C   UNL A   1      49.072  24.551  33.933  1.00  0.00     0.022 A 
BRANCH  89  92
ATOM     92  S   UNL A   1      47.849  22.796  35.639  1.00  0.00     0.127 S 
ATOM     93  O   UNL A   1      47.420  21.589  34.934  1.00  0.00    -0.237 OA
ATOM     94  O   UNL A   1      49.253  22.799  36.046  1.00  0.00    -0.237 OA
ATOM     95  O   UNL A   1      46.923  23.285  36.652  1.00  0.00    -0.744 OA
ENDBRANCH  89  92
ENDBRANCH  62  85
ENDBRANCH  36  37
ENDBRANCH  28  31
ENDBRANCH  26  27
ENDBRANCH  25  26
ENDBRANCH   1  25
TORSDOF 17
ENDMDL
MODEL 3
REMARK VINA RESULT:     -12.3      1.286      1.640
REMARK SMILES Cc1cc(Cl)c2c(c1)C=C(C(=O)NCCCCCCNC(=O)c1ccc(-c3c4nc(c(-c5cccc(S(=O)(=O)[O-])c5F)c5ccc([nH]5)c(-c5cccc(S(=O)(=O)[O-])c5F)c5nc(c(-c6cccc(S(=O)(=O)[O-])c6F)c6ccc3[nH]6)C=C5)C=C4)cc1)[C@@H](C(F)(F)F)O2
REMARK SMILES IDX 17 1 16 2 15 3 14 4 13 5 11 6 12 7 10 9 1 10 2 11 3 12 8 13
REMARK SMILES IDX 4 14 7 15 5 16 6 17 9 18 91 19 86 20 87 21 88 22 89 23 90 24
REMARK SMILES IDX 18 25 19 26 20 27 21 28 22 30 23 31 24 32 85 33 25 34 84 35
REMARK SMILES IDX 26 36 27 37 28 38 78 39 29 40 83 41 77 42 79 43 30 44 82 45
REMARK SMILES IDX 76 46 75 47 31 49 63 50 43 51 62 52 44 53 47 54 61 55 80 56
REMARK SMILES IDX 45 57 46 58 60 60 81 61 48 62 32 63 33 64 41 65 34 66 36 67
REMARK SMILES IDX 42 68 35 69 37 70 38 71 39 72 40 73 64 74 65 75 73 76 66 77
REMARK SMILES IDX 68 78 74 79 67 80 69 81 70 82 71 83 72 84 49 85 50 86 58 87
REMARK SMILES IDX 51 88 53 89 59 90 52 91 54 92 55 93 56 94 57 95
REMARK H PARENT 13 8 20 29 79 48 47 59
REMARK Flexibility Score: inf
ROOT
ATOM      1  C   UNL A   1      34.807  21.942  24.247  1.00  0.00     0.002 C 
ENDROOT
BRANCH   1   2
ATOM      2  C   UNL A   1      34.340  20.569  24.749  1.00  0.00     0.002 C 
BRANCH   2   3
ATOM      3  C   UNL A   1      33.297  20.608  25.867  1.00  0.00     0.021 C 
BRANCH   3   4
ATOM      4  C   UNL A   1      33.336  21.887  26.695  1.00  0.00     0.116 C 
BRANCH   4   5
ATOM      5  N   UNL A   1      32.001  22.356  27.023  1.00  0.00    -0.352 N 
ATOM      6  C   UNL A   1      31.255  23.459  26.782  1.00  0.00     0.251 C 
ATOM      7  O   UNL A   1      30.111  23.434  27.250  1.00  0.00    -0.270 OA
ATOM      8  H   UNL A   1      31.509  21.698  27.565  1.00  0.00     0.163 HD
BRANCH   6   9
ATOM      9  C   UNL A   1      31.712  24.660  26.018  1.00  0.00     0.067 C 
ATOM     10  C   UNL A   1      31.878  30.827  26.526  1.00  0.00     0.044 C 
ATOM     11  C   UNL A   1      32.168  29.490  25.914  1.00  0.00    -0.049 A 
ATOM     12  C   UNL A   1      32.869  29.396  24.707  1.00  0.00     0.028 A 
ATOM     13  C   UNL A   1      31.718  28.316  26.537  1.00  0.00     0.015 A 
ATOM     14  C   UNL A   1      33.130  28.149  24.141  1.00  0.00     0.084 A 
ATOM     15  C   UNL A   1      31.979  27.062  25.970  1.00  0.00     0.019 A 
ATOM     16  Cl  UNL A   1      34.020  28.088  22.662  1.00  0.00    -0.080 Cl
ATOM     17  C   UNL A   1      32.681  26.983  24.767  1.00  0.00     0.146 A 
ATOM     18  C   UNL A   1      31.567  25.839  26.648  1.00  0.00     0.025 C 
ATOM     19  O   UNL A   1      32.995  25.787  24.191  1.00  0.00    -0.474 OA
ATOM     20  C   UNL A   1      32.264  24.613  24.621  1.00  0.00     0.314 C 
BRANCH  20  21
ATOM     21  C   UNL A   1      31.188  24.277  23.571  1.00  0.00     0.429 C 
ATOM     22  F   UNL A   1      31.074  22.937  23.415  1.00  0.00    -0.167 F 
ATOM     23  F   UNL A   1      29.961  24.729  23.923  1.00  0.00    -0.167 F 
ATOM     24  F   UNL A   1      31.470  24.813  22.362  1.00  0.00    -0.167 F 
ENDBRANCH  20  21
ENDBRANCH   6   9
ENDBRANCH   4   5
ENDBRANCH   3   4
ENDBRANCH   2   3
ENDBRANCH   1   2
BRANCH   1  25
ATOM     25  C   UNL A   1      36.323  22.160  24.257  1.00  0.00     0.021 C 
BRANCH  25  26
ATOM     26  C   UNL A   1      36.934  22.275  25.649  1.00  0.00     0.116 C 
BRANCH  26  27
ATOM     27  N   UNL A   1      37.928  21.241  25.885  1.00  0.00    -0.352 N 
ATOM     28  C   UNL A   1      39.246  21.379  26.236  1.00  0.00     0.251 C 
ATOM     29  H   UNL A   1      37.612  20.316  25.779  1.00  0.00     0.163 HD
ATOM     30  O   UNL A   1      40.006  20.414  26.174  1.00  0.00    -0.269 OA
BRANCH  28  31
ATOM     31  C   UNL A   1      39.748  22.693  26.682  1.00  0.00     0.039 A 
ATOM     32  C   UNL A   1      40.734  22.746  27.666  1.00  0.00     0.014 A 
ATOM     33  C   UNL A   1      39.238  23.870  26.123  1.00  0.00     0.014 A 
ATOM     34  C   UNL A   1      41.244  23.983  28.062  1.00  0.00     0.010 A 
ATOM     35  C   UNL A   1      39.799  25.095  26.465  1.00  0.00     0.010 A 
ATOM     36  C   UNL A   1      40.796  25.166  27.449  1.00  0.00    -0.014 A 
BRANCH  36  37
ATOM     37  C   UNL A   1      41.347  26.486  27.838  1.00  0.00     0.031 A 
ATOM     38  C   UNL A   1      42.778  26.825  27.523  1.00  0.00     0.074 A 
ATOM     39  C   UNL A   1      40.575  27.355  28.519  1.00  0.00     0.049 A 
ATOM     40  N   UNL A   1      43.445  27.915  27.802  1.00  0.00    -0.248 NA
ATOM     41  C   UNL A   1      43.573  25.800  26.824  1.00  0.00     0.031 C 
ATOM     42  C   UNL A   1      39.192  27.112  28.933  1.00  0.00     0.029 A 
ATOM     43  N   UNL A   1      40.847  28.614  28.995  1.00  0.00    -0.354 N 
ATOM     44  C   UNL A   1      44.734  27.701  27.331  1.00  0.00     0.074 A 
ATOM     45  C   UNL A   1      44.773  26.360  26.792  1.00  0.00     0.031 C 
ATOM     46  C   UNL A   1      38.730  28.192  29.582  1.00  0.00     0.029 A 
ATOM     47  C   UNL A   1      39.790  29.193  29.660  1.00  0.00     0.049 A 
ATOM     48  H   UNL A   1      41.715  29.060  28.872  1.00  0.00     0.167 HD
ATOM     49  C   UNL A   1      45.781  28.559  27.311  1.00  0.00     0.034 A 
ATOM     50  C   UNL A   1      39.688  30.395  30.261  1.00  0.00     0.034 A 
ATOM     51  C   UNL A   1      45.723  29.905  27.812  1.00  0.00     0.049 A 
ATOM     52  C   UNL A   1      40.866  31.332  30.219  1.00  0.00     0.074 A 
ATOM     53  C   UNL A   1      46.710  30.873  27.780  1.00  0.00     0.029 A 
ATOM     54  N   UNL A   1      44.622  30.473  28.434  1.00  0.00    -0.354 N 
ATOM     55  N   UNL A   1      42.033  31.164  29.645  1.00  0.00    -0.248 NA
ATOM     56  C   UNL A   1      40.705  32.637  30.878  1.00  0.00     0.031 C 
ATOM     57  C   UNL A   1      46.215  32.020  28.407  1.00  0.00     0.029 A 
ATOM     58  C   UNL A   1      44.908  31.776  28.802  1.00  0.00     0.049 A 
ATOM     59  H   UNL A   1      43.764  30.017  28.591  1.00  0.00     0.167 HD
ATOM     60  C   UNL A   1      42.734  32.349  29.847  1.00  0.00     0.074 A 
ATOM     61  C   UNL A   1      41.849  33.236  30.575  1.00  0.00     0.031 C 
ATOM     62  C   UNL A   1      44.000  32.666  29.481  1.00  0.00     0.034 A 
BRANCH  49  63
ATOM     63  C   UNL A   1      47.061  28.097  26.665  1.00  0.00     0.023 A 
ATOM     64  C   UNL A   1      48.079  27.544  27.470  1.00  0.00     0.012 A 
ATOM     65  C   UNL A   1      47.223  28.121  25.266  1.00  0.00     0.148 A 
ATOM     66  C   UNL A   1      49.247  27.045  26.896  1.00  0.00     0.002 A 
ATOM     67  C   UNL A   1      48.370  27.577  24.698  1.00  0.00     0.091 A 
ATOM     68  F   UNL A   1      46.253  28.667  24.519  1.00  0.00    -0.205 F 
ATOM     69  C   UNL A   1      49.386  27.048  25.511  1.00  0.00     0.022 A 
BRANCH  67  70
ATOM     70  S   UNL A   1      48.612  27.451  22.922  1.00  0.00     0.127 S 
ATOM     71  O   UNL A   1      47.477  28.220  22.415  1.00  0.00    -0.237 OA
ATOM     72  O   UNL A   1      49.913  28.095  22.745  1.00  0.00    -0.237 OA
ATOM     73  O   UNL A   1      48.587  26.029  22.611  1.00  0.00    -0.744 OA
ENDBRANCH  67  70
ENDBRANCH  49  63
BRANCH  50  74
ATOM     74  C   UNL A   1      38.395  30.809  30.878  1.00  0.00     0.023 A 
ATOM     75  C   UNL A   1      38.189  30.595  32.254  1.00  0.00     0.012 A 
ATOM     76  C   UNL A   1      37.393  31.458  30.128  1.00  0.00     0.148 A 
ATOM     77  C   UNL A   1      37.001  30.993  32.869  1.00  0.00     0.002 A 
ATOM     78  C   UNL A   1      36.237  31.904  30.758  1.00  0.00     0.091 A 
ATOM     79  F   UNL A   1      37.603  31.643  28.817  1.00  0.00    -0.205 F 
ATOM     80  C   UNL A   1      36.031  31.659  32.124  1.00  0.00     0.022 A 
BRANCH  78  81
ATOM     81  S   UNL A   1      34.997  32.892  29.913  1.00  0.00     0.127 S 
ATOM     82  O   UNL A   1      35.803  33.983  29.371  1.00  0.00    -0.237 OA
ATOM     83  O   UNL A   1      34.489  31.948  28.917  1.00  0.00    -0.237 OA
ATOM     84  O   UNL A   1      34.030  33.269  30.934  1.00  0.00    -0.744 OA
ENDBRANCH  78  81
ENDBRANCH  50  74
BRANCH  62  85
ATOM     85  C   UNL A   1      44.521  34.034  29.840  1.00  0.00     0.023 A 
ATOM     86  C   UNL A   1      45.278  34.202  31.016  1.00  0.00     0.012 A 
ATOM     87  C   UNL A   1      44.366  35.119  28.954  1.00  0.00     0.148 A 
ATOM     88  C   UNL A   1      45.856  35.434  31.315  1.00  0.00     0.002 A 
ATOM     89  C   UNL A   1      44.991  36.329  29.233  1.00  0.00     0.091 A 
ATOM     90  F   UNL A   1      43.630  34.940  27.847  1.00  0.00    -0.205 F 
ATOM     91  C   UNL A   1      45.726  36.491  30.418  1.00  0.00     0.022 A 
BRANCH  89  92
ATOM     92  S   UNL A   1      44.975  37.713  28.087  1.00  0.00     0.127 S 
ATOM     93  O   UNL A   1      45.588  37.122  26.898  1.00  0.00    -0.237 OA
ATOM     94  O   UNL A   1      43.545  37.993  27.962  1.00  0.00    -0.237 OA
ATOM     95  O   UNL A   1      45.747  38.772  28.722  1.00  0.00    -0.744 OA
ENDBRANCH  89  92
ENDBRANCH  62  85
ENDBRANCH  36  37
ENDBRANCH  28  31
ENDBRANCH  26  27
ENDBRANCH  25  26
ENDBRANCH   1  25
TORSDOF 17
ENDMDL
