MODEL 1
REMARK VINA RESULT:     -12.1      0.000      0.000
REMARK SMILES O=C(C[C@@H]([NH2+]Cc1cccnc1)C(=O)NCCCCCCNC(=O)c1ccc(-c2c3nc(c(-c4cccc(S(=O)(=O)[O-])c4F)c4ccc([nH]4)c(-c4cccc(S(=O)(=O)[O-])c4F)c4nc(c(-c5cccc(S(=O)(=O)[O-])c5F)c5ccc2[nH]5)C=C4)C=C3)cc1)Nc1ccc2ccccc2c1
REMARK SMILES IDX 18 1 17 2 16 3 15 4 13 5 14 6 4 8 3 9 2 10 1 11 88 12 89 14
REMARK SMILES IDX 90 15 98 16 91 17 97 18 92 19 96 20 93 21 95 22 94 23 5 24
REMARK SMILES IDX 6 27 7 28 8 29 12 30 9 31 11 32 10 33 19 34 20 35 21 36
REMARK SMILES IDX 22 37 23 38 24 40 25 41 26 42 87 43 27 44 86 45 28 46 29 47
REMARK SMILES IDX 30 48 80 49 31 50 85 51 79 52 81 53 32 54 84 55 78 56 77 57
REMARK SMILES IDX 33 59 65 60 45 61 64 62 46 63 49 64 63 65 82 66 47 67 48 68
REMARK SMILES IDX 62 70 83 71 50 72 34 73 35 74 43 75 36 76 38 77 44 78 37 79
REMARK SMILES IDX 39 80 40 81 41 82 42 83 66 84 67 85 75 86 68 87 70 88 76 89
REMARK SMILES IDX 69 90 71 91 72 92 73 93 74 94 51 95 52 96 60 97 53 98 55 99
REMARK SMILES IDX 61 100 54 101 56 102 57 103 58 104 59 105
REMARK H PARENT 15 7 88 13 5 25 5 26 22 39 81 58 49 69
REMARK Flexibility Score: inf
ROOT
ATOM      1  C   UNL A   1      31.739  26.411  26.498  1.00  0.00     0.002 C 
ENDROOT
BRANCH   1   2
ATOM      2  C   UNL A   1      33.083  25.771  26.127  1.00  0.00     0.021 C 
BRANCH   2   3
ATOM      3  C   UNL A   1      33.132  24.271  26.418  1.00  0.00     0.116 C 
BRANCH   3   4
ATOM      4  N   UNL A   1      34.148  23.656  25.585  1.00  0.00    -0.351 N 
ATOM      5  C   UNL A   1      34.021  22.714  24.610  1.00  0.00     0.278 C 
ATOM      6  O   UNL A   1      35.054  22.215  24.156  1.00  0.00    -0.268 OA
ATOM      7  H   UNL A   1      35.068  23.967  25.749  1.00  0.00     0.163 HD
BRANCH   5   8
ATOM      8  C   UNL A   1      32.639  22.335  24.040  1.00  0.00     0.282 C 
BRANCH   8   9
ATOM      9  C   UNL A   1      32.337  23.185  22.786  1.00  0.00     0.175 C 
BRANCH   9  10
ATOM     10  C   UNL A   1      31.390  24.341  23.037  1.00  0.00     0.230 C 
ATOM     11  O   UNL A   1      30.199  24.159  23.264  1.00  0.00    -0.274 OA
ATOM     12  N   UNL A   1      32.020  25.569  22.935  1.00  0.00    -0.326 N 
ATOM     13  H   UNL A   1      33.003  25.589  22.907  1.00  0.00     0.169 HD
BRANCH  12  14
ATOM     14  C   UNL A   1      31.327  26.783  22.870  1.00  0.00     0.041 A 
ATOM     15  C   UNL A   1      32.078  27.949  22.736  1.00  0.00     0.027 A 
ATOM     16  C   UNL A   1      29.937  26.850  22.973  1.00  0.00     0.034 A 
ATOM     17  C   UNL A   1      31.438  29.177  22.589  1.00  0.00     0.011 A 
ATOM     18  C   UNL A   1      29.291  28.100  22.970  1.00  0.00    -0.016 A 
ATOM     19  C   UNL A   1      30.047  29.269  22.711  1.00  0.00    -0.018 A 
ATOM     20  C   UNL A   1      27.922  28.232  23.254  1.00  0.00     0.009 A 
ATOM     21  C   UNL A   1      29.403  30.510  22.626  1.00  0.00     0.009 A 
ATOM     22  C   UNL A   1      27.310  29.488  23.250  1.00  0.00     0.001 A 
ATOM     23  C   UNL A   1      28.042  30.621  22.904  1.00  0.00     0.001 A 
ENDBRANCH  12  14
ENDBRANCH   9  10
ENDBRANCH   8   9
BRANCH   8  24
ATOM     24  N   UNL A   1      32.520  20.855  23.835  1.00  0.00    -0.332 N 
ATOM     25  H   UNL A   1      33.319  20.546  23.283  1.00  0.00     0.347 HD
ATOM     26  H   UNL A   1      31.626  20.699  23.371  1.00  0.00     0.347 HD
BRANCH  24  27
ATOM     27  C   UNL A   1      32.485  20.062  25.082  1.00  0.00     0.299 C 
BRANCH  27  28
ATOM     28  C   UNL A   1      33.097  18.699  24.913  1.00  0.00     0.024 A 
ATOM     29  C   UNL A   1      34.412  18.535  24.471  1.00  0.00     0.013 A 
ATOM     30  C   UNL A   1      32.398  17.552  25.276  1.00  0.00     0.120 A 
ATOM     31  C   UNL A   1      34.985  17.268  24.461  1.00  0.00     0.021 A 
ATOM     32  N   UNL A   1      32.923  16.306  25.260  1.00  0.00    -0.264 NA
ATOM     33  C   UNL A   1      34.210  16.197  24.869  1.00  0.00     0.111 A 
ENDBRANCH  27  28
ENDBRANCH  24  27
ENDBRANCH   8  24
ENDBRANCH   5   8
ENDBRANCH   3   4
ENDBRANCH   2   3
ENDBRANCH   1   2
BRANCH   1  34
ATOM     34  C   UNL A   1      31.858  27.756  27.224  1.00  0.00     0.002 C 
BRANCH  34  35
ATOM     35  C   UNL A   1      31.766  28.979  26.310  1.00  0.00     0.021 C 
BRANCH  35  36
ATOM     36  C   UNL A   1      33.079  29.738  26.153  1.00  0.00     0.116 C 
BRANCH  36  37
ATOM     37  N   UNL A   1      32.936  31.140  26.515  1.00  0.00    -0.352 N 
ATOM     38  C   UNL A   1      33.652  31.874  27.426  1.00  0.00     0.251 C 
ATOM     39  H   UNL A   1      32.226  31.629  26.039  1.00  0.00     0.163 HD
ATOM     40  O   UNL A   1      33.257  32.980  27.773  1.00  0.00    -0.269 OA
BRANCH  38  41
ATOM     41  C   UNL A   1      34.895  31.311  27.995  1.00  0.00     0.039 A 
ATOM     42  C   UNL A   1      36.037  32.114  28.055  1.00  0.00     0.014 A 
ATOM     43  C   UNL A   1      34.930  29.997  28.470  1.00  0.00     0.014 A 
ATOM     44  C   UNL A   1      37.201  31.613  28.639  1.00  0.00     0.010 A 
ATOM     45  C   UNL A   1      36.066  29.528  29.123  1.00  0.00     0.010 A 
ATOM     46  C   UNL A   1      37.216  30.326  29.204  1.00  0.00    -0.014 A 
BRANCH  46  47
ATOM     47  C   UNL A   1      38.424  29.806  29.893  1.00  0.00     0.031 A 
ATOM     48  C   UNL A   1      38.815  30.334  31.246  1.00  0.00     0.074 A 
ATOM     49  C   UNL A   1      39.219  28.921  29.261  1.00  0.00     0.049 A 
ATOM     50  N   UNL A   1      39.853  30.028  31.980  1.00  0.00    -0.248 NA
ATOM     51  C   UNL A   1      37.942  31.359  31.841  1.00  0.00     0.031 C 
ATOM     52  C   UNL A   1      38.998  28.403  27.910  1.00  0.00     0.029 A 
ATOM     53  N   UNL A   1      40.391  28.325  29.657  1.00  0.00    -0.354 N 
ATOM     54  C   UNL A   1      39.785  30.852  33.098  1.00  0.00     0.074 A 
ATOM     55  C   UNL A   1      38.618  31.691  32.931  1.00  0.00     0.031 C 
ATOM     56  C   UNL A   1      39.999  27.568  27.590  1.00  0.00     0.029 A 
ATOM     57  C   UNL A   1      40.950  27.519  28.696  1.00  0.00     0.049 A 
ATOM     58  H   UNL A   1      40.791  28.464  30.546  1.00  0.00     0.167 HD
ATOM     59  C   UNL A   1      40.605  30.891  34.174  1.00  0.00     0.034 A 
ATOM     60  C   UNL A   1      42.108  26.830  28.693  1.00  0.00     0.034 A 
ATOM     61  C   UNL A   1      41.744  30.031  34.350  1.00  0.00     0.049 A 
ATOM     62  C   UNL A   1      42.977  26.851  29.919  1.00  0.00     0.074 A 
ATOM     63  C   UNL A   1      42.569  29.914  35.455  1.00  0.00     0.029 A 
ATOM     64  N   UNL A   1      42.234  29.159  33.391  1.00  0.00    -0.354 N 
ATOM     65  N   UNL A   1      42.798  27.501  31.044  1.00  0.00    -0.248 NA
ATOM     66  C   UNL A   1      44.186  26.017  29.893  1.00  0.00     0.031 C 
ATOM     67  C   UNL A   1      43.586  29.005  35.144  1.00  0.00     0.029 A 
ATOM     68  C   UNL A   1      43.366  28.519  33.865  1.00  0.00     0.049 A 
ATOM     69  H   UNL A   1      41.835  29.017  32.502  1.00  0.00     0.167 HD
ATOM     70  C   UNL A   1      43.854  27.133  31.869  1.00  0.00     0.074 A 
ATOM     71  C   UNL A   1      44.655  26.185  31.122  1.00  0.00     0.031 C 
ATOM     72  C   UNL A   1      44.139  27.551  33.128  1.00  0.00     0.034 A 
BRANCH  59  73
ATOM     73  C   UNL A   1      40.284  31.886  35.262  1.00  0.00     0.023 A 
ATOM     74  C   UNL A   1      41.024  33.082  35.365  1.00  0.00     0.012 A 
ATOM     75  C   UNL A   1      39.219  31.655  36.154  1.00  0.00     0.148 A 
ATOM     76  C   UNL A   1      40.741  34.009  36.367  1.00  0.00     0.002 A 
ATOM     77  C   UNL A   1      38.909  32.608  37.118  1.00  0.00     0.091 A 
ATOM     78  F   UNL A   1      38.538  30.505  36.056  1.00  0.00    -0.205 F 
ATOM     79  C   UNL A   1      39.679  33.777  37.236  1.00  0.00     0.022 A 
BRANCH  77  80
ATOM     80  S   UNL A   1      37.507  32.440  38.227  1.00  0.00     0.127 S 
ATOM     81  O   UNL A   1      37.951  33.218  39.383  1.00  0.00    -0.237 OA
ATOM     82  O   UNL A   1      36.429  33.059  37.455  1.00  0.00    -0.237 OA
ATOM     83  O   UNL A   1      37.345  31.013  38.457  1.00  0.00    -0.744 OA
ENDBRANCH  77  80
ENDBRANCH  59  73
BRANCH  60  84
ATOM     84  C   UNL A   1      42.482  26.028  27.495  1.00  0.00     0.023 A 
ATOM     85  C   UNL A   1      43.267  26.609  26.481  1.00  0.00     0.012 A 
ATOM     86  C   UNL A   1      42.106  24.674  27.385  1.00  0.00     0.148 A 
ATOM     87  C   UNL A   1      43.650  25.864  25.365  1.00  0.00     0.002 A 
ATOM     88  C   UNL A   1      42.540  23.922  26.300  1.00  0.00     0.091 A 
ATOM     89  F   UNL A   1      41.353  24.144  28.359  1.00  0.00    -0.205 F 
ATOM     90  C   UNL A   1      43.297  24.519  25.280  1.00  0.00     0.022 A 
BRANCH  88  91
ATOM     91  S   UNL A   1      42.256  22.153  26.178  1.00  0.00     0.127 S 
ATOM     92  O   UNL A   1      42.728  21.684  27.478  1.00  0.00    -0.237 OA
ATOM     93  O   UNL A   1      40.806  22.095  25.991  1.00  0.00    -0.237 OA
ATOM     94  O   UNL A   1      43.029  21.705  25.028  1.00  0.00    -0.744 OA
ENDBRANCH  88  91
ENDBRANCH  60  84
BRANCH  72  95
ATOM     95  C   UNL A   1      45.354  26.966  33.802  1.00  0.00     0.023 A 
ATOM     96  C   UNL A   1      46.594  27.630  33.722  1.00  0.00     0.012 A 
ATOM     97  C   UNL A   1      45.247  25.793  34.575  1.00  0.00     0.148 A 
ATOM     98  C   UNL A   1      47.717  27.116  34.371  1.00  0.00     0.002 A 
ATOM     99  C   UNL A   1      46.356  25.317  35.263  1.00  0.00     0.091 A 
ATOM    100  F   UNL A   1      44.063  25.165  34.625  1.00  0.00    -0.205 F 
ATOM    101  C   UNL A   1      47.594  25.968  35.151  1.00  0.00     0.022 A 
BRANCH  99 102
ATOM    102  S   UNL A   1      46.270  23.904  36.369  1.00  0.00     0.127 S 
ATOM    103  O   UNL A   1      45.241  24.329  37.316  1.00  0.00    -0.237 OA
ATOM    104  O   UNL A   1      45.862  22.829  35.466  1.00  0.00    -0.237 OA
ATOM    105  O   UNL A   1      47.607  23.748  36.928  1.00  0.00    -0.744 OA
ENDBRANCH  99 102
ENDBRANCH  72  95
ENDBRANCH  46  47
ENDBRANCH  38  41
ENDBRANCH  36  37
ENDBRANCH  35  36
ENDBRANCH  34  35
ENDBRANCH   1  34
TORSDOF 22
ENDMDL
MODEL 2
REMARK VINA RESULT:     -11.8      1.910      8.920
REMARK SMILES O=C(C[C@@H]([NH2+]Cc1cccnc1)C(=O)NCCCCCCNC(=O)c1ccc(-c2c3nc(c(-c4cccc(S(=O)(=O)[O-])c4F)c4ccc([nH]4)c(-c4cccc(S(=O)(=O)[O-])c4F)c4nc(c(-c5cccc(S(=O)(=O)[O-])c5F)c5ccc2[nH]5)C=C4)C=C3)cc1)Nc1ccc2ccccc2c1
REMARK SMILES IDX 18 1 17 2 16 3 15 4 13 5 14 6 4 8 3 9 2 10 1 11 88 12 89 14
REMARK SMILES IDX 90 15 98 16 91 17 97 18 92 19 96 20 93 21 95 22 94 23 5 24
REMARK SMILES IDX 6 27 7 28 8 29 12 30 9 31 11 32 10 33 19 34 20 35 21 36
REMARK SMILES IDX 22 37 23 38 24 40 25 41 26 42 87 43 27 44 86 45 28 46 29 47
REMARK SMILES IDX 30 48 80 49 31 50 85 51 79 52 81 53 32 54 84 55 78 56 77 57
REMARK SMILES IDX 33 59 65 60 45 61 64 62 46 63 49 64 63 65 82 66 47 67 48 68
REMARK SMILES IDX 62 70 83 71 50 72 34 73 35 74 43 75 36 76 38 77 44 78 37 79
REMARK SMILES IDX 39 80 40 81 41 82 42 83 66 84 67 85 75 86 68 87 70 88 76 89
REMARK SMILES IDX 69 90 71 91 72 92 73 93 74 94 51 95 52 96 60 97 53 98 55 99
REMARK SMILES IDX 61 100 54 101 56 102 57 103 58 104 59 105
REMARK H PARENT 15 7 88 13 5 25 5 26 22 39 81 58 49 69
REMARK Flexibility Score: inf
ROOT
ATOM      1  C   UNL A   1      31.922  29.209  25.735  1.00  0.00     0.002 C 
ENDROOT
BRANCH   1   2
ATOM      2  C   UNL A   1      33.352  28.780  25.384  1.00  0.00     0.021 C 
BRANCH   2   3
ATOM      3  C   UNL A   1      33.559  27.266  25.456  1.00  0.00     0.116 C 
BRANCH   3   4
ATOM      4  N   UNL A   1      34.040  26.789  24.174  1.00  0.00    -0.351 N 
ATOM      5  C   UNL A   1      33.381  26.106  23.196  1.00  0.00     0.278 C 
ATOM      6  O   UNL A   1      34.050  25.653  22.263  1.00  0.00    -0.268 OA
ATOM      7  H   UNL A   1      34.984  26.989  23.981  1.00  0.00     0.163 HD
BRANCH   5   8
ATOM      8  C   UNL A   1      31.846  25.966  23.216  1.00  0.00     0.282 C 
BRANCH   8   9
ATOM      9  C   UNL A   1      31.390  25.365  24.563  1.00  0.00     0.175 C 
BRANCH   9  10
ATOM     10  C   UNL A   1      31.490  23.855  24.631  1.00  0.00     0.230 C 
ATOM     11  O   UNL A   1      30.661  23.183  25.236  1.00  0.00    -0.274 OA
ATOM     12  N   UNL A   1      32.613  23.372  23.984  1.00  0.00    -0.326 N 
ATOM     13  H   UNL A   1      33.118  23.984  23.402  1.00  0.00     0.169 HD
BRANCH  12  14
ATOM     14  C   UNL A   1      33.068  22.054  24.118  1.00  0.00     0.041 A 
ATOM     15  C   UNL A   1      34.273  21.852  24.786  1.00  0.00     0.027 A 
ATOM     16  C   UNL A   1      32.373  20.972  23.576  1.00  0.00     0.034 A 
ATOM     17  C   UNL A   1      34.733  20.558  25.015  1.00  0.00     0.011 A 
ATOM     18  C   UNL A   1      32.906  19.674  23.678  1.00  0.00    -0.016 A 
ATOM     19  C   UNL A   1      34.065  19.461  24.462  1.00  0.00    -0.018 A 
ATOM     20  C   UNL A   1      32.344  18.582  22.995  1.00  0.00     0.009 A 
ATOM     21  C   UNL A   1      34.558  18.161  24.637  1.00  0.00     0.009 A 
ATOM     22  C   UNL A   1      32.899  17.305  23.111  1.00  0.00     0.001 A 
ATOM     23  C   UNL A   1      33.984  17.089  23.956  1.00  0.00     0.001 A 
ENDBRANCH  12  14
ENDBRANCH   9  10
ENDBRANCH   8   9
BRANCH   8  24
ATOM     24  N   UNL A   1      31.175  27.255  22.847  1.00  0.00    -0.332 N 
ATOM     25  H   UNL A   1      31.166  27.328  21.830  1.00  0.00     0.347 HD
ATOM     26  H   UNL A   1      31.709  27.997  23.298  1.00  0.00     0.347 HD
BRANCH  24  27
ATOM     27  C   UNL A   1      29.785  27.387  23.332  1.00  0.00     0.299 C 
BRANCH  27  28
ATOM     28  C   UNL A   1      29.154  28.688  22.921  1.00  0.00     0.024 A 
ATOM     29  C   UNL A   1      29.817  29.595  22.091  1.00  0.00     0.013 A 
ATOM     30  C   UNL A   1      27.846  28.995  23.285  1.00  0.00     0.120 A 
ATOM     31  C   UNL A   1      29.148  30.720  21.622  1.00  0.00     0.021 A 
ATOM     32  N   UNL A   1      27.176  30.088  22.858  1.00  0.00    -0.264 NA
ATOM     33  C   UNL A   1      27.838  30.916  22.023  1.00  0.00     0.111 A 
ENDBRANCH  27  28
ENDBRANCH  24  27
ENDBRANCH   8  24
ENDBRANCH   5   8
ENDBRANCH   3   4
ENDBRANCH   2   3
ENDBRANCH   1   2
BRANCH   1  34
ATOM     34  C   UNL A   1      31.809  30.057  27.006  1.00  0.00     0.002 C 
BRANCH  34  35
ATOM     35  C   UNL A   1      31.587  31.549  26.754  1.00  0.00     0.021 C 
BRANCH  35  36
ATOM     36  C   UNL A   1      32.857  32.388  26.835  1.00  0.00     0.116 C 
BRANCH  36  37
ATOM     37  N   UNL A   1      32.576  33.746  27.276  1.00  0.00    -0.352 N 
ATOM     38  C   UNL A   1      33.087  34.427  28.353  1.00  0.00     0.251 C 
ATOM     39  H   UNL A   1      31.931  34.245  26.725  1.00  0.00     0.163 HD
ATOM     40  O   UNL A   1      32.577  35.481  28.712  1.00  0.00    -0.269 OA
BRANCH  38  41
ATOM     41  C   UNL A   1      34.245  33.868  29.081  1.00  0.00     0.039 A 
ATOM     42  C   UNL A   1      34.024  32.902  30.065  1.00  0.00     0.014 A 
ATOM     43  C   UNL A   1      35.544  34.296  28.790  1.00  0.00     0.014 A 
ATOM     44  C   UNL A   1      35.113  32.327  30.722  1.00  0.00     0.010 A 
ATOM     45  C   UNL A   1      36.630  33.664  29.388  1.00  0.00     0.010 A 
ATOM     46  C   UNL A   1      36.426  32.682  30.368  1.00  0.00    -0.014 A 
BRANCH  46  47
ATOM     47  C   UNL A   1      37.595  32.027  31.006  1.00  0.00     0.031 A 
ATOM     48  C   UNL A   1      38.397  30.999  30.255  1.00  0.00     0.074 A 
ATOM     49  C   UNL A   1      37.883  32.293  32.296  1.00  0.00     0.049 A 
ATOM     50  N   UNL A   1      39.422  30.297  30.661  1.00  0.00    -0.248 NA
ATOM     51  C   UNL A   1      37.975  30.701  28.876  1.00  0.00     0.031 C 
ATOM     52  C   UNL A   1      37.126  33.200  33.159  1.00  0.00     0.029 A 
ATOM     53  N   UNL A   1      38.870  31.801  33.114  1.00  0.00    -0.354 N 
ATOM     54  C   UNL A   1      39.739  29.444  29.610  1.00  0.00     0.074 A 
ATOM     55  C   UNL A   1      38.778  29.697  28.558  1.00  0.00     0.031 C 
ATOM     56  C   UNL A   1      37.674  33.200  34.384  1.00  0.00     0.029 A 
ATOM     57  C   UNL A   1      38.798  32.269  34.404  1.00  0.00     0.049 A 
ATOM     58  H   UNL A   1      39.562  31.173  32.805  1.00  0.00     0.167 HD
ATOM     59  C   UNL A   1      40.750  28.548  29.520  1.00  0.00     0.034 A 
ATOM     60  C   UNL A   1      39.539  31.969  35.488  1.00  0.00     0.034 A 
ATOM     61  C   UNL A   1      41.722  28.325  30.555  1.00  0.00     0.049 A 
ATOM     62  C   UNL A   1      40.686  31.009  35.350  1.00  0.00     0.074 A 
ATOM     63  C   UNL A   1      42.850  27.524  30.517  1.00  0.00     0.029 A 
ATOM     64  N   UNL A   1      41.672  28.883  31.823  1.00  0.00    -0.354 N 
ATOM     65  N   UNL A   1      41.082  30.345  34.291  1.00  0.00    -0.248 NA
ATOM     66  C   UNL A   1      41.512  30.782  36.544  1.00  0.00     0.031 C 
ATOM     67  C   UNL A   1      43.455  27.562  31.778  1.00  0.00     0.029 A 
ATOM     68  C   UNL A   1      42.732  28.425  32.586  1.00  0.00     0.049 A 
ATOM     69  H   UNL A   1      40.983  29.512  32.135  1.00  0.00     0.167 HD
ATOM     70  C   UNL A   1      42.218  29.646  34.681  1.00  0.00     0.074 A 
ATOM     71  C   UNL A   1      42.460  29.985  36.068  1.00  0.00     0.031 C 
ATOM     72  C   UNL A   1      42.985  28.793  33.957  1.00  0.00     0.034 A 
BRANCH  59  73
ATOM     73  C   UNL A   1      40.869  27.756  28.242  1.00  0.00     0.023 A 
ATOM     74  C   UNL A   1      41.456  28.340  27.101  1.00  0.00     0.012 A 
ATOM     75  C   UNL A   1      40.439  26.416  28.186  1.00  0.00     0.148 A 
ATOM     76  C   UNL A   1      41.571  27.621  25.912  1.00  0.00     0.002 A 
ATOM     77  C   UNL A   1      40.603  25.689  27.013  1.00  0.00     0.091 A 
ATOM     78  F   UNL A   1      39.864  25.881  29.272  1.00  0.00    -0.205 F 
ATOM     79  C   UNL A   1      41.154  26.294  25.870  1.00  0.00     0.022 A 
BRANCH  77  80
ATOM     80  S   UNL A   1      40.177  23.949  26.886  1.00  0.00     0.127 S 
ATOM     81  O   UNL A   1      38.763  24.017  26.518  1.00  0.00    -0.237 OA
ATOM     82  O   UNL A   1      41.063  23.492  25.815  1.00  0.00    -0.237 OA
ATOM     83  O   UNL A   1      40.457  23.371  28.192  1.00  0.00    -0.744 OA
ENDBRANCH  77  80
ENDBRANCH  59  73
BRANCH  60  84
ATOM     84  C   UNL A   1      39.236  32.628  36.789  1.00  0.00     0.023 A 
ATOM     85  C   UNL A   1      39.824  33.869  37.099  1.00  0.00     0.012 A 
ATOM     86  C   UNL A   1      38.324  32.053  37.697  1.00  0.00     0.148 A 
ATOM     87  C   UNL A   1      39.529  34.515  38.300  1.00  0.00     0.002 A 
ATOM     88  C   UNL A   1      37.991  32.729  38.864  1.00  0.00     0.091 A 
ATOM     89  F   UNL A   1      37.782  30.868  37.385  1.00  0.00    -0.205 F 
ATOM     90  C   UNL A   1      38.605  33.950  39.177  1.00  0.00     0.022 A 
BRANCH  88  91
ATOM     91  S   UNL A   1      36.707  32.150  39.980  1.00  0.00     0.127 S 
ATOM     92  O   UNL A   1      35.565  32.018  39.079  1.00  0.00    -0.237 OA
ATOM     93  O   UNL A   1      37.270  30.885  40.452  1.00  0.00    -0.237 OA
ATOM     94  O   UNL A   1      36.584  33.174  41.008  1.00  0.00    -0.744 OA
ENDBRANCH  88  91
ENDBRANCH  60  84
BRANCH  72  95
ATOM     95  C   UNL A   1      44.184  28.182  34.635  1.00  0.00     0.023 A 
ATOM     96  C   UNL A   1      45.411  28.875  34.663  1.00  0.00     0.012 A 
ATOM     97  C   UNL A   1      44.073  26.948  35.307  1.00  0.00     0.148 A 
ATOM     98  C   UNL A   1      46.516  28.333  35.319  1.00  0.00     0.002 A 
ATOM     99  C   UNL A   1      45.163  26.441  36.004  1.00  0.00     0.091 A 
ATOM    100  F   UNL A   1      42.903  26.294  35.255  1.00  0.00    -0.205 F 
ATOM    101  C   UNL A   1      46.389  27.124  35.998  1.00  0.00     0.022 A 
BRANCH  99 102
ATOM    102  S   UNL A   1      45.065  24.942  36.989  1.00  0.00     0.127 S 
ATOM    103  O   UNL A   1      46.467  24.537  37.055  1.00  0.00    -0.237 OA
ATOM    104  O   UNL A   1      44.512  25.437  38.250  1.00  0.00    -0.237 OA
ATOM    105  O   UNL A   1      44.187  24.037  36.259  1.00  0.00    -0.744 OA
ENDBRANCH  99 102
ENDBRANCH  72  95
ENDBRANCH  46  47
ENDBRANCH  38  41
ENDBRANCH  36  37
ENDBRANCH  35  36
ENDBRANCH  34  35
ENDBRANCH   1  34
TORSDOF 22
ENDMDL
MODEL 3
REMARK VINA RESULT:     -11.6      1.662      5.471
REMARK SMILES O=C(C[C@@H]([NH2+]Cc1cccnc1)C(=O)NCCCCCCNC(=O)c1ccc(-c2c3nc(c(-c4cccc(S(=O)(=O)[O-])c4F)c4ccc([nH]4)c(-c4cccc(S(=O)(=O)[O-])c4F)c4nc(c(-c5cccc(S(=O)(=O)[O-])c5F)c5ccc2[nH]5)C=C4)C=C3)cc1)Nc1ccc2ccccc2c1
REMARK SMILES IDX 18 1 17 2 16 3 15 4 13 5 14 6 4 8 3 9 2 10 1 11 88 12 89 14
REMARK SMILES IDX 90 15 98 16 91 17 97 18 92 19 96 20 93 21 95 22 94 23 5 24
REMARK SMILES IDX 6 27 7 28 8 29 12 30 9 31 11 32 10 33 19 34 20 35 21 36
REMARK SMILES IDX 22 37 23 38 24 40 25 41 26 42 87 43 27 44 86 45 28 46 29 47
REMARK SMILES IDX 30 48 80 49 31 50 85 51 79 52 81 53 32 54 84 55 78 56 77 57
REMARK SMILES IDX 33 59 65 60 45 61 64 62 46 63 49 64 63 65 82 66 47 67 48 68
REMARK SMILES IDX 62 70 83 71 50 72 34 73 35 74 43 75 36 76 38 77 44 78 37 79
REMARK SMILES IDX 39 80 40 81 41 82 42 83 66 84 67 85 75 86 68 87 70 88 76 89
REMARK SMILES IDX 69 90 71 91 72 92 73 93 74 94 51 95 52 96 60 97 53 98 55 99
REMARK SMILES IDX 61 100 54 101 56 102 57 103 58 104 59 105
REMARK H PARENT 15 7 88 13 5 25 5 26 22 39 81 58 49 69
REMARK Flexibility Score: inf
ROOT
ATOM      1  C   UNL A   1      31.774  28.700  26.308  1.00  0.00     0.002 C 
ENDROOT
BRANCH   1   2
ATOM      2  C   UNL A   1      32.938  28.472  25.335  1.00  0.00     0.021 C 
BRANCH   2   3
ATOM      3  C   UNL A   1      33.221  26.991  25.076  1.00  0.00     0.116 C 
BRANCH   3   4
ATOM      4  N   UNL A   1      33.338  26.770  23.648  1.00  0.00    -0.351 N 
ATOM      5  C   UNL A   1      32.503  26.110  22.798  1.00  0.00     0.278 C 
ATOM      6  O   UNL A   1      32.902  25.902  21.649  1.00  0.00    -0.268 OA
ATOM      7  H   UNL A   1      34.141  27.156  23.229  1.00  0.00     0.163 HD
BRANCH   5   8
ATOM      8  C   UNL A   1      31.081  25.699  23.233  1.00  0.00     0.282 C 
BRANCH   8   9
ATOM      9  C   UNL A   1      31.159  24.578  24.291  1.00  0.00     0.175 C 
BRANCH   9  10
ATOM     10  C   UNL A   1      31.897  23.339  23.825  1.00  0.00     0.230 C 
ATOM     11  O   UNL A   1      31.756  22.895  22.691  1.00  0.00    -0.274 OA
ATOM     12  N   UNL A   1      32.679  22.786  24.825  1.00  0.00    -0.326 N 
ATOM     13  H   UNL A   1      32.839  23.314  25.639  1.00  0.00     0.169 HD
BRANCH  12  14
ATOM     14  C   UNL A   1      33.254  21.513  24.732  1.00  0.00     0.041 A 
ATOM     15  C   UNL A   1      34.628  21.410  24.934  1.00  0.00     0.027 A 
ATOM     16  C   UNL A   1      32.502  20.382  24.412  1.00  0.00     0.034 A 
ATOM     17  C   UNL A   1      35.240  20.158  24.930  1.00  0.00     0.011 A 
ATOM     18  C   UNL A   1      33.138  19.135  24.263  1.00  0.00    -0.016 A 
ATOM     19  C   UNL A   1      34.510  19.015  24.590  1.00  0.00    -0.018 A 
ATOM     20  C   UNL A   1      32.462  18.009  23.766  1.00  0.00     0.009 A 
ATOM     21  C   UNL A   1      35.134  17.762  24.524  1.00  0.00     0.009 A 
ATOM     22  C   UNL A   1      33.122  16.786  23.623  1.00  0.00     0.001 A 
ATOM     23  C   UNL A   1      34.446  16.654  24.033  1.00  0.00     0.001 A 
ENDBRANCH  12  14
ENDBRANCH   9  10
ENDBRANCH   8   9
BRANCH   8  24
ATOM     24  N   UNL A   1      30.271  26.892  23.644  1.00  0.00    -0.332 N 
ATOM     25  H   UNL A   1      30.705  27.300  24.472  1.00  0.00     0.347 HD
ATOM     26  H   UNL A   1      29.324  26.553  23.812  1.00  0.00     0.347 HD
BRANCH  24  27
ATOM     27  C   UNL A   1      30.160  27.946  22.615  1.00  0.00     0.299 C 
BRANCH  27  28
ATOM     28  C   UNL A   1      29.281  29.085  23.051  1.00  0.00     0.024 A 
ATOM     29  C   UNL A   1      29.814  30.260  23.585  1.00  0.00     0.013 A 
ATOM     30  C   UNL A   1      27.904  29.041  22.855  1.00  0.00     0.120 A 
ATOM     31  C   UNL A   1      28.980  31.341  23.847  1.00  0.00     0.021 A 
ATOM     32  N   UNL A   1      27.066  30.070  23.115  1.00  0.00    -0.264 NA
ATOM     33  C   UNL A   1      27.628  31.201  23.589  1.00  0.00     0.111 A 
ENDBRANCH  27  28
ENDBRANCH  24  27
ENDBRANCH   8  24
ENDBRANCH   5   8
ENDBRANCH   3   4
ENDBRANCH   2   3
ENDBRANCH   1   2
BRANCH   1  34
ATOM     34  C   UNL A   1      32.006  29.827  27.319  1.00  0.00     0.002 C 
BRANCH  34  35
ATOM     35  C   UNL A   1      31.767  31.234  26.768  1.00  0.00     0.021 C 
BRANCH  35  36
ATOM     36  C   UNL A   1      33.009  32.117  26.759  1.00  0.00     0.116 C 
BRANCH  36  37
ATOM     37  N   UNL A   1      32.725  33.449  27.272  1.00  0.00    -0.352 N 
ATOM     38  C   UNL A   1      33.244  34.078  28.376  1.00  0.00     0.251 C 
ATOM     39  H   UNL A   1      32.068  33.970  26.756  1.00  0.00     0.163 HD
ATOM     40  O   UNL A   1      32.731  35.108  28.795  1.00  0.00    -0.269 OA
BRANCH  38  41
ATOM     41  C   UNL A   1      34.416  33.492  29.061  1.00  0.00     0.039 A 
ATOM     42  C   UNL A   1      34.215  32.470  29.992  1.00  0.00     0.014 A 
ATOM     43  C   UNL A   1      35.707  33.948  28.779  1.00  0.00     0.014 A 
ATOM     44  C   UNL A   1      35.316  31.872  30.605  1.00  0.00     0.010 A 
ATOM     45  C   UNL A   1      36.805  33.296  29.330  1.00  0.00     0.010 A 
ATOM     46  C   UNL A   1      36.622  32.260  30.258  1.00  0.00    -0.014 A 
BRANCH  46  47
ATOM     47  C   UNL A   1      37.805  31.582  30.846  1.00  0.00     0.031 A 
ATOM     48  C   UNL A   1      38.235  31.886  32.255  1.00  0.00     0.074 A 
ATOM     49  C   UNL A   1      38.545  30.757  30.080  1.00  0.00     0.049 A 
ATOM     50  N   UNL A   1      39.261  31.423  32.920  1.00  0.00    -0.248 NA
ATOM     51  C   UNL A   1      37.424  32.859  33.005  1.00  0.00     0.031 C 
ATOM     52  C   UNL A   1      38.285  30.453  28.671  1.00  0.00     0.029 A 
ATOM     53  N   UNL A   1      39.686  30.049  30.368  1.00  0.00    -0.354 N 
ATOM     54  C   UNL A   1      39.246  32.078  34.146  1.00  0.00     0.074 A 
ATOM     55  C   UNL A   1      38.126  32.993  34.121  1.00  0.00     0.031 C 
ATOM     56  C   UNL A   1      39.237  29.622  28.219  1.00  0.00     0.029 A 
ATOM     57  C   UNL A   1      40.193  29.362  29.291  1.00  0.00     0.049 A 
ATOM     58  H   UNL A   1      40.101  30.036  31.261  1.00  0.00     0.167 HD
ATOM     59  C   UNL A   1      40.075  31.918  35.204  1.00  0.00     0.034 A 
ATOM     60  C   UNL A   1      41.312  28.621  29.171  1.00  0.00     0.034 A 
ATOM     61  C   UNL A   1      41.167  30.982  35.236  1.00  0.00     0.049 A 
ATOM     62  C   UNL A   1      42.190  28.418  30.373  1.00  0.00     0.074 A 
ATOM     63  C   UNL A   1      41.994  30.662  36.299  1.00  0.00     0.029 A 
ATOM     64  N   UNL A   1      41.601  30.234  34.153  1.00  0.00    -0.354 N 
ATOM     65  N   UNL A   1      42.056  28.907  31.582  1.00  0.00    -0.248 NA
ATOM     66  C   UNL A   1      43.351  27.534  30.207  1.00  0.00     0.031 C 
ATOM     67  C   UNL A   1      42.957  29.755  35.844  1.00  0.00     0.029 A 
ATOM     68  C   UNL A   1      42.701  29.473  34.511  1.00  0.00     0.049 A 
ATOM     69  H   UNL A   1      41.189  30.243  33.259  1.00  0.00     0.167 HD
ATOM     70  C   UNL A   1      43.097  28.367  32.329  1.00  0.00     0.074 A 
ATOM     71  C   UNL A   1      43.839  27.497  31.440  1.00  0.00     0.031 C 
ATOM     72  C   UNL A   1      43.414  28.582  33.630  1.00  0.00     0.034 A 
BRANCH  59  73
ATOM     73  C   UNL A   1      39.818  32.759  36.428  1.00  0.00     0.023 A 
ATOM     74  C   UNL A   1      40.502  33.980  36.602  1.00  0.00     0.012 A 
ATOM     75  C   UNL A   1      38.865  32.361  37.386  1.00  0.00     0.148 A 
ATOM     76  C   UNL A   1      40.277  34.768  37.731  1.00  0.00     0.002 A 
ATOM     77  C   UNL A   1      38.608  33.176  38.482  1.00  0.00     0.091 A 
ATOM     78  F   UNL A   1      38.238  31.189  37.217  1.00  0.00    -0.205 F 
ATOM     79  C   UNL A   1      39.323  34.371  38.665  1.00  0.00     0.022 A 
BRANCH  77  80
ATOM     80  S   UNL A   1      37.338  32.794  39.694  1.00  0.00     0.127 S 
ATOM     81  O   UNL A   1      37.820  31.524  40.235  1.00  0.00    -0.237 OA
ATOM     82  O   UNL A   1      37.442  33.927  40.615  1.00  0.00    -0.237 OA
ATOM     83  O   UNL A   1      36.086  32.726  38.956  1.00  0.00    -0.744 OA
ENDBRANCH  77  80
ENDBRANCH  59  73
BRANCH  60  84
ATOM     84  C   UNL A   1      41.632  27.983  27.863  1.00  0.00     0.023 A 
ATOM     85  C   UNL A   1      42.023  28.781  26.772  1.00  0.00     0.012 A 
ATOM     86  C   UNL A   1      41.601  26.582  27.715  1.00  0.00     0.148 A 
ATOM     87  C   UNL A   1      42.354  28.198  25.548  1.00  0.00     0.002 A 
ATOM     88  C   UNL A   1      41.987  26.005  26.512  1.00  0.00     0.091 A 
ATOM     89  F   UNL A   1      41.219  25.842  28.766  1.00  0.00    -0.205 F 
ATOM     90  C   UNL A   1      42.347  26.811  25.422  1.00  0.00     0.022 A 
BRANCH  88  91
ATOM     91  S   UNL A   1      42.147  24.228  26.303  1.00  0.00     0.127 S 
ATOM     92  O   UNL A   1      40.751  23.799  26.310  1.00  0.00    -0.237 OA
ATOM     93  O   UNL A   1      42.814  24.138  25.004  1.00  0.00    -0.237 OA
ATOM     94  O   UNL A   1      42.953  23.767  27.426  1.00  0.00    -0.744 OA
ENDBRANCH  88  91
ENDBRANCH  60  84
BRANCH  72  95
ATOM     95  C   UNL A   1      44.601  27.843  34.193  1.00  0.00     0.023 A 
ATOM     96  C   UNL A   1      45.867  28.460  34.227  1.00  0.00     0.012 A 
ATOM     97  C   UNL A   1      44.442  26.560  34.754  1.00  0.00     0.148 A 
ATOM     98  C   UNL A   1      46.964  27.798  34.778  1.00  0.00     0.002 A 
ATOM     99  C   UNL A   1      45.527  25.929  35.350  1.00  0.00     0.091 A 
ATOM    100  F   UNL A   1      43.234  25.981  34.697  1.00  0.00    -0.205 F 
ATOM    101  C   UNL A   1      46.791  26.539  35.350  1.00  0.00     0.022 A 
BRANCH  99 102
ATOM    102  S   UNL A   1      45.379  24.352  36.198  1.00  0.00     0.127 S 
ATOM    103  O   UNL A   1      46.513  24.401  37.118  1.00  0.00    -0.237 OA
ATOM    104  O   UNL A   1      44.069  24.468  36.838  1.00  0.00    -0.237 OA
ATOM    105  O   UNL A   1      45.457  23.329  35.164  1.00  0.00    -0.744 OA
ENDBRANCH  99 102
ENDBRANCH  72  95
ENDBRANCH  46  47
ENDBRANCH  38  41
ENDBRANCH  36  37
ENDBRANCH  35  36
ENDBRANCH  34  35
ENDBRANCH   1  34
TORSDOF 22
ENDMDL
