MODEL 1
REMARK VINA RESULT:     -11.7      0.000      0.000
REMARK SMILES [NH3+]C1CC[NH+](CC(=O)Nc2cc(Cl)ccc2C(=O)NCCCCCCNC(=O)c2ccc(-c3c4nc(c(-c5cccc(S(=O)(=O)[O-])c5F)c5ccc([nH]5)c(-c5cccc(S(=O)(=O)[O-])c5F)c5nc(c(-c6cccc(S(=O)(=O)[O-])c6F)c6ccc3[nH]6)C=C5)C=C4)cc2)CC1
REMARK SMILES IDX 22 1 21 2 20 3 19 4 17 5 18 6 16 8 10 9 11 10 12 11 15 12
REMARK SMILES IDX 13 13 14 14 9 15 7 16 8 17 6 19 5 20 2 21 3 22 93 23 4 24
REMARK SMILES IDX 92 25 1 27 23 31 24 32 25 33 26 34 27 35 28 37 29 38 30 39
REMARK SMILES IDX 91 40 31 41 90 42 32 43 33 44 34 45 84 46 35 47 89 48 83 49
REMARK SMILES IDX 85 50 36 51 88 52 82 53 81 54 37 56 69 57 49 58 68 59 50 60
REMARK SMILES IDX 53 61 67 62 86 63 51 64 52 65 66 67 87 68 54 69 38 70 39 71
REMARK SMILES IDX 47 72 40 73 42 74 48 75 41 76 43 77 44 78 45 79 46 80 70 81
REMARK SMILES IDX 71 82 79 83 72 84 74 85 80 86 73 87 75 88 76 89 77 90 78 91
REMARK SMILES IDX 55 92 56 93 64 94 57 95 59 96 65 97 58 98 60 99 61 100
REMARK SMILES IDX 62 101 63 102
REMARK H PARENT 19 7 9 18 5 26 1 28 1 29 1 30 26 36 85 55 53 66
REMARK Flexibility Score: inf
ROOT
ATOM      1  C   UNL A   1      31.766  29.228  27.150  1.00  0.00     0.002 C 
ENDROOT
BRANCH   1   2
ATOM      2  C   UNL A   1      33.081  28.448  27.133  1.00  0.00     0.021 C 
BRANCH   2   3
ATOM      3  C   UNL A   1      33.886  28.486  25.845  1.00  0.00     0.116 C 
BRANCH   3   4
ATOM      4  N   UNL A   1      33.959  27.277  25.053  1.00  0.00    -0.352 N 
ATOM      5  C   UNL A   1      33.068  26.676  24.186  1.00  0.00     0.253 C 
ATOM      6  O   UNL A   1      33.496  25.690  23.577  1.00  0.00    -0.269 OA
ATOM      7  H   UNL A   1      34.807  26.786  25.154  1.00  0.00     0.163 HD
BRANCH   5   8
ATOM      8  C   UNL A   1      31.621  27.065  23.965  1.00  0.00     0.063 A 
ATOM      9  C   UNL A   1      30.462  26.525  24.575  1.00  0.00     0.055 A 
ATOM     10  C   UNL A   1      29.202  26.943  24.130  1.00  0.00     0.047 A 
ATOM     11  C   UNL A   1      29.066  27.997  23.227  1.00  0.00     0.043 A 
ATOM     12  C   UNL A   1      31.450  28.120  23.034  1.00  0.00     0.017 A 
ATOM     13  Cl  UNL A   1      27.500  28.597  22.840  1.00  0.00    -0.084 Cl
ATOM     14  C   UNL A   1      30.188  28.605  22.692  1.00  0.00     0.021 A 
BRANCH   9  15
ATOM     15  N   UNL A   1      30.598  25.728  25.719  1.00  0.00    -0.320 N 
ATOM     16  C   UNL A   1      30.897  24.432  26.017  1.00  0.00     0.279 C 
ATOM     17  O   UNL A   1      31.111  24.225  27.220  1.00  0.00    -0.268 OA
ATOM     18  H   UNL A   1      30.432  26.249  26.537  1.00  0.00     0.170 HD
BRANCH  16  19
ATOM     19  C   UNL A   1      31.083  23.305  25.012  1.00  0.00     0.363 C 
BRANCH  19  20
ATOM     20  N   UNL A   1      32.481  23.009  24.642  1.00  0.00    -0.327 N 
ATOM     21  C   UNL A   1      33.379  20.311  25.515  1.00  0.00     0.192 C 
ATOM     22  C   UNL A   1      33.526  21.536  26.436  1.00  0.00     0.126 C 
ATOM     23  C   UNL A   1      32.522  20.549  24.271  1.00  0.00     0.126 C 
ATOM     24  C   UNL A   1      33.441  22.904  25.746  1.00  0.00     0.268 C 
ATOM     25  C   UNL A   1      32.704  21.940  23.680  1.00  0.00     0.268 C 
ATOM     26  H   UNL A   1      32.680  23.879  24.148  1.00  0.00     0.348 HD
BRANCH  21  27
ATOM     27  N   UNL A   1      34.685  19.797  25.090  1.00  0.00    -0.355 N 
ATOM     28  H   UNL A   1      35.005  19.092  25.753  1.00  0.00     0.344 HD
ATOM     29  H   UNL A   1      35.357  20.564  25.057  1.00  0.00     0.344 HD
ATOM     30  H   UNL A   1      34.599  19.380  24.163  1.00  0.00     0.344 HD
ENDBRANCH  21  27
ENDBRANCH  19  20
ENDBRANCH  16  19
ENDBRANCH   9  15
ENDBRANCH   5   8
ENDBRANCH   3   4
ENDBRANCH   2   3
ENDBRANCH   1   2
BRANCH   1  31
ATOM     31  C   UNL A   1      31.536  30.293  26.071  1.00  0.00     0.002 C 
BRANCH  31  32
ATOM     32  C   UNL A   1      31.458  31.761  26.500  1.00  0.00     0.021 C 
BRANCH  32  33
ATOM     33  C   UNL A   1      32.758  32.435  26.924  1.00  0.00     0.116 C 
BRANCH  33  34
ATOM     34  N   UNL A   1      32.557  33.743  27.528  1.00  0.00    -0.352 N 
ATOM     35  C   UNL A   1      33.221  34.346  28.566  1.00  0.00     0.251 C 
ATOM     36  H   UNL A   1      31.833  34.278  27.130  1.00  0.00     0.163 HD
ATOM     37  O   UNL A   1      32.817  35.427  28.997  1.00  0.00    -0.269 OA
BRANCH  35  38
ATOM     38  C   UNL A   1      34.400  33.702  29.188  1.00  0.00     0.039 A 
ATOM     39  C   UNL A   1      35.674  34.172  28.856  1.00  0.00     0.014 A 
ATOM     40  C   UNL A   1      34.261  32.632  30.075  1.00  0.00     0.014 A 
ATOM     41  C   UNL A   1      36.804  33.610  29.459  1.00  0.00     0.010 A 
ATOM     42  C   UNL A   1      35.381  32.121  30.728  1.00  0.00     0.010 A 
ATOM     43  C   UNL A   1      36.665  32.602  30.425  1.00  0.00    -0.014 A 
BRANCH  43  44
ATOM     44  C   UNL A   1      37.844  32.047  31.141  1.00  0.00     0.031 A 
ATOM     45  C   UNL A   1      38.637  30.917  30.539  1.00  0.00     0.074 A 
ATOM     46  C   UNL A   1      38.147  32.496  32.376  1.00  0.00     0.049 A 
ATOM     47  N   UNL A   1      39.637  30.246  31.050  1.00  0.00    -0.248 NA
ATOM     48  C   UNL A   1      38.235  30.464  29.197  1.00  0.00     0.031 C 
ATOM     49  C   UNL A   1      37.418  33.543  33.097  1.00  0.00     0.029 A 
ATOM     50  N   UNL A   1      39.126  32.109  33.257  1.00  0.00    -0.354 N 
ATOM     51  C   UNL A   1      39.959  29.271  30.113  1.00  0.00     0.074 A 
ATOM     52  C   UNL A   1      39.027  29.418  29.016  1.00  0.00     0.031 C 
ATOM     53  C   UNL A   1      37.972  33.711  34.307  1.00  0.00     0.029 A 
ATOM     54  C   UNL A   1      39.069  32.762  34.466  1.00  0.00     0.049 A 
ATOM     55  H   UNL A   1      39.805  31.428  33.043  1.00  0.00     0.167 HD
ATOM     56  C   UNL A   1      40.953  28.351  30.151  1.00  0.00     0.034 A 
ATOM     57  C   UNL A   1      39.805  32.605  35.585  1.00  0.00     0.034 A 
ATOM     58  C   UNL A   1      41.896  28.229  31.230  1.00  0.00     0.049 A 
ATOM     59  C   UNL A   1      40.917  31.589  35.593  1.00  0.00     0.074 A 
ATOM     60  C   UNL A   1      42.988  27.383  31.325  1.00  0.00     0.029 A 
ATOM     61  N   UNL A   1      41.856  28.963  32.405  1.00  0.00    -0.354 N 
ATOM     62  N   UNL A   1      41.295  30.774  34.641  1.00  0.00    -0.248 NA
ATOM     63  C   UNL A   1      41.724  31.498  36.818  1.00  0.00     0.031 C 
ATOM     64  C   UNL A   1      43.587  27.582  32.574  1.00  0.00     0.029 A 
ATOM     65  C   UNL A   1      42.893  28.581  33.238  1.00  0.00     0.049 A 
ATOM     66  H   UNL A   1      41.187  29.653  32.617  1.00  0.00     0.167 HD
ATOM     67  C   UNL A   1      42.410  30.102  35.133  1.00  0.00     0.074 A 
ATOM     68  C   UNL A   1      42.653  30.620  36.464  1.00  0.00     0.031 C 
ATOM     69  C   UNL A   1      43.157  29.139  34.539  1.00  0.00     0.034 A 
BRANCH  56  70
ATOM     70  C   UNL A   1      41.096  27.424  28.971  1.00  0.00     0.023 A 
ATOM     71  C   UNL A   1      40.289  26.270  28.885  1.00  0.00     0.012 A 
ATOM     72  C   UNL A   1      41.986  27.721  27.920  1.00  0.00     0.148 A 
ATOM     73  C   UNL A   1      40.393  25.407  27.795  1.00  0.00     0.002 A 
ATOM     74  C   UNL A   1      42.050  26.882  26.813  1.00  0.00     0.091 A 
ATOM     75  F   UNL A   1      42.758  28.811  28.025  1.00  0.00    -0.205 F 
ATOM     76  C   UNL A   1      41.265  25.718  26.756  1.00  0.00     0.022 A 
BRANCH  74  77
ATOM     77  S   UNL A   1      43.079  27.236  25.384  1.00  0.00     0.127 S 
ATOM     78  O   UNL A   1      43.134  25.930  24.729  1.00  0.00    -0.237 OA
ATOM     79  O   UNL A   1      42.284  28.241  24.676  1.00  0.00    -0.237 OA
ATOM     80  O   UNL A   1      44.346  27.724  25.912  1.00  0.00    -0.744 OA
ENDBRANCH  74  77
ENDBRANCH  56  70
BRANCH  57  81
ATOM     81  C   UNL A   1      39.548  33.466  36.774  1.00  0.00     0.023 A 
ATOM     82  C   UNL A   1      40.004  34.799  36.776  1.00  0.00     0.012 A 
ATOM     83  C   UNL A   1      38.838  32.982  37.889  1.00  0.00     0.148 A 
ATOM     84  C   UNL A   1      39.789  35.623  37.881  1.00  0.00     0.002 A 
ATOM     85  C   UNL A   1      38.578  33.825  38.964  1.00  0.00     0.091 A 
ATOM     86  F   UNL A   1      38.419  31.709  37.872  1.00  0.00    -0.205 F 
ATOM     87  C   UNL A   1      39.069  35.140  38.970  1.00  0.00     0.022 A 
BRANCH  85  88
ATOM     88  S   UNL A   1      37.551  33.331  40.352  1.00  0.00     0.127 S 
ATOM     89  O   UNL A   1      36.309  32.949  39.686  1.00  0.00    -0.237 OA
ATOM     90  O   UNL A   1      38.318  32.217  40.912  1.00  0.00    -0.237 OA
ATOM     91  O   UNL A   1      37.467  34.498  41.221  1.00  0.00    -0.744 OA
ENDBRANCH  85  88
ENDBRANCH  57  81
BRANCH  69  92
ATOM     92  C   UNL A   1      44.349  28.610  35.296  1.00  0.00     0.023 A 
ATOM     93  C   UNL A   1      45.621  29.185  35.106  1.00  0.00     0.012 A 
ATOM     94  C   UNL A   1      44.188  27.589  36.254  1.00  0.00     0.148 A 
ATOM     95  C   UNL A   1      46.719  28.728  35.835  1.00  0.00     0.002 A 
ATOM     96  C   UNL A   1      45.275  27.177  37.014  1.00  0.00     0.091 A 
ATOM     97  F   UNL A   1      42.972  27.043  36.407  1.00  0.00    -0.205 F 
ATOM     98  C   UNL A   1      46.545  27.735  36.796  1.00  0.00     0.022 A 
BRANCH  96  99
ATOM     99  S   UNL A   1      45.124  25.977  38.343  1.00  0.00     0.127 S 
ATOM    100  O   UNL A   1      44.261  26.685  39.287  1.00  0.00    -0.237 OA
ATOM    101  O   UNL A   1      44.489  24.846  37.666  1.00  0.00    -0.237 OA
ATOM    102  O   UNL A   1      46.479  25.720  38.810  1.00  0.00    -0.744 OA
ENDBRANCH  96  99
ENDBRANCH  69  92
ENDBRANCH  43  44
ENDBRANCH  35  38
ENDBRANCH  33  34
ENDBRANCH  32  33
ENDBRANCH  31  32
ENDBRANCH   1  31
TORSDOF 20
ENDMDL
MODEL 2
REMARK VINA RESULT:     -11.1      1.334      7.575
REMARK SMILES [NH3+]C1CC[NH+](CC(=O)Nc2cc(Cl)ccc2C(=O)NCCCCCCNC(=O)c2ccc(-c3c4nc(c(-c5cccc(S(=O)(=O)[O-])c5F)c5ccc([nH]5)c(-c5cccc(S(=O)(=O)[O-])c5F)c5nc(c(-c6cccc(S(=O)(=O)[O-])c6F)c6ccc3[nH]6)C=C5)C=C4)cc2)CC1
REMARK SMILES IDX 22 1 21 2 20 3 19 4 17 5 18 6 16 8 10 9 11 10 12 11 15 12
REMARK SMILES IDX 13 13 14 14 9 15 7 16 8 17 6 19 5 20 2 21 3 22 93 23 4 24
REMARK SMILES IDX 92 25 1 27 23 31 24 32 25 33 26 34 27 35 28 37 29 38 30 39
REMARK SMILES IDX 91 40 31 41 90 42 32 43 33 44 34 45 84 46 35 47 89 48 83 49
REMARK SMILES IDX 85 50 36 51 88 52 82 53 81 54 37 56 69 57 49 58 68 59 50 60
REMARK SMILES IDX 53 61 67 62 86 63 51 64 52 65 66 67 87 68 54 69 38 70 39 71
REMARK SMILES IDX 47 72 40 73 42 74 48 75 41 76 43 77 44 78 45 79 46 80 70 81
REMARK SMILES IDX 71 82 79 83 72 84 74 85 80 86 73 87 75 88 76 89 77 90 78 91
REMARK SMILES IDX 55 92 56 93 64 94 57 95 59 96 65 97 58 98 60 99 61 100
REMARK SMILES IDX 62 101 63 102
REMARK H PARENT 19 7 9 18 5 26 1 28 1 29 1 30 26 36 85 55 53 66
REMARK Flexibility Score: inf
ROOT
ATOM      1  C   UNL A   1      31.893  29.359  26.494  1.00  0.00     0.002 C 
ENDROOT
BRANCH   1   2
ATOM      2  C   UNL A   1      33.290  28.817  26.186  1.00  0.00     0.021 C 
BRANCH   2   3
ATOM      3  C   UNL A   1      33.543  27.353  26.500  1.00  0.00     0.116 C 
BRANCH   3   4
ATOM      4  N   UNL A   1      33.693  26.436  25.391  1.00  0.00    -0.352 N 
ATOM      5  C   UNL A   1      32.892  26.151  24.303  1.00  0.00     0.253 C 
ATOM      6  O   UNL A   1      33.378  25.382  23.467  1.00  0.00    -0.269 OA
ATOM      7  H   UNL A   1      34.528  25.913  25.417  1.00  0.00     0.163 HD
BRANCH   5   8
ATOM      8  C   UNL A   1      31.474  26.631  24.076  1.00  0.00     0.063 A 
ATOM      9  C   UNL A   1      30.282  26.179  24.694  1.00  0.00     0.055 A 
ATOM     10  C   UNL A   1      29.052  26.672  24.242  1.00  0.00     0.047 A 
ATOM     11  C   UNL A   1      28.986  27.718  23.322  1.00  0.00     0.043 A 
ATOM     12  C   UNL A   1      31.373  27.681  23.128  1.00  0.00     0.017 A 
ATOM     13  Cl  UNL A   1      27.463  28.414  22.925  1.00  0.00    -0.084 Cl
ATOM     14  C   UNL A   1      30.144  28.242  22.777  1.00  0.00     0.021 A 
BRANCH   9  15
ATOM     15  N   UNL A   1      30.366  25.393  25.851  1.00  0.00    -0.320 N 
ATOM     16  C   UNL A   1      30.755  24.131  26.188  1.00  0.00     0.279 C 
ATOM     17  O   UNL A   1      30.852  23.939  27.409  1.00  0.00    -0.268 OA
ATOM     18  H   UNL A   1      30.060  25.892  26.642  1.00  0.00     0.170 HD
BRANCH  16  19
ATOM     19  C   UNL A   1      31.160  23.033  25.217  1.00  0.00     0.363 C 
BRANCH  19  20
ATOM     20  N   UNL A   1      31.857  21.879  25.819  1.00  0.00    -0.327 N 
ATOM     21  C   UNL A   1      34.573  21.431  24.692  1.00  0.00     0.192 C 
ATOM     22  C   UNL A   1      33.331  20.781  24.057  1.00  0.00     0.126 C 
ATOM     23  C   UNL A   1      34.266  22.496  25.746  1.00  0.00     0.126 C 
ATOM     24  C   UNL A   1      32.080  20.722  24.945  1.00  0.00     0.268 C 
ATOM     25  C   UNL A   1      33.054  22.155  26.601  1.00  0.00     0.268 C 
ATOM     26  H   UNL A   1      31.135  21.617  26.491  1.00  0.00     0.348 HD
BRANCH  21  27
ATOM     27  N   UNL A   1      35.460  20.427  25.288  1.00  0.00    -0.355 N 
ATOM     28  H   UNL A   1      36.166  20.148  24.606  1.00  0.00     0.344 HD
ATOM     29  H   UNL A   1      34.914  19.612  25.565  1.00  0.00     0.344 HD
ATOM     30  H   UNL A   1      35.918  20.825  26.108  1.00  0.00     0.344 HD
ENDBRANCH  21  27
ENDBRANCH  19  20
ENDBRANCH  16  19
ENDBRANCH   9  15
ENDBRANCH   5   8
ENDBRANCH   3   4
ENDBRANCH   2   3
ENDBRANCH   1   2
BRANCH   1  31
ATOM     31  C   UNL A   1      31.406  30.597  25.731  1.00  0.00     0.002 C 
BRANCH  31  32
ATOM     32  C   UNL A   1      31.342  31.934  26.476  1.00  0.00     0.021 C 
BRANCH  32  33
ATOM     33  C   UNL A   1      32.615  32.413  27.163  1.00  0.00     0.116 C 
BRANCH  33  34
ATOM     34  N   UNL A   1      32.569  33.814  27.547  1.00  0.00    -0.352 N 
ATOM     35  C   UNL A   1      33.337  34.507  28.449  1.00  0.00     0.251 C 
ATOM     36  H   UNL A   1      31.880  34.349  27.090  1.00  0.00     0.163 HD
ATOM     37  O   UNL A   1      33.059  35.678  28.707  1.00  0.00    -0.269 OA
BRANCH  35  38
ATOM     38  C   UNL A   1      34.478  33.856  29.131  1.00  0.00     0.039 A 
ATOM     39  C   UNL A   1      34.213  32.923  30.138  1.00  0.00     0.014 A 
ATOM     40  C   UNL A   1      35.799  34.169  28.801  1.00  0.00     0.014 A 
ATOM     41  C   UNL A   1      35.270  32.261  30.772  1.00  0.00     0.010 A 
ATOM     42  C   UNL A   1      36.847  33.458  29.383  1.00  0.00     0.010 A 
ATOM     43  C   UNL A   1      36.595  32.499  30.377  1.00  0.00    -0.014 A 
BRANCH  43  44
ATOM     44  C   UNL A   1      37.729  31.748  30.976  1.00  0.00     0.031 A 
ATOM     45  C   UNL A   1      38.233  32.101  32.350  1.00  0.00     0.074 A 
ATOM     46  C   UNL A   1      38.367  30.810  30.247  1.00  0.00     0.049 A 
ATOM     47  N   UNL A   1      39.261  31.621  33.001  1.00  0.00    -0.248 NA
ATOM     48  C   UNL A   1      37.499  33.149  33.078  1.00  0.00     0.031 C 
ATOM     49  C   UNL A   1      38.018  30.421  28.879  1.00  0.00     0.029 A 
ATOM     50  N   UNL A   1      39.463  30.036  30.542  1.00  0.00    -0.354 N 
ATOM     51  C   UNL A   1      39.322  32.332  34.194  1.00  0.00     0.074 A 
ATOM     52  C   UNL A   1      38.246  33.298  34.163  1.00  0.00     0.031 C 
ATOM     53  C   UNL A   1      38.882  29.485  28.453  1.00  0.00     0.029 A 
ATOM     54  C   UNL A   1      39.869  29.236  29.499  1.00  0.00     0.049 A 
ATOM     55  H   UNL A   1      39.916  30.054  31.416  1.00  0.00     0.167 HD
ATOM     56  C   UNL A   1      40.182  32.181  35.230  1.00  0.00     0.034 A 
ATOM     57  C   UNL A   1      40.925  28.407  29.388  1.00  0.00     0.034 A 
ATOM     58  C   UNL A   1      41.231  31.199  35.270  1.00  0.00     0.049 A 
ATOM     59  C   UNL A   1      41.853  28.242  30.562  1.00  0.00     0.074 A 
ATOM     60  C   UNL A   1      42.103  30.913  36.307  1.00  0.00     0.029 A 
ATOM     61  N   UNL A   1      41.562  30.350  34.225  1.00  0.00    -0.354 N 
ATOM     62  N   UNL A   1      41.809  28.822  31.736  1.00  0.00    -0.248 NA
ATOM     63  C   UNL A   1      42.957  27.284  30.408  1.00  0.00     0.031 C 
ATOM     64  C   UNL A   1      42.983  29.915  35.875  1.00  0.00     0.029 A 
ATOM     65  C   UNL A   1      42.633  29.550  34.585  1.00  0.00     0.049 A 
ATOM     66  H   UNL A   1      41.104  30.321  33.354  1.00  0.00     0.167 HD
ATOM     67  C   UNL A   1      42.849  28.269  32.475  1.00  0.00     0.074 A 
ATOM     68  C   UNL A   1      43.496  27.296  31.620  1.00  0.00     0.031 C 
ATOM     69  C   UNL A   1      43.236  28.548  33.744  1.00  0.00     0.034 A 
BRANCH  56  70
ATOM     70  C   UNL A   1      39.999  33.078  36.429  1.00  0.00     0.023 A 
ATOM     71  C   UNL A   1      40.589  34.359  36.441  1.00  0.00     0.012 A 
ATOM     72  C   UNL A   1      39.200  32.677  37.518  1.00  0.00     0.148 A 
ATOM     73  C   UNL A   1      40.421  35.211  37.532  1.00  0.00     0.002 A 
ATOM     74  C   UNL A   1      38.996  33.551  38.580  1.00  0.00     0.091 A 
ATOM     75  F   UNL A   1      38.662  31.451  37.499  1.00  0.00    -0.205 F 
ATOM     76  C   UNL A   1      39.617  34.811  38.595  1.00  0.00     0.022 A 
BRANCH  74  77
ATOM     77  S   UNL A   1      37.912  33.165  39.960  1.00  0.00     0.127 S 
ATOM     78  O   UNL A   1      38.028  34.375  40.774  1.00  0.00    -0.237 OA
ATOM     79  O   UNL A   1      36.619  32.998  39.296  1.00  0.00    -0.237 OA
ATOM     80  O   UNL A   1      38.446  31.953  40.565  1.00  0.00    -0.744 OA
ENDBRANCH  74  77
ENDBRANCH  56  70
BRANCH  57  81
ATOM     81  C   UNL A   1      41.134  27.627  28.134  1.00  0.00     0.023 A 
ATOM     82  C   UNL A   1      41.692  28.262  27.008  1.00  0.00     0.012 A 
ATOM     83  C   UNL A   1      40.804  26.260  28.060  1.00  0.00     0.148 A 
ATOM     84  C   UNL A   1      41.885  27.559  25.819  1.00  0.00     0.002 A 
ATOM     85  C   UNL A   1      41.051  25.551  26.889  1.00  0.00     0.091 A 
ATOM     86  F   UNL A   1      40.266  25.675  29.140  1.00  0.00    -0.205 F 
ATOM     87  C   UNL A   1      41.574  26.203  25.761  1.00  0.00     0.022 A 
BRANCH  85  88
ATOM     88  S   UNL A   1      40.802  23.777  26.764  1.00  0.00     0.127 S 
ATOM     89  O   UNL A   1      39.381  23.695  26.439  1.00  0.00    -0.237 OA
ATOM     90  O   UNL A   1      41.707  23.423  25.670  1.00  0.00    -0.237 OA
ATOM     91  O   UNL A   1      41.184  23.229  28.060  1.00  0.00    -0.744 OA
ENDBRANCH  85  88
ENDBRANCH  57  81
BRANCH  69  92
ATOM     92  C   UNL A   1      44.385  27.758  34.317  1.00  0.00     0.023 A 
ATOM     93  C   UNL A   1      45.704  28.243  34.207  1.00  0.00     0.012 A 
ATOM     94  C   UNL A   1      44.145  26.567  35.032  1.00  0.00     0.148 A 
ATOM     95  C   UNL A   1      46.766  27.539  34.771  1.00  0.00     0.002 A 
ATOM     96  C   UNL A   1      45.201  25.901  35.637  1.00  0.00     0.091 A 
ATOM     97  F   UNL A   1      42.885  26.113  35.110  1.00  0.00    -0.205 F 
ATOM     98  C   UNL A   1      46.515  26.376  35.496  1.00  0.00     0.022 A 
BRANCH  96  99
ATOM     99  S   UNL A   1      44.961  24.452  36.674  1.00  0.00     0.127 S 
ATOM    100  O   UNL A   1      44.374  23.504  35.729  1.00  0.00    -0.237 OA
ATOM    101  O   UNL A   1      46.329  24.137  37.085  1.00  0.00    -0.237 OA
ATOM    102  O   UNL A   1      44.085  24.874  37.759  1.00  0.00    -0.744 OA
ENDBRANCH  96  99
ENDBRANCH  69  92
ENDBRANCH  43  44
ENDBRANCH  35  38
ENDBRANCH  33  34
ENDBRANCH  32  33
ENDBRANCH  31  32
ENDBRANCH   1  31
TORSDOF 20
ENDMDL
MODEL 3
REMARK VINA RESULT:     -10.9      3.507      8.675
REMARK SMILES [NH3+]C1CC[NH+](CC(=O)Nc2cc(Cl)ccc2C(=O)NCCCCCCNC(=O)c2ccc(-c3c4nc(c(-c5cccc(S(=O)(=O)[O-])c5F)c5ccc([nH]5)c(-c5cccc(S(=O)(=O)[O-])c5F)c5nc(c(-c6cccc(S(=O)(=O)[O-])c6F)c6ccc3[nH]6)C=C5)C=C4)cc2)CC1
REMARK SMILES IDX 22 1 21 2 20 3 19 4 17 5 18 6 16 8 10 9 11 10 12 11 15 12
REMARK SMILES IDX 13 13 14 14 9 15 7 16 8 17 6 19 5 20 2 21 3 22 93 23 4 24
REMARK SMILES IDX 92 25 1 27 23 31 24 32 25 33 26 34 27 35 28 37 29 38 30 39
REMARK SMILES IDX 91 40 31 41 90 42 32 43 33 44 34 45 84 46 35 47 89 48 83 49
REMARK SMILES IDX 85 50 36 51 88 52 82 53 81 54 37 56 69 57 49 58 68 59 50 60
REMARK SMILES IDX 53 61 67 62 86 63 51 64 52 65 66 67 87 68 54 69 38 70 39 71
REMARK SMILES IDX 47 72 40 73 42 74 48 75 41 76 43 77 44 78 45 79 46 80 70 81
REMARK SMILES IDX 71 82 79 83 72 84 74 85 80 86 73 87 75 88 76 89 77 90 78 91
REMARK SMILES IDX 55 92 56 93 64 94 57 95 59 96 65 97 58 98 60 99 61 100
REMARK SMILES IDX 62 101 63 102
REMARK H PARENT 19 7 9 18 5 26 1 28 1 29 1 30 26 36 85 55 53 66
REMARK Flexibility Score: inf
ROOT
ATOM      1  C   UNL A   1      31.101  28.438  24.241  1.00  0.00     0.002 C 
ENDROOT
BRANCH   1   2
ATOM      2  C   UNL A   1      30.871  27.115  24.971  1.00  0.00     0.021 C 
BRANCH   2   3
ATOM      3  C   UNL A   1      30.585  25.896  24.110  1.00  0.00     0.116 C 
BRANCH   3   4
ATOM      4  N   UNL A   1      30.347  24.634  24.777  1.00  0.00    -0.352 N 
ATOM      5  C   UNL A   1      31.199  23.688  25.312  1.00  0.00     0.253 C 
ATOM      6  O   UNL A   1      30.655  22.760  25.921  1.00  0.00    -0.269 OA
ATOM      7  H   UNL A   1      29.393  24.405  24.867  1.00  0.00     0.163 HD
BRANCH   5   8
ATOM      8  C   UNL A   1      32.705  23.643  25.165  1.00  0.00     0.063 A 
ATOM      9  C   UNL A   1      33.490  22.747  24.399  1.00  0.00     0.055 A 
ATOM     10  C   UNL A   1      34.885  22.800  24.505  1.00  0.00     0.047 A 
ATOM     11  C   UNL A   1      35.517  23.823  25.213  1.00  0.00     0.043 A 
ATOM     12  C   UNL A   1      33.378  24.658  25.892  1.00  0.00     0.017 A 
ATOM     13  Cl  UNL A   1      37.233  23.956  25.174  1.00  0.00    -0.084 Cl
ATOM     14  C   UNL A   1      34.769  24.769  25.890  1.00  0.00     0.021 A 
BRANCH   9  15
ATOM     15  N   UNL A   1      32.868  21.954  23.425  1.00  0.00    -0.320 N 
ATOM     16  C   UNL A   1      32.690  20.628  23.166  1.00  0.00     0.279 C 
ATOM     17  O   UNL A   1      31.867  20.393  22.269  1.00  0.00    -0.268 OA
ATOM     18  H   UNL A   1      32.440  22.509  22.735  1.00  0.00     0.170 HD
BRANCH  16  19
ATOM     19  C   UNL A   1      33.318  19.476  23.935  1.00  0.00     0.363 C 
BRANCH  19  20
ATOM     20  N   UNL A   1      32.754  18.141  23.650  1.00  0.00    -0.327 N 
ATOM     21  C   UNL A   1      33.791  16.020  25.460  1.00  0.00     0.192 C 
ATOM     22  C   UNL A   1      34.513  16.368  24.147  1.00  0.00     0.126 C 
ATOM     23  C   UNL A   1      32.691  17.004  25.862  1.00  0.00     0.126 C 
ATOM     24  C   UNL A   1      33.683  17.141  23.112  1.00  0.00     0.268 C 
ATOM     25  C   UNL A   1      31.909  17.541  24.672  1.00  0.00     0.268 C 
ATOM     26  H   UNL A   1      32.129  18.414  22.891  1.00  0.00     0.348 HD
BRANCH  21  27
ATOM     27  N   UNL A   1      33.217  14.672  25.418  1.00  0.00    -0.355 N 
ATOM     28  H   UNL A   1      32.514  14.624  24.680  1.00  0.00     0.344 HD
ATOM     29  H   UNL A   1      32.782  14.459  26.316  1.00  0.00     0.344 HD
ATOM     30  H   UNL A   1      33.956  13.994  25.228  1.00  0.00     0.344 HD
ENDBRANCH  21  27
ENDBRANCH  19  20
ENDBRANCH  16  19
ENDBRANCH   9  15
ENDBRANCH   5   8
ENDBRANCH   3   4
ENDBRANCH   2   3
ENDBRANCH   1   2
BRANCH   1  31
ATOM     31  C   UNL A   1      32.516  29.029  24.229  1.00  0.00     0.002 C 
BRANCH  31  32
ATOM     32  C   UNL A   1      33.664  28.185  24.790  1.00  0.00     0.021 C 
BRANCH  32  33
ATOM     33  C   UNL A   1      34.111  28.476  26.219  1.00  0.00     0.116 C 
BRANCH  33  34
ATOM     34  N   UNL A   1      33.828  29.837  26.644  1.00  0.00    -0.352 N 
ATOM     35  C   UNL A   1      34.528  30.659  27.492  1.00  0.00     0.251 C 
ATOM     36  H   UNL A   1      33.009  30.230  26.265  1.00  0.00     0.163 HD
ATOM     37  O   UNL A   1      34.052  31.750  27.806  1.00  0.00    -0.269 OA
BRANCH  35  38
ATOM     38  C   UNL A   1      35.832  30.238  28.051  1.00  0.00     0.039 A 
ATOM     39  C   UNL A   1      35.869  29.717  29.348  1.00  0.00     0.014 A 
ATOM     40  C   UNL A   1      37.015  30.369  27.319  1.00  0.00     0.014 A 
ATOM     41  C   UNL A   1      37.080  29.273  29.887  1.00  0.00     0.010 A 
ATOM     42  C   UNL A   1      38.207  29.861  27.830  1.00  0.00     0.010 A 
ATOM     43  C   UNL A   1      38.255  29.311  29.121  1.00  0.00    -0.014 A 
BRANCH  43  44
ATOM     44  C   UNL A   1      39.538  28.767  29.640  1.00  0.00     0.031 A 
ATOM     45  C   UNL A   1      40.266  29.473  30.754  1.00  0.00     0.074 A 
ATOM     46  C   UNL A   1      40.095  27.692  29.049  1.00  0.00     0.049 A 
ATOM     47  N   UNL A   1      41.434  29.202  31.278  1.00  0.00    -0.248 NA
ATOM     48  C   UNL A   1      39.606  30.653  31.337  1.00  0.00     0.031 C 
ATOM     49  C   UNL A   1      39.522  26.957  27.919  1.00  0.00     0.029 A 
ATOM     50  N   UNL A   1      41.284  27.049  29.293  1.00  0.00    -0.354 N 
ATOM     51  C   UNL A   1      41.667  30.196  32.221  1.00  0.00     0.074 A 
ATOM     52  C   UNL A   1      40.532  31.093  32.177  1.00  0.00     0.031 C 
ATOM     53  C   UNL A   1      40.358  25.967  27.567  1.00  0.00     0.029 A 
ATOM     54  C   UNL A   1      41.543  26.020  28.417  1.00  0.00     0.049 A 
ATOM     55  H   UNL A   1      41.892  27.300  30.025  1.00  0.00     0.167 HD
ATOM     56  C   UNL A   1      42.717  30.337  33.065  1.00  0.00     0.034 A 
ATOM     57  C   UNL A   1      42.620  25.218  28.299  1.00  0.00     0.034 A 
ATOM     58  C   UNL A   1      43.828  29.426  33.128  1.00  0.00     0.049 A 
ATOM     59  C   UNL A   1      43.765  25.383  29.262  1.00  0.00     0.074 A 
ATOM     60  C   UNL A   1      44.901  29.438  34.002  1.00  0.00     0.029 A 
ATOM     61  N   UNL A   1      44.018  28.348  32.278  1.00  0.00    -0.354 N 
ATOM     62  N   UNL A   1      43.901  26.242  30.242  1.00  0.00    -0.248 NA
ATOM     63  C   UNL A   1      44.890  24.447  29.125  1.00  0.00     0.031 C 
ATOM     64  C   UNL A   1      45.758  28.386  33.657  1.00  0.00     0.029 A 
ATOM     65  C   UNL A   1      45.196  27.695  32.596  1.00  0.00     0.049 A 
ATOM     66  H   UNL A   1      43.405  28.085  31.553  1.00  0.00     0.167 HD
ATOM     67  C   UNL A   1      45.103  25.924  30.865  1.00  0.00     0.074 A 
ATOM     68  C   UNL A   1      45.648  24.783  30.160  1.00  0.00     0.031 C 
ATOM     69  C   UNL A   1      45.703  26.528  31.921  1.00  0.00     0.034 A 
BRANCH  56  70
ATOM     70  C   UNL A   1      42.699  31.506  34.019  1.00  0.00     0.023 A 
ATOM     71  C   UNL A   1      43.267  32.736  33.630  1.00  0.00     0.012 A 
ATOM     72  C   UNL A   1      42.071  31.403  35.276  1.00  0.00     0.148 A 
ATOM     73  C   UNL A   1      43.247  33.834  34.489  1.00  0.00     0.002 A 
ATOM     74  C   UNL A   1      42.012  32.516  36.108  1.00  0.00     0.091 A 
ATOM     75  F   UNL A   1      41.552  30.223  35.638  1.00  0.00    -0.205 F 
ATOM     76  C   UNL A   1      42.612  33.726  35.723  1.00  0.00     0.022 A 
BRANCH  74  77
ATOM     77  S   UNL A   1      41.145  32.506  37.682  1.00  0.00     0.127 S 
ATOM     78  O   UNL A   1      41.989  31.616  38.478  1.00  0.00    -0.237 OA
ATOM     79  O   UNL A   1      41.204  33.915  38.073  1.00  0.00    -0.237 OA
ATOM     80  O   UNL A   1      39.805  32.009  37.399  1.00  0.00    -0.744 OA
ENDBRANCH  74  77
ENDBRANCH  56  70
BRANCH  57  81
ATOM     81  C   UNL A   1      42.644  24.150  27.259  1.00  0.00     0.023 A 
ATOM     82  C   UNL A   1      43.273  24.399  26.025  1.00  0.00     0.012 A 
ATOM     83  C   UNL A   1      42.069  22.886  27.495  1.00  0.00     0.148 A 
ATOM     84  C   UNL A   1      43.299  23.422  25.029  1.00  0.00     0.002 A 
ATOM     85  C   UNL A   1      42.147  21.897  26.520  1.00  0.00     0.091 A 
ATOM     86  F   UNL A   1      41.468  22.671  28.673  1.00  0.00    -0.205 F 
ATOM     87  C   UNL A   1      42.745  22.169  25.280  1.00  0.00     0.022 A 
BRANCH  85  88
ATOM     88  S   UNL A   1      41.576  20.218  26.801  1.00  0.00     0.127 S 
ATOM     89  O   UNL A   1      42.593  19.703  27.713  1.00  0.00    -0.237 OA
ATOM     90  O   UNL A   1      40.262  20.445  27.405  1.00  0.00    -0.237 OA
ATOM     91  O   UNL A   1      41.531  19.588  25.487  1.00  0.00    -0.744 OA
ENDBRANCH  85  88
ENDBRANCH  57  81
BRANCH  69  92
ATOM     92  C   UNL A   1      46.998  25.941  32.422  1.00  0.00     0.023 A 
ATOM     93  C   UNL A   1      48.229  26.414  31.925  1.00  0.00     0.012 A 
ATOM     94  C   UNL A   1      46.992  24.970  33.443  1.00  0.00     0.148 A 
ATOM     95  C   UNL A   1      49.432  25.905  32.415  1.00  0.00     0.002 A 
ATOM     96  C   UNL A   1      48.193  24.508  33.963  1.00  0.00     0.091 A 
ATOM     97  F   UNL A   1      45.810  24.520  33.889  1.00  0.00    -0.205 F 
ATOM     98  C   UNL A   1      49.415  24.963  33.441  1.00  0.00     0.022 A 
BRANCH  96  99
ATOM     99  S   UNL A   1      48.269  23.371  35.353  1.00  0.00     0.127 S 
ATOM    100  O   UNL A   1      47.355  22.314  34.924  1.00  0.00    -0.237 OA
ATOM    101  O   UNL A   1      49.681  22.989  35.363  1.00  0.00    -0.237 OA
ATOM    102  O   UNL A   1      47.839  24.130  36.519  1.00  0.00    -0.744 OA
ENDBRANCH  96  99
ENDBRANCH  69  92
ENDBRANCH  43  44
ENDBRANCH  35  38
ENDBRANCH  33  34
ENDBRANCH  32  33
ENDBRANCH  31  32
ENDBRANCH   1  31
TORSDOF 20
ENDMDL
