MODEL 1
REMARK VINA RESULT:     -12.1      0.000      0.000
REMARK SMILES CCc1cccc2c3c([nH]c12)[C@](CC)(CC(=O)NCCCCCCNC(=O)c1ccc(-c2c4nc(c(-c5cccc(S(=O)(=O)[O-])c5F)c5ccc([nH]5)c(-c5cccc(S(=O)(=O)[O-])c5F)c5nc(c(-c6cccc(S(=O)(=O)[O-])c6F)c6ccc2[nH]6)C=C5)C=C4)cc1)OCC3
REMARK SMILES IDX 22 1 21 2 20 3 19 4 18 5 16 6 17 7 15 9 12 10 3 11 4 12
REMARK SMILES IDX 11 13 5 14 7 15 10 16 6 17 8 18 9 19 93 21 92 22 91 23 2 24
REMARK SMILES IDX 1 25 13 26 14 27 23 28 24 29 25 30 26 31 27 33 28 34 29 35
REMARK SMILES IDX 90 36 30 37 89 38 31 39 32 40 33 41 83 42 34 43 88 44 82 45
REMARK SMILES IDX 84 46 35 47 87 48 81 49 80 50 36 52 68 53 48 54 67 55 49 56
REMARK SMILES IDX 52 57 66 58 85 59 50 60 51 61 65 63 86 64 53 65 37 66 38 67
REMARK SMILES IDX 46 68 39 69 41 70 47 71 40 72 42 73 43 74 44 75 45 76 69 77
REMARK SMILES IDX 70 78 78 79 71 80 73 81 79 82 72 83 74 84 75 85 76 86 77 87
REMARK SMILES IDX 54 88 55 89 63 90 56 91 58 92 64 93 57 94 59 95 60 96 61 97
REMARK SMILES IDX 62 98
REMARK H PARENT 18 8 10 20 25 32 84 51 52 62
REMARK Flexibility Score: inf
ROOT
ATOM      1  C   UNL A   1      31.941  29.121  26.417  1.00  0.00     0.002 C 
ENDROOT
BRANCH   1   2
ATOM      2  C   UNL A   1      31.134  28.825  25.163  1.00  0.00     0.002 C 
BRANCH   2   3
ATOM      3  C   UNL A   1      31.871  29.132  23.847  1.00  0.00     0.021 C 
BRANCH   3   4
ATOM      4  C   UNL A   1      31.363  28.378  22.609  1.00  0.00     0.116 C 
BRANCH   4   5
ATOM      5  N   UNL A   1      32.374  27.584  21.921  1.00  0.00    -0.356 N 
ATOM      6  C   UNL A   1      32.628  26.242  21.899  1.00  0.00     0.223 C 
ATOM      7  O   UNL A   1      33.628  25.847  21.296  1.00  0.00    -0.275 OA
ATOM      8  H   UNL A   1      32.991  28.116  21.367  1.00  0.00     0.163 HD
BRANCH   6   9
ATOM      9  C   UNL A   1      31.666  25.272  22.537  1.00  0.00     0.142 C 
BRANCH   9  10
ATOM     10  C   UNL A   1      31.924  24.780  23.981  1.00  0.00     0.117 C 
ATOM     11  C   UNL A   1      33.714  20.060  24.592  1.00  0.00    -0.024 A 
ATOM     12  C   UNL A   1      35.024  19.596  24.883  1.00  0.00     0.006 A 
ATOM     13  C   UNL A   1      33.595  21.447  24.355  1.00  0.00     0.049 A 
ATOM     14  C   UNL A   1      36.126  20.441  24.974  1.00  0.00     0.001 A 
ATOM     15  C   UNL A   1      34.684  22.309  24.507  1.00  0.00     0.003 A 
ATOM     16  N   UNL A   1      32.519  22.249  23.997  1.00  0.00    -0.356 N 
ATOM     17  C   UNL A   1      35.961  21.807  24.805  1.00  0.00     0.010 A 
ATOM     18  C   UNL A   1      34.181  23.622  24.429  1.00  0.00    -0.014 A 
ATOM     19  C   UNL A   1      32.850  23.581  24.079  1.00  0.00     0.052 A 
ATOM     20  H   UNL A   1      31.637  21.910  23.720  1.00  0.00     0.166 HD
ATOM     21  C   UNL A   1      34.864  24.861  24.815  1.00  0.00     0.066 C 
ATOM     22  C   UNL A   1      33.912  26.037  24.721  1.00  0.00     0.166 C 
ATOM     23  O   UNL A   1      32.501  25.778  24.854  1.00  0.00    -0.368 OA
BRANCH  11  24
ATOM     24  C   UNL A   1      32.619  19.014  24.597  1.00  0.00     0.034 C 
ATOM     25  C   UNL A   1      32.834  17.762  23.766  1.00  0.00     0.009 C 
ENDBRANCH  11  24
BRANCH  10  26
ATOM     26  C   UNL A   1      30.543  24.432  24.631  1.00  0.00     0.039 C 
ATOM     27  C   UNL A   1      30.540  24.305  26.158  1.00  0.00     0.007 C 
ENDBRANCH  10  26
ENDBRANCH   9  10
ENDBRANCH   6   9
ENDBRANCH   4   5
ENDBRANCH   3   4
ENDBRANCH   2   3
ENDBRANCH   1   2
BRANCH   1  28
ATOM     28  C   UNL A   1      33.164  30.001  26.173  1.00  0.00     0.021 C 
BRANCH  28  29
ATOM     29  C   UNL A   1      34.204  29.977  27.299  1.00  0.00     0.116 C 
BRANCH  29  30
ATOM     30  N   UNL A   1      34.055  31.041  28.269  1.00  0.00    -0.352 N 
ATOM     31  C   UNL A   1      34.936  31.616  29.150  1.00  0.00     0.251 C 
ATOM     32  H   UNL A   1      33.150  31.425  28.303  1.00  0.00     0.163 HD
ATOM     33  O   UNL A   1      34.542  32.598  29.781  1.00  0.00    -0.269 OA
BRANCH  31  34
ATOM     34  C   UNL A   1      36.273  31.038  29.452  1.00  0.00     0.039 A 
ATOM     35  C   UNL A   1      37.484  31.697  29.241  1.00  0.00     0.014 A 
ATOM     36  C   UNL A   1      36.295  29.703  29.885  1.00  0.00     0.014 A 
ATOM     37  C   UNL A   1      38.667  30.986  29.217  1.00  0.00     0.010 A 
ATOM     38  C   UNL A   1      37.494  29.007  29.960  1.00  0.00     0.010 A 
ATOM     39  C   UNL A   1      38.665  29.631  29.543  1.00  0.00    -0.014 A 
BRANCH  39  40
ATOM     40  C   UNL A   1      39.959  28.962  29.561  1.00  0.00     0.031 A 
ATOM     41  C   UNL A   1      40.537  28.818  30.930  1.00  0.00     0.074 A 
ATOM     42  C   UNL A   1      40.549  28.466  28.458  1.00  0.00     0.049 A 
ATOM     43  N   UNL A   1      41.622  29.350  31.394  1.00  0.00    -0.248 NA
ATOM     44  C   UNL A   1      39.713  28.150  31.951  1.00  0.00     0.031 C 
ATOM     45  C   UNL A   1      39.995  28.340  27.108  1.00  0.00     0.029 A 
ATOM     46  N   UNL A   1      41.750  27.836  28.352  1.00  0.00    -0.354 N 
ATOM     47  C   UNL A   1      41.725  28.903  32.711  1.00  0.00     0.074 A 
ATOM     48  C   UNL A   1      40.457  28.311  33.046  1.00  0.00     0.031 C 
ATOM     49  C   UNL A   1      40.731  27.444  26.411  1.00  0.00     0.029 A 
ATOM     50  C   UNL A   1      41.873  27.045  27.213  1.00  0.00     0.049 A 
ATOM     51  H   UNL A   1      42.467  27.929  29.021  1.00  0.00     0.167 HD
ATOM     52  C   UNL A   1      42.915  28.852  33.367  1.00  0.00     0.034 A 
ATOM     53  C   UNL A   1      42.801  26.075  27.009  1.00  0.00     0.034 A 
ATOM     54  C   UNL A   1      43.924  29.642  32.724  1.00  0.00     0.049 A 
ATOM     55  C   UNL A   1      43.920  26.361  27.939  1.00  0.00     0.074 A 
ATOM     56  C   UNL A   1      44.078  30.984  32.444  1.00  0.00     0.029 A 
ATOM     57  N   UNL A   1      44.813  28.975  31.919  1.00  0.00    -0.354 N 
ATOM     58  N   UNL A   1      44.690  27.408  27.835  1.00  0.00    -0.248 NA
ATOM     59  C   UNL A   1      43.916  25.707  29.238  1.00  0.00     0.031 C 
ATOM     60  C   UNL A   1      44.690  31.017  31.159  1.00  0.00     0.029 A 
ATOM     61  C   UNL A   1      44.922  29.699  30.763  1.00  0.00     0.049 A 
ATOM     62  H   UNL A   1      45.284  28.137  32.133  1.00  0.00     0.167 HD
ATOM     63  C   UNL A   1      44.913  27.801  29.148  1.00  0.00     0.074 A 
ATOM     64  C   UNL A   1      44.499  26.664  29.966  1.00  0.00     0.031 C 
ATOM     65  C   UNL A   1      45.130  29.110  29.461  1.00  0.00     0.034 A 
BRANCH  52  66
ATOM     66  C   UNL A   1      43.271  27.806  34.387  1.00  0.00     0.023 A 
ATOM     67  C   UNL A   1      43.593  28.230  35.694  1.00  0.00     0.012 A 
ATOM     68  C   UNL A   1      43.583  26.471  34.042  1.00  0.00     0.148 A 
ATOM     69  C   UNL A   1      44.217  27.372  36.605  1.00  0.00     0.002 A 
ATOM     70  C   UNL A   1      44.141  25.603  34.970  1.00  0.00     0.091 A 
ATOM     71  F   UNL A   1      43.468  26.071  32.772  1.00  0.00    -0.205 F 
ATOM     72  C   UNL A   1      44.483  26.054  36.248  1.00  0.00     0.022 A 
BRANCH  70  73
ATOM     73  S   UNL A   1      44.492  23.890  34.562  1.00  0.00     0.127 S 
ATOM     74  O   UNL A   1      43.180  23.412  34.147  1.00  0.00    -0.237 OA
ATOM     75  O   UNL A   1      45.474  24.035  33.488  1.00  0.00    -0.237 OA
ATOM     76  O   UNL A   1      45.032  23.304  35.786  1.00  0.00    -0.744 OA
ENDBRANCH  70  73
ENDBRANCH  52  66
BRANCH  53  77
ATOM     77  C   UNL A   1      42.709  24.781  26.285  1.00  0.00     0.023 A 
ATOM     78  C   UNL A   1      43.784  24.382  25.461  1.00  0.00     0.012 A 
ATOM     79  C   UNL A   1      41.740  23.806  26.617  1.00  0.00     0.148 A 
ATOM     80  C   UNL A   1      43.926  23.055  25.037  1.00  0.00     0.002 A 
ATOM     81  C   UNL A   1      41.880  22.489  26.185  1.00  0.00     0.091 A 
ATOM     82  F   UNL A   1      40.736  24.140  27.437  1.00  0.00    -0.205 F 
ATOM     83  C   UNL A   1      42.982  22.105  25.410  1.00  0.00     0.022 A 
BRANCH  81  84
ATOM     84  S   UNL A   1      40.704  21.207  26.641  1.00  0.00     0.127 S 
ATOM     85  O   UNL A   1      39.479  21.665  25.983  1.00  0.00    -0.237 OA
ATOM     86  O   UNL A   1      41.307  20.017  26.048  1.00  0.00    -0.237 OA
ATOM     87  O   UNL A   1      40.641  21.229  28.097  1.00  0.00    -0.744 OA
ENDBRANCH  81  84
ENDBRANCH  53  77
BRANCH  65  88
ATOM     88  C   UNL A   1      45.335  30.090  28.337  1.00  0.00     0.023 A 
ATOM     89  C   UNL A   1      44.254  30.763  27.731  1.00  0.00     0.012 A 
ATOM     90  C   UNL A   1      46.646  30.524  28.086  1.00  0.00     0.148 A 
ATOM     91  C   UNL A   1      44.480  31.860  26.896  1.00  0.00     0.002 A 
ATOM     92  C   UNL A   1      46.862  31.641  27.294  1.00  0.00     0.091 A 
ATOM     93  F   UNL A   1      47.651  29.873  28.690  1.00  0.00    -0.205 F 
ATOM     94  C   UNL A   1      45.783  32.312  26.694  1.00  0.00     0.022 A 
BRANCH  92  95
ATOM     95  S   UNL A   1      48.494  32.360  27.102  1.00  0.00     0.127 S 
ATOM     96  O   UNL A   1      48.843  32.698  28.481  1.00  0.00    -0.237 OA
ATOM     97  O   UNL A   1      49.255  31.246  26.534  1.00  0.00    -0.237 OA
ATOM     98  O   UNL A   1      48.337  33.500  26.207  1.00  0.00    -0.744 OA
ENDBRANCH  92  95
ENDBRANCH  65  88
ENDBRANCH  39  40
ENDBRANCH  31  34
ENDBRANCH  29  30
ENDBRANCH  28  29
ENDBRANCH   1  28
TORSDOF 19
ENDMDL
MODEL 2
REMARK VINA RESULT:     -11.9      2.993      8.700
REMARK SMILES CCc1cccc2c3c([nH]c12)[C@](CC)(CC(=O)NCCCCCCNC(=O)c1ccc(-c2c4nc(c(-c5cccc(S(=O)(=O)[O-])c5F)c5ccc([nH]5)c(-c5cccc(S(=O)(=O)[O-])c5F)c5nc(c(-c6cccc(S(=O)(=O)[O-])c6F)c6ccc2[nH]6)C=C5)C=C4)cc1)OCC3
REMARK SMILES IDX 22 1 21 2 20 3 19 4 18 5 16 6 17 7 15 9 12 10 3 11 4 12
REMARK SMILES IDX 11 13 5 14 7 15 10 16 6 17 8 18 9 19 93 21 92 22 91 23 2 24
REMARK SMILES IDX 1 25 13 26 14 27 23 28 24 29 25 30 26 31 27 33 28 34 29 35
REMARK SMILES IDX 90 36 30 37 89 38 31 39 32 40 33 41 83 42 34 43 88 44 82 45
REMARK SMILES IDX 84 46 35 47 87 48 81 49 80 50 36 52 68 53 48 54 67 55 49 56
REMARK SMILES IDX 52 57 66 58 85 59 50 60 51 61 65 63 86 64 53 65 37 66 38 67
REMARK SMILES IDX 46 68 39 69 41 70 47 71 40 72 42 73 43 74 44 75 45 76 69 77
REMARK SMILES IDX 70 78 78 79 71 80 73 81 79 82 72 83 74 84 75 85 76 86 77 87
REMARK SMILES IDX 54 88 55 89 63 90 56 91 58 92 64 93 57 94 59 95 60 96 61 97
REMARK SMILES IDX 62 98
REMARK H PARENT 18 8 10 20 25 32 84 51 52 62
REMARK Flexibility Score: inf
ROOT
ATOM      1  C   UNL A   1      40.008  21.236  26.794  1.00  0.00     0.002 C 
ENDROOT
BRANCH   1   2
ATOM      2  C   UNL A   1      39.763  22.480  25.957  1.00  0.00     0.002 C 
BRANCH   2   3
ATOM      3  C   UNL A   1      38.920  23.561  26.659  1.00  0.00     0.021 C 
BRANCH   3   4
ATOM      4  C   UNL A   1      37.480  23.714  26.150  1.00  0.00     0.116 C 
BRANCH   4   5
ATOM      5  N   UNL A   1      37.331  23.623  24.702  1.00  0.00    -0.356 N 
ATOM      6  C   UNL A   1      36.471  22.914  23.912  1.00  0.00     0.223 C 
ATOM      7  O   UNL A   1      36.636  22.951  22.691  1.00  0.00    -0.275 OA
ATOM      8  H   UNL A   1      37.972  24.176  24.199  1.00  0.00     0.163 HD
BRANCH   6   9
ATOM      9  C   UNL A   1      35.309  22.170  24.521  1.00  0.00     0.142 C 
BRANCH   9  10
ATOM     10  C   UNL A   1      33.910  22.828  24.546  1.00  0.00     0.117 C 
ATOM     11  C   UNL A   1      33.668  27.848  25.319  1.00  0.00    -0.024 A 
ATOM     12  C   UNL A   1      33.450  28.916  24.408  1.00  0.00     0.006 A 
ATOM     13  C   UNL A   1      33.809  26.569  24.737  1.00  0.00     0.049 A 
ATOM     14  C   UNL A   1      33.338  28.733  23.034  1.00  0.00     0.001 A 
ATOM     15  C   UNL A   1      33.635  26.368  23.365  1.00  0.00     0.003 A 
ATOM     16  N   UNL A   1      34.080  25.317  25.276  1.00  0.00    -0.356 N 
ATOM     17  C   UNL A   1      33.412  27.454  22.503  1.00  0.00     0.010 A 
ATOM     18  C   UNL A   1      33.611  24.976  23.156  1.00  0.00    -0.014 A 
ATOM     19  C   UNL A   1      33.920  24.331  24.332  1.00  0.00     0.052 A 
ATOM     20  H   UNL A   1      34.350  25.158  26.209  1.00  0.00     0.166 HD
ATOM     21  C   UNL A   1      33.166  24.265  21.953  1.00  0.00     0.066 C 
ATOM     22  C   UNL A   1      33.152  22.769  22.200  1.00  0.00     0.166 C 
ATOM     23  O   UNL A   1      32.992  22.310  23.556  1.00  0.00    -0.368 OA
BRANCH  11  24
ATOM     24  C   UNL A   1      33.697  28.217  26.786  1.00  0.00     0.034 C 
ATOM     25  C   UNL A   1      32.847  29.392  27.236  1.00  0.00     0.009 C 
ENDBRANCH  11  24
BRANCH  10  26
ATOM     26  C   UNL A   1      33.240  22.498  25.922  1.00  0.00     0.039 C 
ATOM     27  C   UNL A   1      31.712  22.596  25.959  1.00  0.00     0.007 C 
ENDBRANCH  10  26
ENDBRANCH   9  10
ENDBRANCH   6   9
ENDBRANCH   4   5
ENDBRANCH   3   4
ENDBRANCH   2   3
ENDBRANCH   1   2
BRANCH   1  28
ATOM     28  C   UNL A   1      41.310  21.270  27.590  1.00  0.00     0.021 C 
BRANCH  28  29
ATOM     29  C   UNL A   1      42.234  20.069  27.356  1.00  0.00     0.116 C 
BRANCH  29  30
ATOM     30  N   UNL A   1      42.921  20.086  26.082  1.00  0.00    -0.352 N 
ATOM     31  C   UNL A   1      43.711  21.028  25.473  1.00  0.00     0.251 C 
ATOM     32  H   UNL A   1      42.797  19.266  25.552  1.00  0.00     0.163 HD
ATOM     33  O   UNL A   1      44.259  20.706  24.418  1.00  0.00    -0.269 OA
BRANCH  31  34
ATOM     34  C   UNL A   1      43.830  22.426  25.964  1.00  0.00     0.039 A 
ATOM     35  C   UNL A   1      44.557  22.808  27.092  1.00  0.00     0.014 A 
ATOM     36  C   UNL A   1      43.071  23.394  25.289  1.00  0.00     0.014 A 
ATOM     37  C   UNL A   1      44.341  24.041  27.674  1.00  0.00     0.010 A 
ATOM     38  C   UNL A   1      42.928  24.671  25.815  1.00  0.00     0.010 A 
ATOM     39  C   UNL A   1      43.497  24.960  27.051  1.00  0.00    -0.014 A 
BRANCH  39  40
ATOM     40  C   UNL A   1      43.369  26.263  27.688  1.00  0.00     0.031 A 
ATOM     41  C   UNL A   1      44.528  27.169  27.431  1.00  0.00     0.074 A 
ATOM     42  C   UNL A   1      42.284  26.641  28.388  1.00  0.00     0.049 A 
ATOM     43  N   UNL A   1      45.372  27.642  28.292  1.00  0.00    -0.248 NA
ATOM     44  C   UNL A   1      44.893  27.428  26.029  1.00  0.00     0.031 C 
ATOM     45  C   UNL A   1      41.001  25.945  28.523  1.00  0.00     0.029 A 
ATOM     46  N   UNL A   1      42.058  27.819  29.030  1.00  0.00    -0.354 N 
ATOM     47  C   UNL A   1      46.251  28.436  27.557  1.00  0.00     0.074 A 
ATOM     48  C   UNL A   1      46.012  28.141  26.168  1.00  0.00     0.031 C 
ATOM     49  C   UNL A   1      40.067  26.822  28.956  1.00  0.00     0.029 A 
ATOM     50  C   UNL A   1      40.710  28.089  29.254  1.00  0.00     0.049 A 
ATOM     51  H   UNL A   1      42.781  28.426  29.310  1.00  0.00     0.167 HD
ATOM     52  C   UNL A   1      46.965  29.445  28.126  1.00  0.00     0.034 A 
ATOM     53  C   UNL A   1      40.180  29.297  29.571  1.00  0.00     0.034 A 
ATOM     54  C   UNL A   1      47.009  29.338  29.555  1.00  0.00     0.049 A 
ATOM     55  C   UNL A   1      41.287  30.111  30.127  1.00  0.00     0.074 A 
ATOM     56  C   UNL A   1      47.509  28.413  30.448  1.00  0.00     0.029 A 
ATOM     57  N   UNL A   1      46.130  30.120  30.262  1.00  0.00    -0.354 N 
ATOM     58  N   UNL A   1      41.878  29.843  31.258  1.00  0.00    -0.248 NA
ATOM     59  C   UNL A   1      42.025  30.976  29.219  1.00  0.00     0.031 C 
ATOM     60  C   UNL A   1      46.554  28.376  31.503  1.00  0.00     0.029 A 
ATOM     61  C   UNL A   1      45.565  29.320  31.217  1.00  0.00     0.049 A 
ATOM     62  H   UNL A   1      45.943  31.075  30.112  1.00  0.00     0.167 HD
ATOM     63  C   UNL A   1      43.216  30.127  31.021  1.00  0.00     0.074 A 
ATOM     64  C   UNL A   1      43.231  30.914  29.790  1.00  0.00     0.031 C 
ATOM     65  C   UNL A   1      44.203  29.452  31.676  1.00  0.00     0.034 A 
BRANCH  52  66
ATOM     66  C   UNL A   1      47.321  30.726  27.424  1.00  0.00     0.023 A 
ATOM     67  C   UNL A   1      48.652  31.187  27.511  1.00  0.00     0.012 A 
ATOM     68  C   UNL A   1      46.350  31.632  26.939  1.00  0.00     0.148 A 
ATOM     69  C   UNL A   1      48.994  32.495  27.153  1.00  0.00     0.002 A 
ATOM     70  C   UNL A   1      46.705  32.907  26.521  1.00  0.00     0.091 A 
ATOM     71  F   UNL A   1      45.054  31.312  27.005  1.00  0.00    -0.205 F 
ATOM     72  C   UNL A   1      48.023  33.354  26.649  1.00  0.00     0.022 A 
BRANCH  70  73
ATOM     73  S   UNL A   1      45.492  34.048  25.852  1.00  0.00     0.127 S 
ATOM     74  O   UNL A   1      44.855  33.232  24.826  1.00  0.00    -0.237 OA
ATOM     75  O   UNL A   1      44.668  34.331  27.026  1.00  0.00    -0.237 OA
ATOM     76  O   UNL A   1      46.261  35.195  25.375  1.00  0.00    -0.744 OA
ENDBRANCH  70  73
ENDBRANCH  52  66
BRANCH  53  77
ATOM     77  C   UNL A   1      38.878  29.912  29.203  1.00  0.00     0.023 A 
ATOM     78  C   UNL A   1      38.169  29.396  28.095  1.00  0.00     0.012 A 
ATOM     79  C   UNL A   1      38.185  30.777  30.079  1.00  0.00     0.148 A 
ATOM     80  C   UNL A   1      36.811  29.676  27.903  1.00  0.00     0.002 A 
ATOM     81  C   UNL A   1      36.836  31.062  29.878  1.00  0.00     0.091 A 
ATOM     82  F   UNL A   1      38.814  31.244  31.164  1.00  0.00    -0.205 F 
ATOM     83  C   UNL A   1      36.140  30.498  28.801  1.00  0.00     0.022 A 
BRANCH  81  84
ATOM     84  S   UNL A   1      35.904  32.106  31.008  1.00  0.00     0.127 S 
ATOM     85  O   UNL A   1      34.619  32.236  30.318  1.00  0.00    -0.237 OA
ATOM     86  O   UNL A   1      35.868  31.288  32.217  1.00  0.00    -0.237 OA
ATOM     87  O   UNL A   1      36.656  33.351  31.105  1.00  0.00    -0.744 OA
ENDBRANCH  81  84
ENDBRANCH  53  77
BRANCH  65  88
ATOM     88  C   UNL A   1      43.816  28.545  32.813  1.00  0.00     0.023 A 
ATOM     89  C   UNL A   1      43.653  27.156  32.633  1.00  0.00     0.012 A 
ATOM     90  C   UNL A   1      43.886  29.068  34.114  1.00  0.00     0.148 A 
ATOM     91  C   UNL A   1      43.572  26.302  33.736  1.00  0.00     0.002 A 
ATOM     92  C   UNL A   1      43.852  28.212  35.204  1.00  0.00     0.091 A 
ATOM     93  F   UNL A   1      44.058  30.391  34.251  1.00  0.00    -0.205 F 
ATOM     94  C   UNL A   1      43.692  26.828  35.022  1.00  0.00     0.022 A 
BRANCH  92  95
ATOM     95  S   UNL A   1      44.138  28.800  36.874  1.00  0.00     0.127 S 
ATOM     96  O   UNL A   1      43.022  29.724  37.068  1.00  0.00    -0.237 OA
ATOM     97  O   UNL A   1      44.053  27.564  37.653  1.00  0.00    -0.237 OA
ATOM     98  O   UNL A   1      45.459  29.418  36.869  1.00  0.00    -0.744 OA
ENDBRANCH  92  95
ENDBRANCH  65  88
ENDBRANCH  39  40
ENDBRANCH  31  34
ENDBRANCH  29  30
ENDBRANCH  28  29
ENDBRANCH   1  28
TORSDOF 19
ENDMDL
MODEL 3
REMARK VINA RESULT:     -11.6      1.640      2.317
REMARK SMILES CCc1cccc2c3c([nH]c12)[C@](CC)(CC(=O)NCCCCCCNC(=O)c1ccc(-c2c4nc(c(-c5cccc(S(=O)(=O)[O-])c5F)c5ccc([nH]5)c(-c5cccc(S(=O)(=O)[O-])c5F)c5nc(c(-c6cccc(S(=O)(=O)[O-])c6F)c6ccc2[nH]6)C=C5)C=C4)cc1)OCC3
REMARK SMILES IDX 22 1 21 2 20 3 19 4 18 5 16 6 17 7 15 9 12 10 3 11 4 12
REMARK SMILES IDX 11 13 5 14 7 15 10 16 6 17 8 18 9 19 93 21 92 22 91 23 2 24
REMARK SMILES IDX 1 25 13 26 14 27 23 28 24 29 25 30 26 31 27 33 28 34 29 35
REMARK SMILES IDX 90 36 30 37 89 38 31 39 32 40 33 41 83 42 34 43 88 44 82 45
REMARK SMILES IDX 84 46 35 47 87 48 81 49 80 50 36 52 68 53 48 54 67 55 49 56
REMARK SMILES IDX 52 57 66 58 85 59 50 60 51 61 65 63 86 64 53 65 37 66 38 67
REMARK SMILES IDX 46 68 39 69 41 70 47 71 40 72 42 73 43 74 44 75 45 76 69 77
REMARK SMILES IDX 70 78 78 79 71 80 73 81 79 82 72 83 74 84 75 85 76 86 77 87
REMARK SMILES IDX 54 88 55 89 63 90 56 91 58 92 64 93 57 94 59 95 60 96 61 97
REMARK SMILES IDX 62 98
REMARK H PARENT 18 8 10 20 25 32 84 51 52 62
REMARK Flexibility Score: inf
ROOT
ATOM      1  C   UNL A   1      32.671  28.156  26.085  1.00  0.00     0.002 C 
ENDROOT
BRANCH   1   2
ATOM      2  C   UNL A   1      31.943  27.921  24.772  1.00  0.00     0.002 C 
BRANCH   2   3
ATOM      3  C   UNL A   1      32.767  27.159  23.717  1.00  0.00     0.021 C 
BRANCH   3   4
ATOM      4  C   UNL A   1      32.009  26.075  22.937  1.00  0.00     0.116 C 
BRANCH   4   5
ATOM      5  N   UNL A   1      32.859  25.149  22.197  1.00  0.00    -0.356 N 
ATOM      6  C   UNL A   1      33.002  23.792  22.254  1.00  0.00     0.223 C 
ATOM      7  O   UNL A   1      33.882  23.269  21.568  1.00  0.00    -0.275 OA
ATOM      8  H   UNL A   1      33.439  25.584  21.532  1.00  0.00     0.163 HD
BRANCH   6   9
ATOM      9  C   UNL A   1      32.056  22.957  23.080  1.00  0.00     0.142 C 
BRANCH   9  10
ATOM     10  C   UNL A   1      32.512  22.431  24.462  1.00  0.00     0.117 C 
ATOM     11  C   UNL A   1      37.463  21.478  25.119  1.00  0.00    -0.024 A 
ATOM     12  C   UNL A   1      38.470  22.225  25.785  1.00  0.00     0.006 A 
ATOM     13  C   UNL A   1      36.204  22.109  25.011  1.00  0.00     0.049 A 
ATOM     14  C   UNL A   1      38.243  23.481  26.339  1.00  0.00     0.001 A 
ATOM     15  C   UNL A   1      35.951  23.341  25.619  1.00  0.00     0.003 A 
ATOM     16  N   UNL A   1      35.015  21.733  24.399  1.00  0.00    -0.356 N 
ATOM     17  C   UNL A   1      36.976  24.041  26.276  1.00  0.00     0.010 A 
ATOM     18  C   UNL A   1      34.565  23.570  25.520  1.00  0.00    -0.014 A 
ATOM     19  C   UNL A   1      33.996  22.592  24.736  1.00  0.00     0.052 A 
ATOM     20  H   UNL A   1      34.915  20.956  23.803  1.00  0.00     0.166 HD
ATOM     21  C   UNL A   1      33.773  24.565  26.250  1.00  0.00     0.066 C 
ATOM     22  C   UNL A   1      32.296  24.371  25.969  1.00  0.00     0.166 C 
ATOM     23  O   UNL A   1      31.848  23.058  25.584  1.00  0.00    -0.368 OA
BRANCH  11  24
ATOM     24  C   UNL A   1      37.863  20.100  24.636  1.00  0.00     0.034 C 
ATOM     25  C   UNL A   1      38.996  19.398  25.363  1.00  0.00     0.009 C 
ENDBRANCH  11  24
BRANCH  10  26
ATOM     26  C   UNL A   1      32.120  20.919  24.561  1.00  0.00     0.039 C 
ATOM     27  C   UNL A   1      32.889  20.099  25.601  1.00  0.00     0.007 C 
ENDBRANCH  10  26
ENDBRANCH   9  10
ENDBRANCH   6   9
ENDBRANCH   4   5
ENDBRANCH   3   4
ENDBRANCH   2   3
ENDBRANCH   1   2
BRANCH   1  28
ATOM     28  C   UNL A   1      33.705  29.277  26.028  1.00  0.00     0.021 C 
BRANCH  28  29
ATOM     29  C   UNL A   1      34.633  29.354  27.246  1.00  0.00     0.116 C 
BRANCH  29  30
ATOM     30  N   UNL A   1      34.389  30.490  28.109  1.00  0.00    -0.352 N 
ATOM     31  C   UNL A   1      35.187  31.157  29.003  1.00  0.00     0.251 C 
ATOM     32  H   UNL A   1      33.477  30.853  28.041  1.00  0.00     0.163 HD
ATOM     33  O   UNL A   1      34.728  32.178  29.517  1.00  0.00    -0.269 OA
BRANCH  31  34
ATOM     34  C   UNL A   1      36.507  30.640  29.454  1.00  0.00     0.039 A 
ATOM     35  C   UNL A   1      37.727  31.271  29.212  1.00  0.00     0.014 A 
ATOM     36  C   UNL A   1      36.507  29.382  30.077  1.00  0.00     0.014 A 
ATOM     37  C   UNL A   1      38.910  30.573  29.352  1.00  0.00     0.010 A 
ATOM     38  C   UNL A   1      37.701  28.713  30.313  1.00  0.00     0.010 A 
ATOM     39  C   UNL A   1      38.892  29.280  29.870  1.00  0.00    -0.014 A 
BRANCH  39  40
ATOM     40  C   UNL A   1      40.183  28.631  30.051  1.00  0.00     0.031 A 
ATOM     41  C   UNL A   1      40.745  28.793  31.425  1.00  0.00     0.074 A 
ATOM     42  C   UNL A   1      40.784  27.902  29.093  1.00  0.00     0.049 A 
ATOM     43  N   UNL A   1      41.826  29.414  31.772  1.00  0.00    -0.248 NA
ATOM     44  C   UNL A   1      39.907  28.368  32.558  1.00  0.00     0.031 C 
ATOM     45  C   UNL A   1      40.246  27.480  27.798  1.00  0.00     0.029 A 
ATOM     46  N   UNL A   1      41.985  27.263  29.143  1.00  0.00    -0.354 N 
ATOM     47  C   UNL A   1      41.913  29.270  33.156  1.00  0.00     0.074 A 
ATOM     48  C   UNL A   1      40.639  28.767  33.599  1.00  0.00     0.031 C 
ATOM     49  C   UNL A   1      40.986  26.452  27.325  1.00  0.00     0.029 A 
ATOM     50  C   UNL A   1      42.117  26.239  28.209  1.00  0.00     0.049 A 
ATOM     51  H   UNL A   1      42.694  27.502  29.783  1.00  0.00     0.167 HD
ATOM     52  C   UNL A   1      43.096  29.365  33.822  1.00  0.00     0.034 A 
ATOM     53  C   UNL A   1      43.045  25.248  28.236  1.00  0.00     0.034 A 
ATOM     54  C   UNL A   1      44.114  29.992  33.032  1.00  0.00     0.049 A 
ATOM     55  C   UNL A   1      44.154  25.732  29.093  1.00  0.00     0.074 A 
ATOM     56  C   UNL A   1      44.276  31.239  32.463  1.00  0.00     0.029 A 
ATOM     57  N   UNL A   1      45.011  29.163  32.404  1.00  0.00    -0.354 N 
ATOM     58  N   UNL A   1      44.929  26.730  28.768  1.00  0.00    -0.248 NA
ATOM     59  C   UNL A   1      44.133  25.383  30.504  1.00  0.00     0.031 C 
ATOM     60  C   UNL A   1      44.902  30.985  31.210  1.00  0.00     0.029 A 
ATOM     61  C   UNL A   1      45.135  29.612  31.118  1.00  0.00     0.049 A 
ATOM     62  H   UNL A   1      45.476  28.393  32.805  1.00  0.00     0.167 HD
ATOM     63  C   UNL A   1      45.138  27.404  29.964  1.00  0.00     0.074 A 
ATOM     64  C   UNL A   1      44.711  26.476  31.009  1.00  0.00     0.031 C 
ATOM     65  C   UNL A   1      45.355  28.749  29.982  1.00  0.00     0.034 A 
BRANCH  52  66
ATOM     66  C   UNL A   1      43.437  28.570  35.052  1.00  0.00     0.023 A 
ATOM     67  C   UNL A   1      43.925  29.263  36.180  1.00  0.00     0.012 A 
ATOM     68  C   UNL A   1      43.573  27.163  35.046  1.00  0.00     0.148 A 
ATOM     69  C   UNL A   1      44.542  28.588  37.239  1.00  0.00     0.002 A 
ATOM     70  C   UNL A   1      44.123  26.491  36.128  1.00  0.00     0.091 A 
ATOM     71  F   UNL A   1      43.294  26.476  33.933  1.00  0.00    -0.205 F 
ATOM     72  C   UNL A   1      44.633  27.200  37.219  1.00  0.00     0.022 A 
BRANCH  70  73
ATOM     73  S   UNL A   1      44.252  24.701  36.155  1.00  0.00     0.127 S 
ATOM     74  O   UNL A   1      45.197  24.458  35.074  1.00  0.00    -0.237 OA
ATOM     75  O   UNL A   1      44.766  24.459  37.503  1.00  0.00    -0.237 OA
ATOM     76  O   UNL A   1      42.892  24.212  35.941  1.00  0.00    -0.744 OA
ENDBRANCH  70  73
ENDBRANCH  52  66
BRANCH  53  77
ATOM     77  C   UNL A   1      42.956  23.825  27.816  1.00  0.00     0.023 A 
ATOM     78  C   UNL A   1      41.799  23.087  28.146  1.00  0.00     0.012 A 
ATOM     79  C   UNL A   1      43.834  23.275  26.855  1.00  0.00     0.148 A 
ATOM     80  C   UNL A   1      41.492  21.883  27.500  1.00  0.00     0.002 A 
ATOM     81  C   UNL A   1      43.530  22.070  26.222  1.00  0.00     0.091 A 
ATOM     82  F   UNL A   1      44.914  23.972  26.484  1.00  0.00    -0.205 F 
ATOM     83  C   UNL A   1      42.350  21.381  26.529  1.00  0.00     0.022 A 
BRANCH  81  84
ATOM     84  S   UNL A   1      44.588  21.371  24.947  1.00  0.00     0.127 S 
ATOM     85  O   UNL A   1      44.396  22.308  23.839  1.00  0.00    -0.237 OA
ATOM     86  O   UNL A   1      45.904  21.431  25.578  1.00  0.00    -0.237 OA
ATOM     87  O   UNL A   1      44.067  20.033  24.692  1.00  0.00    -0.744 OA
ENDBRANCH  81  84
ENDBRANCH  53  77
BRANCH  65  88
ATOM     88  C   UNL A   1      45.577  29.455  28.671  1.00  0.00     0.023 A 
ATOM     89  C   UNL A   1      44.502  29.841  27.844  1.00  0.00     0.012 A 
ATOM     90  C   UNL A   1      46.859  29.965  28.417  1.00  0.00     0.148 A 
ATOM     91  C   UNL A   1      44.704  30.731  26.786  1.00  0.00     0.002 A 
ATOM     92  C   UNL A   1      47.047  30.882  27.395  1.00  0.00     0.091 A 
ATOM     93  F   UNL A   1      47.857  29.591  29.231  1.00  0.00    -0.205 F 
ATOM     94  C   UNL A   1      45.973  31.267  26.574  1.00  0.00     0.022 A 
BRANCH  92  95
ATOM     95  S   UNL A   1      48.616  31.716  27.152  1.00  0.00     0.127 S 
ATOM     96  O   UNL A   1      49.495  30.610  26.774  1.00  0.00    -0.237 OA
ATOM     97  O   UNL A   1      48.304  32.648  26.067  1.00  0.00    -0.237 OA
ATOM     98  O   UNL A   1      48.939  32.357  28.421  1.00  0.00    -0.744 OA
ENDBRANCH  92  95
ENDBRANCH  65  88
ENDBRANCH  39  40
ENDBRANCH  31  34
ENDBRANCH  29  30
ENDBRANCH  28  29
ENDBRANCH   1  28
TORSDOF 19
ENDMDL
