MODEL 1
REMARK VINA RESULT:     -13.0      0.000      0.000
REMARK SMILES O=C(NCCCCCCNC(=O)c1cn(Cc2ccc(N3CCCC3=O)cc2)c2cc(F)c(F)cc2c1=O)c1ccc(-c2c3nc(c(-c4cccc(S(=O)(=O)[O-])c4F)c4ccc([nH]4)c(-c4cccc(S(=O)(=O)[O-])c4F)c4nc(c(-c5cccc(S(=O)(=O)[O-])c5F)c5ccc2[nH]5)C=C4)C=C3)cc1
REMARK SMILES IDX 6 1 5 2 4 3 3 4 1 5 2 6 39 8 40 9 101 10 41 11 100 12 42 13
REMARK SMILES IDX 43 14 44 15 94 16 45 17 99 18 93 19 95 20 46 21 98 22 92 23
REMARK SMILES IDX 91 24 47 26 79 27 59 28 78 29 60 30 63 31 77 32 96 33 61 34
REMARK SMILES IDX 62 35 76 37 97 38 64 39 48 40 49 41 57 42 50 43 52 44 58 45
REMARK SMILES IDX 51 46 53 47 54 48 55 49 56 50 80 51 81 52 89 53 82 54 84 55
REMARK SMILES IDX 90 56 83 57 85 58 86 59 87 60 88 61 65 62 66 63 74 64 67 65
REMARK SMILES IDX 69 66 75 67 68 68 70 69 71 70 72 71 73 72 7 73 8 74 9 75
REMARK SMILES IDX 10 76 11 77 12 79 13 80 14 81 37 82 15 83 36 84 38 85 29 86
REMARK SMILES IDX 35 87 30 88 33 89 31 90 34 91 32 92 16 93 17 94 18 95 28 96
REMARK SMILES IDX 19 97 27 98 20 99 21 100 22 101 25 102 23 103 24 104 26 105
REMARK H PARENT 3 7 95 25 63 36 10 78
REMARK Flexibility Score: inf
ROOT
ATOM      1  C   UNL A   1      32.418  27.404  26.628  1.00  0.00     0.002 C 
ENDROOT
BRANCH   1   2
ATOM      2  C   UNL A   1      31.882  28.695  26.003  1.00  0.00     0.021 C 
BRANCH   2   3
ATOM      3  C   UNL A   1      32.950  29.716  25.621  1.00  0.00     0.116 C 
BRANCH   3   4
ATOM      4  N   UNL A   1      32.597  31.053  26.065  1.00  0.00    -0.352 N 
ATOM      5  O   UNL A   1      32.552  32.811  27.465  1.00  0.00    -0.269 OA
ATOM      6  C   UNL A   1      33.135  31.800  27.081  1.00  0.00     0.251 C 
ATOM      7  H   UNL A   1      31.868  31.485  25.564  1.00  0.00     0.163 HD
BRANCH   6   8
ATOM      8  C   UNL A   1      34.412  31.398  27.710  1.00  0.00     0.039 A 
ATOM      9  C   UNL A   1      34.552  30.087  28.175  1.00  0.00     0.014 A 
ATOM     10  C   UNL A   1      35.442  32.324  27.903  1.00  0.00     0.014 A 
ATOM     11  C   UNL A   1      35.729  29.700  28.821  1.00  0.00     0.010 A 
ATOM     12  C   UNL A   1      36.638  31.920  28.491  1.00  0.00     0.010 A 
ATOM     13  C   UNL A   1      36.784  30.613  28.979  1.00  0.00    -0.014 A 
BRANCH  13  14
ATOM     14  C   UNL A   1      38.027  30.243  29.701  1.00  0.00     0.031 A 
ATOM     15  C   UNL A   1      39.004  29.291  29.058  1.00  0.00     0.074 A 
ATOM     16  C   UNL A   1      38.255  30.715  30.942  1.00  0.00     0.049 A 
ATOM     17  N   UNL A   1      40.087  28.760  29.564  1.00  0.00    -0.248 NA
ATOM     18  C   UNL A   1      38.726  28.872  27.673  1.00  0.00     0.031 C 
ATOM     19  C   UNL A   1      37.381  31.633  31.676  1.00  0.00     0.029 A 
ATOM     20  N   UNL A   1      39.289  30.475  31.813  1.00  0.00    -0.354 N 
ATOM     21  C   UNL A   1      40.597  27.925  28.578  1.00  0.00     0.074 A 
ATOM     22  C   UNL A   1      39.701  28.002  27.446  1.00  0.00     0.031 C 
ATOM     23  C   UNL A   1      37.922  31.889  32.878  1.00  0.00     0.029 A 
ATOM     24  C   UNL A   1      39.157  31.123  33.019  1.00  0.00     0.049 A 
ATOM     25  H   UNL A   1      40.053  29.893  31.596  1.00  0.00     0.167 HD
ATOM     26  C   UNL A   1      41.726  27.182  28.603  1.00  0.00     0.034 A 
ATOM     27  C   UNL A   1      39.938  31.098  34.118  1.00  0.00     0.034 A 
ATOM     28  C   UNL A   1      42.645  27.148  29.705  1.00  0.00     0.049 A 
ATOM     29  C   UNL A   1      41.183  30.254  34.116  1.00  0.00     0.074 A 
ATOM     30  C   UNL A   1      43.837  26.450  29.802  1.00  0.00     0.029 A 
ATOM     31  N   UNL A   1      42.490  27.847  30.890  1.00  0.00    -0.354 N 
ATOM     32  N   UNL A   1      41.669  29.509  33.154  1.00  0.00    -0.248 NA
ATOM     33  C   UNL A   1      41.999  30.265  35.340  1.00  0.00     0.031 C 
ATOM     34  C   UNL A   1      44.400  26.721  31.051  1.00  0.00     0.029 A 
ATOM     35  C   UNL A   1      43.569  27.607  31.718  1.00  0.00     0.049 A 
ATOM     36  H   UNL A   1      41.726  28.428  31.109  1.00  0.00     0.167 HD
ATOM     37  C   UNL A   1      42.871  29.005  33.636  1.00  0.00     0.074 A 
ATOM     38  C   UNL A   1      43.038  29.522  34.978  1.00  0.00     0.031 C 
ATOM     39  C   UNL A   1      43.754  28.184  33.021  1.00  0.00     0.034 A 
BRANCH  26  40
ATOM     40  C   UNL A   1      42.095  26.381  27.387  1.00  0.00     0.023 A 
ATOM     41  C   UNL A   1      42.877  26.985  26.384  1.00  0.00     0.012 A 
ATOM     42  C   UNL A   1      41.823  25.001  27.326  1.00  0.00     0.148 A 
ATOM     43  C   UNL A   1      43.398  26.222  25.341  1.00  0.00     0.002 A 
ATOM     44  C   UNL A   1      42.371  24.241  26.299  1.00  0.00     0.091 A 
ATOM     45  F   UNL A   1      41.072  24.457  28.292  1.00  0.00    -0.205 F 
ATOM     46  C   UNL A   1      43.159  24.849  25.308  1.00  0.00     0.022 A 
BRANCH  44  47
ATOM     47  S   UNL A   1      42.176  22.458  26.196  1.00  0.00     0.127 S 
ATOM     48  O   UNL A   1      40.721  22.323  26.130  1.00  0.00    -0.237 OA
ATOM     49  O   UNL A   1      42.876  22.146  24.952  1.00  0.00    -0.237 OA
ATOM     50  O   UNL A   1      42.785  21.914  27.402  1.00  0.00    -0.744 OA
ENDBRANCH  44  47
ENDBRANCH  26  40
BRANCH  27  51
ATOM     51  C   UNL A   1      39.603  31.950  35.291  1.00  0.00     0.023 A 
ATOM     52  C   UNL A   1      40.138  33.252  35.363  1.00  0.00     0.012 A 
ATOM     53  C   UNL A   1      38.754  31.494  36.316  1.00  0.00     0.148 A 
ATOM     54  C   UNL A   1      39.850  34.078  36.449  1.00  0.00     0.002 A 
ATOM     55  C   UNL A   1      38.439  32.336  37.377  1.00  0.00     0.091 A 
ATOM     56  F   UNL A   1      38.264  30.250  36.226  1.00  0.00    -0.205 F 
ATOM     57  C   UNL A   1      38.995  33.624  37.451  1.00  0.00     0.022 A 
BRANCH  55  58
ATOM     58  S   UNL A   1      37.282  31.873  38.670  1.00  0.00     0.127 S 
ATOM     59  O   UNL A   1      37.078  30.454  38.393  1.00  0.00    -0.237 OA
ATOM     60  O   UNL A   1      38.053  32.162  39.880  1.00  0.00    -0.237 OA
ATOM     61  O   UNL A   1      36.115  32.725  38.481  1.00  0.00    -0.744 OA
ENDBRANCH  55  58
ENDBRANCH  27  51
BRANCH  39  62
ATOM     62  C   UNL A   1      45.025  27.835  33.743  1.00  0.00     0.023 A 
ATOM     63  C   UNL A   1      46.140  28.688  33.655  1.00  0.00     0.012 A 
ATOM     64  C   UNL A   1      45.056  26.729  34.616  1.00  0.00     0.148 A 
ATOM     65  C   UNL A   1      47.278  28.437  34.419  1.00  0.00     0.002 A 
ATOM     66  C   UNL A   1      46.179  26.507  35.402  1.00  0.00     0.091 A 
ATOM     67  F   UNL A   1      43.980  25.932  34.674  1.00  0.00    -0.205 F 
ATOM     68  C   UNL A   1      47.292  27.357  35.300  1.00  0.00     0.022 A 
BRANCH  66  69
ATOM     69  S   UNL A   1      46.263  25.188  36.617  1.00  0.00     0.127 S 
ATOM     70  O   UNL A   1      47.646  25.297  37.078  1.00  0.00    -0.237 OA
ATOM     71  O   UNL A   1      45.259  25.606  37.595  1.00  0.00    -0.237 OA
ATOM     72  O   UNL A   1      45.943  23.959  35.905  1.00  0.00    -0.744 OA
ENDBRANCH  66  69
ENDBRANCH  39  62
ENDBRANCH  13  14
ENDBRANCH   6   8
ENDBRANCH   3   4
ENDBRANCH   2   3
ENDBRANCH   1   2
BRANCH   1  73
ATOM     73  C   UNL A   1      33.805  26.966  26.147  1.00  0.00     0.002 C 
BRANCH  73  74
ATOM     74  C   UNL A   1      33.891  26.569  24.672  1.00  0.00     0.021 C 
BRANCH  74  75
ATOM     75  C   UNL A   1      34.362  25.143  24.411  1.00  0.00     0.116 C 
BRANCH  75  76
ATOM     76  N   UNL A   1      35.571  24.797  25.144  1.00  0.00    -0.352 N 
ATOM     77  C   UNL A   1      35.979  23.589  25.644  1.00  0.00     0.256 C 
ATOM     78  H   UNL A   1      36.189  25.546  25.306  1.00  0.00     0.163 HD
ATOM     79  O   UNL A   1      37.049  23.507  26.239  1.00  0.00    -0.269 OA
BRANCH  77  80
ATOM     80  C   UNL A   1      35.107  22.413  25.447  1.00  0.00     0.104 A 
ATOM     81  C   UNL A   1      33.777  22.520  25.593  1.00  0.00     0.104 A 
ATOM     82  C   UNL A   1      35.649  21.091  25.070  1.00  0.00     0.202 A 
ATOM     83  N   UNL A   1      32.858  21.475  25.587  1.00  0.00    -0.342 N 
ATOM     84  C   UNL A   1      34.684  19.972  24.954  1.00  0.00     0.050 A 
ATOM     85  O   UNL A   1      36.847  20.883  24.914  1.00  0.00    -0.288 OA
ATOM     86  C   UNL A   1      33.342  20.166  25.359  1.00  0.00     0.055 A 
ATOM     87  C   UNL A   1      35.148  18.730  24.493  1.00  0.00     0.056 A 
ATOM     88  C   UNL A   1      32.564  19.012  25.498  1.00  0.00     0.069 A 
ATOM     89  C   UNL A   1      34.282  17.651  24.483  1.00  0.00     0.159 A 
ATOM     90  C   UNL A   1      33.012  17.781  25.018  1.00  0.00     0.160 A 
ATOM     91  F   UNL A   1      34.688  16.476  23.984  1.00  0.00    -0.204 F 
ATOM     92  F   UNL A   1      32.183  16.729  25.058  1.00  0.00    -0.204 F 
BRANCH  83  93
ATOM     93  C   UNL A   1      31.399  21.736  25.721  1.00  0.00     0.157 C 
BRANCH  93  94
ATOM     94  C   UNL A   1      30.975  23.045  25.078  1.00  0.00    -0.028 A 
ATOM     95  C   UNL A   1      31.115  23.252  23.702  1.00  0.00     0.008 A 
ATOM     96  C   UNL A   1      30.450  24.098  25.835  1.00  0.00     0.008 A 
ATOM     97  C   UNL A   1      30.843  24.487  23.113  1.00  0.00     0.027 A 
ATOM     98  C   UNL A   1      30.164  25.339  25.239  1.00  0.00     0.027 A 
ATOM     99  C   UNL A   1      30.394  25.563  23.876  1.00  0.00     0.044 A 
BRANCH  99 100
ATOM    100  N   UNL A   1      30.217  26.834  23.277  1.00  0.00    -0.312 N 
ATOM    101  C   UNL A   1      31.251  27.507  22.528  1.00  0.00     0.126 C 
ATOM    102  C   UNL A   1      29.039  27.588  23.300  1.00  0.00     0.227 C 
ATOM    103  C   UNL A   1      30.823  28.957  22.524  1.00  0.00     0.032 C 
ATOM    104  C   UNL A   1      29.310  28.884  22.572  1.00  0.00     0.102 C 
ATOM    105  O   UNL A   1      27.956  27.318  23.802  1.00  0.00    -0.275 OA
ENDBRANCH  99 100
ENDBRANCH  93  94
ENDBRANCH  83  93
ENDBRANCH  77  80
ENDBRANCH  75  76
ENDBRANCH  74  75
ENDBRANCH  73  74
ENDBRANCH   1  73
TORSDOF 19
ENDMDL
MODEL 2
REMARK VINA RESULT:     -12.4      1.998      2.633
REMARK SMILES O=C(NCCCCCCNC(=O)c1cn(Cc2ccc(N3CCCC3=O)cc2)c2cc(F)c(F)cc2c1=O)c1ccc(-c2c3nc(c(-c4cccc(S(=O)(=O)[O-])c4F)c4ccc([nH]4)c(-c4cccc(S(=O)(=O)[O-])c4F)c4nc(c(-c5cccc(S(=O)(=O)[O-])c5F)c5ccc2[nH]5)C=C4)C=C3)cc1
REMARK SMILES IDX 6 1 5 2 4 3 3 4 1 5 2 6 39 8 40 9 101 10 41 11 100 12 42 13
REMARK SMILES IDX 43 14 44 15 94 16 45 17 99 18 93 19 95 20 46 21 98 22 92 23
REMARK SMILES IDX 91 24 47 26 79 27 59 28 78 29 60 30 63 31 77 32 96 33 61 34
REMARK SMILES IDX 62 35 76 37 97 38 64 39 48 40 49 41 57 42 50 43 52 44 58 45
REMARK SMILES IDX 51 46 53 47 54 48 55 49 56 50 80 51 81 52 89 53 82 54 84 55
REMARK SMILES IDX 90 56 83 57 85 58 86 59 87 60 88 61 65 62 66 63 74 64 67 65
REMARK SMILES IDX 69 66 75 67 68 68 70 69 71 70 72 71 73 72 7 73 8 74 9 75
REMARK SMILES IDX 10 76 11 77 12 79 13 80 14 81 37 82 15 83 36 84 38 85 29 86
REMARK SMILES IDX 35 87 30 88 33 89 31 90 34 91 32 92 16 93 17 94 18 95 28 96
REMARK SMILES IDX 19 97 27 98 20 99 21 100 22 101 25 102 23 103 24 104 26 105
REMARK H PARENT 3 7 95 25 63 36 10 78
REMARK Flexibility Score: inf
ROOT
ATOM      1  C   UNL A   1      32.458  27.756  26.178  1.00  0.00     0.002 C 
ENDROOT
BRANCH   1   2
ATOM      2  C   UNL A   1      32.729  28.739  27.321  1.00  0.00     0.021 C 
BRANCH   2   3
ATOM      3  C   UNL A   1      34.008  29.559  27.174  1.00  0.00     0.116 C 
BRANCH   3   4
ATOM      4  N   UNL A   1      33.879  30.869  27.788  1.00  0.00    -0.352 N 
ATOM      5  O   UNL A   1      34.294  32.485  29.293  1.00  0.00    -0.269 OA
ATOM      6  C   UNL A   1      34.689  31.478  28.712  1.00  0.00     0.251 C 
ATOM      7  H   UNL A   1      33.099  31.396  27.497  1.00  0.00     0.163 HD
BRANCH   6   8
ATOM      8  C   UNL A   1      36.031  30.932  29.005  1.00  0.00     0.039 A 
ATOM      9  C   UNL A   1      36.138  29.814  29.837  1.00  0.00     0.014 A 
ATOM     10  C   UNL A   1      37.185  31.557  28.520  1.00  0.00     0.014 A 
ATOM     11  C   UNL A   1      37.399  29.314  30.172  1.00  0.00     0.010 A 
ATOM     12  C   UNL A   1      38.438  31.020  28.803  1.00  0.00     0.010 A 
ATOM     13  C   UNL A   1      38.559  29.910  29.652  1.00  0.00    -0.014 A 
BRANCH  13  14
ATOM     14  C   UNL A   1      39.912  29.429  30.027  1.00  0.00     0.031 A 
ATOM     15  C   UNL A   1      40.515  28.258  29.292  1.00  0.00     0.074 A 
ATOM     16  C   UNL A   1      40.576  30.002  31.050  1.00  0.00     0.049 A 
ATOM     17  N   UNL A   1      41.629  27.619  29.537  1.00  0.00    -0.248 NA
ATOM     18  C   UNL A   1      39.765  27.728  28.139  1.00  0.00     0.031 C 
ATOM     19  C   UNL A   1      40.096  31.134  31.846  1.00  0.00     0.029 A 
ATOM     20  N   UNL A   1      41.795  29.701  31.605  1.00  0.00    -0.354 N 
ATOM     21  C   UNL A   1      41.697  26.599  28.597  1.00  0.00     0.074 A 
ATOM     22  C   UNL A   1      40.506  26.687  27.783  1.00  0.00     0.031 C 
ATOM     23  C   UNL A   1      41.015  31.439  32.776  1.00  0.00     0.029 A 
ATOM     24  C   UNL A   1      42.130  30.502  32.672  1.00  0.00     0.049 A 
ATOM     25  H   UNL A   1      42.375  28.978  31.272  1.00  0.00     0.167 HD
ATOM     26  C   UNL A   1      42.678  25.687  28.411  1.00  0.00     0.034 A 
ATOM     27  C   UNL A   1      43.208  30.479  33.480  1.00  0.00     0.034 A 
ATOM     28  C   UNL A   1      43.887  25.635  29.183  1.00  0.00     0.049 A 
ATOM     29  C   UNL A   1      44.278  29.447  33.251  1.00  0.00     0.074 A 
ATOM     30  C   UNL A   1      44.955  24.765  29.039  1.00  0.00     0.029 A 
ATOM     31  N   UNL A   1      44.198  26.487  30.228  1.00  0.00    -0.354 N 
ATOM     32  N   UNL A   1      44.342  28.522  32.326  1.00  0.00    -0.248 NA
ATOM     33  C   UNL A   1      45.434  29.469  34.161  1.00  0.00     0.031 C 
ATOM     34  C   UNL A   1      45.911  25.087  30.004  1.00  0.00     0.029 A 
ATOM     35  C   UNL A   1      45.447  26.172  30.730  1.00  0.00     0.049 A 
ATOM     36  H   UNL A   1      43.619  27.208  30.563  1.00  0.00     0.167 HD
ATOM     37  C   UNL A   1      45.565  27.886  32.509  1.00  0.00     0.074 A 
ATOM     38  C   UNL A   1      46.208  28.526  33.638  1.00  0.00     0.031 C 
ATOM     39  C   UNL A   1      46.102  26.863  31.806  1.00  0.00     0.034 A 
BRANCH  26  40
ATOM     40  C   UNL A   1      42.545  24.696  27.290  1.00  0.00     0.023 A 
ATOM     41  C   UNL A   1      43.155  24.979  26.053  1.00  0.00     0.012 A 
ATOM     42  C   UNL A   1      41.978  23.427  27.517  1.00  0.00     0.148 A 
ATOM     43  C   UNL A   1      43.217  24.004  25.059  1.00  0.00     0.002 A 
ATOM     44  C   UNL A   1      42.070  22.451  26.532  1.00  0.00     0.091 A 
ATOM     45  F   UNL A   1      41.399  23.191  28.702  1.00  0.00    -0.205 F 
ATOM     46  C   UNL A   1      42.690  22.738  25.304  1.00  0.00     0.022 A 
BRANCH  44  47
ATOM     47  S   UNL A   1      41.479  20.771  26.767  1.00  0.00     0.127 S 
ATOM     48  O   UNL A   1      41.932  20.124  25.535  1.00  0.00    -0.237 OA
ATOM     49  O   UNL A   1      42.197  20.361  27.972  1.00  0.00    -0.237 OA
ATOM     50  O   UNL A   1      40.033  20.867  26.910  1.00  0.00    -0.744 OA
ENDBRANCH  44  47
ENDBRANCH  26  40
BRANCH  27  51
ATOM     51  C   UNL A   1      43.366  31.510  34.542  1.00  0.00     0.023 A 
ATOM     52  C   UNL A   1      44.147  32.652  34.273  1.00  0.00     0.012 A 
ATOM     53  C   UNL A   1      42.743  31.379  35.796  1.00  0.00     0.148 A 
ATOM     54  C   UNL A   1      44.321  33.637  35.245  1.00  0.00     0.002 A 
ATOM     55  C   UNL A   1      42.888  32.383  36.747  1.00  0.00     0.091 A 
ATOM     56  F   UNL A   1      42.011  30.281  36.029  1.00  0.00    -0.205 F 
ATOM     57  C   UNL A   1      43.686  33.507  36.477  1.00  0.00     0.022 A 
BRANCH  55  58
ATOM     58  S   UNL A   1      42.042  32.346  38.331  1.00  0.00     0.127 S 
ATOM     59  O   UNL A   1      42.787  31.311  39.043  1.00  0.00    -0.237 OA
ATOM     60  O   UNL A   1      42.258  33.709  38.819  1.00  0.00    -0.237 OA
ATOM     61  O   UNL A   1      40.653  32.027  38.030  1.00  0.00    -0.744 OA
ENDBRANCH  55  58
ENDBRANCH  27  51
BRANCH  39  62
ATOM     62  C   UNL A   1      47.484  26.398  32.169  1.00  0.00     0.023 A 
ATOM     63  C   UNL A   1      48.609  27.057  31.641  1.00  0.00     0.012 A 
ATOM     64  C   UNL A   1      47.654  25.392  33.142  1.00  0.00     0.148 A 
ATOM     65  C   UNL A   1      49.890  26.712  32.069  1.00  0.00     0.002 A 
ATOM     66  C   UNL A   1      48.931  25.081  33.591  1.00  0.00     0.091 A 
ATOM     67  F   UNL A   1      46.563  24.780  33.623  1.00  0.00    -0.205 F 
ATOM     68  C   UNL A   1      50.049  25.736  33.051  1.00  0.00     0.022 A 
BRANCH  66  69
ATOM     69  S   UNL A   1      49.230  23.893  34.903  1.00  0.00     0.127 S 
ATOM     70  O   UNL A   1      50.684  23.971  35.047  1.00  0.00    -0.237 OA
ATOM     71  O   UNL A   1      48.476  24.466  36.016  1.00  0.00    -0.237 OA
ATOM     72  O   UNL A   1      48.724  22.616  34.418  1.00  0.00    -0.744 OA
ENDBRANCH  66  69
ENDBRANCH  39  62
ENDBRANCH  13  14
ENDBRANCH   6   8
ENDBRANCH   3   4
ENDBRANCH   2   3
ENDBRANCH   1   2
BRANCH   1  73
ATOM     73  C   UNL A   1      33.465  26.610  26.043  1.00  0.00     0.002 C 
BRANCH  73  74
ATOM     74  C   UNL A   1      33.970  26.346  24.623  1.00  0.00     0.021 C 
BRANCH  74  75
ATOM     75  C   UNL A   1      34.424  24.916  24.352  1.00  0.00     0.116 C 
BRANCH  75  76
ATOM     76  N   UNL A   1      35.640  24.558  25.066  1.00  0.00    -0.352 N 
ATOM     77  C   UNL A   1      36.052  23.343  25.546  1.00  0.00     0.256 C 
ATOM     78  H   UNL A   1      36.263  25.304  25.230  1.00  0.00     0.163 HD
ATOM     79  O   UNL A   1      37.129  23.252  26.127  1.00  0.00    -0.269 OA
BRANCH  77  80
ATOM     80  C   UNL A   1      35.175  22.171  25.345  1.00  0.00     0.104 A 
ATOM     81  C   UNL A   1      33.842  22.296  25.437  1.00  0.00     0.104 A 
ATOM     82  C   UNL A   1      35.716  20.835  25.023  1.00  0.00     0.202 A 
ATOM     83  N   UNL A   1      32.912  21.261  25.422  1.00  0.00    -0.342 N 
ATOM     84  C   UNL A   1      34.744  19.724  24.898  1.00  0.00     0.050 A 
ATOM     85  O   UNL A   1      36.917  20.610  24.919  1.00  0.00    -0.288 OA
ATOM     86  C   UNL A   1      33.390  19.941  25.246  1.00  0.00     0.055 A 
ATOM     87  C   UNL A   1      35.211  18.465  24.487  1.00  0.00     0.056 A 
ATOM     88  C   UNL A   1      32.594  18.800  25.383  1.00  0.00     0.069 A 
ATOM     89  C   UNL A   1      34.334  17.395  24.470  1.00  0.00     0.159 A 
ATOM     90  C   UNL A   1      33.046  17.552  24.952  1.00  0.00     0.160 A 
ATOM     91  F   UNL A   1      34.746  16.204  24.017  1.00  0.00    -0.204 F 
ATOM     92  F   UNL A   1      32.204  16.510  24.986  1.00  0.00    -0.204 F 
BRANCH  83  93
ATOM     93  C   UNL A   1      31.452  21.540  25.493  1.00  0.00     0.157 C 
BRANCH  93  94
ATOM     94  C   UNL A   1      31.097  22.935  25.009  1.00  0.00    -0.028 A 
ATOM     95  C   UNL A   1      30.693  23.929  25.906  1.00  0.00     0.008 A 
ATOM     96  C   UNL A   1      31.141  23.274  23.652  1.00  0.00     0.008 A 
ATOM     97  C   UNL A   1      30.250  25.178  25.469  1.00  0.00     0.027 A 
ATOM     98  C   UNL A   1      30.706  24.537  23.213  1.00  0.00     0.027 A 
ATOM     99  C   UNL A   1      30.217  25.493  24.112  1.00  0.00     0.044 A 
BRANCH  99 100
ATOM    100  N   UNL A   1      29.673  26.728  23.682  1.00  0.00    -0.312 N 
ATOM    101  C   UNL A   1      28.309  27.125  23.940  1.00  0.00     0.126 C 
ATOM    102  C   UNL A   1      30.367  27.727  22.990  1.00  0.00     0.227 C 
ATOM    103  C   UNL A   1      28.037  28.206  22.918  1.00  0.00     0.032 C 
ATOM    104  C   UNL A   1      29.394  28.848  22.705  1.00  0.00     0.102 C 
ATOM    105  O   UNL A   1      31.539  27.755  22.639  1.00  0.00    -0.275 OA
ENDBRANCH  99 100
ENDBRANCH  93  94
ENDBRANCH  83  93
ENDBRANCH  77  80
ENDBRANCH  75  76
ENDBRANCH  74  75
ENDBRANCH  73  74
ENDBRANCH   1  73
TORSDOF 19
ENDMDL
MODEL 3
REMARK VINA RESULT:     -12.4      2.389      7.365
REMARK SMILES O=C(NCCCCCCNC(=O)c1cn(Cc2ccc(N3CCCC3=O)cc2)c2cc(F)c(F)cc2c1=O)c1ccc(-c2c3nc(c(-c4cccc(S(=O)(=O)[O-])c4F)c4ccc([nH]4)c(-c4cccc(S(=O)(=O)[O-])c4F)c4nc(c(-c5cccc(S(=O)(=O)[O-])c5F)c5ccc2[nH]5)C=C4)C=C3)cc1
REMARK SMILES IDX 6 1 5 2 4 3 3 4 1 5 2 6 39 8 40 9 101 10 41 11 100 12 42 13
REMARK SMILES IDX 43 14 44 15 94 16 45 17 99 18 93 19 95 20 46 21 98 22 92 23
REMARK SMILES IDX 91 24 47 26 79 27 59 28 78 29 60 30 63 31 77 32 96 33 61 34
REMARK SMILES IDX 62 35 76 37 97 38 64 39 48 40 49 41 57 42 50 43 52 44 58 45
REMARK SMILES IDX 51 46 53 47 54 48 55 49 56 50 80 51 81 52 89 53 82 54 84 55
REMARK SMILES IDX 90 56 83 57 85 58 86 59 87 60 88 61 65 62 66 63 74 64 67 65
REMARK SMILES IDX 69 66 75 67 68 68 70 69 71 70 72 71 73 72 7 73 8 74 9 75
REMARK SMILES IDX 10 76 11 77 12 79 13 80 14 81 37 82 15 83 36 84 38 85 29 86
REMARK SMILES IDX 35 87 30 88 33 89 31 90 34 91 32 92 16 93 17 94 18 95 28 96
REMARK SMILES IDX 19 97 27 98 20 99 21 100 22 101 25 102 23 103 24 104 26 105
REMARK H PARENT 3 7 95 25 63 36 10 78
REMARK Flexibility Score: inf
ROOT
ATOM      1  C   UNL A   1      32.615  28.367  25.752  1.00  0.00     0.002 C 
ENDROOT
BRANCH   1   2
ATOM      2  C   UNL A   1      32.711  29.266  26.989  1.00  0.00     0.021 C 
BRANCH   2   3
ATOM      3  C   UNL A   1      34.092  29.867  27.240  1.00  0.00     0.116 C 
BRANCH   3   4
ATOM      4  N   UNL A   1      34.008  31.112  27.982  1.00  0.00    -0.352 N 
ATOM      5  O   UNL A   1      34.436  32.536  29.667  1.00  0.00    -0.269 OA
ATOM      6  C   UNL A   1      34.800  31.570  29.003  1.00  0.00     0.251 C 
ATOM      7  H   UNL A   1      33.278  31.716  27.712  1.00  0.00     0.163 HD
BRANCH   6   8
ATOM      8  C   UNL A   1      36.091  30.911  29.301  1.00  0.00     0.039 A 
ATOM      9  C   UNL A   1      36.099  29.793  30.140  1.00  0.00     0.014 A 
ATOM     10  C   UNL A   1      37.294  31.430  28.813  1.00  0.00     0.014 A 
ATOM     11  C   UNL A   1      37.311  29.188  30.479  1.00  0.00     0.010 A 
ATOM     12  C   UNL A   1      38.496  30.788  29.101  1.00  0.00     0.010 A 
ATOM     13  C   UNL A   1      38.519  29.678  29.957  1.00  0.00    -0.014 A 
BRANCH  13  14
ATOM     14  C   UNL A   1      39.825  29.082  30.336  1.00  0.00     0.031 A 
ATOM     15  C   UNL A   1      40.558  29.606  31.546  1.00  0.00     0.074 A 
ATOM     16  C   UNL A   1      40.375  28.114  29.576  1.00  0.00     0.049 A 
ATOM     17  N   UNL A   1      41.753  29.299  31.978  1.00  0.00    -0.248 NA
ATOM     18  C   UNL A   1      39.866  30.613  32.370  1.00  0.00     0.031 C 
ATOM     19  C   UNL A   1      39.770  27.531  28.377  1.00  0.00     0.029 A 
ATOM     20  N   UNL A   1      41.576  27.460  29.693  1.00  0.00    -0.354 N 
ATOM     21  C   UNL A   1      41.967  30.093  33.098  1.00  0.00     0.074 A 
ATOM     22  C   UNL A   1      40.788  30.910  33.275  1.00  0.00     0.031 C 
ATOM     23  C   UNL A   1      40.596  26.597  27.877  1.00  0.00     0.029 A 
ATOM     24  C   UNL A   1      41.805  26.543  28.694  1.00  0.00     0.049 A 
ATOM     25  H   UNL A   1      42.214  27.631  30.423  1.00  0.00     0.167 HD
ATOM     26  C   UNL A   1      43.039  30.118  33.922  1.00  0.00     0.034 A 
ATOM     27  C   UNL A   1      42.872  25.754  28.457  1.00  0.00     0.034 A 
ATOM     28  C   UNL A   1      44.186  29.267  33.779  1.00  0.00     0.049 A 
ATOM     29  C   UNL A   1      44.052  25.812  29.388  1.00  0.00     0.074 A 
ATOM     30  C   UNL A   1      45.305  29.199  34.592  1.00  0.00     0.029 A 
ATOM     31  N   UNL A   1      44.359  28.331  32.775  1.00  0.00    -0.354 N 
ATOM     32  N   UNL A   1      44.212  26.538  30.467  1.00  0.00    -0.248 NA
ATOM     33  C   UNL A   1      45.188  24.928  29.083  1.00  0.00     0.031 C 
ATOM     34  C   UNL A   1      46.160  28.224  34.074  1.00  0.00     0.029 A 
ATOM     35  C   UNL A   1      45.560  27.671  32.955  1.00  0.00     0.049 A 
ATOM     36  H   UNL A   1      43.723  28.160  32.044  1.00  0.00     0.167 HD
ATOM     37  C   UNL A   1      45.440  26.162  30.998  1.00  0.00     0.074 A 
ATOM     38  C   UNL A   1      45.987  25.149  30.120  1.00  0.00     0.031 C 
ATOM     39  C   UNL A   1      46.057  26.618  32.113  1.00  0.00     0.034 A 
BRANCH  26  40
ATOM     40  C   UNL A   1      43.023  31.044  35.105  1.00  0.00     0.023 A 
ATOM     41  C   UNL A   1      42.655  30.535  36.365  1.00  0.00     0.012 A 
ATOM     42  C   UNL A   1      43.539  32.350  35.002  1.00  0.00     0.148 A 
ATOM     43  C   UNL A   1      42.814  31.310  37.512  1.00  0.00     0.002 A 
ATOM     44  C   UNL A   1      43.723  33.106  36.153  1.00  0.00     0.091 A 
ATOM     45  F   UNL A   1      43.875  32.808  33.788  1.00  0.00    -0.205 F 
ATOM     46  C   UNL A   1      43.362  32.587  37.409  1.00  0.00     0.022 A 
BRANCH  44  47
ATOM     47  S   UNL A   1      44.476  34.737  36.139  1.00  0.00     0.127 S 
ATOM     48  O   UNL A   1      44.402  35.109  37.552  1.00  0.00    -0.237 OA
ATOM     49  O   UNL A   1      45.823  34.446  35.653  1.00  0.00    -0.237 OA
ATOM     50  O   UNL A   1      43.659  35.552  35.250  1.00  0.00    -0.744 OA
ENDBRANCH  44  47
ENDBRANCH  26  40
BRANCH  27  51
ATOM     51  C   UNL A   1      42.849  24.789  27.325  1.00  0.00     0.023 A 
ATOM     52  C   UNL A   1      43.429  25.163  26.097  1.00  0.00     0.012 A 
ATOM     53  C   UNL A   1      42.278  23.510  27.457  1.00  0.00     0.148 A 
ATOM     54  C   UNL A   1      43.423  24.286  25.012  1.00  0.00     0.002 A 
ATOM     55  C   UNL A   1      42.309  22.625  26.384  1.00  0.00     0.091 A 
ATOM     56  F   UNL A   1      41.727  23.180  28.634  1.00  0.00    -0.205 F 
ATOM     57  C   UNL A   1      42.870  23.016  25.158  1.00  0.00     0.022 A 
BRANCH  55  58
ATOM     58  S   UNL A   1      41.699  20.940  26.501  1.00  0.00     0.127 S 
ATOM     59  O   UNL A   1      42.129  20.560  27.845  1.00  0.00    -0.237 OA
ATOM     60  O   UNL A   1      40.257  21.131  26.343  1.00  0.00    -0.237 OA
ATOM     61  O   UNL A   1      42.334  20.213  25.410  1.00  0.00    -0.744 OA
ENDBRANCH  55  58
ENDBRANCH  27  51
BRANCH  39  62
ATOM     62  C   UNL A   1      47.364  25.993  32.509  1.00  0.00     0.023 A 
ATOM     63  C   UNL A   1      48.574  26.532  32.033  1.00  0.00     0.012 A 
ATOM     64  C   UNL A   1      47.388  24.955  33.463  1.00  0.00     0.148 A 
ATOM     65  C   UNL A   1      49.793  26.037  32.494  1.00  0.00     0.002 A 
ATOM     66  C   UNL A   1      48.605  24.493  33.945  1.00  0.00     0.091 A 
ATOM     67  F   UNL A   1      46.219  24.460  33.894  1.00  0.00    -0.205 F 
ATOM     68  C   UNL A   1      49.808  25.030  33.457  1.00  0.00     0.022 A 
BRANCH  66  69
ATOM     69  S   UNL A   1      48.725  23.253  35.238  1.00  0.00     0.127 S 
ATOM     70  O   UNL A   1      50.124  22.842  35.125  1.00  0.00    -0.237 OA
ATOM     71  O   UNL A   1      48.410  24.027  36.437  1.00  0.00    -0.237 OA
ATOM     72  O   UNL A   1      47.749  22.224  34.904  1.00  0.00    -0.744 OA
ENDBRANCH  66  69
ENDBRANCH  39  62
ENDBRANCH  13  14
ENDBRANCH   6   8
ENDBRANCH   3   4
ENDBRANCH   2   3
ENDBRANCH   1   2
BRANCH   1  73
ATOM     73  C   UNL A   1      33.463  27.092  25.798  1.00  0.00     0.002 C 
BRANCH  73  74
ATOM     74  C   UNL A   1      34.006  26.618  24.449  1.00  0.00     0.021 C 
BRANCH  74  75
ATOM     75  C   UNL A   1      34.366  25.138  24.379  1.00  0.00     0.116 C 
BRANCH  75  76
ATOM     76  N   UNL A   1      35.556  24.803  25.146  1.00  0.00    -0.352 N 
ATOM     77  C   UNL A   1      35.951  23.603  25.674  1.00  0.00     0.256 C 
ATOM     78  H   UNL A   1      36.171  25.554  25.312  1.00  0.00     0.163 HD
ATOM     79  O   UNL A   1      37.006  23.530  26.296  1.00  0.00    -0.269 OA
BRANCH  77  80
ATOM     80  C   UNL A   1      35.084  22.423  25.473  1.00  0.00     0.104 A 
ATOM     81  C   UNL A   1      33.753  22.525  25.619  1.00  0.00     0.104 A 
ATOM     82  C   UNL A   1      35.632  21.105  25.092  1.00  0.00     0.202 A 
ATOM     83  N   UNL A   1      32.839  21.477  25.610  1.00  0.00    -0.342 N 
ATOM     84  C   UNL A   1      34.671  19.983  24.973  1.00  0.00     0.050 A 
ATOM     85  O   UNL A   1      36.831  20.902  24.936  1.00  0.00    -0.288 OA
ATOM     86  C   UNL A   1      33.328  20.170  25.378  1.00  0.00     0.055 A 
ATOM     87  C   UNL A   1      35.140  18.744  24.508  1.00  0.00     0.056 A 
ATOM     88  C   UNL A   1      32.555  19.013  25.512  1.00  0.00     0.069 A 
ATOM     89  C   UNL A   1      34.278  17.661  24.494  1.00  0.00     0.159 A 
ATOM     90  C   UNL A   1      33.007  17.785  25.029  1.00  0.00     0.160 A 
ATOM     91  F   UNL A   1      34.689  16.490  23.991  1.00  0.00    -0.204 F 
ATOM     92  F   UNL A   1      32.183  16.729  25.065  1.00  0.00    -0.204 F 
BRANCH  83  93
ATOM     93  C   UNL A   1      31.379  21.731  25.744  1.00  0.00     0.157 C 
BRANCH  93  94
ATOM     94  C   UNL A   1      30.952  23.046  25.114  1.00  0.00    -0.028 A 
ATOM     95  C   UNL A   1      30.949  23.214  23.725  1.00  0.00     0.008 A 
ATOM     96  C   UNL A   1      30.565  24.141  25.894  1.00  0.00     0.008 A 
ATOM     97  C   UNL A   1      30.675  24.448  23.135  1.00  0.00     0.027 A 
ATOM     98  C   UNL A   1      30.277  25.381  25.298  1.00  0.00     0.027 A 
ATOM     99  C   UNL A   1      30.366  25.562  23.912  1.00  0.00     0.044 A 
BRANCH  99 100
ATOM    100  N   UNL A   1      30.187  26.827  23.300  1.00  0.00    -0.312 N 
ATOM    101  C   UNL A   1      31.227  27.503  22.560  1.00  0.00     0.126 C 
ATOM    102  C   UNL A   1      29.002  27.572  23.299  1.00  0.00     0.227 C 
ATOM    103  C   UNL A   1      30.786  28.949  22.538  1.00  0.00     0.032 C 
ATOM    104  C   UNL A   1      29.273  28.864  22.565  1.00  0.00     0.102 C 
ATOM    105  O   UNL A   1      27.915  27.296  23.788  1.00  0.00    -0.275 OA
ENDBRANCH  99 100
ENDBRANCH  93  94
ENDBRANCH  83  93
ENDBRANCH  77  80
ENDBRANCH  75  76
ENDBRANCH  74  75
ENDBRANCH  73  74
ENDBRANCH   1  73
TORSDOF 19
ENDMDL
