MODEL 1
REMARK VINA RESULT:     -11.4      0.000      0.000
REMARK SMILES CC/C(C(=O)NCCCCCCNC(=O)c1ccc(-c2c3nc(c(-c4cccc(S(=O)(=O)[O-])c4F)c4ccc([nH]4)c(-c4cccc(S(=O)(=O)[O-])c4F)c4nc(c(-c5cccc(S(=O)(=O)[O-])c5F)c5ccc2[nH]5)C=C4)C=C3)cc1)=C1\CCc2ccccc21
REMARK SMILES IDX 10 1 9 2 8 3 7 4 6 5 4 6 5 7 3 9 79 10 80 11 87 12 81 13
REMARK SMILES IDX 82 14 86 15 83 16 85 17 84 18 2 19 1 20 11 21 12 22 13 23
REMARK SMILES IDX 14 24 15 26 16 27 17 28 78 29 18 30 77 31 19 32 20 33 21 34
REMARK SMILES IDX 71 35 22 36 76 37 70 38 72 39 23 40 75 41 69 42 68 43 24 45
REMARK SMILES IDX 56 46 36 47 55 48 37 49 40 50 54 51 73 52 38 53 39 54 53 56
REMARK SMILES IDX 74 57 41 58 25 59 26 60 34 61 27 62 29 63 35 64 28 65 30 66
REMARK SMILES IDX 31 67 32 68 33 69 57 70 58 71 66 72 59 73 61 74 67 75 60 76
REMARK SMILES IDX 62 77 63 78 64 79 65 80 42 81 43 82 51 83 44 84 46 85 52 86
REMARK SMILES IDX 45 87 47 88 48 89 49 90 50 91
REMARK H PARENT 6 8 13 25 72 44 40 55
REMARK Flexibility Score: inf
ROOT
ATOM      1  C   UNL A   1      35.519  23.297  23.528  1.00  0.00     0.002 C 
ENDROOT
BRANCH   1   2
ATOM      2  C   UNL A   1      35.050  24.348  24.538  1.00  0.00     0.002 C 
BRANCH   2   3
ATOM      3  C   UNL A   1      34.164  25.461  23.974  1.00  0.00     0.021 C 
BRANCH   3   4
ATOM      4  C   UNL A   1      33.387  25.138  22.678  1.00  0.00     0.116 C 
BRANCH   4   5
ATOM      5  N   UNL A   1      31.968  25.392  22.900  1.00  0.00    -0.352 N 
ATOM      6  C   UNL A   1      31.016  24.786  23.659  1.00  0.00     0.247 C 
ATOM      7  O   UNL A   1      29.888  24.733  23.153  1.00  0.00    -0.270 OA
ATOM      8  H   UNL A   1      31.628  26.165  22.394  1.00  0.00     0.163 HD
BRANCH   6   9
ATOM      9  C   UNL A   1      31.151  24.466  25.128  1.00  0.00     0.020 C 
ATOM     10  C   UNL A   1      31.664  23.373  25.744  1.00  0.00    -0.031 C 
ATOM     11  C   UNL A   1      31.788  23.190  27.260  1.00  0.00     0.041 C 
ATOM     12  C   UNL A   1      32.282  22.142  25.237  1.00  0.00    -0.019 A 
ATOM     13  C   UNL A   1      33.083  22.403  27.477  1.00  0.00     0.041 C 
ATOM     14  C   UNL A   1      33.171  21.644  26.197  1.00  0.00    -0.040 A 
ATOM     15  C   UNL A   1      32.049  21.407  24.093  1.00  0.00     0.009 A 
ATOM     16  C   UNL A   1      33.992  20.553  25.947  1.00  0.00     0.004 A 
ATOM     17  C   UNL A   1      32.852  20.288  23.831  1.00  0.00     0.001 A 
ATOM     18  C   UNL A   1      33.847  19.890  24.732  1.00  0.00     0.000 A 
BRANCH   9  19
ATOM     19  C   UNL A   1      30.415  25.530  25.965  1.00  0.00     0.038 C 
ATOM     20  C   UNL A   1      31.099  26.887  26.117  1.00  0.00     0.009 C 
ENDBRANCH   9  19
ENDBRANCH   6   9
ENDBRANCH   4   5
ENDBRANCH   3   4
ENDBRANCH   2   3
ENDBRANCH   1   2
BRANCH   1  21
ATOM     21  C   UNL A   1      36.596  22.312  24.004  1.00  0.00     0.021 C 
BRANCH  21  22
ATOM     22  C   UNL A   1      37.079  22.472  25.448  1.00  0.00     0.116 C 
BRANCH  22  23
ATOM     23  N   UNL A   1      38.023  21.440  25.838  1.00  0.00    -0.352 N 
ATOM     24  C   UNL A   1      39.300  21.523  26.335  1.00  0.00     0.251 C 
ATOM     25  H   UNL A   1      37.689  20.521  25.726  1.00  0.00     0.163 HD
ATOM     26  O   UNL A   1      39.975  20.497  26.395  1.00  0.00    -0.269 OA
BRANCH  24  27
ATOM     27  C   UNL A   1      39.886  22.806  26.796  1.00  0.00     0.039 A 
ATOM     28  C   UNL A   1      39.561  23.971  26.092  1.00  0.00     0.014 A 
ATOM     29  C   UNL A   1      40.815  22.873  27.839  1.00  0.00     0.014 A 
ATOM     30  C   UNL A   1      40.131  25.195  26.453  1.00  0.00     0.010 A 
ATOM     31  C   UNL A   1      41.339  24.108  28.238  1.00  0.00     0.010 A 
ATOM     32  C   UNL A   1      41.012  25.282  27.543  1.00  0.00    -0.014 A 
BRANCH  32  33
ATOM     33  C   UNL A   1      41.562  26.602  27.960  1.00  0.00     0.031 A 
ATOM     34  C   UNL A   1      42.992  26.982  27.676  1.00  0.00     0.074 A 
ATOM     35  C   UNL A   1      40.771  27.462  28.634  1.00  0.00     0.049 A 
ATOM     36  N   UNL A   1      43.606  28.115  27.911  1.00  0.00    -0.248 NA
ATOM     37  C   UNL A   1      43.853  25.954  27.070  1.00  0.00     0.031 C 
ATOM     38  C   UNL A   1      39.396  27.186  29.054  1.00  0.00     0.029 A 
ATOM     39  N   UNL A   1      41.010  28.734  29.092  1.00  0.00    -0.354 N 
ATOM     40  C   UNL A   1      44.923  27.932  27.506  1.00  0.00     0.074 A 
ATOM     41  C   UNL A   1      45.029  26.566  27.040  1.00  0.00     0.031 C 
ATOM     42  C   UNL A   1      38.909  28.260  29.695  1.00  0.00     0.029 A 
ATOM     43  C   UNL A   1      39.937  29.296  29.743  1.00  0.00     0.049 A 
ATOM     44  H   UNL A   1      41.868  29.199  28.966  1.00  0.00     0.167 HD
ATOM     45  C   UNL A   1      45.943  28.825  27.492  1.00  0.00     0.034 A 
ATOM     46  C   UNL A   1      39.788  30.511  30.306  1.00  0.00     0.034 A 
ATOM     47  C   UNL A   1      45.829  30.196  27.919  1.00  0.00     0.049 A 
ATOM     48  C   UNL A   1      40.914  31.504  30.219  1.00  0.00     0.074 A 
ATOM     49  C   UNL A   1      46.779  31.201  27.852  1.00  0.00     0.029 A 
ATOM     50  N   UNL A   1      44.701  30.753  28.499  1.00  0.00    -0.354 N 
ATOM     51  N   UNL A   1      42.093  31.369  29.661  1.00  0.00    -0.248 NA
ATOM     52  C   UNL A   1      40.674  32.833  30.800  1.00  0.00     0.031 C 
ATOM     53  C   UNL A   1      46.231  32.361  28.412  1.00  0.00     0.029 A 
ATOM     54  C   UNL A   1      44.932  32.084  28.808  1.00  0.00     0.049 A 
ATOM     55  H   UNL A   1      43.857  30.274  28.668  1.00  0.00     0.167 HD
ATOM     56  C   UNL A   1      42.724  32.599  29.802  1.00  0.00     0.074 A 
ATOM     57  C   UNL A   1      41.783  33.478  30.465  1.00  0.00     0.031 C 
ATOM     58  C   UNL A   1      43.978  32.963  29.433  1.00  0.00     0.034 A 
BRANCH  45  59
ATOM     59  C   UNL A   1      47.268  28.366  26.935  1.00  0.00     0.023 A 
ATOM     60  C   UNL A   1      48.340  28.119  27.817  1.00  0.00     0.012 A 
ATOM     61  C   UNL A   1      47.436  28.112  25.560  1.00  0.00     0.148 A 
ATOM     62  C   UNL A   1      49.567  27.660  27.338  1.00  0.00     0.002 A 
ATOM     63  C   UNL A   1      48.650  27.615  25.094  1.00  0.00     0.091 A 
ATOM     64  F   UNL A   1      46.414  28.368  24.731  1.00  0.00    -0.205 F 
ATOM     65  C   UNL A   1      49.718  27.399  25.980  1.00  0.00     0.022 A 
BRANCH  63  66
ATOM     66  S   UNL A   1      48.917  27.171  23.373  1.00  0.00     0.127 S 
ATOM     67  O   UNL A   1      48.154  25.925  23.270  1.00  0.00    -0.237 OA
ATOM     68  O   UNL A   1      48.317  28.307  22.666  1.00  0.00    -0.237 OA
ATOM     69  O   UNL A   1      50.352  27.043  23.207  1.00  0.00    -0.744 OA
ENDBRANCH  63  66
ENDBRANCH  45  59
BRANCH  46  70
ATOM     70  C   UNL A   1      38.486  30.883  30.931  1.00  0.00     0.023 A 
ATOM     71  C   UNL A   1      38.280  30.629  32.301  1.00  0.00     0.012 A 
ATOM     72  C   UNL A   1      37.471  31.517  30.189  1.00  0.00     0.148 A 
ATOM     73  C   UNL A   1      37.074  30.974  32.914  1.00  0.00     0.002 A 
ATOM     74  C   UNL A   1      36.297  31.909  30.819  1.00  0.00     0.091 A 
ATOM     75  F   UNL A   1      37.681  31.736  28.884  1.00  0.00    -0.205 F 
ATOM     76  C   UNL A   1      36.089  31.623  32.177  1.00  0.00     0.022 A 
BRANCH  74  77
ATOM     77  S   UNL A   1      35.036  32.875  29.979  1.00  0.00     0.127 S 
ATOM     78  O   UNL A   1      34.491  31.902  29.035  1.00  0.00    -0.237 OA
ATOM     79  O   UNL A   1      34.142  33.234  31.080  1.00  0.00    -0.237 OA
ATOM     80  O   UNL A   1      35.741  34.006  29.389  1.00  0.00    -0.744 OA
ENDBRANCH  74  77
ENDBRANCH  46  70
BRANCH  58  81
ATOM     81  C   UNL A   1      44.405  34.377  29.734  1.00  0.00     0.023 A 
ATOM     82  C   UNL A   1      45.027  34.669  30.965  1.00  0.00     0.012 A 
ATOM     83  C   UNL A   1      44.231  35.408  28.789  1.00  0.00     0.148 A 
ATOM     84  C   UNL A   1      45.430  35.970  31.268  1.00  0.00     0.002 A 
ATOM     85  C   UNL A   1      44.678  36.692  29.079  1.00  0.00     0.091 A 
ATOM     86  F   UNL A   1      43.618  35.119  27.632  1.00  0.00    -0.205 F 
ATOM     87  C   UNL A   1      45.264  36.978  30.322  1.00  0.00     0.022 A 
BRANCH  85  88
ATOM     88  S   UNL A   1      44.586  38.029  27.881  1.00  0.00     0.127 S 
ATOM     89  O   UNL A   1      45.406  37.510  26.790  1.00  0.00    -0.237 OA
ATOM     90  O   UNL A   1      43.152  38.092  27.590  1.00  0.00    -0.237 OA
ATOM     91  O   UNL A   1      45.111  39.205  28.562  1.00  0.00    -0.744 OA
ENDBRANCH  85  88
ENDBRANCH  58  81
ENDBRANCH  32  33
ENDBRANCH  24  27
ENDBRANCH  22  23
ENDBRANCH  21  22
ENDBRANCH   1  21
TORSDOF 17
ENDMDL
MODEL 2
REMARK VINA RESULT:     -11.2      4.943      9.819
REMARK SMILES CC/C(C(=O)NCCCCCCNC(=O)c1ccc(-c2c3nc(c(-c4cccc(S(=O)(=O)[O-])c4F)c4ccc([nH]4)c(-c4cccc(S(=O)(=O)[O-])c4F)c4nc(c(-c5cccc(S(=O)(=O)[O-])c5F)c5ccc2[nH]5)C=C4)C=C3)cc1)=C1\CCc2ccccc21
REMARK SMILES IDX 10 1 9 2 8 3 7 4 6 5 4 6 5 7 3 9 79 10 80 11 87 12 81 13
REMARK SMILES IDX 82 14 86 15 83 16 85 17 84 18 2 19 1 20 11 21 12 22 13 23
REMARK SMILES IDX 14 24 15 26 16 27 17 28 78 29 18 30 77 31 19 32 20 33 21 34
REMARK SMILES IDX 71 35 22 36 76 37 70 38 72 39 23 40 75 41 69 42 68 43 24 45
REMARK SMILES IDX 56 46 36 47 55 48 37 49 40 50 54 51 73 52 38 53 39 54 53 56
REMARK SMILES IDX 74 57 41 58 25 59 26 60 34 61 27 62 29 63 35 64 28 65 30 66
REMARK SMILES IDX 31 67 32 68 33 69 57 70 58 71 66 72 59 73 61 74 67 75 60 76
REMARK SMILES IDX 62 77 63 78 64 79 65 80 42 81 43 82 51 83 44 84 46 85 52 86
REMARK SMILES IDX 45 87 47 88 48 89 49 90 50 91
REMARK H PARENT 6 8 13 25 72 44 40 55
REMARK Flexibility Score: inf
ROOT
ATOM      1  C   UNL A   1      30.828  27.949  24.401  1.00  0.00     0.002 C 
ENDROOT
BRANCH   1   2
ATOM      2  C   UNL A   1      30.125  26.589  24.393  1.00  0.00     0.002 C 
BRANCH   2   3
ATOM      3  C   UNL A   1      30.585  25.612  23.309  1.00  0.00     0.021 C 
BRANCH   3   4
ATOM      4  C   UNL A   1      30.900  24.169  23.766  1.00  0.00     0.116 C 
BRANCH   4   5
ATOM      5  N   UNL A   1      31.781  23.543  22.786  1.00  0.00    -0.352 N 
ATOM      6  C   UNL A   1      33.130  23.525  22.618  1.00  0.00     0.247 C 
ATOM      7  O   UNL A   1      33.519  23.554  21.443  1.00  0.00    -0.270 OA
ATOM      8  H   UNL A   1      31.297  23.024  22.104  1.00  0.00     0.163 HD
BRANCH   6   9
ATOM      9  C   UNL A   1      34.135  23.177  23.689  1.00  0.00     0.020 C 
ATOM     10  C   UNL A   1      34.357  22.006  24.335  1.00  0.00    -0.031 C 
ATOM     11  C   UNL A   1      35.452  21.767  25.380  1.00  0.00     0.041 C 
ATOM     12  C   UNL A   1      33.747  20.675  24.224  1.00  0.00    -0.019 A 
ATOM     13  C   UNL A   1      35.918  20.324  25.170  1.00  0.00     0.041 C 
ATOM     14  C   UNL A   1      34.682  19.706  24.610  1.00  0.00    -0.040 A 
ATOM     15  C   UNL A   1      32.458  20.284  23.926  1.00  0.00     0.009 A 
ATOM     16  C   UNL A   1      34.425  18.347  24.493  1.00  0.00     0.004 A 
ATOM     17  C   UNL A   1      32.172  18.915  23.824  1.00  0.00     0.001 A 
ATOM     18  C   UNL A   1      33.162  17.953  24.064  1.00  0.00     0.000 A 
BRANCH   9  19
ATOM     19  C   UNL A   1      34.853  24.453  24.170  1.00  0.00     0.038 C 
ATOM     20  C   UNL A   1      33.983  25.685  24.415  1.00  0.00     0.009 C 
ENDBRANCH   9  19
ENDBRANCH   6   9
ENDBRANCH   4   5
ENDBRANCH   3   4
ENDBRANCH   2   3
ENDBRANCH   1   2
BRANCH   1  21
ATOM     21  C   UNL A   1      31.719  28.260  25.613  1.00  0.00     0.021 C 
BRANCH  21  22
ATOM     22  C   UNL A   1      32.804  29.320  25.409  1.00  0.00     0.116 C 
BRANCH  22  23
ATOM     23  N   UNL A   1      32.385  30.639  25.851  1.00  0.00    -0.352 N 
ATOM     24  C   UNL A   1      32.862  31.452  26.848  1.00  0.00     0.251 C 
ATOM     25  H   UNL A   1      31.627  31.014  25.348  1.00  0.00     0.163 HD
ATOM     26  O   UNL A   1      32.204  32.442  27.165  1.00  0.00    -0.269 OA
BRANCH  24  27
ATOM     27  C   UNL A   1      34.138  31.173  27.552  1.00  0.00     0.039 A 
ATOM     28  C   UNL A   1      34.338  29.891  28.073  1.00  0.00     0.014 A 
ATOM     29  C   UNL A   1      35.095  32.165  27.790  1.00  0.00     0.014 A 
ATOM     30  C   UNL A   1      35.499  29.594  28.793  1.00  0.00     0.010 A 
ATOM     31  C   UNL A   1      36.284  31.853  28.458  1.00  0.00     0.010 A 
ATOM     32  C   UNL A   1      36.496  30.566  28.977  1.00  0.00    -0.014 A 
BRANCH  32  33
ATOM     33  C   UNL A   1      37.759  30.221  29.688  1.00  0.00     0.031 A 
ATOM     34  C   UNL A   1      38.056  30.757  31.065  1.00  0.00     0.074 A 
ATOM     35  C   UNL A   1      38.668  29.438  29.073  1.00  0.00     0.049 A 
ATOM     36  N   UNL A   1      39.075  30.499  31.846  1.00  0.00    -0.248 NA
ATOM     37  C   UNL A   1      37.101  31.722  31.631  1.00  0.00     0.031 C 
ATOM     38  C   UNL A   1      38.549  28.926  27.707  1.00  0.00     0.029 A 
ATOM     39  N   UNL A   1      39.872  28.945  29.509  1.00  0.00    -0.354 N 
ATOM     40  C   UNL A   1      38.899  31.282  32.981  1.00  0.00     0.074 A 
ATOM     41  C   UNL A   1      37.691  32.052  32.772  1.00  0.00     0.031 C 
ATOM     42  C   UNL A   1      39.628  28.179  27.421  1.00  0.00     0.029 A 
ATOM     43  C   UNL A   1      40.521  28.169  28.576  1.00  0.00     0.049 A 
ATOM     44  H   UNL A   1      40.238  29.129  30.404  1.00  0.00     0.167 HD
ATOM     45  C   UNL A   1      39.653  31.335  34.107  1.00  0.00     0.034 A 
ATOM     46  C   UNL A   1      41.696  27.513  28.642  1.00  0.00     0.034 A 
ATOM     47  C   UNL A   1      40.833  30.542  34.332  1.00  0.00     0.049 A 
ATOM     48  C   UNL A   1      42.480  27.537  29.926  1.00  0.00     0.074 A 
ATOM     49  C   UNL A   1      41.608  30.455  35.476  1.00  0.00     0.029 A 
ATOM     50  N   UNL A   1      41.416  29.705  33.394  1.00  0.00    -0.354 N 
ATOM     51  N   UNL A   1      42.195  28.138  31.056  1.00  0.00    -0.248 NA
ATOM     52  C   UNL A   1      43.724  26.755  29.958  1.00  0.00     0.031 C 
ATOM     53  C   UNL A   1      42.671  29.581  35.222  1.00  0.00     0.029 A 
ATOM     54  C   UNL A   1      42.547  29.107  33.926  1.00  0.00     0.049 A 
ATOM     55  H   UNL A   1      41.076  29.557  32.481  1.00  0.00     0.167 HD
ATOM     56  C   UNL A   1      43.210  27.788  31.939  1.00  0.00     0.074 A 
ATOM     57  C   UNL A   1      44.097  26.893  31.223  1.00  0.00     0.031 C 
ATOM     58  C   UNL A   1      43.403  28.188  33.221  1.00  0.00     0.034 A 
BRANCH  45  59
ATOM     59  C   UNL A   1      39.187  32.241  35.220  1.00  0.00     0.023 A 
ATOM     60  C   UNL A   1      38.243  31.763  36.152  1.00  0.00     0.012 A 
ATOM     61  C   UNL A   1      39.729  33.531  35.389  1.00  0.00     0.148 A 
ATOM     62  C   UNL A   1      37.820  32.564  37.212  1.00  0.00     0.002 A 
ATOM     63  C   UNL A   1      39.333  34.308  36.474  1.00  0.00     0.091 A 
ATOM     64  F   UNL A   1      40.612  33.978  34.486  1.00  0.00    -0.205 F 
ATOM     65  C   UNL A   1      38.372  33.830  37.378  1.00  0.00     0.022 A 
BRANCH  63  66
ATOM     66  S   UNL A   1      40.045  35.922  36.818  1.00  0.00     0.127 S 
ATOM     67  O   UNL A   1      41.457  35.584  37.008  1.00  0.00    -0.237 OA
ATOM     68  O   UNL A   1      39.759  36.655  35.580  1.00  0.00    -0.237 OA
ATOM     69  O   UNL A   1      39.358  36.424  37.992  1.00  0.00    -0.744 OA
ENDBRANCH  63  66
ENDBRANCH  45  59
BRANCH  46  70
ATOM     70  C   UNL A   1      42.160  26.707  27.477  1.00  0.00     0.023 A 
ATOM     71  C   UNL A   1      42.903  27.331  26.456  1.00  0.00     0.012 A 
ATOM     72  C   UNL A   1      41.903  25.325  27.393  1.00  0.00     0.148 A 
ATOM     73  C   UNL A   1      43.357  26.600  25.358  1.00  0.00     0.002 A 
ATOM     74  C   UNL A   1      42.407  24.592  26.325  1.00  0.00     0.091 A 
ATOM     75  F   UNL A   1      41.181  24.752  28.365  1.00  0.00    -0.205 F 
ATOM     76  C   UNL A   1      43.120  25.230  25.298  1.00  0.00     0.022 A 
BRANCH  74  77
ATOM     77  S   UNL A   1      42.269  22.803  26.242  1.00  0.00     0.127 S 
ATOM     78  O   UNL A   1      43.077  22.386  27.384  1.00  0.00    -0.237 OA
ATOM     79  O   UNL A   1      40.828  22.600  26.399  1.00  0.00    -0.237 OA
ATOM     80  O   UNL A   1      42.784  22.433  24.930  1.00  0.00    -0.744 OA
ENDBRANCH  74  77
ENDBRANCH  46  70
BRANCH  58  81
ATOM     81  C   UNL A   1      44.618  27.656  33.937  1.00  0.00     0.023 A 
ATOM     82  C   UNL A   1      45.820  28.391  33.909  1.00  0.00     0.012 A 
ATOM     83  C   UNL A   1      44.563  26.454  34.670  1.00  0.00     0.148 A 
ATOM     84  C   UNL A   1      46.959  27.919  34.563  1.00  0.00     0.002 A 
ATOM     85  C   UNL A   1      45.688  26.013  35.358  1.00  0.00     0.091 A 
ATOM     86  F   UNL A   1      43.419  25.754  34.669  1.00  0.00    -0.205 F 
ATOM     87  C   UNL A   1      46.889  26.737  35.294  1.00  0.00     0.022 A 
BRANCH  85  88
ATOM     88  S   UNL A   1      45.660  24.548  36.399  1.00  0.00     0.127 S 
ATOM     89  O   UNL A   1      45.286  23.509  35.442  1.00  0.00    -0.237 OA
ATOM     90  O   UNL A   1      47.044  24.472  36.872  1.00  0.00    -0.237 OA
ATOM     91  O   UNL A   1      44.683  24.825  37.444  1.00  0.00    -0.744 OA
ENDBRANCH  85  88
ENDBRANCH  58  81
ENDBRANCH  32  33
ENDBRANCH  24  27
ENDBRANCH  22  23
ENDBRANCH  21  22
ENDBRANCH   1  21
TORSDOF 17
ENDMDL
MODEL 3
REMARK VINA RESULT:     -11.1      5.061     10.070
REMARK SMILES CC/C(C(=O)NCCCCCCNC(=O)c1ccc(-c2c3nc(c(-c4cccc(S(=O)(=O)[O-])c4F)c4ccc([nH]4)c(-c4cccc(S(=O)(=O)[O-])c4F)c4nc(c(-c5cccc(S(=O)(=O)[O-])c5F)c5ccc2[nH]5)C=C4)C=C3)cc1)=C1\CCc2ccccc21
REMARK SMILES IDX 10 1 9 2 8 3 7 4 6 5 4 6 5 7 3 9 79 10 80 11 87 12 81 13
REMARK SMILES IDX 82 14 86 15 83 16 85 17 84 18 2 19 1 20 11 21 12 22 13 23
REMARK SMILES IDX 14 24 15 26 16 27 17 28 78 29 18 30 77 31 19 32 20 33 21 34
REMARK SMILES IDX 71 35 22 36 76 37 70 38 72 39 23 40 75 41 69 42 68 43 24 45
REMARK SMILES IDX 56 46 36 47 55 48 37 49 40 50 54 51 73 52 38 53 39 54 53 56
REMARK SMILES IDX 74 57 41 58 25 59 26 60 34 61 27 62 29 63 35 64 28 65 30 66
REMARK SMILES IDX 31 67 32 68 33 69 57 70 58 71 66 72 59 73 61 74 67 75 60 76
REMARK SMILES IDX 62 77 63 78 64 79 65 80 42 81 43 82 51 83 44 84 46 85 52 86
REMARK SMILES IDX 45 87 47 88 48 89 49 90 50 91
REMARK H PARENT 6 8 13 25 72 44 40 55
REMARK Flexibility Score: inf
ROOT
ATOM      1  C   UNL A   1      33.915  28.343  25.991  1.00  0.00     0.002 C 
ENDROOT
BRANCH   1   2
ATOM      2  C   UNL A   1      33.523  27.244  25.001  1.00  0.00     0.002 C 
BRANCH   2   3
ATOM      3  C   UNL A   1      32.860  27.724  23.707  1.00  0.00     0.021 C 
BRANCH   3   4
ATOM      4  C   UNL A   1      33.655  27.504  22.400  1.00  0.00     0.116 C 
BRANCH   4   5
ATOM      5  N   UNL A   1      33.021  26.438  21.632  1.00  0.00    -0.352 N 
ATOM      6  C   UNL A   1      32.902  25.096  21.816  1.00  0.00     0.247 C 
ATOM      7  O   UNL A   1      32.971  24.411  20.788  1.00  0.00    -0.270 OA
ATOM      8  H   UNL A   1      32.588  26.758  20.808  1.00  0.00     0.163 HD
BRANCH   6   9
ATOM      9  C   UNL A   1      32.404  24.434  23.078  1.00  0.00     0.020 C 
ATOM     10  C   UNL A   1      33.086  23.804  24.065  1.00  0.00    -0.031 C 
ATOM     11  C   UNL A   1      32.461  23.209  25.332  1.00  0.00     0.041 C 
ATOM     12  C   UNL A   1      34.516  23.557  24.287  1.00  0.00    -0.019 A 
ATOM     13  C   UNL A   1      33.488  23.434  26.445  1.00  0.00     0.041 C 
ATOM     14  C   UNL A   1      34.757  23.444  25.662  1.00  0.00    -0.040 A 
ATOM     15  C   UNL A   1      35.551  23.327  23.404  1.00  0.00     0.009 A 
ATOM     16  C   UNL A   1      36.039  23.329  26.180  1.00  0.00     0.004 A 
ATOM     17  C   UNL A   1      36.853  23.186  23.907  1.00  0.00     0.001 A 
ATOM     18  C   UNL A   1      37.100  23.231  25.285  1.00  0.00     0.000 A 
BRANCH   9  19
ATOM     19  C   UNL A   1      30.864  24.372  23.065  1.00  0.00     0.038 C 
ATOM     20  C   UNL A   1      30.119  25.531  23.725  1.00  0.00     0.009 C 
ENDBRANCH   9  19
ENDBRANCH   6   9
ENDBRANCH   4   5
ENDBRANCH   3   4
ENDBRANCH   2   3
ENDBRANCH   1   2
BRANCH   1  21
ATOM     21  C   UNL A   1      33.256  29.717  25.798  1.00  0.00     0.021 C 
BRANCH  21  22
ATOM     22  C   UNL A   1      32.652  30.367  27.045  1.00  0.00     0.116 C 
BRANCH  22  23
ATOM     23  N   UNL A   1      32.853  31.805  27.077  1.00  0.00    -0.352 N 
ATOM     24  C   UNL A   1      33.796  32.572  27.715  1.00  0.00     0.251 C 
ATOM     25  H   UNL A   1      32.200  32.319  26.550  1.00  0.00     0.163 HD
ATOM     26  O   UNL A   1      33.633  33.791  27.756  1.00  0.00    -0.269 OA
BRANCH  24  27
ATOM     27  C   UNL A   1      34.995  31.978  28.355  1.00  0.00     0.039 A 
ATOM     28  C   UNL A   1      36.173  32.733  28.379  1.00  0.00     0.014 A 
ATOM     29  C   UNL A   1      35.012  30.668  28.845  1.00  0.00     0.014 A 
ATOM     30  C   UNL A   1      37.345  32.196  28.920  1.00  0.00     0.010 A 
ATOM     31  C   UNL A   1      36.169  30.153  29.441  1.00  0.00     0.010 A 
ATOM     32  C   UNL A   1      37.352  30.907  29.476  1.00  0.00    -0.014 A 
BRANCH  32  33
ATOM     33  C   UNL A   1      38.589  30.370  30.110  1.00  0.00     0.031 A 
ATOM     34  C   UNL A   1      39.022  30.810  31.484  1.00  0.00     0.074 A 
ATOM     35  C   UNL A   1      39.353  29.495  29.424  1.00  0.00     0.049 A 
ATOM     36  N   UNL A   1      40.033  30.390  32.203  1.00  0.00    -0.248 NA
ATOM     37  C   UNL A   1      38.235  31.873  32.128  1.00  0.00     0.031 C 
ATOM     38  C   UNL A   1      39.100  29.053  28.051  1.00  0.00     0.029 A 
ATOM     39  N   UNL A   1      40.499  28.829  29.781  1.00  0.00    -0.354 N 
ATOM     40  C   UNL A   1      40.019  31.147  33.368  1.00  0.00     0.074 A 
ATOM     41  C   UNL A   1      38.918  32.078  33.246  1.00  0.00     0.031 C 
ATOM     42  C   UNL A   1      40.052  28.180  27.688  1.00  0.00     0.029 A 
ATOM     43  C   UNL A   1      40.991  28.008  28.793  1.00  0.00     0.049 A 
ATOM     44  H   UNL A   1      40.928  28.929  30.661  1.00  0.00     0.167 HD
ATOM     45  C   UNL A   1      40.826  31.057  34.454  1.00  0.00     0.034 A 
ATOM     46  C   UNL A   1      42.068  27.198  28.778  1.00  0.00     0.034 A 
ATOM     47  C   UNL A   1      41.898  30.105  34.593  1.00  0.00     0.049 A 
ATOM     48  C   UNL A   1      42.908  27.069  30.019  1.00  0.00     0.074 A 
ATOM     49  C   UNL A   1      42.708  29.873  35.692  1.00  0.00     0.029 A 
ATOM     50  N   UNL A   1      42.316  29.233  33.601  1.00  0.00    -0.354 N 
ATOM     51  N   UNL A   1      42.762  27.662  31.179  1.00  0.00    -0.248 NA
ATOM     52  C   UNL A   1      44.035  26.127  29.962  1.00  0.00     0.031 C 
ATOM     53  C   UNL A   1      43.629  28.875  35.356  1.00  0.00     0.029 A 
ATOM     54  C   UNL A   1      43.380  28.469  34.055  1.00  0.00     0.049 A 
ATOM     55  H   UNL A   1      41.916  29.165  32.703  1.00  0.00     0.167 HD
ATOM     56  C   UNL A   1      43.762  27.147  31.997  1.00  0.00     0.074 A 
ATOM     57  C   UNL A   1      44.483  26.168  31.209  1.00  0.00     0.031 C 
ATOM     58  C   UNL A   1      44.068  27.470  33.279  1.00  0.00     0.034 A 
BRANCH  45  59
ATOM     59  C   UNL A   1      40.542  31.976  35.616  1.00  0.00     0.023 A 
ATOM     60  C   UNL A   1      41.378  33.090  35.836  1.00  0.00     0.012 A 
ATOM     61  C   UNL A   1      39.419  31.784  36.444  1.00  0.00     0.148 A 
ATOM     62  C   UNL A   1      41.121  33.979  36.881  1.00  0.00     0.002 A 
ATOM     63  C   UNL A   1      39.146  32.698  37.458  1.00  0.00     0.091 A 
ATOM     64  F   UNL A   1      38.644  30.711  36.234  1.00  0.00    -0.205 F 
ATOM     65  C   UNL A   1      40.001  33.788  37.683  1.00  0.00     0.022 A 
BRANCH  63  66
ATOM     66  S   UNL A   1      37.683  32.582  38.496  1.00  0.00     0.127 S 
ATOM     67  O   UNL A   1      37.680  31.157  38.839  1.00  0.00    -0.237 OA
ATOM     68  O   UNL A   1      38.024  33.472  39.610  1.00  0.00    -0.237 OA
ATOM     69  O   UNL A   1      36.572  33.031  37.679  1.00  0.00    -0.744 OA
ENDBRANCH  63  66
ENDBRANCH  45  59
BRANCH  46  70
ATOM     70  C   UNL A   1      42.361  26.380  27.567  1.00  0.00     0.023 A 
ATOM     71  C   UNL A   1      43.093  26.952  26.507  1.00  0.00     0.012 A 
ATOM     72  C   UNL A   1      41.955  25.035  27.473  1.00  0.00     0.148 A 
ATOM     73  C   UNL A   1      43.389  26.207  25.365  1.00  0.00     0.002 A 
ATOM     74  C   UNL A   1      42.302  24.284  26.358  1.00  0.00     0.091 A 
ATOM     75  F   UNL A   1      41.246  24.515  28.484  1.00  0.00    -0.205 F 
ATOM     76  C   UNL A   1      43.005  24.872  25.294  1.00  0.00     0.022 A 
BRANCH  74  77
ATOM     77  S   UNL A   1      41.970  22.521  26.249  1.00  0.00     0.127 S 
ATOM     78  O   UNL A   1      42.612  22.172  24.985  1.00  0.00    -0.237 OA
ATOM     79  O   UNL A   1      42.642  22.010  27.444  1.00  0.00    -0.237 OA
ATOM     80  O   UNL A   1      40.519  22.396  26.282  1.00  0.00    -0.744 OA
ENDBRANCH  74  77
ENDBRANCH  46  70
BRANCH  58  81
ATOM     81  C   UNL A   1      45.232  26.754  33.914  1.00  0.00     0.023 A 
ATOM     82  C   UNL A   1      46.528  27.297  33.803  1.00  0.00     0.012 A 
ATOM     83  C   UNL A   1      45.043  25.570  34.654  1.00  0.00     0.148 A 
ATOM     84  C   UNL A   1      47.623  26.653  34.380  1.00  0.00     0.002 A 
ATOM     85  C   UNL A   1      46.131  24.958  35.266  1.00  0.00     0.091 A 
ATOM     86  F   UNL A   1      43.808  25.053  34.732  1.00  0.00    -0.205 F 
ATOM     87  C   UNL A   1      47.422  25.490  35.119  1.00  0.00     0.022 A 
BRANCH  85  88
ATOM     88  S   UNL A   1      45.949  23.508  36.312  1.00  0.00     0.127 S 
ATOM     89  O   UNL A   1      45.196  24.047  37.442  1.00  0.00    -0.237 OA
ATOM     90  O   UNL A   1      45.191  22.595  35.454  1.00  0.00    -0.237 OA
ATOM     91  O   UNL A   1      47.304  23.064  36.611  1.00  0.00    -0.744 OA
ENDBRANCH  85  88
ENDBRANCH  58  81
ENDBRANCH  32  33
ENDBRANCH  24  27
ENDBRANCH  22  23
ENDBRANCH  21  22
ENDBRANCH   1  21
TORSDOF 17
ENDMDL
