MODEL 1
REMARK VINA RESULT:     -11.4      0.000      0.000
REMARK SMILES COc1ccc([C@H]2CC(c3ccc(S(C)(=O)=O)cc3)=NN2c2ccc(C(=O)NCCCCCCNC(=O)c3ccc(-c4c5nc(c(-c6cccc(S(=O)(=O)[O-])c6F)c6ccc([nH]6)c(-c6cccc(S(=O)(=O)[O-])c6F)c6nc(c(-c7cccc(S(=O)(=O)[O-])c7F)c7ccc4[nH]7)C=C6)C=C5)cc3)cc2)cc1
REMARK SMILES IDX 31 1 30 2 29 3 28 4 26 5 27 6 25 8 22 9 23 10 102 11 24 12
REMARK SMILES IDX 101 13 21 14 7 15 8 16 9 17 20 18 6 19 3 20 4 21 104 22 5 23
REMARK SMILES IDX 103 24 2 25 1 26 10 27 11 28 19 29 12 30 18 31 13 32 14 33
REMARK SMILES IDX 15 34 16 35 17 36 32 37 33 38 34 39 35 40 36 41 37 43 38 44
REMARK SMILES IDX 39 45 100 46 40 47 99 48 41 49 42 50 43 51 93 52 44 53 98 54
REMARK SMILES IDX 92 55 94 56 45 57 97 58 91 59 90 60 46 62 78 63 58 64 77 65
REMARK SMILES IDX 59 66 62 67 76 68 95 69 60 70 61 71 75 73 96 74 63 75 47 76
REMARK SMILES IDX 48 77 56 78 49 79 51 80 57 81 50 82 52 83 53 84 54 85 55 86
REMARK SMILES IDX 79 87 80 88 88 89 81 90 83 91 89 92 82 93 84 94 85 95 86 96
REMARK SMILES IDX 87 97 64 98 65 99 73 100 66 101 68 102 74 103 67 104 69 105
REMARK SMILES IDX 70 106 71 107 72 108
REMARK H PARENT 28 7 35 42 94 61 62 72
REMARK Flexibility Score: inf
ROOT
ATOM      1  C   UNL A   1      37.910  28.583  28.237  1.00  0.00     0.002 C 
ENDROOT
BRANCH   1   2
ATOM      2  C   UNL A   1      37.370  29.951  28.678  1.00  0.00     0.021 C 
BRANCH   2   3
ATOM      3  C   UNL A   1      35.961  29.873  29.270  1.00  0.00     0.116 C 
BRANCH   3   4
ATOM      4  N   UNL A   1      35.108  30.851  28.621  1.00  0.00    -0.352 N 
ATOM      5  C   UNL A   1      34.104  30.731  27.699  1.00  0.00     0.251 C 
ATOM      6  O   UNL A   1      33.592  31.773  27.282  1.00  0.00    -0.269 OA
ATOM      7  H   UNL A   1      35.287  31.779  28.897  1.00  0.00     0.163 HD
BRANCH   5   8
ATOM      8  C   UNL A   1      33.555  29.421  27.248  1.00  0.00     0.039 A 
ATOM      9  C   UNL A   1      32.609  27.038  26.071  1.00  0.00     0.060 A 
ATOM     10  C   UNL A   1      33.922  27.466  25.858  1.00  0.00     0.029 A 
ATOM     11  C   UNL A   1      31.812  27.757  26.962  1.00  0.00     0.029 A 
ATOM     12  C   UNL A   1      34.383  28.658  26.415  1.00  0.00     0.016 A 
ATOM     13  C   UNL A   1      32.299  28.913  27.582  1.00  0.00     0.016 A 
BRANCH   9  14
ATOM     14  N   UNL A   1      32.125  25.959  25.356  1.00  0.00    -0.257 N 
ATOM     15  C   UNL A   1      30.785  25.871  24.765  1.00  0.00     0.144 C 
ATOM     16  C   UNL A   1      30.910  24.583  23.936  1.00  0.00     0.091 C 
ATOM     17  C   UNL A   1      32.093  23.973  24.644  1.00  0.00     0.071 C 
ATOM     18  N   UNL A   1      32.789  24.783  25.378  1.00  0.00    -0.176 NA
BRANCH  15  19
ATOM     19  C   UNL A   1      30.422  27.128  23.993  1.00  0.00    -0.023 A 
ATOM     20  C   UNL A   1      29.731  29.227  22.226  1.00  0.00     0.118 A 
ATOM     21  C   UNL A   1      31.061  28.833  22.379  1.00  0.00     0.047 A 
ATOM     22  C   UNL A   1      28.747  28.596  22.985  1.00  0.00     0.047 A 
ATOM     23  C   UNL A   1      31.409  27.802  23.257  1.00  0.00     0.010 A 
ATOM     24  C   UNL A   1      29.091  27.563  23.868  1.00  0.00     0.010 A 
BRANCH  20  25
ATOM     25  O   UNL A   1      29.525  30.191  21.279  1.00  0.00    -0.497 OA
ATOM     26  C   UNL A   1      28.243  30.802  21.251  1.00  0.00     0.278 C 
ENDBRANCH  20  25
ENDBRANCH  15  19
BRANCH  17  27
ATOM     27  C   UNL A   1      32.451  22.557  24.527  1.00  0.00    -0.002 A 
ATOM     28  C   UNL A   1      32.145  21.906  23.324  1.00  0.00     0.011 A 
ATOM     29  C   UNL A   1      32.984  21.852  25.607  1.00  0.00     0.011 A 
ATOM     30  C   UNL A   1      32.369  20.537  23.195  1.00  0.00     0.021 A 
ATOM     31  C   UNL A   1      33.184  20.473  25.489  1.00  0.00     0.021 A 
ATOM     32  C   UNL A   1      32.865  19.823  24.289  1.00  0.00     0.067 A 
BRANCH  32  33
ATOM     33  S   UNL A   1      33.074  18.063  24.142  1.00  0.00     0.175 S 
ATOM     34  C   UNL A   1      32.610  17.702  22.468  1.00  0.00     0.163 C 
ATOM     35  O   UNL A   1      34.488  17.791  24.295  1.00  0.00    -0.224 OA
ATOM     36  O   UNL A   1      32.093  17.431  25.006  1.00  0.00    -0.224 OA
ENDBRANCH  32  33
ENDBRANCH  17  27
ENDBRANCH   9  14
ENDBRANCH   5   8
ENDBRANCH   3   4
ENDBRANCH   2   3
ENDBRANCH   1   2
BRANCH   1  37
ATOM     37  C   UNL A   1      39.439  28.490  28.184  1.00  0.00     0.002 C 
BRANCH  37  38
ATOM     38  C   UNL A   1      39.982  27.293  27.395  1.00  0.00     0.021 C 
BRANCH  38  39
ATOM     39  C   UNL A   1      41.119  26.550  28.089  1.00  0.00     0.116 C 
BRANCH  39  40
ATOM     40  N   UNL A   1      42.213  26.271  27.168  1.00  0.00    -0.352 N 
ATOM     41  C   UNL A   1      43.202  27.110  26.722  1.00  0.00     0.251 C 
ATOM     42  H   UNL A   1      42.247  25.352  26.818  1.00  0.00     0.163 HD
ATOM     43  O   UNL A   1      43.899  26.783  25.766  1.00  0.00    -0.269 OA
BRANCH  41  44
ATOM     44  C   UNL A   1      43.418  28.410  27.392  1.00  0.00     0.039 A 
ATOM     45  C   UNL A   1      42.789  29.549  26.884  1.00  0.00     0.014 A 
ATOM     46  C   UNL A   1      44.256  28.505  28.507  1.00  0.00     0.014 A 
ATOM     47  C   UNL A   1      42.961  30.778  27.527  1.00  0.00     0.010 A 
ATOM     48  C   UNL A   1      44.373  29.716  29.183  1.00  0.00     0.010 A 
ATOM     49  C   UNL A   1      43.734  30.866  28.696  1.00  0.00    -0.014 A 
BRANCH  49  50
ATOM     50  C   UNL A   1      43.881  32.151  29.427  1.00  0.00     0.031 A 
ATOM     51  C   UNL A   1      43.051  32.423  30.653  1.00  0.00     0.074 A 
ATOM     52  C   UNL A   1      44.693  33.107  28.934  1.00  0.00     0.049 A 
ATOM     53  N   UNL A   1      42.996  33.506  31.385  1.00  0.00    -0.248 NA
ATOM     54  C   UNL A   1      42.146  31.352  31.104  1.00  0.00     0.031 C 
ATOM     55  C   UNL A   1      45.485  32.995  27.706  1.00  0.00     0.029 A 
ATOM     56  N   UNL A   1      44.963  34.375  29.385  1.00  0.00    -0.354 N 
ATOM     57  C   UNL A   1      42.024  33.265  32.349  1.00  0.00     0.074 A 
ATOM     58  C   UNL A   1      41.500  31.941  32.100  1.00  0.00     0.031 C 
ATOM     59  C   UNL A   1      46.145  34.147  27.500  1.00  0.00     0.029 A 
ATOM     60  C   UNL A   1      45.805  35.087  28.563  1.00  0.00     0.049 A 
ATOM     61  H   UNL A   1      44.588  34.741  30.218  1.00  0.00     0.167 HD
ATOM     62  C   UNL A   1      41.624  34.065  33.366  1.00  0.00     0.034 A 
ATOM     63  C   UNL A   1      46.247  36.358  28.649  1.00  0.00     0.034 A 
ATOM     64  C   UNL A   1      42.192  35.355  33.648  1.00  0.00     0.049 A 
ATOM     65  C   UNL A   1      45.830  37.197  29.828  1.00  0.00     0.074 A 
ATOM     66  C   UNL A   1      41.933  36.190  34.721  1.00  0.00     0.029 A 
ATOM     67  N   UNL A   1      43.126  36.000  32.854  1.00  0.00    -0.354 N 
ATOM     68  N   UNL A   1      45.048  36.880  30.831  1.00  0.00    -0.248 NA
ATOM     69  C   UNL A   1      46.386  38.556  29.907  1.00  0.00     0.031 C 
ATOM     70  C   UNL A   1      42.695  37.352  34.563  1.00  0.00     0.029 A 
ATOM     71  C   UNL A   1      43.446  37.228  33.405  1.00  0.00     0.049 A 
ATOM     72  H   UNL A   1      43.506  35.637  32.021  1.00  0.00     0.167 HD
ATOM     73  C   UNL A   1      45.052  37.982  31.679  1.00  0.00     0.074 A 
ATOM     74  C   UNL A   1      45.930  38.966  31.083  1.00  0.00     0.031 C 
ATOM     75  C   UNL A   1      44.373  38.170  32.837  1.00  0.00     0.034 A 
BRANCH  62  76
ATOM     76  C   UNL A   1      40.555  33.553  34.296  1.00  0.00     0.023 A 
ATOM     77  C   UNL A   1      40.926  32.959  35.519  1.00  0.00     0.012 A 
ATOM     78  C   UNL A   1      39.191  33.757  34.009  1.00  0.00     0.148 A 
ATOM     79  C   UNL A   1      39.955  32.557  36.435  1.00  0.00     0.002 A 
ATOM     80  C   UNL A   1      38.231  33.393  34.945  1.00  0.00     0.091 A 
ATOM     81  F   UNL A   1      38.862  34.308  32.832  1.00  0.00    -0.205 F 
ATOM     82  C   UNL A   1      38.610  32.787  36.154  1.00  0.00     0.022 A 
BRANCH  80  83
ATOM     83  S   UNL A   1      36.479  33.718  34.717  1.00  0.00     0.127 S 
ATOM     84  O   UNL A   1      36.507  34.986  33.988  1.00  0.00    -0.237 OA
ATOM     85  O   UNL A   1      36.055  32.566  33.921  1.00  0.00    -0.237 OA
ATOM     86  O   UNL A   1      35.903  33.783  36.052  1.00  0.00    -0.744 OA
ENDBRANCH  80  83
ENDBRANCH  62  76
BRANCH  63  87
ATOM     87  C   UNL A   1      47.181  36.903  27.622  1.00  0.00     0.023 A 
ATOM     88  C   UNL A   1      46.659  37.562  26.493  1.00  0.00     0.012 A 
ATOM     89  C   UNL A   1      48.576  36.773  27.757  1.00  0.00     0.148 A 
ATOM     90  C   UNL A   1      47.506  38.041  25.492  1.00  0.00     0.002 A 
ATOM     91  C   UNL A   1      49.418  37.303  26.785  1.00  0.00     0.091 A 
ATOM     92  F   UNL A   1      49.057  36.130  28.831  1.00  0.00    -0.205 F 
ATOM     93  C   UNL A   1      48.885  37.919  25.643  1.00  0.00     0.022 A 
BRANCH  91  94
ATOM     94  S   UNL A   1      51.204  37.305  26.973  1.00  0.00     0.127 S 
ATOM     95  O   UNL A   1      51.615  36.358  25.941  1.00  0.00    -0.237 OA
ATOM     96  O   UNL A   1      51.541  38.702  26.698  1.00  0.00    -0.237 OA
ATOM     97  O   UNL A   1      51.447  36.896  28.350  1.00  0.00    -0.744 OA
ENDBRANCH  91  94
ENDBRANCH  63  87
BRANCH  75  98
ATOM     98  C   UNL A   1      44.583  39.468  33.570  1.00  0.00     0.023 A 
ATOM     99  C   UNL A   1      45.650  39.592  34.482  1.00  0.00     0.012 A 
ATOM    100  C   UNL A   1      43.773  40.587  33.294  1.00  0.00     0.148 A 
ATOM    101  C   UNL A   1      45.886  40.802  35.134  1.00  0.00     0.002 A 
ATOM    102  C   UNL A   1      44.045  41.802  33.910  1.00  0.00     0.091 A 
ATOM    103  F   UNL A   1      42.753  40.443  32.437  1.00  0.00    -0.205 F 
ATOM    104  C   UNL A   1      45.093  41.909  34.839  1.00  0.00     0.022 A 
BRANCH 102 105
ATOM    105  S   UNL A   1      43.140  43.303  33.515  1.00  0.00     0.127 S 
ATOM    106  O   UNL A   1      43.801  44.284  34.375  1.00  0.00    -0.237 OA
ATOM    107  O   UNL A   1      43.411  43.463  32.086  1.00  0.00    -0.237 OA
ATOM    108  O   UNL A   1      41.747  43.026  33.838  1.00  0.00    -0.744 OA
ENDBRANCH 102 105
ENDBRANCH  75  98
ENDBRANCH  49  50
ENDBRANCH  41  44
ENDBRANCH  39  40
ENDBRANCH  38  39
ENDBRANCH  37  38
ENDBRANCH   1  37
TORSDOF 21
ENDMDL
MODEL 2
REMARK VINA RESULT:     -11.4      7.300     12.122
REMARK SMILES COc1ccc([C@H]2CC(c3ccc(S(C)(=O)=O)cc3)=NN2c2ccc(C(=O)NCCCCCCNC(=O)c3ccc(-c4c5nc(c(-c6cccc(S(=O)(=O)[O-])c6F)c6ccc([nH]6)c(-c6cccc(S(=O)(=O)[O-])c6F)c6nc(c(-c7cccc(S(=O)(=O)[O-])c7F)c7ccc4[nH]7)C=C6)C=C5)cc3)cc2)cc1
REMARK SMILES IDX 31 1 30 2 29 3 28 4 26 5 27 6 25 8 22 9 23 10 102 11 24 12
REMARK SMILES IDX 101 13 21 14 7 15 8 16 9 17 20 18 6 19 3 20 4 21 104 22 5 23
REMARK SMILES IDX 103 24 2 25 1 26 10 27 11 28 19 29 12 30 18 31 13 32 14 33
REMARK SMILES IDX 15 34 16 35 17 36 32 37 33 38 34 39 35 40 36 41 37 43 38 44
REMARK SMILES IDX 39 45 100 46 40 47 99 48 41 49 42 50 43 51 93 52 44 53 98 54
REMARK SMILES IDX 92 55 94 56 45 57 97 58 91 59 90 60 46 62 78 63 58 64 77 65
REMARK SMILES IDX 59 66 62 67 76 68 95 69 60 70 61 71 75 73 96 74 63 75 47 76
REMARK SMILES IDX 48 77 56 78 49 79 51 80 57 81 50 82 52 83 53 84 54 85 55 86
REMARK SMILES IDX 79 87 80 88 88 89 81 90 83 91 89 92 82 93 84 94 85 95 86 96
REMARK SMILES IDX 87 97 64 98 65 99 73 100 66 101 68 102 74 103 67 104 69 105
REMARK SMILES IDX 70 106 71 107 72 108
REMARK H PARENT 28 7 35 42 94 61 62 72
REMARK Flexibility Score: inf
ROOT
ATOM      1  C   UNL A   1      39.814  27.219  27.952  1.00  0.00     0.002 C 
ENDROOT
BRANCH   1   2
ATOM      2  C   UNL A   1      39.986  25.702  27.786  1.00  0.00     0.021 C 
BRANCH   2   3
ATOM      3  C   UNL A   1      38.965  25.089  26.825  1.00  0.00     0.116 C 
BRANCH   3   4
ATOM      4  N   UNL A   1      39.404  23.762  26.435  1.00  0.00    -0.352 N 
ATOM      5  C   UNL A   1      38.728  22.666  25.972  1.00  0.00     0.251 C 
ATOM      6  O   UNL A   1      39.381  21.638  25.779  1.00  0.00    -0.269 OA
ATOM      7  H   UNL A   1      40.375  23.624  26.521  1.00  0.00     0.163 HD
BRANCH   5   8
ATOM      8  C   UNL A   1      37.280  22.683  25.619  1.00  0.00     0.039 A 
ATOM      9  C   UNL A   1      34.631  22.919  24.679  1.00  0.00     0.060 A 
ATOM     10  C   UNL A   1      35.650  22.474  23.833  1.00  0.00     0.029 A 
ATOM     11  C   UNL A   1      34.932  23.142  26.023  1.00  0.00     0.029 A 
ATOM     12  C   UNL A   1      36.965  22.384  24.287  1.00  0.00     0.016 A 
ATOM     13  C   UNL A   1      36.237  22.979  26.498  1.00  0.00     0.016 A 
BRANCH   9  14
ATOM     14  N   UNL A   1      33.380  23.179  24.151  1.00  0.00    -0.257 N 
ATOM     15  C   UNL A   1      32.590  22.238  23.350  1.00  0.00     0.144 C 
ATOM     16  C   UNL A   1      31.251  22.985  23.248  1.00  0.00     0.091 C 
ATOM     17  C   UNL A   1      31.744  24.374  23.562  1.00  0.00     0.071 C 
ATOM     18  N   UNL A   1      32.909  24.445  24.125  1.00  0.00    -0.176 NA
BRANCH  15  19
ATOM     19  C   UNL A   1      32.537  20.858  23.985  1.00  0.00    -0.023 A 
ATOM     20  C   UNL A   1      32.846  18.291  25.133  1.00  0.00     0.118 A 
ATOM     21  C   UNL A   1      32.789  18.450  23.748  1.00  0.00     0.047 A 
ATOM     22  C   UNL A   1      32.712  19.412  25.949  1.00  0.00     0.047 A 
ATOM     23  C   UNL A   1      32.629  19.716  23.176  1.00  0.00     0.010 A 
ATOM     24  C   UNL A   1      32.549  20.684  25.380  1.00  0.00     0.010 A 
BRANCH  20  25
ATOM     25  O   UNL A   1      33.085  17.012  25.553  1.00  0.00    -0.497 OA
ATOM     26  C   UNL A   1      33.171  16.011  24.550  1.00  0.00     0.278 C 
ENDBRANCH  20  25
ENDBRANCH  15  19
BRANCH  17  27
ATOM     27  C   UNL A   1      30.974  25.584  23.258  1.00  0.00    -0.002 A 
ATOM     28  C   UNL A   1      31.556  26.525  22.397  1.00  0.00     0.011 A 
ATOM     29  C   UNL A   1      29.752  25.841  23.879  1.00  0.00     0.011 A 
ATOM     30  C   UNL A   1      30.915  27.737  22.154  1.00  0.00     0.021 A 
ATOM     31  C   UNL A   1      29.120  27.070  23.659  1.00  0.00     0.021 A 
ATOM     32  C   UNL A   1      29.710  28.013  22.807  1.00  0.00     0.067 A 
BRANCH  32  33
ATOM     33  S   UNL A   1      28.939  29.595  22.554  1.00  0.00     0.175 S 
ATOM     34  C   UNL A   1      29.640  30.633  23.811  1.00  0.00     0.163 C 
ATOM     35  O   UNL A   1      29.380  30.078  21.261  1.00  0.00    -0.224 OA
ATOM     36  O   UNL A   1      27.526  29.448  22.855  1.00  0.00    -0.224 OA
ENDBRANCH  32  33
ENDBRANCH  17  27
ENDBRANCH   9  14
ENDBRANCH   5   8
ENDBRANCH   3   4
ENDBRANCH   2   3
ENDBRANCH   1   2
BRANCH   1  37
ATOM     37  C   UNL A   1      39.150  27.644  29.267  1.00  0.00     0.002 C 
BRANCH  37  38
ATOM     38  C   UNL A   1      38.193  28.834  29.147  1.00  0.00     0.021 C 
BRANCH  38  39
ATOM     39  C   UNL A   1      37.191  28.950  30.291  1.00  0.00     0.116 C 
BRANCH  39  40
ATOM     40  N   UNL A   1      37.125  30.310  30.808  1.00  0.00    -0.352 N 
ATOM     41  C   UNL A   1      38.051  30.997  31.551  1.00  0.00     0.251 C 
ATOM     42  H   UNL A   1      36.302  30.805  30.594  1.00  0.00     0.163 HD
ATOM     43  O   UNL A   1      37.737  32.046  32.106  1.00  0.00    -0.269 OA
BRANCH  41  44
ATOM     44  C   UNL A   1      39.424  30.466  31.684  1.00  0.00     0.039 A 
ATOM     45  C   UNL A   1      39.636  29.316  32.448  1.00  0.00     0.014 A 
ATOM     46  C   UNL A   1      40.501  31.113  31.072  1.00  0.00     0.014 A 
ATOM     47  C   UNL A   1      40.924  28.786  32.557  1.00  0.00     0.010 A 
ATOM     48  C   UNL A   1      41.771  30.548  31.128  1.00  0.00     0.010 A 
ATOM     49  C   UNL A   1      41.998  29.384  31.878  1.00  0.00    -0.014 A 
BRANCH  49  50
ATOM     50  C   UNL A   1      43.365  28.802  31.932  1.00  0.00     0.031 A 
ATOM     51  C   UNL A   1      43.914  28.048  30.751  1.00  0.00     0.074 A 
ATOM     52  C   UNL A   1      44.072  28.874  33.078  1.00  0.00     0.049 A 
ATOM     53  N   UNL A   1      45.056  27.420  30.635  1.00  0.00    -0.248 NA
ATOM     54  C   UNL A   1      43.063  27.965  29.551  1.00  0.00     0.031 C 
ATOM     55  C   UNL A   1      43.612  29.504  34.319  1.00  0.00     0.029 A 
ATOM     56  N   UNL A   1      45.313  28.384  33.397  1.00  0.00    -0.354 N 
ATOM     57  C   UNL A   1      45.041  26.833  29.375  1.00  0.00     0.074 A 
ATOM     58  C   UNL A   1      43.771  27.161  28.769  1.00  0.00     0.031 C 
ATOM     59  C   UNL A   1      44.555  29.356  35.263  1.00  0.00     0.029 A 
ATOM     60  C   UNL A   1      45.673  28.602  34.707  1.00  0.00     0.049 A 
ATOM     61  H   UNL A   1      45.892  27.920  32.750  1.00  0.00     0.167 HD
ATOM     62  C   UNL A   1      46.010  26.108  28.768  1.00  0.00     0.034 A 
ATOM     63  C   UNL A   1      46.775  28.227  35.387  1.00  0.00     0.034 A 
ATOM     64  C   UNL A   1      47.297  25.836  29.349  1.00  0.00     0.049 A 
ATOM     65  C   UNL A   1      47.860  27.475  34.661  1.00  0.00     0.074 A 
ATOM     66  C   UNL A   1      48.385  25.209  28.768  1.00  0.00     0.029 A 
ATOM     67  N   UNL A   1      47.668  26.169  30.641  1.00  0.00    -0.354 N 
ATOM     68  N   UNL A   1      47.901  27.088  33.409  1.00  0.00    -0.248 NA
ATOM     69  C   UNL A   1      49.067  27.141  35.431  1.00  0.00     0.031 C 
ATOM     70  C   UNL A   1      49.409  25.141  29.718  1.00  0.00     0.029 A 
ATOM     71  C   UNL A   1      48.965  25.750  30.881  1.00  0.00     0.049 A 
ATOM     72  H   UNL A   1      47.095  26.636  31.291  1.00  0.00     0.167 HD
ATOM     73  C   UNL A   1      49.150  26.505  33.232  1.00  0.00     0.074 A 
ATOM     74  C   UNL A   1      49.844  26.607  34.497  1.00  0.00     0.031 C 
ATOM     75  C   UNL A   1      49.668  25.919  32.126  1.00  0.00     0.034 A 
BRANCH  62  76
ATOM     76  C   UNL A   1      45.751  25.597  27.375  1.00  0.00     0.023 A 
ATOM     77  C   UNL A   1      46.219  26.333  26.267  1.00  0.00     0.012 A 
ATOM     78  C   UNL A   1      45.142  24.344  27.168  1.00  0.00     0.148 A 
ATOM     79  C   UNL A   1      46.068  25.838  24.973  1.00  0.00     0.002 A 
ATOM     80  C   UNL A   1      45.034  23.838  25.878  1.00  0.00     0.091 A 
ATOM     81  F   UNL A   1      44.689  23.670  28.235  1.00  0.00    -0.205 F 
ATOM     82  C   UNL A   1      45.488  24.586  24.780  1.00  0.00     0.022 A 
BRANCH  80  83
ATOM     83  S   UNL A   1      44.378  22.203  25.527  1.00  0.00     0.127 S 
ATOM     84  O   UNL A   1      43.837  22.386  24.180  1.00  0.00    -0.237 OA
ATOM     85  O   UNL A   1      45.578  21.370  25.594  1.00  0.00    -0.237 OA
ATOM     86  O   UNL A   1      43.389  21.934  26.560  1.00  0.00    -0.744 OA
ENDBRANCH  80  83
ENDBRANCH  62  76
BRANCH  63  87
ATOM     87  C   UNL A   1      46.941  28.602  36.820  1.00  0.00     0.023 A 
ATOM     88  C   UNL A   1      47.573  29.817  37.148  1.00  0.00     0.012 A 
ATOM     89  C   UNL A   1      46.479  27.768  37.855  1.00  0.00     0.148 A 
ATOM     90  C   UNL A   1      47.785  30.172  38.482  1.00  0.00     0.002 A 
ATOM     91  C   UNL A   1      46.642  28.155  39.181  1.00  0.00     0.091 A 
ATOM     92  F   UNL A   1      45.893  26.608  37.527  1.00  0.00    -0.205 F 
ATOM     93  C   UNL A   1      47.311  29.346  39.497  1.00  0.00     0.022 A 
BRANCH  91  94
ATOM     94  S   UNL A   1      45.941  27.211  40.540  1.00  0.00     0.127 S 
ATOM     95  O   UNL A   1      44.529  27.160  40.172  1.00  0.00    -0.237 OA
ATOM     96  O   UNL A   1      46.653  25.937  40.429  1.00  0.00    -0.237 OA
ATOM     97  O   UNL A   1      46.262  27.969  41.742  1.00  0.00    -0.744 OA
ENDBRANCH  91  94
ENDBRANCH  63  87
BRANCH  75  98
ATOM     98  C   UNL A   1      51.072  25.381  32.210  1.00  0.00     0.023 A 
ATOM     99  C   UNL A   1      52.167  26.253  32.052  1.00  0.00     0.012 A 
ATOM    100  C   UNL A   1      51.304  24.027  32.524  1.00  0.00     0.148 A 
ATOM    101  C   UNL A   1      53.473  25.780  32.174  1.00  0.00     0.002 A 
ATOM    102  C   UNL A   1      52.607  23.574  32.692  1.00  0.00     0.091 A 
ATOM    103  F   UNL A   1      50.250  23.210  32.652  1.00  0.00    -0.205 F 
ATOM    104  C   UNL A   1      53.692  24.445  32.506  1.00  0.00     0.022 A 
BRANCH 102 105
ATOM    105  S   UNL A   1      52.979  21.896  33.217  1.00  0.00     0.127 S 
ATOM    106  O   UNL A   1      52.406  21.109  32.127  1.00  0.00    -0.237 OA
ATOM    107  O   UNL A   1      54.442  21.902  33.263  1.00  0.00    -0.237 OA
ATOM    108  O   UNL A   1      52.336  21.730  34.514  1.00  0.00    -0.744 OA
ENDBRANCH 102 105
ENDBRANCH  75  98
ENDBRANCH  49  50
ENDBRANCH  41  44
ENDBRANCH  39  40
ENDBRANCH  38  39
ENDBRANCH  37  38
ENDBRANCH   1  37
TORSDOF 21
ENDMDL
MODEL 3
REMARK VINA RESULT:     -11.4      7.179     11.135
REMARK SMILES COc1ccc([C@H]2CC(c3ccc(S(C)(=O)=O)cc3)=NN2c2ccc(C(=O)NCCCCCCNC(=O)c3ccc(-c4c5nc(c(-c6cccc(S(=O)(=O)[O-])c6F)c6ccc([nH]6)c(-c6cccc(S(=O)(=O)[O-])c6F)c6nc(c(-c7cccc(S(=O)(=O)[O-])c7F)c7ccc4[nH]7)C=C6)C=C5)cc3)cc2)cc1
REMARK SMILES IDX 31 1 30 2 29 3 28 4 26 5 27 6 25 8 22 9 23 10 102 11 24 12
REMARK SMILES IDX 101 13 21 14 7 15 8 16 9 17 20 18 6 19 3 20 4 21 104 22 5 23
REMARK SMILES IDX 103 24 2 25 1 26 10 27 11 28 19 29 12 30 18 31 13 32 14 33
REMARK SMILES IDX 15 34 16 35 17 36 32 37 33 38 34 39 35 40 36 41 37 43 38 44
REMARK SMILES IDX 39 45 100 46 40 47 99 48 41 49 42 50 43 51 93 52 44 53 98 54
REMARK SMILES IDX 92 55 94 56 45 57 97 58 91 59 90 60 46 62 78 63 58 64 77 65
REMARK SMILES IDX 59 66 62 67 76 68 95 69 60 70 61 71 75 73 96 74 63 75 47 76
REMARK SMILES IDX 48 77 56 78 49 79 51 80 57 81 50 82 52 83 53 84 54 85 55 86
REMARK SMILES IDX 79 87 80 88 88 89 81 90 83 91 89 92 82 93 84 94 85 95 86 96
REMARK SMILES IDX 87 97 64 98 65 99 73 100 66 101 68 102 74 103 67 104 69 105
REMARK SMILES IDX 70 106 71 107 72 108
REMARK H PARENT 28 7 35 42 94 61 62 72
REMARK Flexibility Score: inf
ROOT
ATOM      1  C   UNL A   1      39.710  27.976  27.631  1.00  0.00     0.002 C 
ENDROOT
BRANCH   1   2
ATOM      2  C   UNL A   1      40.120  26.535  27.294  1.00  0.00     0.021 C 
BRANCH   2   3
ATOM      3  C   UNL A   1      38.920  25.612  27.069  1.00  0.00     0.116 C 
BRANCH   3   4
ATOM      4  N   UNL A   1      39.389  24.294  26.684  1.00  0.00    -0.352 N 
ATOM      5  C   UNL A   1      38.745  23.197  26.179  1.00  0.00     0.251 C 
ATOM      6  O   UNL A   1      39.417  22.178  26.004  1.00  0.00    -0.269 OA
ATOM      7  H   UNL A   1      40.356  24.164  26.812  1.00  0.00     0.163 HD
BRANCH   5   8
ATOM      8  C   UNL A   1      37.315  23.205  25.761  1.00  0.00     0.039 A 
ATOM      9  C   UNL A   1      34.702  23.454  24.727  1.00  0.00     0.060 A 
ATOM     10  C   UNL A   1      35.773  23.135  23.888  1.00  0.00     0.029 A 
ATOM     11  C   UNL A   1      34.935  23.540  26.099  1.00  0.00     0.029 A 
ATOM     12  C   UNL A   1      37.070  23.041  24.392  1.00  0.00     0.016 A 
ATOM     13  C   UNL A   1      36.224  23.370  26.616  1.00  0.00     0.016 A 
BRANCH   9  14
ATOM     14  N   UNL A   1      33.467  23.728  24.170  1.00  0.00    -0.257 N 
ATOM     15  C   UNL A   1      32.763  22.867  23.214  1.00  0.00     0.144 C 
ATOM     16  C   UNL A   1      31.395  23.564  23.137  1.00  0.00     0.091 C 
ATOM     17  C   UNL A   1      31.804  24.920  23.654  1.00  0.00     0.071 C 
ATOM     18  N   UNL A   1      32.937  24.965  24.283  1.00  0.00    -0.176 NA
BRANCH  15  19
ATOM     19  C   UNL A   1      32.747  21.415  23.663  1.00  0.00    -0.023 A 
ATOM     20  C   UNL A   1      32.323  18.776  24.589  1.00  0.00     0.118 A 
ATOM     21  C   UNL A   1      32.629  19.804  25.482  1.00  0.00     0.047 A 
ATOM     22  C   UNL A   1      32.264  19.059  23.226  1.00  0.00     0.047 A 
ATOM     23  C   UNL A   1      32.847  21.109  25.028  1.00  0.00     0.010 A 
ATOM     24  C   UNL A   1      32.484  20.365  22.766  1.00  0.00     0.010 A 
BRANCH  20  25
ATOM     25  O   UNL A   1      32.057  17.570  25.174  1.00  0.00    -0.497 OA
ATOM     26  C   UNL A   1      33.172  16.765  25.526  1.00  0.00     0.278 C 
ENDBRANCH  20  25
ENDBRANCH  15  19
BRANCH  17  27
ATOM     27  C   UNL A   1      30.992  26.126  23.466  1.00  0.00    -0.002 A 
ATOM     28  C   UNL A   1      29.692  26.120  23.989  1.00  0.00     0.011 A 
ATOM     29  C   UNL A   1      31.455  27.201  22.708  1.00  0.00     0.011 A 
ATOM     30  C   UNL A   1      28.840  27.197  23.753  1.00  0.00     0.021 A 
ATOM     31  C   UNL A   1      30.592  28.271  22.445  1.00  0.00     0.021 A 
ATOM     32  C   UNL A   1      29.289  28.257  22.960  1.00  0.00     0.067 A 
BRANCH  32  33
ATOM     33  S   UNL A   1      28.170  29.590  22.597  1.00  0.00     0.175 S 
ATOM     34  C   UNL A   1      28.809  30.966  23.518  1.00  0.00     0.163 C 
ATOM     35  O   UNL A   1      28.305  29.882  21.184  1.00  0.00    -0.224 OA
ATOM     36  O   UNL A   1      26.880  29.250  23.170  1.00  0.00    -0.224 OA
ENDBRANCH  32  33
ENDBRANCH  17  27
ENDBRANCH   9  14
ENDBRANCH   5   8
ENDBRANCH   3   4
ENDBRANCH   2   3
ENDBRANCH   1   2
BRANCH   1  37
ATOM     37  C   UNL A   1      39.057  28.147  29.008  1.00  0.00     0.002 C 
BRANCH  37  38
ATOM     38  C   UNL A   1      38.033  29.283  29.095  1.00  0.00     0.021 C 
BRANCH  38  39
ATOM     39  C   UNL A   1      36.785  28.939  29.902  1.00  0.00     0.116 C 
BRANCH  39  40
ATOM     40  N   UNL A   1      36.491  29.966  30.893  1.00  0.00    -0.352 N 
ATOM     41  C   UNL A   1      37.165  30.269  32.049  1.00  0.00     0.251 C 
ATOM     42  H   UNL A   1      35.699  30.520  30.706  1.00  0.00     0.163 HD
ATOM     43  O   UNL A   1      36.647  31.000  32.887  1.00  0.00    -0.269 OA
BRANCH  41  44
ATOM     44  C   UNL A   1      38.511  29.705  32.282  1.00  0.00     0.039 A 
ATOM     45  C   UNL A   1      38.639  28.341  32.551  1.00  0.00     0.014 A 
ATOM     46  C   UNL A   1      39.642  30.527  32.252  1.00  0.00     0.014 A 
ATOM     47  C   UNL A   1      39.909  27.790  32.743  1.00  0.00     0.010 A 
ATOM     48  C   UNL A   1      40.909  29.965  32.378  1.00  0.00     0.010 A 
ATOM     49  C   UNL A   1      41.055  28.593  32.633  1.00  0.00    -0.014 A 
BRANCH  49  50
ATOM     50  C   UNL A   1      42.417  28.016  32.774  1.00  0.00     0.031 A 
ATOM     51  C   UNL A   1      43.027  27.839  34.139  1.00  0.00     0.074 A 
ATOM     52  C   UNL A   1      43.139  27.739  31.670  1.00  0.00     0.049 A 
ATOM     53  N   UNL A   1      44.222  27.412  34.458  1.00  0.00    -0.248 NA
ATOM     54  C   UNL A   1      42.199  28.213  35.299  1.00  0.00     0.031 C 
ATOM     55  C   UNL A   1      42.691  27.949  30.291  1.00  0.00     0.029 A 
ATOM     56  N   UNL A   1      44.415  27.255  31.531  1.00  0.00    -0.354 N 
ATOM     57  C   UNL A   1      44.305  27.508  35.842  1.00  0.00     0.074 A 
ATOM     58  C   UNL A   1      43.048  28.052  36.304  1.00  0.00     0.031 C 
ATOM     59  C   UNL A   1      43.677  27.600  29.448  1.00  0.00     0.029 A 
ATOM     60  C   UNL A   1      44.835  27.168  30.224  1.00  0.00     0.049 A 
ATOM     61  H   UNL A   1      44.978  26.993  32.296  1.00  0.00     0.167 HD
ATOM     62  C   UNL A   1      45.327  27.150  36.655  1.00  0.00     0.034 A 
ATOM     63  C   UNL A   1      46.022  26.793  29.707  1.00  0.00     0.034 A 
ATOM     64  C   UNL A   1      46.550  26.551  36.196  1.00  0.00     0.049 A 
ATOM     65  C   UNL A   1      47.115  26.342  30.641  1.00  0.00     0.074 A 
ATOM     66  C   UNL A   1      47.596  26.050  36.951  1.00  0.00     0.029 A 
ATOM     67  N   UNL A   1      46.896  26.377  34.866  1.00  0.00    -0.354 N 
ATOM     68  N   UNL A   1      47.104  26.268  31.950  1.00  0.00    -0.248 NA
ATOM     69  C   UNL A   1      48.370  25.886  30.025  1.00  0.00     0.031 C 
ATOM     70  C   UNL A   1      48.587  25.593  36.077  1.00  0.00     0.029 A 
ATOM     71  C   UNL A   1      48.145  25.787  34.778  1.00  0.00     0.049 A 
ATOM     72  H   UNL A   1      46.336  26.633  34.098  1.00  0.00     0.167 HD
ATOM     73  C   UNL A   1      48.329  25.720  32.310  1.00  0.00     0.074 A 
ATOM     74  C   UNL A   1      49.050  25.461  31.082  1.00  0.00     0.031 C 
ATOM     75  C   UNL A   1      48.822  25.472  33.547  1.00  0.00     0.034 A 
BRANCH  62  76
ATOM     76  C   UNL A   1      45.155  27.338  38.139  1.00  0.00     0.023 A 
ATOM     77  C   UNL A   1      44.631  26.285  38.916  1.00  0.00     0.012 A 
ATOM     78  C   UNL A   1      45.609  28.510  38.776  1.00  0.00     0.148 A 
ATOM     79  C   UNL A   1      44.544  26.403  40.303  1.00  0.00     0.002 A 
ATOM     80  C   UNL A   1      45.558  28.603  40.161  1.00  0.00     0.091 A 
ATOM     81  F   UNL A   1      46.086  29.505  38.014  1.00  0.00    -0.205 F 
ATOM     82  C   UNL A   1      45.019  27.555  40.925  1.00  0.00     0.022 A 
BRANCH  80  83
ATOM     83  S   UNL A   1      46.217  30.008  41.066  1.00  0.00     0.127 S 
ATOM     84  O   UNL A   1      45.932  29.627  42.449  1.00  0.00    -0.237 OA
ATOM     85  O   UNL A   1      47.633  29.969  40.703  1.00  0.00    -0.237 OA
ATOM     86  O   UNL A   1      45.494  31.175  40.583  1.00  0.00    -0.744 OA
ENDBRANCH  80  83
ENDBRANCH  62  76
BRANCH  63  87
ATOM     87  C   UNL A   1      46.229  26.770  28.231  1.00  0.00     0.023 A 
ATOM     88  C   UNL A   1      46.690  27.930  27.579  1.00  0.00     0.012 A 
ATOM     89  C   UNL A   1      45.973  25.613  27.472  1.00  0.00     0.148 A 
ATOM     90  C   UNL A   1      46.847  27.953  26.192  1.00  0.00     0.002 A 
ATOM     91  C   UNL A   1      46.187  25.624  26.097  1.00  0.00     0.091 A 
ATOM     92  F   UNL A   1      45.521  24.521  28.105  1.00  0.00    -0.205 F 
ATOM     93  C   UNL A   1      46.605  26.798  25.453  1.00  0.00     0.022 A 
BRANCH  91  94
ATOM     94  S   UNL A   1      46.026  24.140  25.098  1.00  0.00     0.127 S 
ATOM     95  O   UNL A   1      46.865  24.461  23.947  1.00  0.00    -0.237 OA
ATOM     96  O   UNL A   1      46.565  23.110  25.987  1.00  0.00    -0.237 OA
ATOM     97  O   UNL A   1      44.599  24.008  24.832  1.00  0.00    -0.744 OA
ENDBRANCH  91  94
ENDBRANCH  63  87
BRANCH  75  98
ATOM     98  C   UNL A   1      50.189  24.847  33.646  1.00  0.00     0.023 A 
ATOM     99  C   UNL A   1      51.328  25.668  33.750  1.00  0.00     0.012 A 
ATOM    100  C   UNL A   1      50.334  23.447  33.717  1.00  0.00     0.148 A 
ATOM    101  C   UNL A   1      52.596  25.104  33.889  1.00  0.00     0.002 A 
ATOM    102  C   UNL A   1      51.594  22.895  33.906  1.00  0.00     0.091 A 
ATOM    103  F   UNL A   1      49.238  22.684  33.598  1.00  0.00    -0.205 F 
ATOM    104  C   UNL A   1      52.728  23.720  33.980  1.00  0.00     0.022 A 
BRANCH 102 105
ATOM    105  S   UNL A   1      51.845  21.130  34.133  1.00  0.00     0.127 S 
ATOM    106  O   UNL A   1      51.253  20.586  32.912  1.00  0.00    -0.237 OA
ATOM    107  O   UNL A   1      53.304  21.030  34.202  1.00  0.00    -0.237 OA
ATOM    108  O   UNL A   1      51.158  20.784  35.370  1.00  0.00    -0.744 OA
ENDBRANCH 102 105
ENDBRANCH  75  98
ENDBRANCH  49  50
ENDBRANCH  41  44
ENDBRANCH  39  40
ENDBRANCH  38  39
ENDBRANCH  37  38
ENDBRANCH   1  37
TORSDOF 21
ENDMDL
