MODEL 1
REMARK VINA RESULT:     -12.0      0.000      0.000
REMARK SMILES COc1cccc(N2/C(=[NH+]/C(=O)CCC(=O)NCCCCCCNC(=O)c3ccc(-c4c5nc(c(-c6cccc(S(=O)(=O)[O-])c6F)c6ccc([nH]6)c(-c6cccc(S(=O)(=O)[O-])c6F)c6nc(c(-c7cccc(S(=O)(=O)[O-])c7F)c7ccc4[nH]7)C=C6)C=C5)cc3)S[C@@H]3CS(=O)(=O)C[C@H]32)c1
REMARK SMILES IDX 20 1 19 2 18 3 17 4 15 5 16 6 14 8 13 9 11 10 8 11 9 12
REMARK SMILES IDX 97 13 10 14 90 15 91 16 96 17 92 19 93 20 12 21 94 22 95 23
REMARK SMILES IDX 7 24 3 25 4 26 98 27 5 28 6 29 2 30 1 31 21 32 22 33 23 34
REMARK SMILES IDX 24 35 25 36 26 38 27 39 28 40 89 41 29 42 88 43 30 44 31 45
REMARK SMILES IDX 32 46 82 47 33 48 87 49 81 50 83 51 34 52 86 53 80 54 79 55
REMARK SMILES IDX 35 57 67 58 47 59 66 60 48 61 51 62 65 63 84 64 49 65 50 66
REMARK SMILES IDX 64 68 85 69 52 70 36 71 37 72 45 73 38 74 40 75 46 76 39 77
REMARK SMILES IDX 41 78 42 79 43 80 44 81 68 82 69 83 77 84 70 85 72 86 78 87
REMARK SMILES IDX 71 88 73 89 74 90 75 91 76 92 53 93 54 94 62 95 55 96 57 97
REMARK SMILES IDX 63 98 56 99 58 100 59 101 60 102 61 103
REMARK H PARENT 17 7 10 18 24 37 83 56 51 67
REMARK Flexibility Score: inf
ROOT
ATOM      1  C   UNL A   1      32.220  28.819  23.179  1.00  0.00     0.002 C 
ENDROOT
BRANCH   1   2
ATOM      2  C   UNL A   1      33.472  27.917  23.215  1.00  0.00     0.021 C 
BRANCH   2   3
ATOM      3  C   UNL A   1      33.347  26.559  23.952  1.00  0.00     0.116 C 
BRANCH   3   4
ATOM      4  N   UNL A   1      32.467  25.573  23.325  1.00  0.00    -0.356 N 
ATOM      5  C   UNL A   1      31.350  24.914  23.737  1.00  0.00     0.220 C 
ATOM      6  O   UNL A   1      30.780  24.184  22.920  1.00  0.00    -0.275 OA
ATOM      7  H   UNL A   1      32.741  25.335  22.410  1.00  0.00     0.163 HD
BRANCH   5   8
ATOM      8  C   UNL A   1      30.810  25.037  25.143  1.00  0.00     0.112 C 
BRANCH   8   9
ATOM      9  C   UNL A   1      31.799  24.418  26.127  1.00  0.00     0.138 C 
BRANCH   9  10
ATOM     10  C   UNL A   1      31.912  22.976  25.739  1.00  0.00     0.308 C 
ATOM     11  N   UNL A   1      34.576  20.672  24.801  1.00  0.00    -0.216 N 
ATOM     12  C   UNL A   1      33.400  21.431  24.893  1.00  0.00     0.319 C 
ATOM     13  C   UNL A   1      34.212  19.245  24.798  1.00  0.00     0.212 C 
ATOM     14  N   UNL A   1      33.200  22.539  25.523  1.00  0.00    -0.204 N 
ATOM     15  S   UNL A   1      32.092  20.568  24.010  1.00  0.00    -0.029 SA
ATOM     16  C   UNL A   1      33.100  19.131  23.747  1.00  0.00     0.120 C 
ATOM     17  C   UNL A   1      35.126  18.091  24.473  1.00  0.00     0.188 C 
ATOM     18  H   UNL A   1      33.964  23.068  25.847  1.00  0.00     0.316 HD
ATOM     19  C   UNL A   1      32.450  17.809  24.003  1.00  0.00     0.156 C 
ATOM     20  S   UNL A   1      33.884  16.784  24.133  1.00  0.00     0.155 S 
ATOM     21  O   UNL A   1      30.911  22.270  25.868  1.00  0.00    -0.247 OA
ATOM     22  O   UNL A   1      34.178  16.195  22.849  1.00  0.00    -0.229 OA
ATOM     23  O   UNL A   1      33.637  16.001  25.320  1.00  0.00    -0.229 OA
BRANCH  11  24
ATOM     24  C   UNL A   1      35.876  21.100  25.122  1.00  0.00     0.132 A 
ATOM     25  C   UNL A   1      37.541  22.819  25.705  1.00  0.00     0.123 A 
ATOM     26  C   UNL A   1      38.560  21.875  25.602  1.00  0.00     0.047 A 
ATOM     27  C   UNL A   1      36.218  22.438  25.425  1.00  0.00     0.098 A 
ATOM     28  C   UNL A   1      38.261  20.560  25.268  1.00  0.00     0.008 A 
ATOM     29  C   UNL A   1      36.933  20.177  25.050  1.00  0.00     0.052 A 
BRANCH  25  30
ATOM     30  O   UNL A   1      37.984  24.084  25.984  1.00  0.00    -0.497 OA
ATOM     31  C   UNL A   1      38.794  24.256  27.138  1.00  0.00     0.278 C 
ENDBRANCH  25  30
ENDBRANCH  11  24
ENDBRANCH   9  10
ENDBRANCH   8   9
ENDBRANCH   5   8
ENDBRANCH   3   4
ENDBRANCH   2   3
ENDBRANCH   1   2
BRANCH   1  32
ATOM     32  C   UNL A   1      31.100  28.765  24.249  1.00  0.00     0.002 C 
BRANCH  32  33
ATOM     33  C   UNL A   1      31.361  29.118  25.732  1.00  0.00     0.021 C 
BRANCH  33  34
ATOM     34  C   UNL A   1      32.596  29.975  26.126  1.00  0.00     0.116 C 
BRANCH  34  35
ATOM     35  N   UNL A   1      32.407  31.172  26.951  1.00  0.00    -0.352 N 
ATOM     36  C   UNL A   1      33.359  31.985  27.579  1.00  0.00     0.251 C 
ATOM     37  H   UNL A   1      31.470  31.447  27.084  1.00  0.00     0.163 HD
ATOM     38  O   UNL A   1      33.039  33.136  27.882  1.00  0.00    -0.269 OA
BRANCH  36  39
ATOM     39  C   UNL A   1      34.756  31.548  27.871  1.00  0.00     0.039 A 
ATOM     40  C   UNL A   1      35.824  32.435  27.918  1.00  0.00     0.014 A 
ATOM     41  C   UNL A   1      35.057  30.197  28.001  1.00  0.00     0.014 A 
ATOM     42  C   UNL A   1      37.106  31.978  28.309  1.00  0.00     0.010 A 
ATOM     43  C   UNL A   1      36.264  29.791  28.613  1.00  0.00     0.010 A 
ATOM     44  C   UNL A   1      37.317  30.681  28.837  1.00  0.00    -0.014 A 
BRANCH  44  45
ATOM     45  C   UNL A   1      38.555  30.366  29.676  1.00  0.00     0.031 A 
ATOM     46  C   UNL A   1      38.789  30.846  31.113  1.00  0.00     0.074 A 
ATOM     47  C   UNL A   1      39.586  29.692  29.100  1.00  0.00     0.049 A 
ATOM     48  N   UNL A   1      39.769  30.534  31.938  1.00  0.00    -0.248 NA
ATOM     49  C   UNL A   1      37.863  31.834  31.684  1.00  0.00     0.031 C 
ATOM     50  C   UNL A   1      39.680  29.347  27.677  1.00  0.00     0.029 A 
ATOM     51  N   UNL A   1      40.751  29.163  29.621  1.00  0.00    -0.354 N 
ATOM     52  C   UNL A   1      39.595  31.312  33.085  1.00  0.00     0.074 A 
ATOM     53  C   UNL A   1      38.458  32.162  32.824  1.00  0.00     0.031 C 
ATOM     54  C   UNL A   1      40.757  28.580  27.463  1.00  0.00     0.029 A 
ATOM     55  C   UNL A   1      41.488  28.428  28.713  1.00  0.00     0.049 A 
ATOM     56  H   UNL A   1      41.031  29.300  30.555  1.00  0.00     0.167 HD
ATOM     57  C   UNL A   1      40.268  31.302  34.268  1.00  0.00     0.034 A 
ATOM     58  C   UNL A   1      42.616  27.696  28.844  1.00  0.00     0.034 A 
ATOM     59  C   UNL A   1      41.372  30.428  34.567  1.00  0.00     0.049 A 
ATOM     60  C   UNL A   1      43.273  27.585  30.191  1.00  0.00     0.074 A 
ATOM     61  C   UNL A   1      42.022  30.236  35.776  1.00  0.00     0.029 A 
ATOM     62  N   UNL A   1      42.008  29.612  33.646  1.00  0.00    -0.354 N 
ATOM     63  N   UNL A   1      42.928  28.147  31.322  1.00  0.00    -0.248 NA
ATOM     64  C   UNL A   1      44.452  26.709  30.290  1.00  0.00     0.031 C 
ATOM     65  C   UNL A   1      43.073  29.335  35.576  1.00  0.00     0.029 A 
ATOM     66  C   UNL A   1      43.048  28.928  34.253  1.00  0.00     0.049 A 
ATOM     67  H   UNL A   1      41.755  29.529  32.698  1.00  0.00     0.167 HD
ATOM     68  C   UNL A   1      43.826  27.674  32.272  1.00  0.00     0.074 A 
ATOM     69  C   UNL A   1      44.714  26.757  31.589  1.00  0.00     0.031 C 
ATOM     70  C   UNL A   1      43.911  27.987  33.587  1.00  0.00     0.034 A 
BRANCH  57  71
ATOM     71  C   UNL A   1      39.779  32.220  35.377  1.00  0.00     0.023 A 
ATOM     72  C   UNL A   1      38.882  31.719  36.346  1.00  0.00     0.012 A 
ATOM     73  C   UNL A   1      40.248  33.545  35.507  1.00  0.00     0.148 A 
ATOM     74  C   UNL A   1      38.408  32.532  37.376  1.00  0.00     0.002 A 
ATOM     75  C   UNL A   1      39.812  34.335  36.568  1.00  0.00     0.091 A 
ATOM     76  F   UNL A   1      41.108  34.012  34.591  1.00  0.00    -0.205 F 
ATOM     77  C   UNL A   1      38.877  33.837  37.491  1.00  0.00     0.022 A 
BRANCH  75  78
ATOM     78  S   UNL A   1      40.420  36.001  36.866  1.00  0.00     0.127 S 
ATOM     79  O   UNL A   1      39.774  36.748  35.789  1.00  0.00    -0.237 OA
ATOM     80  O   UNL A   1      39.895  36.285  38.203  1.00  0.00    -0.237 OA
ATOM     81  O   UNL A   1      41.872  35.921  36.788  1.00  0.00    -0.744 OA
ENDBRANCH  75  78
ENDBRANCH  57  71
BRANCH  58  82
ATOM     82  C   UNL A   1      43.150  26.930  27.674  1.00  0.00     0.023 A 
ATOM     83  C   UNL A   1      43.976  27.582  26.734  1.00  0.00     0.012 A 
ATOM     84  C   UNL A   1      42.883  25.557  27.509  1.00  0.00     0.148 A 
ATOM     85  C   UNL A   1      44.497  26.889  25.639  1.00  0.00     0.002 A 
ATOM     86  C   UNL A   1      43.456  24.859  26.452  1.00  0.00     0.091 A 
ATOM     87  F   UNL A   1      42.091  24.954  28.408  1.00  0.00    -0.205 F 
ATOM     88  C   UNL A   1      44.248  25.527  25.505  1.00  0.00     0.022 A 
BRANCH  86  89
ATOM     89  S   UNL A   1      43.311  23.076  26.278  1.00  0.00     0.127 S 
ATOM     90  O   UNL A   1      44.207  22.811  25.156  1.00  0.00    -0.237 OA
ATOM     91  O   UNL A   1      43.793  22.608  27.577  1.00  0.00    -0.237 OA
ATOM     92  O   UNL A   1      41.898  22.818  26.033  1.00  0.00    -0.744 OA
ENDBRANCH  86  89
ENDBRANCH  58  82
BRANCH  70  93
ATOM     93  C   UNL A   1      44.979  27.307  34.405  1.00  0.00     0.023 A 
ATOM     94  C   UNL A   1      46.279  27.846  34.462  1.00  0.00     0.012 A 
ATOM     95  C   UNL A   1      44.670  26.169  35.175  1.00  0.00     0.148 A 
ATOM     96  C   UNL A   1      47.264  27.243  35.243  1.00  0.00     0.002 A 
ATOM     97  C   UNL A   1      45.641  25.605  35.994  1.00  0.00     0.091 A 
ATOM     98  F   UNL A   1      43.433  25.658  35.093  1.00  0.00    -0.205 F 
ATOM     99  C   UNL A   1      46.942  26.131  36.018  1.00  0.00     0.022 A 
BRANCH  97 100
ATOM    100  S   UNL A   1      45.290  24.234  37.101  1.00  0.00     0.127 S 
ATOM    101  O   UNL A   1      46.449  24.267  37.991  1.00  0.00    -0.237 OA
ATOM    102  O   UNL A   1      44.033  24.653  37.720  1.00  0.00    -0.237 OA
ATOM    103  O   UNL A   1      45.187  23.051  36.258  1.00  0.00    -0.744 OA
ENDBRANCH  97 100
ENDBRANCH  70  93
ENDBRANCH  44  45
ENDBRANCH  36  39
ENDBRANCH  34  35
ENDBRANCH  33  34
ENDBRANCH  32  33
ENDBRANCH   1  32
TORSDOF 20
ENDMDL
MODEL 2
REMARK VINA RESULT:     -12.0      4.704     10.473
REMARK SMILES COc1cccc(N2/C(=[NH+]/C(=O)CCC(=O)NCCCCCCNC(=O)c3ccc(-c4c5nc(c(-c6cccc(S(=O)(=O)[O-])c6F)c6ccc([nH]6)c(-c6cccc(S(=O)(=O)[O-])c6F)c6nc(c(-c7cccc(S(=O)(=O)[O-])c7F)c7ccc4[nH]7)C=C6)C=C5)cc3)S[C@@H]3CS(=O)(=O)C[C@H]32)c1
REMARK SMILES IDX 20 1 19 2 18 3 17 4 15 5 16 6 14 8 13 9 11 10 8 11 9 12
REMARK SMILES IDX 97 13 10 14 90 15 91 16 96 17 92 19 93 20 12 21 94 22 95 23
REMARK SMILES IDX 7 24 3 25 4 26 98 27 5 28 6 29 2 30 1 31 21 32 22 33 23 34
REMARK SMILES IDX 24 35 25 36 26 38 27 39 28 40 89 41 29 42 88 43 30 44 31 45
REMARK SMILES IDX 32 46 82 47 33 48 87 49 81 50 83 51 34 52 86 53 80 54 79 55
REMARK SMILES IDX 35 57 67 58 47 59 66 60 48 61 51 62 65 63 84 64 49 65 50 66
REMARK SMILES IDX 64 68 85 69 52 70 36 71 37 72 45 73 38 74 40 75 46 76 39 77
REMARK SMILES IDX 41 78 42 79 43 80 44 81 68 82 69 83 77 84 70 85 72 86 78 87
REMARK SMILES IDX 71 88 73 89 74 90 75 91 76 92 53 93 54 94 62 95 55 96 57 97
REMARK SMILES IDX 63 98 56 99 58 100 59 101 60 102 61 103
REMARK H PARENT 17 7 10 18 24 37 83 56 51 67
REMARK Flexibility Score: inf
ROOT
ATOM      1  C   UNL A   1      33.264  22.744  27.246  1.00  0.00     0.002 C 
ENDROOT
BRANCH   1   2
ATOM      2  C   UNL A   1      32.058  22.147  26.489  1.00  0.00     0.021 C 
BRANCH   2   3
ATOM      3  C   UNL A   1      31.396  23.032  25.403  1.00  0.00     0.116 C 
BRANCH   3   4
ATOM      4  N   UNL A   1      31.772  22.731  24.020  1.00  0.00    -0.356 N 
ATOM      5  C   UNL A   1      32.730  23.210  23.182  1.00  0.00     0.220 C 
ATOM      6  O   UNL A   1      32.839  22.679  22.073  1.00  0.00    -0.275 OA
ATOM      7  H   UNL A   1      31.211  22.033  23.610  1.00  0.00     0.163 HD
BRANCH   5   8
ATOM      8  C   UNL A   1      33.632  24.363  23.558  1.00  0.00     0.112 C 
BRANCH   8   9
ATOM      9  C   UNL A   1      33.980  25.169  22.311  1.00  0.00     0.138 C 
BRANCH   9  10
ATOM     10  C   UNL A   1      32.906  26.203  22.180  1.00  0.00     0.308 C 
ATOM     11  N   UNL A   1      31.272  28.633  24.351  1.00  0.00    -0.216 N 
ATOM     12  C   UNL A   1      31.586  27.623  23.429  1.00  0.00     0.319 C 
ATOM     13  C   UNL A   1      30.459  29.653  23.666  1.00  0.00     0.212 C 
ATOM     14  N   UNL A   1      32.674  26.938  23.322  1.00  0.00    -0.204 N 
ATOM     15  S   UNL A   1      30.207  27.437  22.291  1.00  0.00    -0.029 SA
ATOM     16  C   UNL A   1      29.364  28.856  22.945  1.00  0.00     0.120 C 
ATOM     17  C   UNL A   1      29.702  30.780  24.322  1.00  0.00     0.188 C 
ATOM     18  H   UNL A   1      33.334  26.939  24.053  1.00  0.00     0.316 HD
ATOM     19  C   UNL A   1      28.784  29.803  21.943  1.00  0.00     0.156 C 
ATOM     20  S   UNL A   1      28.548  31.223  22.967  1.00  0.00     0.155 S 
ATOM     21  O   UNL A   1      32.497  26.462  21.048  1.00  0.00    -0.247 OA
ATOM     22  O   UNL A   1      27.204  31.228  23.490  1.00  0.00    -0.229 OA
ATOM     23  O   UNL A   1      29.089  32.306  22.178  1.00  0.00    -0.229 OA
BRANCH  11  24
ATOM     24  C   UNL A   1      31.950  28.913  25.549  1.00  0.00     0.132 A 
ATOM     25  C   UNL A   1      33.675  30.062  26.880  1.00  0.00     0.123 A 
ATOM     26  C   UNL A   1      33.349  29.283  27.986  1.00  0.00     0.047 A 
ATOM     27  C   UNL A   1      33.007  29.845  25.663  1.00  0.00     0.098 A 
ATOM     28  C   UNL A   1      32.341  28.331  27.896  1.00  0.00     0.008 A 
ATOM     29  C   UNL A   1      31.640  28.164  26.698  1.00  0.00     0.052 A 
BRANCH  25  30
ATOM     30  O   UNL A   1      34.723  30.917  27.093  1.00  0.00    -0.497 OA
ATOM     31  C   UNL A   1      35.951  30.353  27.531  1.00  0.00     0.278 C 
ENDBRANCH  25  30
ENDBRANCH  11  24
ENDBRANCH   9  10
ENDBRANCH   8   9
ENDBRANCH   5   8
ENDBRANCH   3   4
ENDBRANCH   2   3
ENDBRANCH   1   2
BRANCH   1  32
ATOM     32  C   UNL A   1      34.704  22.765  26.675  1.00  0.00     0.002 C 
BRANCH  32  33
ATOM     33  C   UNL A   1      35.191  21.732  25.632  1.00  0.00     0.021 C 
BRANCH  33  34
ATOM     34  C   UNL A   1      36.399  22.061  24.711  1.00  0.00     0.116 C 
BRANCH  34  35
ATOM     35  N   UNL A   1      37.556  21.159  24.693  1.00  0.00    -0.352 N 
ATOM     36  C   UNL A   1      38.691  21.144  25.513  1.00  0.00     0.251 C 
ATOM     37  H   UNL A   1      37.530  20.459  24.000  1.00  0.00     0.163 HD
ATOM     38  O   UNL A   1      39.337  20.098  25.600  1.00  0.00    -0.269 OA
BRANCH  36  39
ATOM     39  C   UNL A   1      39.144  22.315  26.320  1.00  0.00     0.039 A 
ATOM     40  C   UNL A   1      40.119  22.215  27.304  1.00  0.00     0.014 A 
ATOM     41  C   UNL A   1      38.515  23.548  26.184  1.00  0.00     0.014 A 
ATOM     42  C   UNL A   1      40.586  23.380  27.959  1.00  0.00     0.010 A 
ATOM     43  C   UNL A   1      39.139  24.723  26.659  1.00  0.00     0.010 A 
ATOM     44  C   UNL A   1      40.234  24.682  27.525  1.00  0.00    -0.014 A 
BRANCH  44  45
ATOM     45  C   UNL A   1      41.083  25.894  27.907  1.00  0.00     0.031 A 
ATOM     46  C   UNL A   1      42.531  26.129  27.461  1.00  0.00     0.074 A 
ATOM     47  C   UNL A   1      40.577  26.802  28.784  1.00  0.00     0.049 A 
ATOM     48  N   UNL A   1      43.292  27.188  27.653  1.00  0.00    -0.248 NA
ATOM     49  C   UNL A   1      43.240  25.041  26.773  1.00  0.00     0.031 C 
ATOM     50  C   UNL A   1      39.316  26.655  29.520  1.00  0.00     0.029 A 
ATOM     51  N   UNL A   1      41.040  28.031  29.213  1.00  0.00    -0.354 N 
ATOM     52  C   UNL A   1      44.558  26.872  27.154  1.00  0.00     0.074 A 
ATOM     53  C   UNL A   1      44.484  25.499  26.714  1.00  0.00     0.031 C 
ATOM     54  C   UNL A   1      39.052  27.777  30.203  1.00  0.00     0.029 A 
ATOM     55  C   UNL A   1      40.155  28.711  30.027  1.00  0.00     0.049 A 
ATOM     56  H   UNL A   1      41.923  28.389  28.961  1.00  0.00     0.167 HD
ATOM     57  C   UNL A   1      45.670  27.644  27.018  1.00  0.00     0.034 A 
ATOM     58  C   UNL A   1      40.192  29.947  30.571  1.00  0.00     0.034 A 
ATOM     59  C   UNL A   1      45.751  29.029  27.405  1.00  0.00     0.049 A 
ATOM     60  C   UNL A   1      41.369  30.840  30.298  1.00  0.00     0.074 A 
ATOM     61  C   UNL A   1      46.774  29.934  27.174  1.00  0.00     0.029 A 
ATOM     62  N   UNL A   1      44.779  29.708  28.120  1.00  0.00    -0.354 N 
ATOM     63  N   UNL A   1      42.450  30.586  29.604  1.00  0.00    -0.248 NA
ATOM     64  C   UNL A   1      41.317  32.203  30.851  1.00  0.00     0.031 C 
ATOM     65  C   UNL A   1      46.438  31.147  27.785  1.00  0.00     0.029 A 
ATOM     66  C   UNL A   1      45.183  31.012  28.354  1.00  0.00     0.049 A 
ATOM     67  H   UNL A   1      43.924  29.320  28.418  1.00  0.00     0.167 HD
ATOM     68  C   UNL A   1      43.193  31.760  29.612  1.00  0.00     0.074 A 
ATOM     69  C   UNL A   1      42.426  32.737  30.356  1.00  0.00     0.031 C 
ATOM     70  C   UNL A   1      44.408  31.998  29.061  1.00  0.00     0.034 A 
BRANCH  57  71
ATOM     71  C   UNL A   1      46.888  27.032  26.346  1.00  0.00     0.023 A 
ATOM     72  C   UNL A   1      46.998  27.075  24.938  1.00  0.00     0.012 A 
ATOM     73  C   UNL A   1      47.950  26.477  27.093  1.00  0.00     0.148 A 
ATOM     74  C   UNL A   1      48.099  26.520  24.286  1.00  0.00     0.002 A 
ATOM     75  C   UNL A   1      49.070  25.972  26.437  1.00  0.00     0.091 A 
ATOM     76  F   UNL A   1      47.846  26.448  28.429  1.00  0.00    -0.205 F 
ATOM     77  C   UNL A   1      49.138  25.974  25.034  1.00  0.00     0.022 A 
BRANCH  75  78
ATOM     78  S   UNL A   1      50.508  25.328  27.305  1.00  0.00     0.127 S 
ATOM     79  O   UNL A   1      49.932  24.198  28.032  1.00  0.00    -0.237 OA
ATOM     80  O   UNL A   1      51.391  24.952  26.200  1.00  0.00    -0.237 OA
ATOM     81  O   UNL A   1      51.002  26.418  28.133  1.00  0.00    -0.744 OA
ENDBRANCH  75  78
ENDBRANCH  57  71
BRANCH  58  82
ATOM     82  C   UNL A   1      39.026  30.450  31.362  1.00  0.00     0.023 A 
ATOM     83  C   UNL A   1      38.903  30.097  32.723  1.00  0.00     0.012 A 
ATOM     84  C   UNL A   1      38.064  31.307  30.792  1.00  0.00     0.148 A 
ATOM     85  C   UNL A   1      37.831  30.561  33.488  1.00  0.00     0.002 A 
ATOM     86  C   UNL A   1      37.034  31.816  31.576  1.00  0.00     0.091 A 
ATOM     87  F   UNL A   1      38.191  31.628  29.496  1.00  0.00    -0.205 F 
ATOM     88  C   UNL A   1      36.905  31.430  32.919  1.00  0.00     0.022 A 
BRANCH  86  89
ATOM     89  S   UNL A   1      35.878  33.052  30.971  1.00  0.00     0.127 S 
ATOM     90  O   UNL A   1      36.707  33.801  30.030  1.00  0.00    -0.237 OA
ATOM     91  O   UNL A   1      34.845  32.219  30.355  1.00  0.00    -0.237 OA
ATOM     92  O   UNL A   1      35.434  33.788  32.147  1.00  0.00    -0.744 OA
ENDBRANCH  86  89
ENDBRANCH  58  82
BRANCH  70  93
ATOM     93  C   UNL A   1      44.985  33.383  29.201  1.00  0.00     0.023 A 
ATOM     94  C   UNL A   1      45.842  33.688  30.277  1.00  0.00     0.012 A 
ATOM     95  C   UNL A   1      44.730  34.364  28.222  1.00  0.00     0.148 A 
ATOM     96  C   UNL A   1      46.408  34.957  30.395  1.00  0.00     0.002 A 
ATOM     97  C   UNL A   1      45.341  35.608  28.317  1.00  0.00     0.091 A 
ATOM     98  F   UNL A   1      43.896  34.061  27.216  1.00  0.00    -0.205 F 
ATOM     99  C   UNL A   1      46.168  35.912  29.410  1.00  0.00     0.022 A 
BRANCH  97 100
ATOM    100  S   UNL A   1      45.169  36.865  27.044  1.00  0.00     0.127 S 
ATOM    101  O   UNL A   1      43.768  36.705  26.656  1.00  0.00    -0.237 OA
ATOM    102  O   UNL A   1      45.461  38.093  27.784  1.00  0.00    -0.237 OA
ATOM    103  O   UNL A   1      46.142  36.531  26.014  1.00  0.00    -0.744 OA
ENDBRANCH  97 100
ENDBRANCH  70  93
ENDBRANCH  44  45
ENDBRANCH  36  39
ENDBRANCH  34  35
ENDBRANCH  33  34
ENDBRANCH  32  33
ENDBRANCH   1  32
TORSDOF 20
ENDMDL
MODEL 3
REMARK VINA RESULT:     -11.6      4.505     10.657
REMARK SMILES COc1cccc(N2/C(=[NH+]/C(=O)CCC(=O)NCCCCCCNC(=O)c3ccc(-c4c5nc(c(-c6cccc(S(=O)(=O)[O-])c6F)c6ccc([nH]6)c(-c6cccc(S(=O)(=O)[O-])c6F)c6nc(c(-c7cccc(S(=O)(=O)[O-])c7F)c7ccc4[nH]7)C=C6)C=C5)cc3)S[C@@H]3CS(=O)(=O)C[C@H]32)c1
REMARK SMILES IDX 20 1 19 2 18 3 17 4 15 5 16 6 14 8 13 9 11 10 8 11 9 12
REMARK SMILES IDX 97 13 10 14 90 15 91 16 96 17 92 19 93 20 12 21 94 22 95 23
REMARK SMILES IDX 7 24 3 25 4 26 98 27 5 28 6 29 2 30 1 31 21 32 22 33 23 34
REMARK SMILES IDX 24 35 25 36 26 38 27 39 28 40 89 41 29 42 88 43 30 44 31 45
REMARK SMILES IDX 32 46 82 47 33 48 87 49 81 50 83 51 34 52 86 53 80 54 79 55
REMARK SMILES IDX 35 57 67 58 47 59 66 60 48 61 51 62 65 63 84 64 49 65 50 66
REMARK SMILES IDX 64 68 85 69 52 70 36 71 37 72 45 73 38 74 40 75 46 76 39 77
REMARK SMILES IDX 41 78 42 79 43 80 44 81 68 82 69 83 77 84 70 85 72 86 78 87
REMARK SMILES IDX 71 88 73 89 74 90 75 91 76 92 53 93 54 94 62 95 55 96 57 97
REMARK SMILES IDX 63 98 56 99 58 100 59 101 60 102 61 103
REMARK H PARENT 17 7 10 18 24 37 83 56 51 67
REMARK Flexibility Score: inf
ROOT
ATOM      1  C   UNL A   1      33.725  22.646  27.014  1.00  0.00     0.002 C 
ENDROOT
BRANCH   1   2
ATOM      2  C   UNL A   1      32.719  21.639  26.415  1.00  0.00     0.021 C 
BRANCH   2   3
ATOM      3  C   UNL A   1      31.656  22.198  25.435  1.00  0.00     0.116 C 
BRANCH   3   4
ATOM      4  N   UNL A   1      32.051  22.245  24.027  1.00  0.00    -0.356 N 
ATOM      5  C   UNL A   1      32.748  23.141  23.276  1.00  0.00     0.220 C 
ATOM      6  O   UNL A   1      32.984  22.843  22.101  1.00  0.00    -0.275 OA
ATOM      7  H   UNL A   1      31.748  21.461  23.513  1.00  0.00     0.163 HD
BRANCH   5   8
ATOM      8  C   UNL A   1      33.214  24.469  23.826  1.00  0.00     0.112 C 
BRANCH   8   9
ATOM      9  C   UNL A   1      33.627  25.382  22.676  1.00  0.00     0.138 C 
BRANCH   9  10
ATOM     10  C   UNL A   1      32.510  26.365  22.513  1.00  0.00     0.308 C 
ATOM     11  N   UNL A   1      31.161  29.195  24.373  1.00  0.00    -0.216 N 
ATOM     12  C   UNL A   1      31.359  28.014  23.642  1.00  0.00     0.319 C 
ATOM     13  C   UNL A   1      30.213  30.047  23.636  1.00  0.00     0.212 C 
ATOM     14  N   UNL A   1      32.439  27.322  23.501  1.00  0.00    -0.204 N 
ATOM     15  S   UNL A   1      29.822  27.592  22.810  1.00  0.00    -0.029 SA
ATOM     16  C   UNL A   1      29.046  29.116  23.285  1.00  0.00     0.120 C 
ATOM     17  C   UNL A   1      29.532  31.286  24.160  1.00  0.00     0.188 C 
ATOM     18  H   UNL A   1      33.207  27.477  24.097  1.00  0.00     0.316 HD
ATOM     19  C   UNL A   1      28.278  29.830  22.219  1.00  0.00     0.156 C 
ATOM     20  S   UNL A   1      28.160  31.434  22.951  1.00  0.00     0.155 S 
ATOM     21  O   UNL A   1      31.916  26.380  21.435  1.00  0.00    -0.247 OA
ATOM     22  O   UNL A   1      26.919  31.547  23.677  1.00  0.00    -0.229 OA
ATOM     23  O   UNL A   1      28.528  32.327  21.878  1.00  0.00    -0.229 OA
BRANCH  11  24
ATOM     24  C   UNL A   1      32.013  29.721  25.359  1.00  0.00     0.132 A 
ATOM     25  C   UNL A   1      34.029  29.674  26.774  1.00  0.00     0.123 A 
ATOM     26  C   UNL A   1      33.573  30.790  27.470  1.00  0.00     0.047 A 
ATOM     27  C   UNL A   1      33.230  29.124  25.756  1.00  0.00     0.098 A 
ATOM     28  C   UNL A   1      32.361  31.378  27.130  1.00  0.00     0.008 A 
ATOM     29  C   UNL A   1      31.603  30.859  26.076  1.00  0.00     0.052 A 
BRANCH  25  30
ATOM     30  O   UNL A   1      35.207  29.166  27.251  1.00  0.00    -0.497 OA
ATOM     31  C   UNL A   1      36.194  30.092  27.682  1.00  0.00     0.278 C 
ENDBRANCH  25  30
ENDBRANCH  11  24
ENDBRANCH   9  10
ENDBRANCH   8   9
ENDBRANCH   5   8
ENDBRANCH   3   4
ENDBRANCH   2   3
ENDBRANCH   1   2
BRANCH   1  32
ATOM     32  C   UNL A   1      35.173  22.818  26.492  1.00  0.00     0.002 C 
BRANCH  32  33
ATOM     33  C   UNL A   1      35.784  21.870  25.433  1.00  0.00     0.021 C 
BRANCH  33  34
ATOM     34  C   UNL A   1      37.187  22.168  24.836  1.00  0.00     0.116 C 
BRANCH  34  35
ATOM     35  N   UNL A   1      38.292  21.238  25.097  1.00  0.00    -0.352 N 
ATOM     36  C   UNL A   1      39.325  21.318  26.039  1.00  0.00     0.251 C 
ATOM     37  H   UNL A   1      38.310  20.437  24.524  1.00  0.00     0.163 HD
ATOM     38  O   UNL A   1      39.903  20.280  26.365  1.00  0.00    -0.269 OA
BRANCH  36  39
ATOM     39  C   UNL A   1      39.743  22.589  26.702  1.00  0.00     0.039 A 
ATOM     40  C   UNL A   1      40.711  22.633  27.696  1.00  0.00     0.014 A 
ATOM     41  C   UNL A   1      39.086  23.781  26.415  1.00  0.00     0.014 A 
ATOM     42  C   UNL A   1      41.145  23.879  28.209  1.00  0.00     0.010 A 
ATOM     43  C   UNL A   1      39.678  25.019  26.748  1.00  0.00     0.010 A 
ATOM     44  C   UNL A   1      40.766  25.110  27.620  1.00  0.00    -0.014 A 
BRANCH  44  45
ATOM     45  C   UNL A   1      41.582  26.380  27.857  1.00  0.00     0.031 A 
ATOM     46  C   UNL A   1      42.983  26.643  27.292  1.00  0.00     0.074 A 
ATOM     47  C   UNL A   1      41.098  27.324  28.708  1.00  0.00     0.049 A 
ATOM     48  N   UNL A   1      43.706  27.744  27.358  1.00  0.00    -0.248 NA
ATOM     49  C   UNL A   1      43.692  25.541  26.627  1.00  0.00     0.031 C 
ATOM     50  C   UNL A   1      39.900  27.176  29.542  1.00  0.00     0.029 A 
ATOM     51  N   UNL A   1      41.532  28.598  29.020  1.00  0.00    -0.354 N 
ATOM     52  C   UNL A   1      44.946  27.447  26.790  1.00  0.00     0.074 A 
ATOM     53  C   UNL A   1      44.905  26.045  26.447  1.00  0.00     0.031 C 
ATOM     54  C   UNL A   1      39.633  28.330  30.167  1.00  0.00     0.029 A 
ATOM     55  C   UNL A   1      40.676  29.295  29.850  1.00  0.00     0.049 A 
ATOM     56  H   UNL A   1      42.377  28.974  28.681  1.00  0.00     0.167 HD
ATOM     57  C   UNL A   1      46.010  28.253  26.522  1.00  0.00     0.034 A 
ATOM     58  C   UNL A   1      40.693  30.566  30.307  1.00  0.00     0.034 A 
ATOM     59  C   UNL A   1      46.053  29.664  26.810  1.00  0.00     0.049 A 
ATOM     60  C   UNL A   1      41.806  31.486  29.891  1.00  0.00     0.074 A 
ATOM     61  C   UNL A   1      47.015  30.592  26.446  1.00  0.00     0.029 A 
ATOM     62  N   UNL A   1      45.103  30.349  27.549  1.00  0.00    -0.354 N 
ATOM     63  N   UNL A   1      42.846  31.230  29.138  1.00  0.00    -0.248 NA
ATOM     64  C   UNL A   1      41.730  32.881  30.355  1.00  0.00     0.031 C 
ATOM     65  C   UNL A   1      46.666  31.829  26.999  1.00  0.00     0.029 A 
ATOM     66  C   UNL A   1      45.461  31.682  27.665  1.00  0.00     0.049 A 
ATOM     67  H   UNL A   1      44.290  29.948  27.933  1.00  0.00     0.167 HD
ATOM     68  C   UNL A   1      43.532  32.432  29.014  1.00  0.00     0.074 A 
ATOM     69  C   UNL A   1      42.775  33.425  29.746  1.00  0.00     0.031 C 
ATOM     70  C   UNL A   1      44.693  32.682  28.361  1.00  0.00     0.034 A 
BRANCH  57  71
ATOM     71  C   UNL A   1      47.205  27.647  25.804  1.00  0.00     0.023 A 
ATOM     72  C   UNL A   1      48.118  26.850  26.530  1.00  0.00     0.012 A 
ATOM     73  C   UNL A   1      47.395  27.802  24.414  1.00  0.00     0.148 A 
ATOM     74  C   UNL A   1      49.229  26.281  25.906  1.00  0.00     0.002 A 
ATOM     75  C   UNL A   1      48.477  27.187  23.789  1.00  0.00     0.091 A 
ATOM     76  F   UNL A   1      46.519  28.551  23.728  1.00  0.00    -0.205 F 
ATOM     77  C   UNL A   1      49.405  26.443  24.536  1.00  0.00     0.022 A 
BRANCH  75  78
ATOM     78  S   UNL A   1      48.750  27.254  22.012  1.00  0.00     0.127 S 
ATOM     79  O   UNL A   1      47.666  28.133  21.579  1.00  0.00    -0.237 OA
ATOM     80  O   UNL A   1      50.085  27.849  21.929  1.00  0.00    -0.237 OA
ATOM     81  O   UNL A   1      48.668  25.879  21.538  1.00  0.00    -0.744 OA
ENDBRANCH  75  78
ENDBRANCH  57  71
BRANCH  58  82
ATOM     82  C   UNL A   1      39.564  31.074  31.147  1.00  0.00     0.023 A 
ATOM     83  C   UNL A   1      38.365  31.484  30.528  1.00  0.00     0.012 A 
ATOM     84  C   UNL A   1      39.652  31.113  32.553  1.00  0.00     0.148 A 
ATOM     85  C   UNL A   1      37.291  31.952  31.288  1.00  0.00     0.002 A 
ATOM     86  C   UNL A   1      38.557  31.521  33.307  1.00  0.00     0.091 A 
ATOM     87  F   UNL A   1      40.800  30.726  33.126  1.00  0.00    -0.205 F 
ATOM     88  C   UNL A   1      37.382  31.959  32.676  1.00  0.00     0.022 A 
BRANCH  86  89
ATOM     89  S   UNL A   1      38.529  31.427  35.101  1.00  0.00     0.127 S 
ATOM     90  O   UNL A   1      38.705  29.995  35.329  1.00  0.00    -0.237 OA
ATOM     91  O   UNL A   1      39.681  32.254  35.462  1.00  0.00    -0.237 OA
ATOM     92  O   UNL A   1      37.243  31.979  35.506  1.00  0.00    -0.744 OA
ENDBRANCH  86  89
ENDBRANCH  58  82
BRANCH  70  93
ATOM     93  C   UNL A   1      45.214  34.096  28.367  1.00  0.00     0.023 A 
ATOM     94  C   UNL A   1      44.821  35.001  27.362  1.00  0.00     0.012 A 
ATOM     95  C   UNL A   1      46.043  34.545  29.414  1.00  0.00     0.148 A 
ATOM     96  C   UNL A   1      45.271  36.321  27.379  1.00  0.00     0.002 A 
ATOM     97  C   UNL A   1      46.444  35.874  29.455  1.00  0.00     0.091 A 
ATOM     98  F   UNL A   1      46.423  33.664  30.351  1.00  0.00    -0.205 F 
ATOM     99  C   UNL A   1      46.072  36.760  28.432  1.00  0.00     0.022 A 
BRANCH  97 100
ATOM    100  S   UNL A   1      47.391  36.553  30.822  1.00  0.00     0.127 S 
ATOM    101  O   UNL A   1      47.071  37.977  30.729  1.00  0.00    -0.237 OA
ATOM    102  O   UNL A   1      46.802  35.870  31.974  1.00  0.00    -0.237 OA
ATOM    103  O   UNL A   1      48.782  36.210  30.560  1.00  0.00    -0.744 OA
ENDBRANCH  97 100
ENDBRANCH  70  93
ENDBRANCH  44  45
ENDBRANCH  36  39
ENDBRANCH  34  35
ENDBRANCH  33  34
ENDBRANCH  32  33
ENDBRANCH   1  32
TORSDOF 20
ENDMDL
