MODEL 1
REMARK VINA RESULT:     -11.7      0.000      0.000
REMARK SMILES O=C(NCCCCCCNC(=O)c1ccccc1Nc1nc(Cl)nc(Nc2ccc(N3CCOCC3=O)cc2)n1)c1ccc(-c2c3nc(c(-c4cccc(S(=O)(=O)[O-])c4F)c4ccc([nH]4)c(-c4cccc(S(=O)(=O)[O-])c4F)c4nc(c(-c5cccc(S(=O)(=O)[O-])c5F)c5ccc2[nH]5)C=C4)C=C3)cc1
REMARK SMILES IDX 7 1 6 2 5 3 4 4 3 5 1 6 2 7 41 9 42 10 103 11 43 12 102 13
REMARK SMILES IDX 44 14 45 15 46 16 96 17 47 18 101 19 95 20 97 21 48 22
REMARK SMILES IDX 100 23 94 24 93 25 49 27 81 28 61 29 80 30 62 31 65 32 79 33
REMARK SMILES IDX 98 34 63 35 64 36 78 38 99 39 66 40 50 41 51 42 59 43 52 44
REMARK SMILES IDX 54 45 60 46 53 47 55 48 56 49 57 50 58 51 82 52 83 53 91 54
REMARK SMILES IDX 84 55 86 56 92 57 85 58 87 59 88 60 89 61 90 62 67 63 68 64
REMARK SMILES IDX 76 65 69 66 71 67 77 68 70 69 72 70 73 71 74 72 75 73 8 74
REMARK SMILES IDX 9 75 10 76 11 77 12 79 13 80 14 81 18 82 15 83 17 84 16 85
REMARK SMILES IDX 19 86 20 88 21 89 40 90 22 91 25 92 23 93 24 94 26 95 27 97
REMARK SMILES IDX 28 98 39 99 29 100 38 101 30 102 31 103 32 104 36 105 33 106
REMARK SMILES IDX 35 107 37 108 34 109
REMARK H PARENT 3 8 97 26 65 37 10 78 19 87 26 96
REMARK Flexibility Score: inf
ROOT
ATOM      1  C   UNL A   1      32.315  27.905  26.729  1.00  0.00     0.002 C 
ENDROOT
BRANCH   1   2
ATOM      2  C   UNL A   1      31.629  29.108  26.074  1.00  0.00     0.002 C 
BRANCH   2   3
ATOM      3  C   UNL A   1      31.746  30.428  26.838  1.00  0.00     0.021 C 
BRANCH   3   4
ATOM      4  C   UNL A   1      33.132  31.061  26.821  1.00  0.00     0.116 C 
BRANCH   4   5
ATOM      5  N   UNL A   1      33.094  32.482  27.120  1.00  0.00    -0.352 N 
ATOM      6  O   UNL A   1      33.547  34.367  28.262  1.00  0.00    -0.269 OA
ATOM      7  C   UNL A   1      33.850  33.204  28.008  1.00  0.00     0.251 C 
ATOM      8  H   UNL A   1      32.430  33.002  26.612  1.00  0.00     0.163 HD
BRANCH   7   9
ATOM      9  C   UNL A   1      35.010  32.571  28.672  1.00  0.00     0.039 A 
ATOM     10  C   UNL A   1      36.316  32.950  28.345  1.00  0.00     0.014 A 
ATOM     11  C   UNL A   1      34.784  31.592  29.640  1.00  0.00     0.014 A 
ATOM     12  C   UNL A   1      37.396  32.263  28.893  1.00  0.00     0.010 A 
ATOM     13  C   UNL A   1      35.869  30.956  30.246  1.00  0.00     0.010 A 
ATOM     14  C   UNL A   1      37.182  31.266  29.856  1.00  0.00    -0.014 A 
BRANCH  14  15
ATOM     15  C   UNL A   1      38.333  30.585  30.501  1.00  0.00     0.031 A 
ATOM     16  C   UNL A   1      38.776  30.969  31.883  1.00  0.00     0.074 A 
ATOM     17  C   UNL A   1      39.016  29.658  29.803  1.00  0.00     0.049 A 
ATOM     18  N   UNL A   1      39.815  30.554  32.560  1.00  0.00    -0.248 NA
ATOM     19  C   UNL A   1      37.952  31.959  32.594  1.00  0.00     0.031 C 
ATOM     20  C   UNL A   1      38.694  29.224  28.442  1.00  0.00     0.029 A 
ATOM     21  N   UNL A   1      40.141  28.941  30.125  1.00  0.00    -0.354 N 
ATOM     22  C   UNL A   1      39.802  31.266  33.754  1.00  0.00     0.074 A 
ATOM     23  C   UNL A   1      38.650  32.142  33.707  1.00  0.00     0.031 C 
ATOM     24  C   UNL A   1      39.608  28.329  28.039  1.00  0.00     0.029 A 
ATOM     25  C   UNL A   1      40.610  28.171  29.088  1.00  0.00     0.049 A 
ATOM     26  H   UNL A   1      40.569  28.977  31.011  1.00  0.00     0.167 HD
ATOM     27  C   UNL A   1      40.667  31.191  34.794  1.00  0.00     0.034 A 
ATOM     28  C   UNL A   1      41.742  27.451  28.971  1.00  0.00     0.034 A 
ATOM     29  C   UNL A   1      41.802  30.306  34.833  1.00  0.00     0.049 A 
ATOM     30  C   UNL A   1      42.690  27.386  30.133  1.00  0.00     0.074 A 
ATOM     31  C   UNL A   1      42.700  30.106  35.866  1.00  0.00     0.029 A 
ATOM     32  N   UNL A   1      42.208  29.492  33.787  1.00  0.00    -0.354 N 
ATOM     33  N   UNL A   1      42.600  27.976  31.300  1.00  0.00    -0.248 NA
ATOM     34  C   UNL A   1      43.878  26.537  29.977  1.00  0.00     0.031 C 
ATOM     35  C   UNL A   1      43.674  29.202  35.429  1.00  0.00     0.029 A 
ATOM     36  C   UNL A   1      43.354  28.800  34.142  1.00  0.00     0.049 A 
ATOM     37  H   UNL A   1      41.750  29.417  32.919  1.00  0.00     0.167 HD
ATOM     38  C   UNL A   1      43.695  27.537  32.034  1.00  0.00     0.074 A 
ATOM     39  C   UNL A   1      44.433  26.629  31.179  1.00  0.00     0.031 C 
ATOM     40  C   UNL A   1      44.053  27.859  33.301  1.00  0.00     0.034 A 
BRANCH  27  41
ATOM     41  C   UNL A   1      40.419  32.093  35.978  1.00  0.00     0.023 A 
ATOM     42  C   UNL A   1      41.258  33.203  36.207  1.00  0.00     0.012 A 
ATOM     43  C   UNL A   1      39.334  31.860  36.846  1.00  0.00     0.148 A 
ATOM     44  C   UNL A   1      41.051  34.036  37.306  1.00  0.00     0.002 A 
ATOM     45  C   UNL A   1      39.103  32.724  37.911  1.00  0.00     0.091 A 
ATOM     46  F   UNL A   1      38.557  30.790  36.628  1.00  0.00    -0.205 F 
ATOM     47  C   UNL A   1      39.971  33.802  38.153  1.00  0.00     0.022 A 
BRANCH  45  48
ATOM     48  S   UNL A   1      37.684  32.554  39.000  1.00  0.00     0.127 S 
ATOM     49  O   UNL A   1      37.890  33.663  39.929  1.00  0.00    -0.237 OA
ATOM     50  O   UNL A   1      36.563  32.732  38.076  1.00  0.00    -0.237 OA
ATOM     51  O   UNL A   1      37.784  31.221  39.578  1.00  0.00    -0.744 OA
ENDBRANCH  45  48
ENDBRANCH  27  41
BRANCH  28  52
ATOM     52  C   UNL A   1      42.008  26.717  27.703  1.00  0.00     0.023 A 
ATOM     53  C   UNL A   1      42.554  27.406  26.604  1.00  0.00     0.012 A 
ATOM     54  C   UNL A   1      41.798  25.326  27.612  1.00  0.00     0.148 A 
ATOM     55  C   UNL A   1      42.868  26.725  25.428  1.00  0.00     0.002 A 
ATOM     56  C   UNL A   1      42.166  24.646  26.459  1.00  0.00     0.091 A 
ATOM     57  F   UNL A   1      41.277  24.694  28.673  1.00  0.00    -0.205 F 
ATOM     58  C   UNL A   1      42.687  25.346  25.360  1.00  0.00     0.022 A 
BRANCH  56  59
ATOM     59  S   UNL A   1      42.099  22.856  26.327  1.00  0.00     0.127 S 
ATOM     60  O   UNL A   1      42.920  22.442  27.461  1.00  0.00    -0.237 OA
ATOM     61  O   UNL A   1      40.665  22.602  26.479  1.00  0.00    -0.237 OA
ATOM     62  O   UNL A   1      42.635  22.534  25.012  1.00  0.00    -0.744 OA
ENDBRANCH  56  59
ENDBRANCH  28  52
BRANCH  40  63
ATOM     63  C   UNL A   1      45.264  27.182  33.886  1.00  0.00     0.023 A 
ATOM     64  C   UNL A   1      46.519  27.820  33.857  1.00  0.00     0.012 A 
ATOM     65  C   UNL A   1      45.126  25.953  34.562  1.00  0.00     0.148 A 
ATOM     66  C   UNL A   1      47.623  27.235  34.478  1.00  0.00     0.002 A 
ATOM     67  C   UNL A   1      46.217  25.403  35.222  1.00  0.00     0.091 A 
ATOM     68  F   UNL A   1      43.927  25.354  34.558  1.00  0.00    -0.205 F 
ATOM     69  C   UNL A   1      47.469  26.037  35.172  1.00  0.00     0.022 A 
BRANCH  67  70
ATOM     70  S   UNL A   1      46.088  23.919  36.226  1.00  0.00     0.127 S 
ATOM     71  O   UNL A   1      46.032  22.873  35.205  1.00  0.00    -0.237 OA
ATOM     72  O   UNL A   1      47.334  23.958  36.992  1.00  0.00    -0.237 OA
ATOM     73  O   UNL A   1      44.879  24.072  37.024  1.00  0.00    -0.744 OA
ENDBRANCH  67  70
ENDBRANCH  40  63
ENDBRANCH  14  15
ENDBRANCH   7   9
ENDBRANCH   4   5
ENDBRANCH   3   4
ENDBRANCH   2   3
ENDBRANCH   1   2
BRANCH   1  74
ATOM     74  C   UNL A   1      33.682  27.525  26.149  1.00  0.00     0.021 C 
BRANCH  74  75
ATOM     75  C   UNL A   1      33.717  26.216  25.366  1.00  0.00     0.116 C 
BRANCH  75  76
ATOM     76  N   UNL A   1      33.251  25.087  26.157  1.00  0.00    -0.352 N 
ATOM     77  C   UNL A   1      33.757  23.815  26.228  1.00  0.00     0.253 C 
ATOM     78  H   UNL A   1      32.461  25.260  26.718  1.00  0.00     0.163 HD
ATOM     79  O   UNL A   1      33.180  22.955  26.888  1.00  0.00    -0.269 OA
BRANCH  77  80
ATOM     80  C   UNL A   1      34.989  23.457  25.491  1.00  0.00     0.063 A 
ATOM     81  C   UNL A   1      36.206  23.734  26.133  1.00  0.00     0.016 A 
ATOM     82  C   UNL A   1      34.962  22.896  24.200  1.00  0.00     0.054 A 
ATOM     83  C   UNL A   1      37.413  23.403  25.519  1.00  0.00     0.001 A 
ATOM     84  C   UNL A   1      36.193  22.527  23.627  1.00  0.00     0.027 A 
ATOM     85  C   UNL A   1      37.404  22.786  24.273  1.00  0.00     0.002 A 
BRANCH  82  86
ATOM     86  N   UNL A   1      33.760  22.690  23.505  1.00  0.00    -0.323 N 
ATOM     87  H   UNL A   1      33.414  21.768  23.530  1.00  0.00     0.170 HD
BRANCH  86  88
ATOM     88  C   UNL A   1      32.985  23.592  22.788  1.00  0.00     0.233 A 
ATOM     89  N   UNL A   1      33.325  23.904  21.548  1.00  0.00    -0.182 NA
ATOM     90  N   UNL A   1      31.936  24.100  23.425  1.00  0.00    -0.176 NA
ATOM     91  C   UNL A   1      32.510  24.772  20.976  1.00  0.00     0.228 A 
ATOM     92  C   UNL A   1      31.239  25.027  22.773  1.00  0.00     0.233 A 
ATOM     93  Cl  UNL A   1      32.902  25.227  19.377  1.00  0.00    -0.041 Cl
ATOM     94  N   UNL A   1      31.473  25.378  21.520  1.00  0.00    -0.182 NA
BRANCH  92  95
ATOM     95  N   UNL A   1      30.316  25.732  23.539  1.00  0.00    -0.324 N 
ATOM     96  H   UNL A   1      29.929  25.243  24.301  1.00  0.00     0.170 HD
BRANCH  95  97
ATOM     97  C   UNL A   1      29.867  27.043  23.369  1.00  0.00     0.041 A 
ATOM     98  C   UNL A   1      30.762  28.035  22.951  1.00  0.00     0.028 A 
ATOM     99  C   UNL A   1      28.518  27.376  23.506  1.00  0.00     0.028 A 
ATOM    100  C   UNL A   1      30.313  29.329  22.662  1.00  0.00     0.028 A 
ATOM    101  C   UNL A   1      28.078  28.681  23.280  1.00  0.00     0.028 A 
ATOM    102  C   UNL A   1      28.969  29.665  22.842  1.00  0.00     0.044 A 
BRANCH 102 103
ATOM    103  N   UNL A   1      28.497  30.972  22.540  1.00  0.00    -0.308 N 
ATOM    104  C   UNL A   1      28.794  32.028  23.512  1.00  0.00     0.154 C 
ATOM    105  C   UNL A   1      28.080  31.290  21.242  1.00  0.00     0.253 C 
ATOM    106  C   UNL A   1      28.048  33.324  23.226  1.00  0.00     0.183 C 
ATOM    107  C   UNL A   1      27.804  32.779  20.973  1.00  0.00     0.260 C 
ATOM    108  O   UNL A   1      27.835  30.449  20.374  1.00  0.00    -0.272 OA
ATOM    109  O   UNL A   1      28.312  33.736  21.890  1.00  0.00    -0.370 OA
ENDBRANCH 102 103
ENDBRANCH  95  97
ENDBRANCH  92  95
ENDBRANCH  86  88
ENDBRANCH  82  86
ENDBRANCH  77  80
ENDBRANCH  75  76
ENDBRANCH  74  75
ENDBRANCH   1  74
TORSDOF 21
ENDMDL
MODEL 2
REMARK VINA RESULT:     -11.6      2.158      7.420
REMARK SMILES O=C(NCCCCCCNC(=O)c1ccccc1Nc1nc(Cl)nc(Nc2ccc(N3CCOCC3=O)cc2)n1)c1ccc(-c2c3nc(c(-c4cccc(S(=O)(=O)[O-])c4F)c4ccc([nH]4)c(-c4cccc(S(=O)(=O)[O-])c4F)c4nc(c(-c5cccc(S(=O)(=O)[O-])c5F)c5ccc2[nH]5)C=C4)C=C3)cc1
REMARK SMILES IDX 7 1 6 2 5 3 4 4 3 5 1 6 2 7 41 9 42 10 103 11 43 12 102 13
REMARK SMILES IDX 44 14 45 15 46 16 96 17 47 18 101 19 95 20 97 21 48 22
REMARK SMILES IDX 100 23 94 24 93 25 49 27 81 28 61 29 80 30 62 31 65 32 79 33
REMARK SMILES IDX 98 34 63 35 64 36 78 38 99 39 66 40 50 41 51 42 59 43 52 44
REMARK SMILES IDX 54 45 60 46 53 47 55 48 56 49 57 50 58 51 82 52 83 53 91 54
REMARK SMILES IDX 84 55 86 56 92 57 85 58 87 59 88 60 89 61 90 62 67 63 68 64
REMARK SMILES IDX 76 65 69 66 71 67 77 68 70 69 72 70 73 71 74 72 75 73 8 74
REMARK SMILES IDX 9 75 10 76 11 77 12 79 13 80 14 81 18 82 15 83 17 84 16 85
REMARK SMILES IDX 19 86 20 88 21 89 40 90 22 91 25 92 23 93 24 94 26 95 27 97
REMARK SMILES IDX 28 98 39 99 29 100 38 101 30 102 31 103 32 104 36 105 33 106
REMARK SMILES IDX 35 107 37 108 34 109
REMARK H PARENT 3 8 97 26 65 37 10 78 19 87 26 96
REMARK Flexibility Score: inf
ROOT
ATOM      1  C   UNL A   1      33.834  25.467  25.432  1.00  0.00     0.002 C 
ENDROOT
BRANCH   1   2
ATOM      2  C   UNL A   1      33.790  26.996  25.339  1.00  0.00     0.002 C 
BRANCH   2   3
ATOM      3  C   UNL A   1      32.643  27.668  26.093  1.00  0.00     0.021 C 
BRANCH   3   4
ATOM      4  C   UNL A   1      33.070  28.544  27.266  1.00  0.00     0.116 C 
BRANCH   4   5
ATOM      5  N   UNL A   1      32.863  29.958  27.003  1.00  0.00    -0.352 N 
ATOM      6  O   UNL A   1      33.181  32.173  27.240  1.00  0.00    -0.269 OA
ATOM      7  C   UNL A   1      33.616  31.035  27.397  1.00  0.00     0.251 C 
ATOM      8  H   UNL A   1      32.068  30.175  26.464  1.00  0.00     0.163 HD
BRANCH   7   9
ATOM      9  C   UNL A   1      34.934  30.818  28.031  1.00  0.00     0.039 A 
ATOM     10  C   UNL A   1      35.945  31.779  27.925  1.00  0.00     0.014 A 
ATOM     11  C   UNL A   1      35.155  29.641  28.747  1.00  0.00     0.014 A 
ATOM     12  C   UNL A   1      37.215  31.508  28.428  1.00  0.00     0.010 A 
ATOM     13  C   UNL A   1      36.407  29.404  29.316  1.00  0.00     0.010 A 
ATOM     14  C   UNL A   1      37.455  30.321  29.136  1.00  0.00    -0.014 A 
BRANCH  14  15
ATOM     15  C   UNL A   1      38.786  30.062  29.740  1.00  0.00     0.031 A 
ATOM     16  C   UNL A   1      39.752  29.114  29.091  1.00  0.00     0.074 A 
ATOM     17  C   UNL A   1      39.092  30.642  30.916  1.00  0.00     0.049 A 
ATOM     18  N   UNL A   1      40.912  28.693  29.526  1.00  0.00    -0.248 NA
ATOM     19  C   UNL A   1      39.360  28.555  27.788  1.00  0.00     0.031 C 
ATOM     20  C   UNL A   1      38.221  31.559  31.654  1.00  0.00     0.029 A 
ATOM     21  N   UNL A   1      40.201  30.520  31.715  1.00  0.00    -0.354 N 
ATOM     22  C   UNL A   1      41.366  27.782  28.580  1.00  0.00     0.074 A 
ATOM     23  C   UNL A   1      40.354  27.711  27.546  1.00  0.00     0.031 C 
ATOM     24  C   UNL A   1      38.819  31.904  32.803  1.00  0.00     0.029 A 
ATOM     25  C   UNL A   1      40.086  31.189  32.910  1.00  0.00     0.049 A 
ATOM     26  H   UNL A   1      40.999  30.004  31.458  1.00  0.00     0.167 HD
ATOM     27  C   UNL A   1      42.522  27.076  28.571  1.00  0.00     0.034 A 
ATOM     28  C   UNL A   1      40.886  31.196  33.993  1.00  0.00     0.034 A 
ATOM     29  C   UNL A   1      43.526  27.166  29.599  1.00  0.00     0.049 A 
ATOM     30  C   UNL A   1      42.159  30.402  33.966  1.00  0.00     0.074 A 
ATOM     31  C   UNL A   1      44.761  26.544  29.651  1.00  0.00     0.029 A 
ATOM     32  N   UNL A   1      43.403  27.906  30.765  1.00  0.00    -0.354 N 
ATOM     33  N   UNL A   1      42.630  29.637  33.012  1.00  0.00    -0.248 NA
ATOM     34  C   UNL A   1      43.028  30.493  35.148  1.00  0.00     0.031 C 
ATOM     35  C   UNL A   1      45.366  26.875  30.868  1.00  0.00     0.029 A 
ATOM     36  C   UNL A   1      44.530  27.744  31.552  1.00  0.00     0.049 A 
ATOM     37  H   UNL A   1      42.627  28.465  30.999  1.00  0.00     0.167 HD
ATOM     38  C   UNL A   1      43.867  29.188  33.457  1.00  0.00     0.074 A 
ATOM     39  C   UNL A   1      44.074  29.770  34.768  1.00  0.00     0.031 C 
ATOM     40  C   UNL A   1      44.748  28.369  32.833  1.00  0.00     0.034 A 
BRANCH  27  41
ATOM     41  C   UNL A   1      42.764  26.142  27.412  1.00  0.00     0.023 A 
ATOM     42  C   UNL A   1      43.492  26.584  26.288  1.00  0.00     0.012 A 
ATOM     43  C   UNL A   1      42.301  24.811  27.450  1.00  0.00     0.148 A 
ATOM     44  C   UNL A   1      43.710  25.736  25.202  1.00  0.00     0.002 A 
ATOM     45  C   UNL A   1      42.565  23.956  26.387  1.00  0.00     0.091 A 
ATOM     46  F   UNL A   1      41.594  24.410  28.516  1.00  0.00    -0.205 F 
ATOM     47  C   UNL A   1      43.254  24.422  25.254  1.00  0.00     0.022 A 
BRANCH  45  48
ATOM     48  S   UNL A   1      42.097  22.222  26.405  1.00  0.00     0.127 S 
ATOM     49  O   UNL A   1      42.600  21.792  27.708  1.00  0.00    -0.237 OA
ATOM     50  O   UNL A   1      40.638  22.294  26.308  1.00  0.00    -0.237 OA
ATOM     51  O   UNL A   1      42.749  21.622  25.249  1.00  0.00    -0.744 OA
ENDBRANCH  45  48
ENDBRANCH  27  41
BRANCH  28  52
ATOM     52  C   UNL A   1      40.499  32.011  35.177  1.00  0.00     0.023 A 
ATOM     53  C   UNL A   1      41.100  33.267  35.382  1.00  0.00     0.012 A 
ATOM     54  C   UNL A   1      39.482  31.581  36.053  1.00  0.00     0.148 A 
ATOM     55  C   UNL A   1      40.707  34.074  36.450  1.00  0.00     0.002 A 
ATOM     56  C   UNL A   1      39.056  32.414  37.079  1.00  0.00     0.091 A 
ATOM     57  F   UNL A   1      38.926  30.381  35.837  1.00  0.00    -0.205 F 
ATOM     58  C   UNL A   1      39.678  33.654  37.290  1.00  0.00     0.022 A 
BRANCH  56  59
ATOM     59  S   UNL A   1      37.650  32.020  38.126  1.00  0.00     0.127 S 
ATOM     60  O   UNL A   1      38.173  32.323  39.454  1.00  0.00    -0.237 OA
ATOM     61  O   UNL A   1      36.641  32.959  37.631  1.00  0.00    -0.237 OA
ATOM     62  O   UNL A   1      37.348  30.618  37.874  1.00  0.00    -0.744 OA
ENDBRANCH  56  59
ENDBRANCH  28  52
BRANCH  40  63
ATOM     63  C   UNL A   1      46.061  28.092  33.519  1.00  0.00     0.023 A 
ATOM     64  C   UNL A   1      46.203  26.967  34.355  1.00  0.00     0.012 A 
ATOM     65  C   UNL A   1      47.184  28.896  33.241  1.00  0.00     0.148 A 
ATOM     66  C   UNL A   1      47.441  26.659  34.918  1.00  0.00     0.002 A 
ATOM     67  C   UNL A   1      48.424  28.553  33.763  1.00  0.00     0.091 A 
ATOM     68  F   UNL A   1      47.020  29.972  32.459  1.00  0.00    -0.205 F 
ATOM     69  C   UNL A   1      48.553  27.441  34.611  1.00  0.00     0.022 A 
BRANCH  67  70
ATOM     70  S   UNL A   1      49.927  29.439  33.338  1.00  0.00     0.127 S 
ATOM     71  O   UNL A   1      49.973  29.268  31.886  1.00  0.00    -0.237 OA
ATOM     72  O   UNL A   1      49.619  30.798  33.783  1.00  0.00    -0.237 OA
ATOM     73  O   UNL A   1      51.004  28.789  34.073  1.00  0.00    -0.744 OA
ENDBRANCH  67  70
ENDBRANCH  40  63
ENDBRANCH  14  15
ENDBRANCH   7   9
ENDBRANCH   4   5
ENDBRANCH   3   4
ENDBRANCH   2   3
ENDBRANCH   1   2
BRANCH   1  74
ATOM     74  C   UNL A   1      35.010  24.793  24.717  1.00  0.00     0.021 C 
BRANCH  74  75
ATOM     75  C   UNL A   1      35.107  23.282  24.906  1.00  0.00     0.116 C 
BRANCH  75  76
ATOM     76  N   UNL A   1      34.701  22.865  26.239  1.00  0.00    -0.352 N 
ATOM     77  C   UNL A   1      34.069  21.712  26.628  1.00  0.00     0.253 C 
ATOM     78  H   UNL A   1      34.909  23.499  26.963  1.00  0.00     0.163 HD
ATOM     79  O   UNL A   1      33.721  21.561  27.796  1.00  0.00    -0.269 OA
BRANCH  77  80
ATOM     80  C   UNL A   1      33.777  20.648  25.642  1.00  0.00     0.063 A 
ATOM     81  C   UNL A   1      34.729  19.625  25.524  1.00  0.00     0.016 A 
ATOM     82  C   UNL A   1      32.624  20.662  24.834  1.00  0.00     0.054 A 
ATOM     83  C   UNL A   1      34.518  18.570  24.637  1.00  0.00     0.001 A 
ATOM     84  C   UNL A   1      32.414  19.561  23.985  1.00  0.00     0.027 A 
ATOM     85  C   UNL A   1      33.352  18.532  23.880  1.00  0.00     0.002 A 
BRANCH  82  86
ATOM     86  N   UNL A   1      31.702  21.720  24.875  1.00  0.00    -0.323 N 
ATOM     87  H   UNL A   1      31.054  21.683  25.617  1.00  0.00     0.170 HD
BRANCH  86  88
ATOM     88  C   UNL A   1      31.566  22.811  24.027  1.00  0.00     0.233 A 
ATOM     89  N   UNL A   1      32.386  22.944  22.998  1.00  0.00    -0.182 NA
ATOM     90  N   UNL A   1      30.602  23.674  24.329  1.00  0.00    -0.176 NA
ATOM     91  C   UNL A   1      32.156  24.022  22.270  1.00  0.00     0.228 A 
ATOM     92  C   UNL A   1      30.521  24.763  23.570  1.00  0.00     0.233 A 
ATOM     93  Cl  UNL A   1      33.191  24.259  20.932  1.00  0.00    -0.041 Cl
ATOM     94  N   UNL A   1      31.267  24.969  22.497  1.00  0.00    -0.182 NA
BRANCH  92  95
ATOM     95  N   UNL A   1      29.691  25.770  24.052  1.00  0.00    -0.324 N 
ATOM     96  H   UNL A   1      29.196  25.558  24.877  1.00  0.00     0.170 HD
BRANCH  95  97
ATOM     97  C   UNL A   1      29.470  27.041  23.520  1.00  0.00     0.041 A 
ATOM     98  C   UNL A   1      28.165  27.538  23.426  1.00  0.00     0.028 A 
ATOM     99  C   UNL A   1      30.531  27.880  23.172  1.00  0.00     0.028 A 
ATOM    100  C   UNL A   1      27.927  28.852  23.005  1.00  0.00     0.028 A 
ATOM    101  C   UNL A   1      30.293  29.169  22.691  1.00  0.00     0.028 A 
ATOM    102  C   UNL A   1      28.991  29.671  22.617  1.00  0.00     0.044 A 
BRANCH 102 103
ATOM    103  N   UNL A   1      28.765  31.011  22.199  1.00  0.00    -0.308 N 
ATOM    104  C   UNL A   1      28.119  31.204  20.899  1.00  0.00     0.154 C 
ATOM    105  C   UNL A   1      28.844  32.061  23.122  1.00  0.00     0.253 C 
ATOM    106  C   UNL A   1      28.140  32.653  20.433  1.00  0.00     0.183 C 
ATOM    107  C   UNL A   1      28.364  33.432  22.619  1.00  0.00     0.260 C 
ATOM    108  O   UNL A   1      29.355  31.957  24.239  1.00  0.00    -0.272 OA
ATOM    109  O   UNL A   1      27.572  33.480  21.442  1.00  0.00    -0.370 OA
ENDBRANCH 102 103
ENDBRANCH  95  97
ENDBRANCH  92  95
ENDBRANCH  86  88
ENDBRANCH  82  86
ENDBRANCH  77  80
ENDBRANCH  75  76
ENDBRANCH  74  75
ENDBRANCH   1  74
TORSDOF 21
ENDMDL
MODEL 3
REMARK VINA RESULT:     -11.5      1.616      7.231
REMARK SMILES O=C(NCCCCCCNC(=O)c1ccccc1Nc1nc(Cl)nc(Nc2ccc(N3CCOCC3=O)cc2)n1)c1ccc(-c2c3nc(c(-c4cccc(S(=O)(=O)[O-])c4F)c4ccc([nH]4)c(-c4cccc(S(=O)(=O)[O-])c4F)c4nc(c(-c5cccc(S(=O)(=O)[O-])c5F)c5ccc2[nH]5)C=C4)C=C3)cc1
REMARK SMILES IDX 7 1 6 2 5 3 4 4 3 5 1 6 2 7 41 9 42 10 103 11 43 12 102 13
REMARK SMILES IDX 44 14 45 15 46 16 96 17 47 18 101 19 95 20 97 21 48 22
REMARK SMILES IDX 100 23 94 24 93 25 49 27 81 28 61 29 80 30 62 31 65 32 79 33
REMARK SMILES IDX 98 34 63 35 64 36 78 38 99 39 66 40 50 41 51 42 59 43 52 44
REMARK SMILES IDX 54 45 60 46 53 47 55 48 56 49 57 50 58 51 82 52 83 53 91 54
REMARK SMILES IDX 84 55 86 56 92 57 85 58 87 59 88 60 89 61 90 62 67 63 68 64
REMARK SMILES IDX 76 65 69 66 71 67 77 68 70 69 72 70 73 71 74 72 75 73 8 74
REMARK SMILES IDX 9 75 10 76 11 77 12 79 13 80 14 81 18 82 15 83 17 84 16 85
REMARK SMILES IDX 19 86 20 88 21 89 40 90 22 91 25 92 23 93 24 94 26 95 27 97
REMARK SMILES IDX 28 98 39 99 29 100 38 101 30 102 31 103 32 104 36 105 33 106
REMARK SMILES IDX 35 107 37 108 34 109
REMARK H PARENT 3 8 97 26 65 37 10 78 19 87 26 96
REMARK Flexibility Score: inf
ROOT
ATOM      1  C   UNL A   1      32.310  27.186  26.714  1.00  0.00     0.002 C 
ENDROOT
BRANCH   1   2
ATOM      2  C   UNL A   1      31.357  28.383  26.634  1.00  0.00     0.002 C 
BRANCH   2   3
ATOM      3  C   UNL A   1      31.859  29.669  27.290  1.00  0.00     0.021 C 
BRANCH   3   4
ATOM      4  C   UNL A   1      32.687  30.573  26.384  1.00  0.00     0.116 C 
BRANCH   4   5
ATOM      5  N   UNL A   1      32.476  31.983  26.667  1.00  0.00    -0.352 N 
ATOM      6  O   UNL A   1      32.731  33.932  27.761  1.00  0.00    -0.269 OA
ATOM      7  C   UNL A   1      33.173  32.815  27.506  1.00  0.00     0.251 C 
ATOM      8  H   UNL A   1      31.724  32.401  26.188  1.00  0.00     0.163 HD
BRANCH   7   9
ATOM      9  C   UNL A   1      34.438  32.352  28.116  1.00  0.00     0.039 A 
ATOM     10  C   UNL A   1      34.506  31.121  28.775  1.00  0.00     0.014 A 
ATOM     11  C   UNL A   1      35.572  33.160  28.016  1.00  0.00     0.014 A 
ATOM     12  C   UNL A   1      35.671  30.754  29.443  1.00  0.00     0.010 A 
ATOM     13  C   UNL A   1      36.762  32.756  28.622  1.00  0.00     0.010 A 
ATOM     14  C   UNL A   1      36.814  31.564  29.365  1.00  0.00    -0.014 A 
BRANCH  14  15
ATOM     15  C   UNL A   1      38.082  31.141  30.010  1.00  0.00     0.031 A 
ATOM     16  C   UNL A   1      39.018  30.195  29.314  1.00  0.00     0.074 A 
ATOM     17  C   UNL A   1      38.352  31.566  31.258  1.00  0.00     0.049 A 
ATOM     18  N   UNL A   1      40.115  29.642  29.764  1.00  0.00    -0.248 NA
ATOM     19  C   UNL A   1      38.673  29.811  27.937  1.00  0.00     0.031 C 
ATOM     20  C   UNL A   1      37.502  32.464  32.043  1.00  0.00     0.029 A 
ATOM     21  N   UNL A   1      39.396  31.274  32.099  1.00  0.00    -0.354 N 
ATOM     22  C   UNL A   1      40.564  28.806  28.749  1.00  0.00     0.074 A 
ATOM     23  C   UNL A   1      39.618  28.924  27.659  1.00  0.00     0.031 C 
ATOM     24  C   UNL A   1      38.048  32.637  33.256  1.00  0.00     0.029 A 
ATOM     25  C   UNL A   1      39.252  31.819  33.353  1.00  0.00     0.049 A 
ATOM     26  H   UNL A   1      40.170  30.728  31.831  1.00  0.00     0.167 HD
ATOM     27  C   UNL A   1      41.666  28.017  28.727  1.00  0.00     0.034 A 
ATOM     28  C   UNL A   1      39.979  31.648  34.474  1.00  0.00     0.034 A 
ATOM     29  C   UNL A   1      42.605  27.919  29.813  1.00  0.00     0.049 A 
ATOM     30  C   UNL A   1      41.192  30.765  34.429  1.00  0.00     0.074 A 
ATOM     31  C   UNL A   1      43.788  27.202  29.865  1.00  0.00     0.029 A 
ATOM     32  N   UNL A   1      42.460  28.538  31.045  1.00  0.00    -0.354 N 
ATOM     33  N   UNL A   1      41.668  30.073  33.424  1.00  0.00    -0.248 NA
ATOM     34  C   UNL A   1      41.987  30.662  35.661  1.00  0.00     0.031 C 
ATOM     35  C   UNL A   1      44.334  27.353  31.143  1.00  0.00     0.029 A 
ATOM     36  C   UNL A   1      43.519  28.206  31.872  1.00  0.00     0.049 A 
ATOM     37  H   UNL A   1      41.711  29.126  31.297  1.00  0.00     0.167 HD
ATOM     38  C   UNL A   1      42.839  29.485  33.885  1.00  0.00     0.074 A 
ATOM     39  C   UNL A   1      43.002  29.906  35.262  1.00  0.00     0.031 C 
ATOM     40  C   UNL A   1      43.699  28.671  33.225  1.00  0.00     0.034 A 
BRANCH  27  41
ATOM     41  C   UNL A   1      41.915  27.196  27.486  1.00  0.00     0.023 A 
ATOM     42  C   UNL A   1      42.283  27.830  26.282  1.00  0.00     0.012 A 
ATOM     43  C   UNL A   1      41.820  25.791  27.522  1.00  0.00     0.148 A 
ATOM     44  C   UNL A   1      42.501  27.085  25.123  1.00  0.00     0.002 A 
ATOM     45  C   UNL A   1      42.088  25.051  26.376  1.00  0.00     0.091 A 
ATOM     46  F   UNL A   1      41.450  25.202  28.668  1.00  0.00    -0.205 F 
ATOM     47  C   UNL A   1      42.411  25.697  25.171  1.00  0.00     0.022 A 
BRANCH  45  48
ATOM     48  S   UNL A   1      42.086  23.254  26.366  1.00  0.00     0.127 S 
ATOM     49  O   UNL A   1      42.611  22.964  25.033  1.00  0.00    -0.237 OA
ATOM     50  O   UNL A   1      43.002  22.938  27.464  1.00  0.00    -0.237 OA
ATOM     51  O   UNL A   1      40.705  22.856  26.599  1.00  0.00    -0.744 OA
ENDBRANCH  45  48
ENDBRANCH  27  41
BRANCH  28  52
ATOM     52  C   UNL A   1      39.575  32.359  35.717  1.00  0.00     0.023 A 
ATOM     53  C   UNL A   1      39.947  33.704  35.900  1.00  0.00     0.012 A 
ATOM     54  C   UNL A   1      38.758  31.732  36.679  1.00  0.00     0.148 A 
ATOM     55  C   UNL A   1      39.526  34.408  37.029  1.00  0.00     0.002 A 
ATOM     56  C   UNL A   1      38.296  32.455  37.771  1.00  0.00     0.091 A 
ATOM     57  F   UNL A   1      38.419  30.451  36.482  1.00  0.00    -0.205 F 
ATOM     58  C   UNL A   1      38.692  33.789  37.956  1.00  0.00     0.022 A 
BRANCH  56  59
ATOM     59  S   UNL A   1      37.111  31.787  38.944  1.00  0.00     0.127 S 
ATOM     60  O   UNL A   1      36.950  30.419  38.460  1.00  0.00    -0.237 OA
ATOM     61  O   UNL A   1      37.840  31.913  40.207  1.00  0.00    -0.237 OA
ATOM     62  O   UNL A   1      35.929  32.633  38.840  1.00  0.00    -0.744 OA
ENDBRANCH  56  59
ENDBRANCH  28  52
BRANCH  40  63
ATOM     63  C   UNL A   1      44.942  28.222  33.948  1.00  0.00     0.023 A 
ATOM     64  C   UNL A   1      44.949  27.010  34.664  1.00  0.00     0.012 A 
ATOM     65  C   UNL A   1      46.136  28.960  33.821  1.00  0.00     0.148 A 
ATOM     66  C   UNL A   1      46.123  26.548  35.258  1.00  0.00     0.002 A 
ATOM     67  C   UNL A   1      47.312  28.468  34.370  1.00  0.00     0.091 A 
ATOM     68  F   UNL A   1      46.099  30.121  33.152  1.00  0.00    -0.205 F 
ATOM     69  C   UNL A   1      47.306  27.268  35.099  1.00  0.00     0.022 A 
BRANCH  67  70
ATOM     70  S   UNL A   1      48.899  29.272  34.127  1.00  0.00     0.127 S 
ATOM     71  O   UNL A   1      49.832  28.207  34.492  1.00  0.00    -0.237 OA
ATOM     72  O   UNL A   1      48.866  29.592  32.700  1.00  0.00    -0.237 OA
ATOM     73  O   UNL A   1      48.907  30.432  35.009  1.00  0.00    -0.744 OA
ENDBRANCH  67  70
ENDBRANCH  40  63
ENDBRANCH  14  15
ENDBRANCH   7   9
ENDBRANCH   4   5
ENDBRANCH   3   4
ENDBRANCH   2   3
ENDBRANCH   1   2
BRANCH   1  74
ATOM     74  C   UNL A   1      33.464  27.190  25.707  1.00  0.00     0.021 C 
BRANCH  74  75
ATOM     75  C   UNL A   1      34.151  25.842  25.499  1.00  0.00     0.116 C 
BRANCH  75  76
ATOM     76  N   UNL A   1      33.595  24.802  26.350  1.00  0.00    -0.352 N 
ATOM     77  C   UNL A   1      33.963  23.485  26.455  1.00  0.00     0.253 C 
ATOM     78  H   UNL A   1      32.852  25.082  26.932  1.00  0.00     0.163 HD
ATOM     79  O   UNL A   1      33.321  22.719  27.170  1.00  0.00    -0.269 OA
BRANCH  77  80
ATOM     80  C   UNL A   1      35.118  22.966  25.690  1.00  0.00     0.063 A 
ATOM     81  C   UNL A   1      36.382  23.129  26.278  1.00  0.00     0.016 A 
ATOM     82  C   UNL A   1      34.979  22.365  24.425  1.00  0.00     0.054 A 
ATOM     83  C   UNL A   1      37.520  22.644  25.636  1.00  0.00     0.001 A 
ATOM     84  C   UNL A   1      36.138  21.842  23.825  1.00  0.00     0.027 A 
ATOM     85  C   UNL A   1      37.395  21.988  24.417  1.00  0.00     0.002 A 
BRANCH  82  86
ATOM     86  N   UNL A   1      33.735  22.270  23.781  1.00  0.00    -0.323 N 
ATOM     87  H   UNL A   1      33.280  21.401  23.876  1.00  0.00     0.170 HD
BRANCH  86  88
ATOM     88  C   UNL A   1      33.049  23.217  23.032  1.00  0.00     0.233 A 
ATOM     89  N   UNL A   1      33.401  23.437  21.777  1.00  0.00    -0.182 NA
ATOM     90  N   UNL A   1      32.069  23.861  23.656  1.00  0.00    -0.176 NA
ATOM     91  C   UNL A   1      32.675  24.362  21.175  1.00  0.00     0.228 A 
ATOM     92  C   UNL A   1      31.464  24.828  22.971  1.00  0.00     0.233 A 
ATOM     93  Cl  UNL A   1      33.090  24.703  19.554  1.00  0.00    -0.041 Cl
ATOM     94  N   UNL A   1      31.716  25.097  21.701  1.00  0.00    -0.182 NA
BRANCH  92  95
ATOM     95  N   UNL A   1      30.632  25.659  23.714  1.00  0.00    -0.324 N 
ATOM     96  H   UNL A   1      30.269  25.271  24.544  1.00  0.00     0.170 HD
BRANCH  95  97
ATOM     97  C   UNL A   1      30.245  26.972  23.437  1.00  0.00     0.041 A 
ATOM     98  C   UNL A   1      31.200  27.905  23.020  1.00  0.00     0.028 A 
ATOM     99  C   UNL A   1      28.904  27.357  23.466  1.00  0.00     0.028 A 
ATOM    100  C   UNL A   1      30.821  29.193  22.626  1.00  0.00     0.028 A 
ATOM    101  C   UNL A   1      28.528  28.660  23.135  1.00  0.00     0.028 A 
ATOM    102  C   UNL A   1      29.481  29.584  22.698  1.00  0.00     0.044 A 
BRANCH 102 103
ATOM    103  N   UNL A   1      29.079  30.886  22.289  1.00  0.00    -0.308 N 
ATOM    104  C   UNL A   1      28.386  30.996  21.003  1.00  0.00     0.154 C 
ATOM    105  C   UNL A   1      29.044  31.937  23.214  1.00  0.00     0.253 C 
ATOM    106  C   UNL A   1      28.216  32.438  20.542  1.00  0.00     0.183 C 
ATOM    107  C   UNL A   1      28.385  33.237  22.725  1.00  0.00     0.260 C 
ATOM    108  O   UNL A   1      29.588  31.898  24.320  1.00  0.00    -0.272 OA
ATOM    109  O   UNL A   1      27.569  33.186  21.565  1.00  0.00    -0.370 OA
ENDBRANCH 102 103
ENDBRANCH  95  97
ENDBRANCH  92  95
ENDBRANCH  86  88
ENDBRANCH  82  86
ENDBRANCH  77  80
ENDBRANCH  75  76
ENDBRANCH  74  75
ENDBRANCH   1  74
TORSDOF 21
ENDMDL
