MODEL 1
REMARK VINA RESULT:     -10.9      0.000      0.000
REMARK SMILES CC(C)CCc1cc2c(cc1Cl)C=C(C(=O)NCCCCCCNC(=O)c1ccc(-c3c4nc(c(-c5cccc(S(=O)(=O)[O-])c5F)c5ccc([nH]5)c(-c5cccc(S(=O)(=O)[O-])c5F)c5nc(c(-c6cccc(S(=O)(=O)[O-])c6F)c6ccc3[nH]6)C=C5)C=C4)cc1)[C@@H](C(F)(F)F)O2
REMARK SMILES IDX 20 1 19 2 18 3 17 4 15 5 16 6 14 8 6 9 7 10 11 11 8 12 10 13
REMARK SMILES IDX 12 14 9 15 95 16 13 17 90 18 5 19 4 20 2 21 1 22 3 23 91 24
REMARK SMILES IDX 92 25 93 26 94 27 21 28 22 29 23 30 24 31 25 32 26 34 27 35
REMARK SMILES IDX 28 36 89 37 29 38 88 39 30 40 31 41 32 42 82 43 33 44 87 45
REMARK SMILES IDX 81 46 83 47 34 48 86 49 80 50 79 51 35 53 67 54 47 55 66 56
REMARK SMILES IDX 48 57 51 58 65 59 84 60 49 61 50 62 64 64 85 65 52 66 36 67
REMARK SMILES IDX 37 68 45 69 38 70 40 71 46 72 39 73 41 74 42 75 43 76 44 77
REMARK SMILES IDX 68 78 69 79 77 80 70 81 72 82 78 83 71 84 73 85 74 86 75 87
REMARK SMILES IDX 76 88 53 89 54 90 62 91 55 92 57 93 63 94 56 95 58 96 59 97
REMARK SMILES IDX 60 98 61 99
REMARK H PARENT 17 7 24 33 83 52 51 63
REMARK Flexibility Score: inf
ROOT
ATOM      1  C   UNL A   1      34.821  31.111  27.892  1.00  0.00     0.002 C 
ENDROOT
BRANCH   1   2
ATOM      2  C   UNL A   1      33.467  30.752  27.274  1.00  0.00     0.021 C 
BRANCH   2   3
ATOM      3  C   UNL A   1      33.364  29.336  26.720  1.00  0.00     0.116 C 
BRANCH   3   4
ATOM      4  N   UNL A   1      33.684  29.262  25.310  1.00  0.00    -0.352 N 
ATOM      5  C   UNL A   1      33.585  28.312  24.351  1.00  0.00     0.251 C 
ATOM      6  O   UNL A   1      33.931  28.653  23.215  1.00  0.00    -0.270 OA
ATOM      7  H   UNL A   1      34.062  30.103  24.966  1.00  0.00     0.163 HD
BRANCH   5   8
ATOM      8  C   UNL A   1      33.128  26.910  24.592  1.00  0.00     0.067 C 
ATOM      9  C   UNL A   1      33.170  21.861  25.041  1.00  0.00    -0.026 A 
ATOM     10  C   UNL A   1      32.187  22.860  25.167  1.00  0.00     0.052 A 
ATOM     11  C   UNL A   1      34.472  22.266  24.709  1.00  0.00     0.045 A 
ATOM     12  C   UNL A   1      32.492  24.206  24.961  1.00  0.00     0.128 A 
ATOM     13  C   UNL A   1      34.758  23.610  24.441  1.00  0.00     0.032 A 
ATOM     14  Cl  UNL A   1      35.819  21.186  24.696  1.00  0.00    -0.084 Cl
ATOM     15  C   UNL A   1      33.769  24.584  24.575  1.00  0.00     0.019 A 
ATOM     16  O   UNL A   1      31.480  25.087  25.177  1.00  0.00    -0.475 OA
ATOM     17  C   UNL A   1      34.075  25.986  24.355  1.00  0.00     0.025 C 
ATOM     18  C   UNL A   1      31.738  26.514  25.026  1.00  0.00     0.314 C 
BRANCH   9  19
ATOM     19  C   UNL A   1      32.759  20.426  25.295  1.00  0.00     0.037 C 
BRANCH  19  20
ATOM     20  C   UNL A   1      32.741  19.529  24.043  1.00  0.00     0.008 C 
BRANCH  20  21
ATOM     21  C   UNL A   1      33.085  18.044  24.275  1.00  0.00    -0.017 C 
ATOM     22  C   UNL A   1      34.589  17.773  24.185  1.00  0.00     0.007 C 
ATOM     23  C   UNL A   1      32.579  17.580  25.643  1.00  0.00     0.007 C 
ENDBRANCH  20  21
ENDBRANCH  19  20
ENDBRANCH   9  19
BRANCH  18  24
ATOM     24  C   UNL A   1      30.615  27.059  24.128  1.00  0.00     0.429 C 
ATOM     25  F   UNL A   1      29.439  26.454  24.430  1.00  0.00    -0.167 F 
ATOM     26  F   UNL A   1      30.408  28.386  24.271  1.00  0.00    -0.167 F 
ATOM     27  F   UNL A   1      30.862  26.836  22.817  1.00  0.00    -0.167 F 
ENDBRANCH  18  24
ENDBRANCH   5   8
ENDBRANCH   3   4
ENDBRANCH   2   3
ENDBRANCH   1   2
BRANCH   1  28
ATOM     28  C   UNL A   1      34.893  32.460  28.617  1.00  0.00     0.002 C 
BRANCH  28  29
ATOM     29  C   UNL A   1      33.864  33.508  28.191  1.00  0.00     0.021 C 
BRANCH  29  30
ATOM     30  C   UNL A   1      34.145  34.926  28.668  1.00  0.00     0.116 C 
BRANCH  30  31
ATOM     31  N   UNL A   1      33.145  35.413  29.602  1.00  0.00    -0.352 N 
ATOM     32  C   UNL A   1      33.086  35.245  30.968  1.00  0.00     0.251 C 
ATOM     33  H   UNL A   1      32.410  35.934  29.204  1.00  0.00     0.163 HD
ATOM     34  O   UNL A   1      32.095  35.597  31.588  1.00  0.00    -0.269 OA
BRANCH  32  35
ATOM     35  C   UNL A   1      34.223  34.598  31.660  1.00  0.00     0.039 A 
ATOM     36  C   UNL A   1      35.448  35.259  31.780  1.00  0.00     0.014 A 
ATOM     37  C   UNL A   1      34.071  33.299  32.154  1.00  0.00     0.014 A 
ATOM     38  C   UNL A   1      36.560  34.565  32.245  1.00  0.00     0.010 A 
ATOM     39  C   UNL A   1      35.172  32.633  32.697  1.00  0.00     0.010 A 
ATOM     40  C   UNL A   1      36.436  33.242  32.703  1.00  0.00    -0.014 A 
BRANCH  40  41
ATOM     41  C   UNL A   1      37.642  32.523  33.190  1.00  0.00     0.031 A 
ATOM     42  C   UNL A   1      38.266  31.419  32.379  1.00  0.00     0.074 A 
ATOM     43  C   UNL A   1      38.197  32.896  34.359  1.00  0.00     0.049 A 
ATOM     44  N   UNL A   1      39.326  30.703  32.651  1.00  0.00    -0.248 NA
ATOM     45  C   UNL A   1      37.622  31.069  31.102  1.00  0.00     0.031 C 
ATOM     46  C   UNL A   1      37.674  33.939  35.244  1.00  0.00     0.029 A 
ATOM     47  N   UNL A   1      39.328  32.454  34.999  1.00  0.00    -0.354 N 
ATOM     48  C   UNL A   1      39.453  29.794  31.607  1.00  0.00     0.074 A 
ATOM     49  C   UNL A   1      38.361  30.046  30.694  1.00  0.00     0.031 C 
ATOM     50  C   UNL A   1      38.502  34.086  36.289  1.00  0.00     0.029 A 
ATOM     51  C   UNL A   1      39.586  33.114  36.177  1.00  0.00     0.049 A 
ATOM     52  H   UNL A   1      39.898  31.732  34.648  1.00  0.00     0.167 HD
ATOM     53  C   UNL A   1      40.405  28.850  31.418  1.00  0.00     0.034 A 
ATOM     54  C   UNL A   1      40.576  32.956  37.074  1.00  0.00     0.034 A 
ATOM     55  C   UNL A   1      41.523  28.638  32.296  1.00  0.00     0.049 A 
ATOM     56  C   UNL A   1      41.628  31.914  36.831  1.00  0.00     0.074 A 
ATOM     57  C   UNL A   1      42.562  27.736  32.157  1.00  0.00     0.029 A 
ATOM     58  N   UNL A   1      41.753  29.337  33.471  1.00  0.00    -0.354 N 
ATOM     59  N   UNL A   1      41.767  31.116  35.801  1.00  0.00    -0.248 NA
ATOM     60  C   UNL A   1      42.663  31.757  37.862  1.00  0.00     0.031 C 
ATOM     61  C   UNL A   1      43.421  27.887  33.249  1.00  0.00     0.029 A 
ATOM     62  C   UNL A   1      42.917  28.887  34.065  1.00  0.00     0.049 A 
ATOM     63  H   UNL A   1      41.173  30.048  33.828  1.00  0.00     0.167 HD
ATOM     64  C   UNL A   1      42.909  30.367  36.054  1.00  0.00     0.074 A 
ATOM     65  C   UNL A   1      43.437  30.821  37.324  1.00  0.00     0.031 C 
ATOM     66  C   UNL A   1      43.455  29.378  35.307  1.00  0.00     0.034 A 
BRANCH  53  67
ATOM     67  C   UNL A   1      40.323  28.000  30.181  1.00  0.00     0.023 A 
ATOM     68  C   UNL A   1      39.392  26.944  30.134  1.00  0.00     0.012 A 
ATOM     69  C   UNL A   1      41.083  28.307  29.035  1.00  0.00     0.148 A 
ATOM     70  C   UNL A   1      39.224  26.199  28.968  1.00  0.00     0.002 A 
ATOM     71  C   UNL A   1      40.891  27.578  27.868  1.00  0.00     0.091 A 
ATOM     72  F   UNL A   1      41.971  29.309  29.110  1.00  0.00    -0.205 F 
ATOM     73  C   UNL A   1      39.964  26.522  27.833  1.00  0.00     0.022 A 
BRANCH  71  74
ATOM     74  S   UNL A   1      41.751  27.946  26.335  1.00  0.00     0.127 S 
ATOM     75  O   UNL A   1      43.139  28.035  26.792  1.00  0.00    -0.237 OA
ATOM     76  O   UNL A   1      41.451  26.767  25.523  1.00  0.00    -0.237 OA
ATOM     77  O   UNL A   1      41.181  29.191  25.841  1.00  0.00    -0.744 OA
ENDBRANCH  71  74
ENDBRANCH  53  67
BRANCH  54  78
ATOM     78  C   UNL A   1      40.629  33.854  38.258  1.00  0.00     0.023 A 
ATOM     79  C   UNL A   1      41.444  35.000  38.215  1.00  0.00     0.012 A 
ATOM     80  C   UNL A   1      39.803  33.632  39.377  1.00  0.00     0.148 A 
ATOM     81  C   UNL A   1      41.436  35.914  39.269  1.00  0.00     0.002 A 
ATOM     82  C   UNL A   1      39.766  34.568  40.402  1.00  0.00     0.091 A 
ATOM     83  F   UNL A   1      39.040  32.530  39.391  1.00  0.00    -0.205 F 
ATOM     84  C   UNL A   1      40.589  35.705  40.355  1.00  0.00     0.022 A 
BRANCH  82  85
ATOM     85  S   UNL A   1      38.621  34.450  41.781  1.00  0.00     0.127 S 
ATOM     86  O   UNL A   1      39.238  33.401  42.590  1.00  0.00    -0.237 OA
ATOM     87  O   UNL A   1      38.700  35.795  42.350  1.00  0.00    -0.237 OA
ATOM     88  O   UNL A   1      37.330  34.113  41.198  1.00  0.00    -0.744 OA
ENDBRANCH  82  85
ENDBRANCH  54  78
BRANCH  66  89
ATOM     89  C   UNL A   1      44.695  28.707  35.826  1.00  0.00     0.023 A 
ATOM     90  C   UNL A   1      45.955  29.224  35.467  1.00  0.00     0.012 A 
ATOM     91  C   UNL A   1      44.611  27.658  36.759  1.00  0.00     0.148 A 
ATOM     92  C   UNL A   1      47.118  28.699  36.030  1.00  0.00     0.002 A 
ATOM     93  C   UNL A   1      45.771  27.161  37.340  1.00  0.00     0.091 A 
ATOM     94  F   UNL A   1      43.397  27.181  37.075  1.00  0.00    -0.205 F 
ATOM     95  C   UNL A   1      47.025  27.678  36.974  1.00  0.00     0.022 A 
BRANCH  93  96
ATOM     96  S   UNL A   1      45.752  25.899  38.618  1.00  0.00     0.127 S 
ATOM     97  O   UNL A   1      46.782  26.388  39.534  1.00  0.00    -0.237 OA
ATOM     98  O   UNL A   1      44.385  25.997  39.129  1.00  0.00    -0.237 OA
ATOM     99  O   UNL A   1      46.064  24.643  37.950  1.00  0.00    -0.744 OA
ENDBRANCH  93  96
ENDBRANCH  66  89
ENDBRANCH  40  41
ENDBRANCH  32  35
ENDBRANCH  30  31
ENDBRANCH  29  30
ENDBRANCH  28  29
ENDBRANCH   1  28
TORSDOF 20
ENDMDL
MODEL 2
REMARK VINA RESULT:     -10.7      1.496      7.401
REMARK SMILES CC(C)CCc1cc2c(cc1Cl)C=C(C(=O)NCCCCCCNC(=O)c1ccc(-c3c4nc(c(-c5cccc(S(=O)(=O)[O-])c5F)c5ccc([nH]5)c(-c5cccc(S(=O)(=O)[O-])c5F)c5nc(c(-c6cccc(S(=O)(=O)[O-])c6F)c6ccc3[nH]6)C=C5)C=C4)cc1)[C@@H](C(F)(F)F)O2
REMARK SMILES IDX 20 1 19 2 18 3 17 4 15 5 16 6 14 8 6 9 7 10 11 11 8 12 10 13
REMARK SMILES IDX 12 14 9 15 95 16 13 17 90 18 5 19 4 20 2 21 1 22 3 23 91 24
REMARK SMILES IDX 92 25 93 26 94 27 21 28 22 29 23 30 24 31 25 32 26 34 27 35
REMARK SMILES IDX 28 36 89 37 29 38 88 39 30 40 31 41 32 42 82 43 33 44 87 45
REMARK SMILES IDX 81 46 83 47 34 48 86 49 80 50 79 51 35 53 67 54 47 55 66 56
REMARK SMILES IDX 48 57 51 58 65 59 84 60 49 61 50 62 64 64 85 65 52 66 36 67
REMARK SMILES IDX 37 68 45 69 38 70 40 71 46 72 39 73 41 74 42 75 43 76 44 77
REMARK SMILES IDX 68 78 69 79 77 80 70 81 72 82 78 83 71 84 73 85 74 86 75 87
REMARK SMILES IDX 76 88 53 89 54 90 62 91 55 92 57 93 63 94 56 95 58 96 59 97
REMARK SMILES IDX 60 98 61 99
REMARK H PARENT 17 7 24 33 83 52 51 63
REMARK Flexibility Score: inf
ROOT
ATOM      1  C   UNL A   1      34.992  31.211  27.646  1.00  0.00     0.002 C 
ENDROOT
BRANCH   1   2
ATOM      2  C   UNL A   1      33.652  30.590  27.238  1.00  0.00     0.021 C 
BRANCH   2   3
ATOM      3  C   UNL A   1      33.751  29.244  26.533  1.00  0.00     0.116 C 
BRANCH   3   4
ATOM      4  N   UNL A   1      33.523  29.340  25.106  1.00  0.00    -0.352 N 
ATOM      5  C   UNL A   1      33.154  28.477  24.131  1.00  0.00     0.251 C 
ATOM      6  O   UNL A   1      33.018  28.962  23.004  1.00  0.00    -0.270 OA
ATOM      7  H   UNL A   1      33.671  30.251  24.763  1.00  0.00     0.163 HD
BRANCH   5   8
ATOM      8  C   UNL A   1      32.943  27.012  24.333  1.00  0.00     0.067 C 
ATOM      9  C   UNL A   1      33.841  22.031  24.628  1.00  0.00    -0.026 A 
ATOM     10  C   UNL A   1      32.706  22.846  24.793  1.00  0.00     0.052 A 
ATOM     11  C   UNL A   1      35.052  22.660  24.298  1.00  0.00     0.045 A 
ATOM     12  C   UNL A   1      32.777  24.230  24.626  1.00  0.00     0.128 A 
ATOM     13  C   UNL A   1      35.104  24.040  24.067  1.00  0.00     0.032 A 
ATOM     14  Cl  UNL A   1      36.561  21.823  24.239  1.00  0.00    -0.084 Cl
ATOM     15  C   UNL A   1      33.966  24.829  24.240  1.00  0.00     0.019 A 
ATOM     16  O   UNL A   1      31.634  24.921  24.878  1.00  0.00    -0.475 OA
ATOM     17  C   UNL A   1      34.028  26.268  24.060  1.00  0.00     0.025 C 
ATOM     18  C   UNL A   1      31.645  26.375  24.769  1.00  0.00     0.314 C 
BRANCH   9  19
ATOM     19  C   UNL A   1      33.682  20.542  24.843  1.00  0.00     0.037 C 
BRANCH  19  20
ATOM     20  C   UNL A   1      32.674  19.858  23.898  1.00  0.00     0.008 C 
BRANCH  20  21
ATOM     21  C   UNL A   1      32.470  18.346  24.113  1.00  0.00    -0.017 C 
ATOM     22  C   UNL A   1      33.324  17.501  23.164  1.00  0.00     0.007 C 
ATOM     23  C   UNL A   1      32.801  17.956  25.556  1.00  0.00     0.007 C 
ENDBRANCH  20  21
ENDBRANCH  19  20
ENDBRANCH   9  19
BRANCH  18  24
ATOM     24  C   UNL A   1      30.435  26.748  23.897  1.00  0.00     0.429 C 
ATOM     25  F   UNL A   1      30.772  26.700  22.584  1.00  0.00    -0.167 F 
ATOM     26  F   UNL A   1      29.384  25.914  24.051  1.00  0.00    -0.167 F 
ATOM     27  F   UNL A   1      29.989  27.998  24.157  1.00  0.00    -0.167 F 
ENDBRANCH  18  24
ENDBRANCH   5   8
ENDBRANCH   3   4
ENDBRANCH   2   3
ENDBRANCH   1   2
BRANCH   1  28
ATOM     28  C   UNL A   1      34.912  32.503  28.467  1.00  0.00     0.002 C 
BRANCH  28  29
ATOM     29  C   UNL A   1      33.665  33.361  28.251  1.00  0.00     0.021 C 
BRANCH  29  30
ATOM     30  C   UNL A   1      33.828  34.839  28.574  1.00  0.00     0.116 C 
BRANCH  30  31
ATOM     31  N   UNL A   1      32.902  35.297  29.595  1.00  0.00    -0.352 N 
ATOM     32  C   UNL A   1      32.974  35.134  30.961  1.00  0.00     0.251 C 
ATOM     33  H   UNL A   1      32.116  35.790  29.265  1.00  0.00     0.163 HD
ATOM     34  O   UNL A   1      32.033  35.456  31.669  1.00  0.00    -0.269 OA
BRANCH  32  35
ATOM     35  C   UNL A   1      34.192  34.531  31.547  1.00  0.00     0.039 A 
ATOM     36  C   UNL A   1      35.348  35.296  31.721  1.00  0.00     0.014 A 
ATOM     37  C   UNL A   1      34.186  33.175  31.885  1.00  0.00     0.014 A 
ATOM     38  C   UNL A   1      36.538  34.671  32.076  1.00  0.00     0.010 A 
ATOM     39  C   UNL A   1      35.365  32.567  32.322  1.00  0.00     0.010 A 
ATOM     40  C   UNL A   1      36.562  33.297  32.375  1.00  0.00    -0.014 A 
BRANCH  40  41
ATOM     41  C   UNL A   1      37.849  32.654  32.747  1.00  0.00     0.031 A 
ATOM     42  C   UNL A   1      38.440  32.840  34.119  1.00  0.00     0.074 A 
ATOM     43  C   UNL A   1      38.469  31.866  31.848  1.00  0.00     0.049 A 
ATOM     44  N   UNL A   1      39.544  32.338  34.610  1.00  0.00    -0.248 NA
ATOM     45  C   UNL A   1      37.706  33.700  35.062  1.00  0.00     0.031 C 
ATOM     46  C   UNL A   1      38.005  31.622  30.481  1.00  0.00     0.029 A 
ATOM     47  N   UNL A   1      39.613  31.114  31.949  1.00  0.00    -0.354 N 
ATOM     48  C   UNL A   1      39.659  32.850  35.897  1.00  0.00     0.074 A 
ATOM     49  C   UNL A   1      38.513  33.705  36.115  1.00  0.00     0.031 C 
ATOM     50  C   UNL A   1      38.830  30.749  29.885  1.00  0.00     0.029 A 
ATOM     51  C   UNL A   1      39.909  30.410  30.807  1.00  0.00     0.049 A 
ATOM     52  H   UNL A   1      40.167  31.083  32.762  1.00  0.00     0.167 HD
ATOM     53  C   UNL A   1      40.621  32.612  36.819  1.00  0.00     0.034 A 
ATOM     54  C   UNL A   1      40.937  29.588  30.523  1.00  0.00     0.034 A 
ATOM     55  C   UNL A   1      41.729  31.717  36.623  1.00  0.00     0.049 A 
ATOM     56  C   UNL A   1      41.980  29.329  31.569  1.00  0.00     0.074 A 
ATOM     57  C   UNL A   1      42.725  31.378  37.521  1.00  0.00     0.029 A 
ATOM     58  N   UNL A   1      41.985  31.015  35.456  1.00  0.00    -0.354 N 
ATOM     59  N   UNL A   1      42.029  29.767  32.803  1.00  0.00    -0.248 NA
ATOM     60  C   UNL A   1      43.101  28.456  31.193  1.00  0.00     0.031 C 
ATOM     61  C   UNL A   1      43.587  30.473  36.896  1.00  0.00     0.029 A 
ATOM     62  C   UNL A   1      43.122  30.244  35.611  1.00  0.00     0.049 A 
ATOM     63  H   UNL A   1      41.438  31.058  34.639  1.00  0.00     0.167 HD
ATOM     64  C   UNL A   1      43.179  29.217  33.355  1.00  0.00     0.074 A 
ATOM     65  C   UNL A   1      43.787  28.396  32.328  1.00  0.00     0.031 C 
ATOM     66  C   UNL A   1      43.692  29.397  34.596  1.00  0.00     0.034 A 
BRANCH  53  67
ATOM     67  C   UNL A   1      40.499  33.283  38.159  1.00  0.00     0.023 A 
ATOM     68  C   UNL A   1      39.818  32.622  39.199  1.00  0.00     0.012 A 
ATOM     69  C   UNL A   1      41.145  34.508  38.419  1.00  0.00     0.148 A 
ATOM     70  C   UNL A   1      39.772  33.174  40.479  1.00  0.00     0.002 A 
ATOM     71  C   UNL A   1      41.118  35.038  39.703  1.00  0.00     0.091 A 
ATOM     72  F   UNL A   1      41.776  35.123  37.409  1.00  0.00    -0.205 F 
ATOM     73  C   UNL A   1      40.430  34.374  40.733  1.00  0.00     0.022 A 
BRANCH  71  74
ATOM     74  S   UNL A   1      41.978  36.550  40.152  1.00  0.00     0.127 S 
ATOM     75  O   UNL A   1      41.644  36.667  41.572  1.00  0.00    -0.237 OA
ATOM     76  O   UNL A   1      43.373  36.203  39.880  1.00  0.00    -0.237 OA
ATOM     77  O   UNL A   1      41.430  37.595  39.299  1.00  0.00    -0.744 OA
ENDBRANCH  71  74
ENDBRANCH  53  67
BRANCH  54  78
ATOM     78  C   UNL A   1      40.983  28.920  29.195  1.00  0.00     0.023 A 
ATOM     79  C   UNL A   1      41.608  29.575  28.118  1.00  0.00     0.012 A 
ATOM     80  C   UNL A   1      40.502  27.608  29.025  1.00  0.00     0.148 A 
ATOM     81  C   UNL A   1      41.755  28.932  26.889  1.00  0.00     0.002 A 
ATOM     82  C   UNL A   1      40.692  26.957  27.813  1.00  0.00     0.091 A 
ATOM     83  F   UNL A   1      39.908  27.011  30.067  1.00  0.00    -0.205 F 
ATOM     84  C   UNL A   1      41.310  27.620  26.740  1.00  0.00     0.022 A 
BRANCH  82  85
ATOM     85  S   UNL A   1      40.264  25.231  27.562  1.00  0.00     0.127 S 
ATOM     86  O   UNL A   1      38.875  25.200  28.016  1.00  0.00    -0.237 OA
ATOM     87  O   UNL A   1      40.444  25.086  26.118  1.00  0.00    -0.237 OA
ATOM     88  O   UNL A   1      41.204  24.467  28.371  1.00  0.00    -0.744 OA
ENDBRANCH  82  85
ENDBRANCH  54  78
BRANCH  66  89
ATOM     89  C   UNL A   1      44.976  28.695  34.935  1.00  0.00     0.023 A 
ATOM     90  C   UNL A   1      46.195  29.380  34.769  1.00  0.00     0.012 A 
ATOM     91  C   UNL A   1      44.967  27.420  35.530  1.00  0.00     0.148 A 
ATOM     92  C   UNL A   1      47.392  28.800  35.189  1.00  0.00     0.002 A 
ATOM     93  C   UNL A   1      46.158  26.862  35.975  1.00  0.00     0.091 A 
ATOM     94  F   UNL A   1      43.791  26.789  35.666  1.00  0.00    -0.205 F 
ATOM     95  C   UNL A   1      47.372  27.549  35.802  1.00  0.00     0.022 A 
BRANCH  93  96
ATOM     96  S   UNL A   1      46.228  25.290  36.843  1.00  0.00     0.127 S 
ATOM     97  O   UNL A   1      45.766  24.361  35.813  1.00  0.00    -0.237 OA
ATOM     98  O   UNL A   1      47.650  25.182  37.169  1.00  0.00    -0.237 OA
ATOM     99  O   UNL A   1      45.348  25.426  37.995  1.00  0.00    -0.744 OA
ENDBRANCH  93  96
ENDBRANCH  66  89
ENDBRANCH  40  41
ENDBRANCH  32  35
ENDBRANCH  30  31
ENDBRANCH  29  30
ENDBRANCH  28  29
ENDBRANCH   1  28
TORSDOF 20
ENDMDL
MODEL 3
REMARK VINA RESULT:     -10.4      5.600     11.841
REMARK SMILES CC(C)CCc1cc2c(cc1Cl)C=C(C(=O)NCCCCCCNC(=O)c1ccc(-c3c4nc(c(-c5cccc(S(=O)(=O)[O-])c5F)c5ccc([nH]5)c(-c5cccc(S(=O)(=O)[O-])c5F)c5nc(c(-c6cccc(S(=O)(=O)[O-])c6F)c6ccc3[nH]6)C=C5)C=C4)cc1)[C@@H](C(F)(F)F)O2
REMARK SMILES IDX 20 1 19 2 18 3 17 4 15 5 16 6 14 8 6 9 7 10 11 11 8 12 10 13
REMARK SMILES IDX 12 14 9 15 95 16 13 17 90 18 5 19 4 20 2 21 1 22 3 23 91 24
REMARK SMILES IDX 92 25 93 26 94 27 21 28 22 29 23 30 24 31 25 32 26 34 27 35
REMARK SMILES IDX 28 36 89 37 29 38 88 39 30 40 31 41 32 42 82 43 33 44 87 45
REMARK SMILES IDX 81 46 83 47 34 48 86 49 80 50 79 51 35 53 67 54 47 55 66 56
REMARK SMILES IDX 48 57 51 58 65 59 84 60 49 61 50 62 64 64 85 65 52 66 36 67
REMARK SMILES IDX 37 68 45 69 38 70 40 71 46 72 39 73 41 74 42 75 43 76 44 77
REMARK SMILES IDX 68 78 69 79 77 80 70 81 72 82 78 83 71 84 73 85 74 86 75 87
REMARK SMILES IDX 76 88 53 89 54 90 62 91 55 92 57 93 63 94 56 95 58 96 59 97
REMARK SMILES IDX 60 98 61 99
REMARK H PARENT 17 7 24 33 83 52 51 63
REMARK Flexibility Score: inf
ROOT
ATOM      1  C   UNL A   1      42.362  34.916  33.878  1.00  0.00     0.002 C 
ENDROOT
BRANCH   1   2
ATOM      2  C   UNL A   1      40.858  34.674  34.033  1.00  0.00     0.021 C 
BRANCH   2   3
ATOM      3  C   UNL A   1      40.350  33.365  33.443  1.00  0.00     0.116 C 
BRANCH   3   4
ATOM      4  N   UNL A   1      40.220  32.317  34.434  1.00  0.00    -0.352 N 
ATOM      5  C   UNL A   1      40.937  31.219  34.772  1.00  0.00     0.251 C 
ATOM      6  O   UNL A   1      40.513  30.574  35.736  1.00  0.00    -0.270 OA
ATOM      7  H   UNL A   1      39.419  32.429  34.996  1.00  0.00     0.163 HD
BRANCH   5   8
ATOM      8  C   UNL A   1      42.152  30.745  34.044  1.00  0.00     0.067 C 
ATOM      9  C   UNL A   1      45.249  27.870  31.244  1.00  0.00    -0.026 A 
ATOM     10  C   UNL A   1      45.377  29.096  31.923  1.00  0.00     0.052 A 
ATOM     11  C   UNL A   1      44.009  27.216  31.308  1.00  0.00     0.045 A 
ATOM     12  C   UNL A   1      44.312  29.640  32.642  1.00  0.00     0.128 A 
ATOM     13  C   UNL A   1      42.965  27.733  32.084  1.00  0.00     0.032 A 
ATOM     14  Cl  UNL A   1      43.641  25.804  30.385  1.00  0.00    -0.084 Cl
ATOM     15  C   UNL A   1      43.112  28.952  32.746  1.00  0.00     0.019 A 
ATOM     16  O   UNL A   1      44.530  30.860  33.200  1.00  0.00    -0.475 OA
ATOM     17  C   UNL A   1      42.013  29.522  33.504  1.00  0.00     0.025 C 
ATOM     18  C   UNL A   1      43.447  31.511  33.927  1.00  0.00     0.314 C 
BRANCH   9  19
ATOM     19  C   UNL A   1      46.448  27.357  30.475  1.00  0.00     0.037 C 
BRANCH  19  20
ATOM     20  C   UNL A   1      47.119  26.111  31.083  1.00  0.00     0.008 C 
BRANCH  20  21
ATOM     21  C   UNL A   1      48.542  26.316  31.637  1.00  0.00    -0.017 C 
ATOM     22  C   UNL A   1      48.688  25.808  33.074  1.00  0.00     0.007 C 
ATOM     23  C   UNL A   1      49.573  25.606  30.755  1.00  0.00     0.007 C 
ENDBRANCH  20  21
ENDBRANCH  19  20
ENDBRANCH   9  19
BRANCH  18  24
ATOM     24  C   UNL A   1      44.042  31.955  35.273  1.00  0.00     0.429 C 
ATOM     25  F   UNL A   1      43.049  32.259  36.146  1.00  0.00    -0.167 F 
ATOM     26  F   UNL A   1      44.794  31.005  35.868  1.00  0.00    -0.167 F 
ATOM     27  F   UNL A   1      44.820  33.054  35.145  1.00  0.00    -0.167 F 
ENDBRANCH  18  24
ENDBRANCH   5   8
ENDBRANCH   3   4
ENDBRANCH   2   3
ENDBRANCH   1   2
BRANCH   1  28
ATOM     28  C   UNL A   1      42.851  35.225  32.458  1.00  0.00     0.002 C 
BRANCH  28  29
ATOM     29  C   UNL A   1      43.760  36.445  32.311  1.00  0.00     0.021 C 
BRANCH  29  30
ATOM     30  C   UNL A   1      45.142  36.306  32.934  1.00  0.00     0.116 C 
BRANCH  30  31
ATOM     31  N   UNL A   1      46.193  36.864  32.102  1.00  0.00    -0.352 N 
ATOM     32  C   UNL A   1      46.810  36.308  31.004  1.00  0.00     0.251 C 
ATOM     33  H   UNL A   1      46.506  37.762  32.358  1.00  0.00     0.163 HD
ATOM     34  O   UNL A   1      47.782  36.852  30.503  1.00  0.00    -0.269 OA
BRANCH  32  35
ATOM     35  C   UNL A   1      46.301  35.025  30.468  1.00  0.00     0.039 A 
ATOM     36  C   UNL A   1      45.574  34.994  29.276  1.00  0.00     0.014 A 
ATOM     37  C   UNL A   1      46.518  33.850  31.193  1.00  0.00     0.014 A 
ATOM     38  C   UNL A   1      44.929  33.823  28.895  1.00  0.00     0.010 A 
ATOM     39  C   UNL A   1      45.936  32.656  30.762  1.00  0.00     0.010 A 
ATOM     40  C   UNL A   1      45.097  32.641  29.637  1.00  0.00    -0.014 A 
BRANCH  40  41
ATOM     41  C   UNL A   1      44.393  31.405  29.210  1.00  0.00     0.031 A 
ATOM     42  C   UNL A   1      45.092  30.360  28.382  1.00  0.00     0.074 A 
ATOM     43  C   UNL A   1      43.119  31.209  29.604  1.00  0.00     0.049 A 
ATOM     44  N   UNL A   1      44.628  29.220  27.940  1.00  0.00    -0.248 NA
ATOM     45  C   UNL A   1      46.489  30.625  27.997  1.00  0.00     0.031 C 
ATOM     46  C   UNL A   1      42.328  32.157  30.392  1.00  0.00     0.029 A 
ATOM     47  N   UNL A   1      42.270  30.149  29.409  1.00  0.00    -0.354 N 
ATOM     48  C   UNL A   1      45.653  28.652  27.194  1.00  0.00     0.074 A 
ATOM     49  C   UNL A   1      46.768  29.572  27.239  1.00  0.00     0.031 C 
ATOM     50  C   UNL A   1      41.127  31.619  30.650  1.00  0.00     0.029 A 
ATOM     51  C   UNL A   1      41.042  30.313  30.003  1.00  0.00     0.049 A 
ATOM     52  H   UNL A   1      42.518  29.348  28.894  1.00  0.00     0.167 HD
ATOM     53  C   UNL A   1      45.671  27.463  26.547  1.00  0.00     0.034 A 
ATOM     54  C   UNL A   1      39.961  29.512  30.023  1.00  0.00     0.034 A 
ATOM     55  C   UNL A   1      44.583  26.522  26.549  1.00  0.00     0.049 A 
ATOM     56  C   UNL A   1      40.013  28.191  29.312  1.00  0.00     0.074 A 
ATOM     57  C   UNL A   1      44.532  25.271  25.960  1.00  0.00     0.029 A 
ATOM     58  N   UNL A   1      43.362  26.723  27.173  1.00  0.00    -0.354 N 
ATOM     59  N   UNL A   1      41.018  27.643  28.674  1.00  0.00    -0.248 NA
ATOM     60  C   UNL A   1      38.793  27.374  29.332  1.00  0.00     0.031 C 
ATOM     61  C   UNL A   1      43.278  24.715  26.226  1.00  0.00     0.029 A 
ATOM     62  C   UNL A   1      42.551  25.619  26.984  1.00  0.00     0.049 A 
ATOM     63  H   UNL A   1      43.110  27.531  27.676  1.00  0.00     0.167 HD
ATOM     64  C   UNL A   1      40.557  26.414  28.224  1.00  0.00     0.074 A 
ATOM     65  C   UNL A   1      39.187  26.286  28.680  1.00  0.00     0.031 C 
ATOM     66  C   UNL A   1      41.206  25.486  27.481  1.00  0.00     0.034 A 
BRANCH  53  67
ATOM     67  C   UNL A   1      46.927  27.069  25.821  1.00  0.00     0.023 A 
ATOM     68  C   UNL A   1      47.053  27.375  24.452  1.00  0.00     0.012 A 
ATOM     69  C   UNL A   1      48.016  26.499  26.509  1.00  0.00     0.148 A 
ATOM     70  C   UNL A   1      48.242  27.111  23.774  1.00  0.00     0.002 A 
ATOM     71  C   UNL A   1      49.207  26.264  25.834  1.00  0.00     0.091 A 
ATOM     72  F   UNL A   1      47.866  26.206  27.809  1.00  0.00    -0.205 F 
ATOM     73  C   UNL A   1      49.321  26.567  24.466  1.00  0.00     0.022 A 
BRANCH  71  74
ATOM     74  S   UNL A   1      50.676  25.618  26.641  1.00  0.00     0.127 S 
ATOM     75  O   UNL A   1      51.019  26.714  27.547  1.00  0.00    -0.237 OA
ATOM     76  O   UNL A   1      50.161  24.419  27.303  1.00  0.00    -0.237 OA
ATOM     77  O   UNL A   1      51.641  25.365  25.581  1.00  0.00    -0.744 OA
ENDBRANCH  71  74
ENDBRANCH  53  67
BRANCH  54  78
ATOM     78  C   UNL A   1      38.761  29.935  30.792  1.00  0.00     0.023 A 
ATOM     79  C   UNL A   1      38.691  29.650  32.168  1.00  0.00     0.012 A 
ATOM     80  C   UNL A   1      37.744  30.702  30.190  1.00  0.00     0.148 A 
ATOM     81  C   UNL A   1      37.626  30.123  32.935  1.00  0.00     0.002 A 
ATOM     82  C   UNL A   1      36.711  31.207  30.968  1.00  0.00     0.091 A 
ATOM     83  F   UNL A   1      37.835  30.954  28.877  1.00  0.00    -0.205 F 
ATOM     84  C   UNL A   1      36.645  30.911  32.339  1.00  0.00     0.022 A 
BRANCH  82  85
ATOM     85  S   UNL A   1      35.469  32.330  30.318  1.00  0.00     0.127 S 
ATOM     86  O   UNL A   1      34.570  32.472  31.461  1.00  0.00    -0.237 OA
ATOM     87  O   UNL A   1      36.269  33.514  30.011  1.00  0.00    -0.237 OA
ATOM     88  O   UNL A   1      34.901  31.662  29.154  1.00  0.00    -0.744 OA
ENDBRANCH  82  85
ENDBRANCH  54  78
BRANCH  66  89
ATOM     89  C   UNL A   1      40.460  24.237  27.106  1.00  0.00     0.023 A 
ATOM     90  C   UNL A   1      39.233  24.350  26.426  1.00  0.00     0.012 A 
ATOM     91  C   UNL A   1      41.031  22.967  27.311  1.00  0.00     0.148 A 
ATOM     92  C   UNL A   1      38.579  23.211  25.958  1.00  0.00     0.002 A 
ATOM     93  C   UNL A   1      40.391  21.839  26.815  1.00  0.00     0.091 A 
ATOM     94  F   UNL A   1      42.197  22.891  27.970  1.00  0.00    -0.205 F 
ATOM     95  C   UNL A   1      39.163  21.959  26.141  1.00  0.00     0.022 A 
BRANCH  93  96
ATOM     96  S   UNL A   1      41.097  20.192  26.934  1.00  0.00     0.127 S 
ATOM     97  O   UNL A   1      40.279  19.448  25.976  1.00  0.00    -0.237 OA
ATOM     98  O   UNL A   1      42.478  20.417  26.512  1.00  0.00    -0.237 OA
ATOM     99  O   UNL A   1      40.943  19.786  28.324  1.00  0.00    -0.744 OA
ENDBRANCH  93  96
ENDBRANCH  66  89
ENDBRANCH  40  41
ENDBRANCH  32  35
ENDBRANCH  30  31
ENDBRANCH  29  30
ENDBRANCH  28  29
ENDBRANCH   1  28
TORSDOF 20
ENDMDL
