MODEL 1
REMARK VINA RESULT:     -11.6      0.000      0.000
REMARK SMILES NS(=O)(=O)c1ccc(-n2nc(C(F)(F)F)cc2-c2ccc(C(=O)NCCCCCCNC(=O)c3ccc(-c4c5nc(c(-c6cccc(S(=O)(=O)[O-])c6F)c6ccc([nH]6)c(-c6cccc(S(=O)(=O)[O-])c6F)c6nc(c(-c7cccc(S(=O)(=O)[O-])c7F)c7ccc4[nH]7)C=C6)C=C5)cc3)cc2)cc1
REMARK SMILES IDX 27 1 26 2 25 3 24 4 22 5 23 6 21 8 18 9 19 10 98 11 20 12
REMARK SMILES IDX 97 13 17 14 9 15 10 16 11 17 16 18 8 19 5 20 6 21 100 22
REMARK SMILES IDX 7 23 99 24 2 25 3 26 4 27 1 28 12 31 13 32 14 33 15 34 28 35
REMARK SMILES IDX 29 36 30 37 31 38 32 39 33 41 34 42 35 43 96 44 36 45 95 46
REMARK SMILES IDX 37 47 38 48 39 49 89 50 40 51 94 52 88 53 90 54 41 55 93 56
REMARK SMILES IDX 87 57 86 58 42 60 74 61 54 62 73 63 55 64 58 65 72 66 91 67
REMARK SMILES IDX 56 68 57 69 71 71 92 72 59 73 43 74 44 75 52 76 45 77 47 78
REMARK SMILES IDX 53 79 46 80 48 81 49 82 50 83 51 84 75 85 76 86 84 87 77 88
REMARK SMILES IDX 79 89 85 90 78 91 80 92 81 93 82 94 83 95 60 96 61 97 69 98
REMARK SMILES IDX 62 99 64 100 70 101 63 102 65 103 66 104 67 105 68 106
REMARK H PARENT 24 7 1 29 1 30 31 40 90 59 58 70
REMARK Flexibility Score: inf
ROOT
ATOM      1  C   UNL A   1      35.923  23.440  24.242  1.00  0.00     0.002 C 
ENDROOT
BRANCH   1   2
ATOM      2  C   UNL A   1      35.269  22.059  24.373  1.00  0.00     0.021 C 
BRANCH   2   3
ATOM      3  C   UNL A   1      33.742  22.135  24.400  1.00  0.00     0.116 C 
BRANCH   3   4
ATOM      4  N   UNL A   1      33.275  22.209  25.771  1.00  0.00    -0.352 N 
ATOM      5  C   UNL A   1      32.628  23.197  26.465  1.00  0.00     0.251 C 
ATOM      6  O   UNL A   1      32.334  22.979  27.640  1.00  0.00    -0.269 OA
ATOM      7  H   UNL A   1      33.455  21.400  26.300  1.00  0.00     0.163 HD
BRANCH   5   8
ATOM      8  C   UNL A   1      32.176  24.458  25.817  1.00  0.00     0.039 A 
ATOM      9  C   UNL A   1      31.044  26.763  24.701  1.00  0.00     0.000 A 
ATOM     10  C   UNL A   1      30.984  26.552  26.084  1.00  0.00     0.011 A 
ATOM     11  C   UNL A   1      31.710  25.850  23.887  1.00  0.00     0.011 A 
ATOM     12  C   UNL A   1      31.538  25.398  26.636  1.00  0.00     0.014 A 
ATOM     13  C   UNL A   1      32.331  24.742  24.457  1.00  0.00     0.014 A 
BRANCH   9  14
ATOM     14  C   UNL A   1      30.525  27.987  24.117  1.00  0.00     0.075 A 
ATOM     15  N   UNL A   1      30.924  29.258  24.502  1.00  0.00    -0.233 N 
ATOM     16  N   UNL A   1      30.094  30.212  23.999  1.00  0.00    -0.163 NA
ATOM     17  C   UNL A   1      29.374  29.567  23.055  1.00  0.00     0.167 A 
ATOM     18  C   UNL A   1      29.573  28.167  23.140  1.00  0.00     0.064 A 
BRANCH  15  19
ATOM     19  C   UNL A   1      31.985  29.580  25.388  1.00  0.00     0.065 A 
ATOM     20  C   UNL A   1      34.126  30.407  26.960  1.00  0.00     0.082 A 
ATOM     21  C   UNL A   1      32.861  30.937  27.205  1.00  0.00     0.024 A 
ATOM     22  C   UNL A   1      34.321  29.444  25.959  1.00  0.00     0.024 A 
ATOM     23  C   UNL A   1      31.790  30.523  26.413  1.00  0.00     0.030 A 
ATOM     24  C   UNL A   1      33.244  29.010  25.183  1.00  0.00     0.030 A 
BRANCH  20  25
ATOM     25  S   UNL A   1      35.507  30.923  27.930  1.00  0.00     0.238 S 
ATOM     26  O   UNL A   1      35.935  32.223  27.488  1.00  0.00    -0.207 OA
ATOM     27  O   UNL A   1      36.411  29.816  28.159  1.00  0.00    -0.207 OA
BRANCH  25  28
ATOM     28  N   UNL A   1      34.806  31.182  29.446  1.00  0.00    -0.225 NA
ATOM     29  H   UNL A   1      34.714  30.291  29.934  1.00  0.00     0.137 HD
ATOM     30  H   UNL A   1      33.884  31.601  29.327  1.00  0.00     0.137 HD
ENDBRANCH  25  28
ENDBRANCH  20  25
ENDBRANCH  15  19
BRANCH  17  31
ATOM     31  C   UNL A   1      28.464  30.265  22.081  1.00  0.00     0.435 C 
ATOM     32  F   UNL A   1      29.128  30.794  21.019  1.00  0.00    -0.164 F 
ATOM     33  F   UNL A   1      27.504  29.443  21.583  1.00  0.00    -0.164 F 
ATOM     34  F   UNL A   1      27.806  31.306  22.669  1.00  0.00    -0.164 F 
ENDBRANCH  17  31
ENDBRANCH   9  14
ENDBRANCH   5   8
ENDBRANCH   3   4
ENDBRANCH   2   3
ENDBRANCH   1   2
BRANCH   1  35
ATOM     35  C   UNL A   1      36.359  24.078  25.571  1.00  0.00     0.002 C 
BRANCH  35  36
ATOM     36  C   UNL A   1      37.655  23.521  26.183  1.00  0.00     0.021 C 
BRANCH  36  37
ATOM     37  C   UNL A   1      38.559  24.611  26.731  1.00  0.00     0.116 C 
BRANCH  37  38
ATOM     38  N   UNL A   1      39.869  24.598  26.071  1.00  0.00    -0.352 N 
ATOM     39  C   UNL A   1      40.829  25.588  26.042  1.00  0.00     0.251 C 
ATOM     40  H   UNL A   1      40.094  23.772  25.585  1.00  0.00     0.163 HD
ATOM     41  O   UNL A   1      41.690  25.604  25.171  1.00  0.00    -0.269 OA
BRANCH  39  42
ATOM     42  C   UNL A   1      40.810  26.609  27.100  1.00  0.00     0.039 A 
ATOM     43  C   UNL A   1      41.069  26.299  28.438  1.00  0.00     0.014 A 
ATOM     44  C   UNL A   1      40.539  27.916  26.705  1.00  0.00     0.014 A 
ATOM     45  C   UNL A   1      41.106  27.336  29.365  1.00  0.00     0.010 A 
ATOM     46  C   UNL A   1      40.781  28.944  27.568  1.00  0.00     0.010 A 
ATOM     47  C   UNL A   1      40.965  28.656  28.913  1.00  0.00    -0.014 A 
BRANCH  47  48
ATOM     48  C   UNL A   1      41.134  29.799  29.795  1.00  0.00     0.031 A 
ATOM     49  C   UNL A   1      39.842  30.336  30.297  1.00  0.00     0.074 A 
ATOM     50  C   UNL A   1      42.346  30.125  30.301  1.00  0.00     0.049 A 
ATOM     51  N   UNL A   1      39.284  31.459  29.987  1.00  0.00    -0.248 NA
ATOM     52  C   UNL A   1      38.964  29.433  31.065  1.00  0.00     0.031 C 
ATOM     53  C   UNL A   1      43.619  29.411  30.112  1.00  0.00     0.029 A 
ATOM     54  N   UNL A   1      42.678  31.064  31.226  1.00  0.00    -0.354 N 
ATOM     55  C   UNL A   1      38.130  31.517  30.765  1.00  0.00     0.074 A 
ATOM     56  C   UNL A   1      37.852  30.165  31.161  1.00  0.00     0.031 C 
ATOM     57  C   UNL A   1      44.488  29.767  31.085  1.00  0.00     0.029 A 
ATOM     58  C   UNL A   1      43.903  30.844  31.858  1.00  0.00     0.049 A 
ATOM     59  H   UNL A   1      42.102  31.836  31.431  1.00  0.00     0.167 HD
ATOM     60  C   UNL A   1      37.709  32.700  31.294  1.00  0.00     0.034 A 
ATOM     61  C   UNL A   1      44.368  31.463  32.974  1.00  0.00     0.034 A 
ATOM     62  C   UNL A   1      38.386  33.809  30.661  1.00  0.00     0.049 A 
ATOM     63  C   UNL A   1      43.581  32.705  33.138  1.00  0.00     0.074 A 
ATOM     64  C   UNL A   1      38.519  34.267  29.366  1.00  0.00     0.029 A 
ATOM     65  N   UNL A   1      39.414  34.379  31.375  1.00  0.00    -0.354 N 
ATOM     66  N   UNL A   1      43.630  33.697  32.295  1.00  0.00    -0.248 NA
ATOM     67  C   UNL A   1      42.393  32.641  33.971  1.00  0.00     0.031 C 
ATOM     68  C   UNL A   1      39.875  34.701  29.269  1.00  0.00     0.029 A 
ATOM     69  C   UNL A   1      40.467  34.575  30.527  1.00  0.00     0.049 A 
ATOM     70  H   UNL A   1      39.394  34.605  32.332  1.00  0.00     0.167 HD
ATOM     71  C   UNL A   1      42.302  34.074  32.143  1.00  0.00     0.074 A 
ATOM     72  C   UNL A   1      41.604  33.469  33.278  1.00  0.00     0.031 C 
ATOM     73  C   UNL A   1      41.849  34.567  30.954  1.00  0.00     0.034 A 
BRANCH  60  74
ATOM     74  C   UNL A   1      37.045  32.870  32.649  1.00  0.00     0.023 A 
ATOM     75  C   UNL A   1      35.895  33.691  32.690  1.00  0.00     0.012 A 
ATOM     76  C   UNL A   1      37.622  32.526  33.895  1.00  0.00     0.148 A 
ATOM     77  C   UNL A   1      35.399  34.210  33.891  1.00  0.00     0.002 A 
ATOM     78  C   UNL A   1      37.082  32.983  35.093  1.00  0.00     0.091 A 
ATOM     79  F   UNL A   1      38.774  31.860  33.947  1.00  0.00    -0.205 F 
ATOM     80  C   UNL A   1      35.993  33.855  35.095  1.00  0.00     0.022 A 
BRANCH  78  81
ATOM     81  S   UNL A   1      37.787  32.523  36.683  1.00  0.00     0.127 S 
ATOM     82  O   UNL A   1      36.816  33.098  37.609  1.00  0.00    -0.237 OA
ATOM     83  O   UNL A   1      37.779  31.063  36.597  1.00  0.00    -0.237 OA
ATOM     84  O   UNL A   1      39.121  33.112  36.712  1.00  0.00    -0.744 OA
ENDBRANCH  78  81
ENDBRANCH  60  74
BRANCH  61  85
ATOM     85  C   UNL A   1      45.228  30.949  34.071  1.00  0.00     0.023 A 
ATOM     86  C   UNL A   1      46.343  31.699  34.502  1.00  0.00     0.012 A 
ATOM     87  C   UNL A   1      44.788  29.887  34.891  1.00  0.00     0.148 A 
ATOM     88  C   UNL A   1      46.973  31.424  35.723  1.00  0.00     0.002 A 
ATOM     89  C   UNL A   1      45.416  29.617  36.102  1.00  0.00     0.091 A 
ATOM     90  F   UNL A   1      43.694  29.206  34.526  1.00  0.00    -0.205 F 
ATOM     91  C   UNL A   1      46.504  30.391  36.529  1.00  0.00     0.022 A 
BRANCH  89  92
ATOM     92  S   UNL A   1      44.843  28.320  37.209  1.00  0.00     0.127 S 
ATOM     93  O   UNL A   1      45.683  28.542  38.386  1.00  0.00    -0.237 OA
ATOM     94  O   UNL A   1      43.435  28.667  37.382  1.00  0.00    -0.237 OA
ATOM     95  O   UNL A   1      45.095  27.062  36.516  1.00  0.00    -0.744 OA
ENDBRANCH  89  92
ENDBRANCH  61  85
BRANCH  73  96
ATOM     96  C   UNL A   1      42.871  34.944  29.909  1.00  0.00     0.023 A 
ATOM     97  C   UNL A   1      43.541  36.186  29.894  1.00  0.00     0.012 A 
ATOM     98  C   UNL A   1      43.285  33.940  29.021  1.00  0.00     0.148 A 
ATOM     99  C   UNL A   1      44.588  36.424  28.998  1.00  0.00     0.002 A 
ATOM    100  C   UNL A   1      44.355  34.161  28.166  1.00  0.00     0.091 A 
ATOM    101  F   UNL A   1      42.637  32.766  29.051  1.00  0.00    -0.205 F 
ATOM    102  C   UNL A   1      45.004  35.406  28.143  1.00  0.00     0.022 A 
BRANCH 100 103
ATOM    103  S   UNL A   1      45.011  32.848  27.139  1.00  0.00     0.127 S 
ATOM    104  O   UNL A   1      43.922  32.631  26.189  1.00  0.00    -0.237 OA
ATOM    105  O   UNL A   1      46.209  33.464  26.568  1.00  0.00    -0.237 OA
ATOM    106  O   UNL A   1      45.287  31.734  28.039  1.00  0.00    -0.744 OA
ENDBRANCH 100 103
ENDBRANCH  73  96
ENDBRANCH  47  48
ENDBRANCH  39  42
ENDBRANCH  37  38
ENDBRANCH  36  37
ENDBRANCH  35  36
ENDBRANCH   1  35
TORSDOF 21
ENDMDL
MODEL 2
REMARK VINA RESULT:     -11.1      2.387      3.290
REMARK SMILES NS(=O)(=O)c1ccc(-n2nc(C(F)(F)F)cc2-c2ccc(C(=O)NCCCCCCNC(=O)c3ccc(-c4c5nc(c(-c6cccc(S(=O)(=O)[O-])c6F)c6ccc([nH]6)c(-c6cccc(S(=O)(=O)[O-])c6F)c6nc(c(-c7cccc(S(=O)(=O)[O-])c7F)c7ccc4[nH]7)C=C6)C=C5)cc3)cc2)cc1
REMARK SMILES IDX 27 1 26 2 25 3 24 4 22 5 23 6 21 8 18 9 19 10 98 11 20 12
REMARK SMILES IDX 97 13 17 14 9 15 10 16 11 17 16 18 8 19 5 20 6 21 100 22
REMARK SMILES IDX 7 23 99 24 2 25 3 26 4 27 1 28 12 31 13 32 14 33 15 34 28 35
REMARK SMILES IDX 29 36 30 37 31 38 32 39 33 41 34 42 35 43 96 44 36 45 95 46
REMARK SMILES IDX 37 47 38 48 39 49 89 50 40 51 94 52 88 53 90 54 41 55 93 56
REMARK SMILES IDX 87 57 86 58 42 60 74 61 54 62 73 63 55 64 58 65 72 66 91 67
REMARK SMILES IDX 56 68 57 69 71 71 92 72 59 73 43 74 44 75 52 76 45 77 47 78
REMARK SMILES IDX 53 79 46 80 48 81 49 82 50 83 51 84 75 85 76 86 84 87 77 88
REMARK SMILES IDX 79 89 85 90 78 91 80 92 81 93 82 94 83 95 60 96 61 97 69 98
REMARK SMILES IDX 62 99 64 100 70 101 63 102 65 103 66 104 67 105 68 106
REMARK H PARENT 24 7 1 29 1 30 31 40 90 59 58 70
REMARK Flexibility Score: inf
ROOT
ATOM      1  C   UNL A   1      36.433  23.010  24.092  1.00  0.00     0.002 C 
ENDROOT
BRANCH   1   2
ATOM      2  C   UNL A   1      35.011  22.445  24.180  1.00  0.00     0.021 C 
BRANCH   2   3
ATOM      3  C   UNL A   1      33.985  23.329  23.470  1.00  0.00     0.116 C 
BRANCH   3   4
ATOM      4  N   UNL A   1      32.654  23.041  23.969  1.00  0.00    -0.352 N 
ATOM      5  C   UNL A   1      31.802  23.755  24.769  1.00  0.00     0.251 C 
ATOM      6  O   UNL A   1      30.703  23.262  25.028  1.00  0.00    -0.269 OA
ATOM      7  H   UNL A   1      32.297  22.171  23.679  1.00  0.00     0.163 HD
BRANCH   5   8
ATOM      8  C   UNL A   1      32.113  25.135  25.229  1.00  0.00     0.039 A 
ATOM      9  C   UNL A   1      32.966  27.621  26.195  1.00  0.00     0.000 A 
ATOM     10  C   UNL A   1      33.709  26.960  25.209  1.00  0.00     0.011 A 
ATOM     11  C   UNL A   1      31.778  27.064  26.659  1.00  0.00     0.011 A 
ATOM     12  C   UNL A   1      33.289  25.717  24.738  1.00  0.00     0.014 A 
ATOM     13  C   UNL A   1      31.323  25.862  26.124  1.00  0.00     0.014 A 
BRANCH   9  14
ATOM     14  C   UNL A   1      33.358  28.942  26.653  1.00  0.00     0.075 A 
ATOM     15  N   UNL A   1      32.845  30.123  26.138  1.00  0.00    -0.233 N 
ATOM     16  N   UNL A   1      33.573  31.199  26.545  1.00  0.00    -0.163 NA
ATOM     17  C   UNL A   1      34.338  30.725  27.553  1.00  0.00     0.167 A 
ATOM     18  C   UNL A   1      34.275  29.311  27.610  1.00  0.00     0.064 A 
BRANCH  15  19
ATOM     19  C   UNL A   1      31.770  30.251  25.221  1.00  0.00     0.065 A 
ATOM     20  C   UNL A   1      29.529  30.338  23.575  1.00  0.00     0.082 A 
ATOM     21  C   UNL A   1      29.654  31.274  24.599  1.00  0.00     0.024 A 
ATOM     22  C   UNL A   1      30.530  29.382  23.347  1.00  0.00     0.024 A 
ATOM     23  C   UNL A   1      30.778  31.226  25.425  1.00  0.00     0.030 A 
ATOM     24  C   UNL A   1      31.668  29.351  24.158  1.00  0.00     0.030 A 
BRANCH  20  25
ATOM     25  S   UNL A   1      28.112  30.357  22.524  1.00  0.00     0.238 S 
ATOM     26  O   UNL A   1      28.430  29.690  21.290  1.00  0.00    -0.207 OA
ATOM     27  O   UNL A   1      27.443  31.639  22.593  1.00  0.00    -0.207 OA
BRANCH  25  28
ATOM     28  N   UNL A   1      27.053  29.314  23.328  1.00  0.00    -0.225 NA
ATOM     29  H   UNL A   1      26.540  29.834  24.040  1.00  0.00     0.137 HD
ATOM     30  H   UNL A   1      27.585  28.566  23.773  1.00  0.00     0.137 HD
ENDBRANCH  25  28
ENDBRANCH  20  25
ENDBRANCH  15  19
BRANCH  17  31
ATOM     31  C   UNL A   1      35.164  31.602  28.454  1.00  0.00     0.435 C 
ATOM     32  F   UNL A   1      34.777  32.905  28.429  1.00  0.00    -0.164 F 
ATOM     33  F   UNL A   1      35.127  31.200  29.751  1.00  0.00    -0.164 F 
ATOM     34  F   UNL A   1      36.480  31.594  28.092  1.00  0.00    -0.164 F 
ENDBRANCH  17  31
ENDBRANCH   9  14
ENDBRANCH   5   8
ENDBRANCH   3   4
ENDBRANCH   2   3
ENDBRANCH   1   2
BRANCH   1  35
ATOM     35  C   UNL A   1      36.831  23.942  25.249  1.00  0.00     0.002 C 
BRANCH  35  36
ATOM     36  C   UNL A   1      37.934  23.413  26.181  1.00  0.00     0.021 C 
BRANCH  36  37
ATOM     37  C   UNL A   1      38.818  24.519  26.729  1.00  0.00     0.116 C 
BRANCH  37  38
ATOM     38  N   UNL A   1      40.074  24.618  25.981  1.00  0.00    -0.352 N 
ATOM     39  C   UNL A   1      40.947  25.683  25.900  1.00  0.00     0.251 C 
ATOM     40  H   UNL A   1      40.330  23.818  25.468  1.00  0.00     0.163 HD
ATOM     41  O   UNL A   1      41.742  25.777  24.971  1.00  0.00    -0.269 OA
BRANCH  39  42
ATOM     42  C   UNL A   1      40.921  26.689  26.971  1.00  0.00     0.039 A 
ATOM     43  C   UNL A   1      41.204  26.367  28.302  1.00  0.00     0.014 A 
ATOM     44  C   UNL A   1      40.620  27.995  26.598  1.00  0.00     0.014 A 
ATOM     45  C   UNL A   1      41.231  27.392  29.242  1.00  0.00     0.010 A 
ATOM     46  C   UNL A   1      40.851  29.017  27.471  1.00  0.00     0.010 A 
ATOM     47  C   UNL A   1      41.058  28.715  28.809  1.00  0.00    -0.014 A 
BRANCH  47  48
ATOM     48  C   UNL A   1      41.215  29.850  29.705  1.00  0.00     0.031 A 
ATOM     49  C   UNL A   1      39.919  30.349  30.234  1.00  0.00     0.074 A 
ATOM     50  C   UNL A   1      42.427  30.197  30.196  1.00  0.00     0.049 A 
ATOM     51  N   UNL A   1      39.331  31.464  29.948  1.00  0.00    -0.248 NA
ATOM     52  C   UNL A   1      39.074  29.417  31.003  1.00  0.00     0.031 C 
ATOM     53  C   UNL A   1      43.713  29.515  29.978  1.00  0.00     0.029 A 
ATOM     54  N   UNL A   1      42.752  31.131  31.129  1.00  0.00    -0.354 N 
ATOM     55  C   UNL A   1      38.188  31.485  30.745  1.00  0.00     0.074 A 
ATOM     56  C   UNL A   1      37.948  30.122  31.127  1.00  0.00     0.031 C 
ATOM     57  C   UNL A   1      44.589  29.878  30.941  1.00  0.00     0.029 A 
ATOM     58  C   UNL A   1      43.992  30.929  31.739  1.00  0.00     0.049 A 
ATOM     59  H   UNL A   1      42.162  31.886  31.354  1.00  0.00     0.167 HD
ATOM     60  C   UNL A   1      37.749  32.651  31.297  1.00  0.00     0.034 A 
ATOM     61  C   UNL A   1      44.461  31.544  32.856  1.00  0.00     0.034 A 
ATOM     62  C   UNL A   1      38.390  33.783  30.670  1.00  0.00     0.049 A 
ATOM     63  C   UNL A   1      43.648  32.765  33.049  1.00  0.00     0.074 A 
ATOM     64  C   UNL A   1      38.492  34.261  29.378  1.00  0.00     0.029 A 
ATOM     65  N   UNL A   1      39.416  34.367  31.375  1.00  0.00    -0.354 N 
ATOM     66  N   UNL A   1      43.661  33.770  32.219  1.00  0.00    -0.248 NA
ATOM     67  C   UNL A   1      42.475  32.663  33.899  1.00  0.00     0.031 C 
ATOM     68  C   UNL A   1      39.836  34.728  29.267  1.00  0.00     0.029 A 
ATOM     69  C   UNL A   1      40.452  34.599  30.513  1.00  0.00     0.049 A 
ATOM     70  H   UNL A   1      39.406  34.580  32.335  1.00  0.00     0.167 HD
ATOM     71  C   UNL A   1      42.323  34.118  32.094  1.00  0.00     0.074 A 
ATOM     72  C   UNL A   1      41.656  33.481  33.231  1.00  0.00     0.031 C 
ATOM     73  C   UNL A   1      41.840  34.617  30.919  1.00  0.00     0.034 A 
BRANCH  60  74
ATOM     74  C   UNL A   1      37.103  32.787  32.665  1.00  0.00     0.023 A 
ATOM     75  C   UNL A   1      35.932  33.577  32.734  1.00  0.00     0.012 A 
ATOM     76  C   UNL A   1      37.709  32.444  33.896  1.00  0.00     0.148 A 
ATOM     77  C   UNL A   1      35.443  34.068  33.949  1.00  0.00     0.002 A 
ATOM     78  C   UNL A   1      37.177  32.872  35.109  1.00  0.00     0.091 A 
ATOM     79  F   UNL A   1      38.879  31.808  33.923  1.00  0.00    -0.205 F 
ATOM     80  C   UNL A   1      36.065  33.714  35.139  1.00  0.00     0.022 A 
BRANCH  78  81
ATOM     81  S   UNL A   1      37.920  32.412  36.682  1.00  0.00     0.127 S 
ATOM     82  O   UNL A   1      37.031  33.079  37.629  1.00  0.00    -0.237 OA
ATOM     83  O   UNL A   1      37.810  30.954  36.643  1.00  0.00    -0.237 OA
ATOM     84  O   UNL A   1      39.290  32.909  36.635  1.00  0.00    -0.744 OA
ENDBRANCH  78  81
ENDBRANCH  60  74
BRANCH  61  85
ATOM     85  C   UNL A   1      45.349  31.035  33.932  1.00  0.00     0.023 A 
ATOM     86  C   UNL A   1      46.511  31.754  34.284  1.00  0.00     0.012 A 
ATOM     87  C   UNL A   1      44.906  30.022  34.810  1.00  0.00     0.148 A 
ATOM     88  C   UNL A   1      47.186  31.498  35.485  1.00  0.00     0.002 A 
ATOM     89  C   UNL A   1      45.578  29.770  36.001  1.00  0.00     0.091 A 
ATOM     90  F   UNL A   1      43.771  29.373  34.520  1.00  0.00    -0.205 F 
ATOM     91  C   UNL A   1      46.714  30.514  36.350  1.00  0.00     0.022 A 
BRANCH  89  92
ATOM     92  S   UNL A   1      45.006  28.538  37.181  1.00  0.00     0.127 S 
ATOM     93  O   UNL A   1      46.151  28.442  38.087  1.00  0.00    -0.237 OA
ATOM     94  O   UNL A   1      43.824  29.182  37.745  1.00  0.00    -0.237 OA
ATOM     95  O   UNL A   1      44.748  27.331  36.405  1.00  0.00    -0.744 OA
ENDBRANCH  89  92
ENDBRANCH  61  85
BRANCH  73  96
ATOM     96  C   UNL A   1      42.836  35.031  29.863  1.00  0.00     0.023 A 
ATOM     97  C   UNL A   1      43.470  36.292  29.850  1.00  0.00     0.012 A 
ATOM     98  C   UNL A   1      43.265  34.047  28.961  1.00  0.00     0.148 A 
ATOM     99  C   UNL A   1      44.498  36.567  28.942  1.00  0.00     0.002 A 
ATOM    100  C   UNL A   1      44.317  34.305  28.093  1.00  0.00     0.091 A 
ATOM    101  F   UNL A   1      42.651  32.855  28.990  1.00  0.00    -0.205 F 
ATOM    102  C   UNL A   1      44.931  35.568  28.072  1.00  0.00     0.022 A 
BRANCH 100 103
ATOM    103  S   UNL A   1      44.996  33.020  27.046  1.00  0.00     0.127 S 
ATOM    104  O   UNL A   1      43.917  32.811  26.083  1.00  0.00    -0.237 OA
ATOM    105  O   UNL A   1      46.192  33.659  26.497  1.00  0.00    -0.237 OA
ATOM    106  O   UNL A   1      45.276  31.891  27.926  1.00  0.00    -0.744 OA
ENDBRANCH 100 103
ENDBRANCH  73  96
ENDBRANCH  47  48
ENDBRANCH  39  42
ENDBRANCH  37  38
ENDBRANCH  36  37
ENDBRANCH  35  36
ENDBRANCH   1  35
TORSDOF 21
ENDMDL
MODEL 3
REMARK VINA RESULT:     -11.0      5.304     10.717
REMARK SMILES NS(=O)(=O)c1ccc(-n2nc(C(F)(F)F)cc2-c2ccc(C(=O)NCCCCCCNC(=O)c3ccc(-c4c5nc(c(-c6cccc(S(=O)(=O)[O-])c6F)c6ccc([nH]6)c(-c6cccc(S(=O)(=O)[O-])c6F)c6nc(c(-c7cccc(S(=O)(=O)[O-])c7F)c7ccc4[nH]7)C=C6)C=C5)cc3)cc2)cc1
REMARK SMILES IDX 27 1 26 2 25 3 24 4 22 5 23 6 21 8 18 9 19 10 98 11 20 12
REMARK SMILES IDX 97 13 17 14 9 15 10 16 11 17 16 18 8 19 5 20 6 21 100 22
REMARK SMILES IDX 7 23 99 24 2 25 3 26 4 27 1 28 12 31 13 32 14 33 15 34 28 35
REMARK SMILES IDX 29 36 30 37 31 38 32 39 33 41 34 42 35 43 96 44 36 45 95 46
REMARK SMILES IDX 37 47 38 48 39 49 89 50 40 51 94 52 88 53 90 54 41 55 93 56
REMARK SMILES IDX 87 57 86 58 42 60 74 61 54 62 73 63 55 64 58 65 72 66 91 67
REMARK SMILES IDX 56 68 57 69 71 71 92 72 59 73 43 74 44 75 52 76 45 77 47 78
REMARK SMILES IDX 53 79 46 80 48 81 49 82 50 83 51 84 75 85 76 86 84 87 77 88
REMARK SMILES IDX 79 89 85 90 78 91 80 92 81 93 82 94 83 95 60 96 61 97 69 98
REMARK SMILES IDX 62 99 64 100 70 101 63 102 65 103 66 104 67 105 68 106
REMARK H PARENT 24 7 1 29 1 30 31 40 90 59 58 70
REMARK Flexibility Score: inf
ROOT
ATOM      1  C   UNL A   1      44.776  30.382  27.768  1.00  0.00     0.002 C 
ENDROOT
BRANCH   1   2
ATOM      2  C   UNL A   1      44.894  30.487  29.293  1.00  0.00     0.021 C 
BRANCH   2   3
ATOM      3  C   UNL A   1      46.074  29.687  29.845  1.00  0.00     0.116 C 
BRANCH   3   4
ATOM      4  N   UNL A   1      45.761  29.197  31.174  1.00  0.00    -0.352 N 
ATOM      5  C   UNL A   1      45.107  28.072  31.603  1.00  0.00     0.251 C 
ATOM      6  O   UNL A   1      44.994  27.899  32.817  1.00  0.00    -0.269 OA
ATOM      7  H   UNL A   1      46.077  29.780  31.900  1.00  0.00     0.163 HD
BRANCH   5   8
ATOM      8  C   UNL A   1      44.643  27.016  30.665  1.00  0.00     0.039 A 
ATOM      9  C   UNL A   1      43.520  25.001  29.076  1.00  0.00     0.000 A 
ATOM     10  C   UNL A   1      42.835  26.208  29.266  1.00  0.00     0.011 A 
ATOM     11  C   UNL A   1      44.781  24.823  29.638  1.00  0.00     0.011 A 
ATOM     12  C   UNL A   1      43.391  27.205  30.066  1.00  0.00     0.014 A 
ATOM     13  C   UNL A   1      45.364  25.855  30.369  1.00  0.00     0.014 A 
BRANCH   9  14
ATOM     14  C   UNL A   1      42.983  23.977  28.198  1.00  0.00     0.075 A 
ATOM     15  N   UNL A   1      43.290  23.875  26.849  1.00  0.00    -0.233 N 
ATOM     16  N   UNL A   1      42.452  23.013  26.214  1.00  0.00    -0.163 NA
ATOM     17  C   UNL A   1      41.833  22.347  27.213  1.00  0.00     0.167 A 
ATOM     18  C   UNL A   1      42.094  22.961  28.463  1.00  0.00     0.064 A 
BRANCH  15  19
ATOM     19  C   UNL A   1      44.269  24.623  26.145  1.00  0.00     0.065 A 
ATOM     20  C   UNL A   1      46.264  26.184  24.995  1.00  0.00     0.082 A 
ATOM     21  C   UNL A   1      46.562  24.878  25.379  1.00  0.00     0.024 A 
ATOM     22  C   UNL A   1      44.970  26.702  25.150  1.00  0.00     0.024 A 
ATOM     23  C   UNL A   1      45.561  24.099  25.959  1.00  0.00     0.030 A 
ATOM     24  C   UNL A   1      43.960  25.913  25.706  1.00  0.00     0.030 A 
BRANCH  20  25
ATOM     25  S   UNL A   1      47.512  27.205  24.277  1.00  0.00     0.238 S 
ATOM     26  O   UNL A   1      48.284  26.424  23.347  1.00  0.00    -0.207 OA
ATOM     27  O   UNL A   1      48.099  28.071  25.276  1.00  0.00    -0.207 OA
BRANCH  25  28
ATOM     28  N   UNL A   1      46.606  28.262  23.319  1.00  0.00    -0.225 NA
ATOM     29  H   UNL A   1      46.535  27.886  22.373  1.00  0.00     0.137 HD
ATOM     30  H   UNL A   1      47.065  29.172  23.290  1.00  0.00     0.137 HD
ENDBRANCH  25  28
ENDBRANCH  20  25
ENDBRANCH  15  19
BRANCH  17  31
ATOM     31  C   UNL A   1      40.960  21.142  26.996  1.00  0.00     0.435 C 
ATOM     32  F   UNL A   1      39.641  21.453  26.880  1.00  0.00    -0.164 F 
ATOM     33  F   UNL A   1      41.303  20.441  25.884  1.00  0.00    -0.164 F 
ATOM     34  F   UNL A   1      41.048  20.265  28.039  1.00  0.00    -0.164 F 
ENDBRANCH  17  31
ENDBRANCH   9  14
ENDBRANCH   5   8
ENDBRANCH   3   4
ENDBRANCH   2   3
ENDBRANCH   1   2
BRANCH   1  35
ATOM     35  C   UNL A   1      44.127  31.596  27.084  1.00  0.00     0.002 C 
BRANCH  35  36
ATOM     36  C   UNL A   1      45.057  32.431  26.188  1.00  0.00     0.021 C 
BRANCH  36  37
ATOM     37  C   UNL A   1      44.451  33.769  25.800  1.00  0.00     0.116 C 
BRANCH  37  38
ATOM     38  N   UNL A   1      45.275  34.885  26.274  1.00  0.00    -0.352 N 
ATOM     39  C   UNL A   1      45.020  35.768  27.302  1.00  0.00     0.251 C 
ATOM     40  H   UNL A   1      46.125  35.022  25.795  1.00  0.00     0.163 HD
ATOM     41  O   UNL A   1      45.586  36.854  27.353  1.00  0.00    -0.269 OA
BRANCH  39  42
ATOM     42  C   UNL A   1      44.074  35.363  28.350  1.00  0.00     0.039 A 
ATOM     43  C   UNL A   1      42.770  35.865  28.410  1.00  0.00     0.014 A 
ATOM     44  C   UNL A   1      44.528  34.433  29.280  1.00  0.00     0.014 A 
ATOM     45  C   UNL A   1      41.913  35.372  29.390  1.00  0.00     0.010 A 
ATOM     46  C   UNL A   1      43.635  33.805  30.098  1.00  0.00     0.010 A 
ATOM     47  C   UNL A   1      42.360  34.337  30.225  1.00  0.00    -0.014 A 
BRANCH  47  48
ATOM     48  C   UNL A   1      41.481  33.674  31.175  1.00  0.00     0.031 A 
ATOM     49  C   UNL A   1      42.032  33.655  32.554  1.00  0.00     0.074 A 
ATOM     50  C   UNL A   1      40.199  33.378  30.859  1.00  0.00     0.049 A 
ATOM     51  N   UNL A   1      42.470  32.632  33.211  1.00  0.00    -0.248 NA
ATOM     52  C   UNL A   1      42.331  34.945  33.203  1.00  0.00     0.031 C 
ATOM     53  C   UNL A   1      39.486  33.691  29.609  1.00  0.00     0.029 A 
ATOM     54  N   UNL A   1      39.203  32.883  31.640  1.00  0.00    -0.354 N 
ATOM     55  C   UNL A   1      42.816  33.130  34.466  1.00  0.00     0.074 A 
ATOM     56  C   UNL A   1      42.980  34.546  34.299  1.00  0.00     0.031 C 
ATOM     57  C   UNL A   1      38.152  33.633  29.820  1.00  0.00     0.029 A 
ATOM     58  C   UNL A   1      37.916  33.122  31.155  1.00  0.00     0.049 A 
ATOM     59  H   UNL A   1      39.376  32.396  32.478  1.00  0.00     0.167 HD
ATOM     60  C   UNL A   1      42.599  32.389  35.588  1.00  0.00     0.034 A 
ATOM     61  C   UNL A   1      36.747  32.967  31.831  1.00  0.00     0.034 A 
ATOM     62  C   UNL A   1      42.330  31.012  35.245  1.00  0.00     0.049 A 
ATOM     63  C   UNL A   1      37.031  32.086  32.985  1.00  0.00     0.074 A 
ATOM     64  C   UNL A   1      42.999  30.026  34.546  1.00  0.00     0.029 A 
ATOM     65  N   UNL A   1      41.012  30.623  35.285  1.00  0.00    -0.354 N 
ATOM     66  N   UNL A   1      37.384  30.837  32.860  1.00  0.00    -0.248 NA
ATOM     67  C   UNL A   1      37.385  32.720  34.243  1.00  0.00     0.031 C 
ATOM     68  C   UNL A   1      41.983  29.349  33.807  1.00  0.00     0.029 A 
ATOM     69  C   UNL A   1      40.746  29.890  34.162  1.00  0.00     0.049 A 
ATOM     70  H   UNL A   1      40.370  30.837  35.999  1.00  0.00     0.167 HD
ATOM     71  C   UNL A   1      38.411  30.686  33.782  1.00  0.00     0.074 A 
ATOM     72  C   UNL A   1      38.291  31.838  34.677  1.00  0.00     0.031 C 
ATOM     73  C   UNL A   1      39.441  29.824  33.542  1.00  0.00     0.034 A 
BRANCH  60  74
ATOM     74  C   UNL A   1      42.188  32.944  36.942  1.00  0.00     0.023 A 
ATOM     75  C   UNL A   1      42.958  32.532  38.053  1.00  0.00     0.012 A 
ATOM     76  C   UNL A   1      40.961  33.587  37.226  1.00  0.00     0.148 A 
ATOM     77  C   UNL A   1      42.497  32.675  39.366  1.00  0.00     0.002 A 
ATOM     78  C   UNL A   1      40.538  33.795  38.535  1.00  0.00     0.091 A 
ATOM     79  F   UNL A   1      40.115  33.898  36.244  1.00  0.00    -0.205 F 
ATOM     80  C   UNL A   1      41.285  33.308  39.608  1.00  0.00     0.022 A 
BRANCH  78  81
ATOM     81  S   UNL A   1      38.996  34.644  38.907  1.00  0.00     0.127 S 
ATOM     82  O   UNL A   1      38.122  34.132  37.856  1.00  0.00    -0.237 OA
ATOM     83  O   UNL A   1      38.706  34.151  40.254  1.00  0.00    -0.237 OA
ATOM     84  O   UNL A   1      39.301  36.068  38.846  1.00  0.00    -0.744 OA
ENDBRANCH  78  81
ENDBRANCH  60  74
BRANCH  61  85
ATOM     85  C   UNL A   1      35.478  33.733  31.743  1.00  0.00     0.023 A 
ATOM     86  C   UNL A   1      35.000  34.435  32.870  1.00  0.00     0.012 A 
ATOM     87  C   UNL A   1      34.900  34.023  30.488  1.00  0.00     0.148 A 
ATOM     88  C   UNL A   1      34.008  35.417  32.745  1.00  0.00     0.002 A 
ATOM     89  C   UNL A   1      33.915  34.998  30.367  1.00  0.00     0.091 A 
ATOM     90  F   UNL A   1      35.385  33.410  29.401  1.00  0.00    -0.205 F 
ATOM     91  C   UNL A   1      33.473  35.707  31.492  1.00  0.00     0.022 A 
BRANCH  89  92
ATOM     92  S   UNL A   1      33.203  35.448  28.778  1.00  0.00     0.127 S 
ATOM     93  O   UNL A   1      32.248  36.487  29.164  1.00  0.00    -0.237 OA
ATOM     94  O   UNL A   1      34.373  35.927  28.045  1.00  0.00    -0.237 OA
ATOM     95  O   UNL A   1      32.594  34.232  28.253  1.00  0.00    -0.744 OA
ENDBRANCH  89  92
ENDBRANCH  61  85
BRANCH  73  96
ATOM     96  C   UNL A   1      39.298  28.853  32.395  1.00  0.00     0.023 A 
ATOM     97  C   UNL A   1      38.529  27.672  32.473  1.00  0.00     0.012 A 
ATOM     98  C   UNL A   1      39.821  29.241  31.153  1.00  0.00     0.148 A 
ATOM     99  C   UNL A   1      38.304  26.888  31.336  1.00  0.00     0.002 A 
ATOM    100  C   UNL A   1      39.556  28.488  30.017  1.00  0.00     0.091 A 
ATOM    101  F   UNL A   1      40.548  30.367  31.099  1.00  0.00    -0.205 F 
ATOM    102  C   UNL A   1      38.807  27.305  30.105  1.00  0.00     0.022 A 
BRANCH 100 103
ATOM    103  S   UNL A   1      40.069  29.045  28.393  1.00  0.00     0.127 S 
ATOM    104  O   UNL A   1      40.004  27.810  27.614  1.00  0.00    -0.237 OA
ATOM    105  O   UNL A   1      39.044  30.035  28.061  1.00  0.00    -0.237 OA
ATOM    106  O   UNL A   1      41.404  29.607  28.565  1.00  0.00    -0.744 OA
ENDBRANCH 100 103
ENDBRANCH  73  96
ENDBRANCH  47  48
ENDBRANCH  39  42
ENDBRANCH  37  38
ENDBRANCH  36  37
ENDBRANCH  35  36
ENDBRANCH   1  35
TORSDOF 21
ENDMDL
