MODEL 1
REMARK VINA RESULT:     -11.7      0.000      0.000
REMARK SMILES O=C(NCCCCCCNC(=O)[C@H]1CC[C@@H](CNc2cccc(F)c2[N+](=O)[O-])O1)c1ccc(-c2c3nc(c(-c4cccc(S(=O)(=O)[O-])c4F)c4ccc([nH]4)c(-c4cccc(S(=O)(=O)[O-])c4F)c4nc(c(-c5cccc(S(=O)(=O)[O-])c5F)c5ccc2[nH]5)C=C4)C=C3)cc1
REMARK SMILES IDX 7 1 6 2 5 3 4 4 3 5 1 6 2 7 30 9 31 10 92 11 32 12 91 13
REMARK SMILES IDX 33 14 34 15 35 16 85 17 36 18 90 19 84 20 86 21 37 22 89 23
REMARK SMILES IDX 83 24 82 25 38 27 70 28 50 29 69 30 51 31 54 32 68 33 87 34
REMARK SMILES IDX 52 35 53 36 67 38 88 39 55 40 39 41 40 42 48 43 41 44 43 45
REMARK SMILES IDX 49 46 42 47 44 48 45 49 46 50 47 51 71 52 72 53 80 54 73 55
REMARK SMILES IDX 75 56 81 57 74 58 76 59 77 60 78 61 79 62 56 63 57 64 65 65
REMARK SMILES IDX 58 66 60 67 66 68 59 69 61 70 62 71 63 72 64 73 8 74 9 75
REMARK SMILES IDX 10 76 11 77 12 79 13 80 14 81 29 82 15 83 16 84 17 85 18 86
REMARK SMILES IDX 19 88 20 89 25 90 21 91 23 92 22 93 24 94 26 95 27 96 28 97
REMARK H PARENT 3 8 86 26 54 37 10 78 18 87
REMARK Flexibility Score: inf
ROOT
ATOM      1  C   UNL A   1      35.071  23.659  23.140  1.00  0.00     0.002 C 
ENDROOT
BRANCH   1   2
ATOM      2  C   UNL A   1      36.356  22.840  23.298  1.00  0.00     0.002 C 
BRANCH   2   3
ATOM      3  C   UNL A   1      36.364  21.836  24.450  1.00  0.00     0.021 C 
BRANCH   3   4
ATOM      4  C   UNL A   1      37.344  22.151  25.572  1.00  0.00     0.116 C 
BRANCH   4   5
ATOM      5  N   UNL A   1      38.282  21.068  25.826  1.00  0.00    -0.352 N 
ATOM      6  O   UNL A   1      40.269  20.137  26.348  1.00  0.00    -0.269 OA
ATOM      7  C   UNL A   1      39.558  21.138  26.336  1.00  0.00     0.251 C 
ATOM      8  H   UNL A   1      37.959  20.165  25.603  1.00  0.00     0.163 HD
BRANCH   7   9
ATOM      9  C   UNL A   1      40.076  22.433  26.833  1.00  0.00     0.039 A 
ATOM     10  C   UNL A   1      39.686  23.628  26.227  1.00  0.00     0.014 A 
ATOM     11  C   UNL A   1      40.976  22.452  27.902  1.00  0.00     0.014 A 
ATOM     12  C   UNL A   1      40.317  24.816  26.577  1.00  0.00     0.010 A 
ATOM     13  C   UNL A   1      41.535  23.665  28.320  1.00  0.00     0.010 A 
ATOM     14  C   UNL A   1      41.239  24.854  27.638  1.00  0.00    -0.014 A 
BRANCH  14  15
ATOM     15  C   UNL A   1      41.793  26.170  28.051  1.00  0.00     0.031 A 
ATOM     16  C   UNL A   1      43.179  26.606  27.669  1.00  0.00     0.074 A 
ATOM     17  C   UNL A   1      40.997  26.998  28.754  1.00  0.00     0.049 A 
ATOM     18  N   UNL A   1      43.747  27.771  27.853  1.00  0.00    -0.248 NA
ATOM     19  C   UNL A   1      44.047  25.617  27.010  1.00  0.00     0.031 C 
ATOM     20  C   UNL A   1      39.655  26.656  29.233  1.00  0.00     0.029 A 
ATOM     21  N   UNL A   1      41.175  28.294  29.167  1.00  0.00    -0.354 N 
ATOM     22  C   UNL A   1      45.044  27.648  27.371  1.00  0.00     0.074 A 
ATOM     23  C   UNL A   1      45.186  26.290  26.891  1.00  0.00     0.031 C 
ATOM     24  C   UNL A   1      39.108  27.731  29.814  1.00  0.00     0.029 A 
ATOM     25  C   UNL A   1      40.076  28.822  29.802  1.00  0.00     0.049 A 
ATOM     26  H   UNL A   1      42.009  28.797  29.021  1.00  0.00     0.167 HD
ATOM     27  C   UNL A   1      46.019  28.587  27.320  1.00  0.00     0.034 A 
ATOM     28  C   UNL A   1      39.860  30.048  30.317  1.00  0.00     0.034 A 
ATOM     29  C   UNL A   1      45.852  29.948  27.757  1.00  0.00     0.049 A 
ATOM     30  C   UNL A   1      40.936  31.086  30.198  1.00  0.00     0.074 A 
ATOM     31  C   UNL A   1      46.754  30.994  27.665  1.00  0.00     0.029 A 
ATOM     32  N   UNL A   1      44.717  30.453  28.374  1.00  0.00    -0.354 N 
ATOM     33  N   UNL A   1      42.105  30.990  29.611  1.00  0.00    -0.248 NA
ATOM     34  C   UNL A   1      40.664  32.403  30.788  1.00  0.00     0.031 C 
ATOM     35  C   UNL A   1      46.174  32.124  28.248  1.00  0.00     0.029 A 
ATOM     36  C   UNL A   1      44.901  31.790  28.683  1.00  0.00     0.049 A 
ATOM     37  H   UNL A   1      43.901  29.936  28.565  1.00  0.00     0.167 HD
ATOM     38  C   UNL A   1      42.705  32.233  29.750  1.00  0.00     0.074 A 
ATOM     39  C   UNL A   1      41.760  33.077  30.455  1.00  0.00     0.031 C 
ATOM     40  C   UNL A   1      43.937  32.631  29.348  1.00  0.00     0.034 A 
BRANCH  27  41
ATOM     41  C   UNL A   1      47.349  28.201  26.725  1.00  0.00     0.023 A 
ATOM     42  C   UNL A   1      48.423  27.876  27.578  1.00  0.00     0.012 A 
ATOM     43  C   UNL A   1      47.507  28.058  25.332  1.00  0.00     0.148 A 
ATOM     44  C   UNL A   1      49.638  27.437  27.055  1.00  0.00     0.002 A 
ATOM     45  C   UNL A   1      48.709  27.581  24.819  1.00  0.00     0.091 A 
ATOM     46  F   UNL A   1      46.482  28.391  24.533  1.00  0.00    -0.205 F 
ATOM     47  C   UNL A   1      49.777  27.278  25.678  1.00  0.00     0.022 A 
BRANCH  45  48
ATOM     48  S   UNL A   1      48.952  27.265  23.067  1.00  0.00     0.127 S 
ATOM     49  O   UNL A   1      50.403  27.388  22.943  1.00  0.00    -0.237 OA
ATOM     50  O   UNL A   1      48.442  25.900  22.922  1.00  0.00    -0.237 OA
ATOM     51  O   UNL A   1      48.172  28.276  22.368  1.00  0.00    -0.744 OA
ENDBRANCH  45  48
ENDBRANCH  27  41
BRANCH  28  52
ATOM     52  C   UNL A   1      38.529  30.351  30.913  1.00  0.00     0.023 A 
ATOM     53  C   UNL A   1      38.309  30.091  32.278  1.00  0.00     0.012 A 
ATOM     54  C   UNL A   1      37.536  31.020  30.169  1.00  0.00     0.148 A 
ATOM     55  C   UNL A   1      37.125  30.499  32.895  1.00  0.00     0.002 A 
ATOM     56  C   UNL A   1      36.390  31.481  30.804  1.00  0.00     0.091 A 
ATOM     57  F   UNL A   1      37.764  31.243  28.867  1.00  0.00    -0.205 F 
ATOM     58  C   UNL A   1      36.176  31.210  32.163  1.00  0.00     0.022 A 
BRANCH  56  59
ATOM     59  S   UNL A   1      35.203  32.554  29.985  1.00  0.00     0.127 S 
ATOM     60  O   UNL A   1      34.755  31.713  28.878  1.00  0.00    -0.237 OA
ATOM     61  O   UNL A   1      34.212  32.765  31.041  1.00  0.00    -0.237 OA
ATOM     62  O   UNL A   1      35.945  33.749  29.611  1.00  0.00    -0.744 OA
ENDBRANCH  56  59
ENDBRANCH  28  52
BRANCH  40  63
ATOM     63  C   UNL A   1      44.357  34.044  29.653  1.00  0.00     0.023 A 
ATOM     64  C   UNL A   1      45.133  34.302  30.799  1.00  0.00     0.012 A 
ATOM     65  C   UNL A   1      44.093  35.086  28.743  1.00  0.00     0.148 A 
ATOM     66  C   UNL A   1      45.634  35.580  31.041  1.00  0.00     0.002 A 
ATOM     67  C   UNL A   1      44.632  36.347  28.968  1.00  0.00     0.091 A 
ATOM     68  F   UNL A   1      43.337  34.820  27.668  1.00  0.00    -0.205 F 
ATOM     69  C   UNL A   1      45.396  36.597  30.120  1.00  0.00     0.022 A 
BRANCH  67  70
ATOM     70  S   UNL A   1      44.462  37.694  27.792  1.00  0.00     0.127 S 
ATOM     71  O   UNL A   1      45.820  37.795  27.259  1.00  0.00    -0.237 OA
ATOM     72  O   UNL A   1      43.477  37.161  26.851  1.00  0.00    -0.237 OA
ATOM     73  O   UNL A   1      44.008  38.846  28.559  1.00  0.00    -0.744 OA
ENDBRANCH  67  70
ENDBRANCH  40  63
ENDBRANCH  14  15
ENDBRANCH   7   9
ENDBRANCH   4   5
ENDBRANCH   3   4
ENDBRANCH   2   3
ENDBRANCH   1   2
BRANCH   1  74
ATOM     74  C   UNL A   1      34.711  24.578  24.314  1.00  0.00     0.021 C 
BRANCH  74  75
ATOM     75  C   UNL A   1      33.886  25.807  23.942  1.00  0.00     0.116 C 
BRANCH  75  76
ATOM     76  N   UNL A   1      33.245  25.656  22.651  1.00  0.00    -0.354 N 
ATOM     77  C   UNL A   1      32.310  26.453  22.054  1.00  0.00     0.249 C 
ATOM     78  H   UNL A   1      33.524  24.869  22.130  1.00  0.00     0.163 HD
ATOM     79  O   UNL A   1      31.868  26.108  20.954  1.00  0.00    -0.272 OA
BRANCH  77  80
ATOM     80  C   UNL A   1      31.859  27.749  22.765  1.00  0.00     0.207 C 
ATOM     81  C   UNL A   1      30.434  28.124  22.389  1.00  0.00     0.045 C 
ATOM     82  O   UNL A   1      31.836  27.584  24.192  1.00  0.00    -0.363 OA
ATOM     83  C   UNL A   1      29.638  27.268  23.341  1.00  0.00     0.037 C 
ATOM     84  C   UNL A   1      30.478  27.304  24.610  1.00  0.00     0.138 C 
BRANCH  84  85
ATOM     85  C   UNL A   1      30.457  26.058  25.527  1.00  0.00     0.145 C 
BRANCH  85  86
ATOM     86  N   UNL A   1      29.918  24.850  24.897  1.00  0.00    -0.377 N 
ATOM     87  H   UNL A   1      28.963  24.809  24.662  1.00  0.00     0.160 HD
BRANCH  86  88
ATOM     88  C   UNL A   1      30.740  23.759  24.627  1.00  0.00     0.116 A 
ATOM     89  C   UNL A   1      31.001  23.389  23.296  1.00  0.00     0.033 A 
ATOM     90  C   UNL A   1      31.290  22.934  25.628  1.00  0.00     0.327 A 
ATOM     91  C   UNL A   1      31.779  22.268  22.981  1.00  0.00     0.006 A 
ATOM     92  C   UNL A   1      32.057  21.811  25.321  1.00  0.00     0.202 A 
ATOM     93  C   UNL A   1      32.304  21.476  23.995  1.00  0.00     0.047 A 
ATOM     94  F   UNL A   1      32.599  21.047  26.282  1.00  0.00    -0.199 F 
BRANCH  90  95
ATOM     95  N   UNL A   1      31.070  23.223  27.025  1.00  0.00     0.068 N 
ATOM     96  O   UNL A   1      32.024  23.697  27.664  1.00  0.00    -0.258 OA
ATOM     97  O   UNL A   1      29.943  23.009  27.496  1.00  0.00    -0.258 OA
ENDBRANCH  90  95
ENDBRANCH  86  88
ENDBRANCH  85  86
ENDBRANCH  84  85
ENDBRANCH  77  80
ENDBRANCH  75  76
ENDBRANCH  74  75
ENDBRANCH   1  74
TORSDOF 20
ENDMDL
MODEL 2
REMARK VINA RESULT:     -11.5      5.776     10.365
REMARK SMILES O=C(NCCCCCCNC(=O)[C@H]1CC[C@@H](CNc2cccc(F)c2[N+](=O)[O-])O1)c1ccc(-c2c3nc(c(-c4cccc(S(=O)(=O)[O-])c4F)c4ccc([nH]4)c(-c4cccc(S(=O)(=O)[O-])c4F)c4nc(c(-c5cccc(S(=O)(=O)[O-])c5F)c5ccc2[nH]5)C=C4)C=C3)cc1
REMARK SMILES IDX 7 1 6 2 5 3 4 4 3 5 1 6 2 7 30 9 31 10 92 11 32 12 91 13
REMARK SMILES IDX 33 14 34 15 35 16 85 17 36 18 90 19 84 20 86 21 37 22 89 23
REMARK SMILES IDX 83 24 82 25 38 27 70 28 50 29 69 30 51 31 54 32 68 33 87 34
REMARK SMILES IDX 52 35 53 36 67 38 88 39 55 40 39 41 40 42 48 43 41 44 43 45
REMARK SMILES IDX 49 46 42 47 44 48 45 49 46 50 47 51 71 52 72 53 80 54 73 55
REMARK SMILES IDX 75 56 81 57 74 58 76 59 77 60 78 61 79 62 56 63 57 64 65 65
REMARK SMILES IDX 58 66 60 67 66 68 59 69 61 70 62 71 63 72 64 73 8 74 9 75
REMARK SMILES IDX 10 76 11 77 12 79 13 80 14 81 29 82 15 83 16 84 17 85 18 86
REMARK SMILES IDX 19 88 20 89 25 90 21 91 23 92 22 93 24 94 26 95 27 96 28 97
REMARK H PARENT 3 8 86 26 54 37 10 78 18 87
REMARK Flexibility Score: inf
ROOT
ATOM      1  C   UNL A   1      33.126  29.571  27.304  1.00  0.00     0.002 C 
ENDROOT
BRANCH   1   2
ATOM      2  C   UNL A   1      31.803  30.154  26.800  1.00  0.00     0.002 C 
BRANCH   2   3
ATOM      3  C   UNL A   1      31.746  31.678  26.702  1.00  0.00     0.021 C 
BRANCH   3   4
ATOM      4  C   UNL A   1      32.934  32.409  27.312  1.00  0.00     0.116 C 
BRANCH   4   5
ATOM      5  N   UNL A   1      32.619  33.774  27.703  1.00  0.00    -0.352 N 
ATOM      6  O   UNL A   1      32.709  35.628  28.987  1.00  0.00    -0.269 OA
ATOM      7  C   UNL A   1      33.197  34.540  28.690  1.00  0.00     0.251 C 
ATOM      8  H   UNL A   1      31.896  34.207  27.194  1.00  0.00     0.163 HD
BRANCH   7   9
ATOM      9  C   UNL A   1      34.384  34.028  29.410  1.00  0.00     0.039 A 
ATOM     10  C   UNL A   1      35.665  34.447  29.048  1.00  0.00     0.014 A 
ATOM     11  C   UNL A   1      34.218  33.103  30.445  1.00  0.00     0.014 A 
ATOM     12  C   UNL A   1      36.776  33.823  29.601  1.00  0.00     0.010 A 
ATOM     13  C   UNL A   1      35.341  32.550  31.072  1.00  0.00     0.010 A 
ATOM     14  C   UNL A   1      36.631  32.878  30.631  1.00  0.00    -0.014 A 
BRANCH  14  15
ATOM     15  C   UNL A   1      37.856  32.331  31.272  1.00  0.00     0.031 A 
ATOM     16  C   UNL A   1      38.349  32.827  32.601  1.00  0.00     0.074 A 
ATOM     17  C   UNL A   1      38.505  31.332  30.643  1.00  0.00     0.049 A 
ATOM     18  N   UNL A   1      39.327  32.359  33.334  1.00  0.00    -0.248 NA
ATOM     19  C   UNL A   1      37.677  34.000  33.182  1.00  0.00     0.031 C 
ATOM     20  C   UNL A   1      38.151  30.812  29.320  1.00  0.00     0.029 A 
ATOM     21  N   UNL A   1      39.570  30.558  31.030  1.00  0.00    -0.354 N 
ATOM     22  C   UNL A   1      39.415  33.196  34.439  1.00  0.00     0.074 A 
ATOM     23  C   UNL A   1      38.394  34.210  34.280  1.00  0.00     0.031 C 
ATOM     24  C   UNL A   1      38.938  29.766  29.034  1.00  0.00     0.029 A 
ATOM     25  C   UNL A   1      39.890  29.575  30.123  1.00  0.00     0.049 A 
ATOM     26  H   UNL A   1      40.057  30.694  31.875  1.00  0.00     0.167 HD
ATOM     27  C   UNL A   1      40.260  33.115  35.496  1.00  0.00     0.034 A 
ATOM     28  C   UNL A   1      40.838  28.619  30.157  1.00  0.00     0.034 A 
ATOM     29  C   UNL A   1      41.240  32.075  35.667  1.00  0.00     0.049 A 
ATOM     30  C   UNL A   1      41.723  28.516  31.363  1.00  0.00     0.074 A 
ATOM     31  C   UNL A   1      42.081  31.860  36.745  1.00  0.00     0.029 A 
ATOM     32  N   UNL A   1      41.520  31.084  34.739  1.00  0.00    -0.354 N 
ATOM     33  N   UNL A   1      41.695  29.232  32.462  1.00  0.00    -0.248 NA
ATOM     34  C   UNL A   1      42.754  27.470  31.351  1.00  0.00     0.031 C 
ATOM     35  C   UNL A   1      42.885  30.753  36.459  1.00  0.00     0.029 A 
ATOM     36  C   UNL A   1      42.530  30.263  35.212  1.00  0.00     0.049 A 
ATOM     37  H   UNL A   1      41.066  30.979  33.871  1.00  0.00     0.167 HD
ATOM     38  C   UNL A   1      42.695  28.718  33.277  1.00  0.00     0.074 A 
ATOM     39  C   UNL A   1      43.294  27.612  32.556  1.00  0.00     0.031 C 
ATOM     40  C   UNL A   1      43.091  29.141  34.503  1.00  0.00     0.034 A 
BRANCH  27  41
ATOM     41  C   UNL A   1      40.137  34.148  36.586  1.00  0.00     0.023 A 
ATOM     42  C   UNL A   1      40.448  35.494  36.306  1.00  0.00     0.012 A 
ATOM     43  C   UNL A   1      39.617  33.810  37.851  1.00  0.00     0.148 A 
ATOM     44  C   UNL A   1      40.265  36.482  37.273  1.00  0.00     0.002 A 
ATOM     45  C   UNL A   1      39.399  34.806  38.797  1.00  0.00     0.091 A 
ATOM     46  F   UNL A   1      39.345  32.522  38.109  1.00  0.00    -0.205 F 
ATOM     47  C   UNL A   1      39.730  36.140  38.513  1.00  0.00     0.022 A 
BRANCH  45  48
ATOM     48  S   UNL A   1      38.636  34.474  40.390  1.00  0.00     0.127 S 
ATOM     49  O   UNL A   1      38.345  35.825  40.865  1.00  0.00    -0.237 OA
ATOM     50  O   UNL A   1      37.456  33.693  40.014  1.00  0.00    -0.237 OA
ATOM     51  O   UNL A   1      39.626  33.735  41.160  1.00  0.00    -0.744 OA
ENDBRANCH  45  48
ENDBRANCH  27  41
BRANCH  28  52
ATOM     52  C   UNL A   1      40.917  27.647  29.031  1.00  0.00     0.023 A 
ATOM     53  C   UNL A   1      39.946  26.635  28.923  1.00  0.00     0.012 A 
ATOM     54  C   UNL A   1      41.862  27.809  27.998  1.00  0.00     0.148 A 
ATOM     55  C   UNL A   1      39.910  25.804  27.802  1.00  0.00     0.002 A 
ATOM     56  C   UNL A   1      41.780  27.023  26.857  1.00  0.00     0.091 A 
ATOM     57  F   UNL A   1      42.786  28.772  28.132  1.00  0.00    -0.205 F 
ATOM     58  C   UNL A   1      40.814  26.011  26.761  1.00  0.00     0.022 A 
BRANCH  56  59
ATOM     59  S   UNL A   1      42.784  27.336  25.399  1.00  0.00     0.127 S 
ATOM     60  O   UNL A   1      42.589  26.108  24.633  1.00  0.00    -0.237 OA
ATOM     61  O   UNL A   1      42.137  28.523  24.839  1.00  0.00    -0.237 OA
ATOM     62  O   UNL A   1      44.134  27.567  25.893  1.00  0.00    -0.744 OA
ENDBRANCH  56  59
ENDBRANCH  28  52
BRANCH  40  63
ATOM     63  C   UNL A   1      44.232  28.415  35.163  1.00  0.00     0.023 A 
ATOM     64  C   UNL A   1      45.554  28.829  34.909  1.00  0.00     0.012 A 
ATOM     65  C   UNL A   1      43.990  27.417  36.127  1.00  0.00     0.148 A 
ATOM     66  C   UNL A   1      46.620  28.254  35.597  1.00  0.00     0.002 A 
ATOM     67  C   UNL A   1      45.055  26.878  36.840  1.00  0.00     0.091 A 
ATOM     68  F   UNL A   1      42.725  27.028  36.339  1.00  0.00    -0.205 F 
ATOM     69  C   UNL A   1      46.370  27.291  36.572  1.00  0.00     0.022 A 
BRANCH  67  70
ATOM     70  S   UNL A   1      44.823  25.705  38.181  1.00  0.00     0.127 S 
ATOM     71  O   UNL A   1      43.905  26.432  39.056  1.00  0.00    -0.237 OA
ATOM     72  O   UNL A   1      44.229  24.560  37.491  1.00  0.00    -0.237 OA
ATOM     73  O   UNL A   1      46.147  25.460  38.736  1.00  0.00    -0.744 OA
ENDBRANCH  67  70
ENDBRANCH  40  63
ENDBRANCH  14  15
ENDBRANCH   7   9
ENDBRANCH   4   5
ENDBRANCH   3   4
ENDBRANCH   2   3
ENDBRANCH   1   2
BRANCH   1  74
ATOM     74  C   UNL A   1      33.976  28.832  26.262  1.00  0.00     0.021 C 
BRANCH  74  75
ATOM     75  C   UNL A   1      33.621  29.136  24.808  1.00  0.00     0.116 C 
BRANCH  75  76
ATOM     76  N   UNL A   1      33.827  27.987  23.950  1.00  0.00    -0.354 N 
ATOM     77  C   UNL A   1      33.187  26.780  23.955  1.00  0.00     0.249 C 
ATOM     78  H   UNL A   1      34.527  28.090  23.266  1.00  0.00     0.163 HD
ATOM     79  O   UNL A   1      33.556  25.921  23.150  1.00  0.00    -0.272 OA
BRANCH  77  80
ATOM     80  C   UNL A   1      32.026  26.547  24.950  1.00  0.00     0.207 C 
ATOM     81  C   UNL A   1      30.721  27.128  24.428  1.00  0.00     0.045 C 
ATOM     82  O   UNL A   1      31.764  25.147  25.132  1.00  0.00    -0.363 OA
ATOM     83  C   UNL A   1      30.237  26.017  23.530  1.00  0.00     0.037 C 
ATOM     84  C   UNL A   1      30.649  24.764  24.290  1.00  0.00     0.138 C 
BRANCH  84  85
ATOM     85  C   UNL A   1      31.018  23.507  23.468  1.00  0.00     0.145 C 
BRANCH  85  86
ATOM     86  N   UNL A   1      32.457  23.244  23.377  1.00  0.00    -0.377 N 
ATOM     87  H   UNL A   1      33.047  23.911  22.960  1.00  0.00     0.160 HD
BRANCH  86  88
ATOM     88  C   UNL A   1      32.997  22.060  23.873  1.00  0.00     0.116 A 
ATOM     89  C   UNL A   1      32.158  20.964  24.141  1.00  0.00     0.033 A 
ATOM     90  C   UNL A   1      34.359  21.905  24.200  1.00  0.00     0.327 A 
ATOM     91  C   UNL A   1      32.652  19.774  24.690  1.00  0.00     0.006 A 
ATOM     92  C   UNL A   1      34.855  20.727  24.755  1.00  0.00     0.202 A 
ATOM     93  C   UNL A   1      34.002  19.657  25.001  1.00  0.00     0.047 A 
ATOM     94  F   UNL A   1      36.158  20.578  25.037  1.00  0.00    -0.199 F 
BRANCH  90  95
ATOM     95  N   UNL A   1      35.299  22.977  23.973  1.00  0.00     0.068 N 
ATOM     96  O   UNL A   1      35.651  23.185  22.800  1.00  0.00    -0.258 OA
ATOM     97  O   UNL A   1      35.677  23.639  24.951  1.00  0.00    -0.258 OA
ENDBRANCH  90  95
ENDBRANCH  86  88
ENDBRANCH  85  86
ENDBRANCH  84  85
ENDBRANCH  77  80
ENDBRANCH  75  76
ENDBRANCH  74  75
ENDBRANCH   1  74
TORSDOF 20
ENDMDL
MODEL 3
REMARK VINA RESULT:     -11.1      1.970      3.356
REMARK SMILES O=C(NCCCCCCNC(=O)[C@H]1CC[C@@H](CNc2cccc(F)c2[N+](=O)[O-])O1)c1ccc(-c2c3nc(c(-c4cccc(S(=O)(=O)[O-])c4F)c4ccc([nH]4)c(-c4cccc(S(=O)(=O)[O-])c4F)c4nc(c(-c5cccc(S(=O)(=O)[O-])c5F)c5ccc2[nH]5)C=C4)C=C3)cc1
REMARK SMILES IDX 7 1 6 2 5 3 4 4 3 5 1 6 2 7 30 9 31 10 92 11 32 12 91 13
REMARK SMILES IDX 33 14 34 15 35 16 85 17 36 18 90 19 84 20 86 21 37 22 89 23
REMARK SMILES IDX 83 24 82 25 38 27 70 28 50 29 69 30 51 31 54 32 68 33 87 34
REMARK SMILES IDX 52 35 53 36 67 38 88 39 55 40 39 41 40 42 48 43 41 44 43 45
REMARK SMILES IDX 49 46 42 47 44 48 45 49 46 50 47 51 71 52 72 53 80 54 73 55
REMARK SMILES IDX 75 56 81 57 74 58 76 59 77 60 78 61 79 62 56 63 57 64 65 65
REMARK SMILES IDX 58 66 60 67 66 68 59 69 61 70 62 71 63 72 64 73 8 74 9 75
REMARK SMILES IDX 10 76 11 77 12 79 13 80 14 81 29 82 15 83 16 84 17 85 18 86
REMARK SMILES IDX 19 88 20 89 25 90 21 91 23 92 22 93 24 94 26 95 27 96 28 97
REMARK H PARENT 3 8 86 26 54 37 10 78 18 87
REMARK Flexibility Score: inf
ROOT
ATOM      1  C   UNL A   1      35.487  20.705  25.000  1.00  0.00     0.002 C 
ENDROOT
BRANCH   1   2
ATOM      2  C   UNL A   1      36.786  19.894  24.976  1.00  0.00     0.002 C 
BRANCH   2   3
ATOM      3  C   UNL A   1      38.076  20.711  24.904  1.00  0.00     0.021 C 
BRANCH   3   4
ATOM      4  C   UNL A   1      38.938  20.666  26.159  1.00  0.00     0.116 C 
BRANCH   4   5
ATOM      5  N   UNL A   1      40.028  19.708  26.063  1.00  0.00    -0.352 N 
ATOM      6  O   UNL A   1      42.175  19.030  25.916  1.00  0.00    -0.269 OA
ATOM      7  C   UNL A   1      41.381  19.933  26.169  1.00  0.00     0.251 C 
ATOM      8  H   UNL A   1      39.761  18.774  25.901  1.00  0.00     0.163 HD
BRANCH   7   9
ATOM      9  C   UNL A   1      41.870  21.276  26.555  1.00  0.00     0.039 A 
ATOM     10  C   UNL A   1      42.118  21.579  27.895  1.00  0.00     0.014 A 
ATOM     11  C   UNL A   1      42.063  22.249  25.571  1.00  0.00     0.014 A 
ATOM     12  C   UNL A   1      42.395  22.889  28.265  1.00  0.00     0.010 A 
ATOM     13  C   UNL A   1      42.442  23.546  25.938  1.00  0.00     0.010 A 
ATOM     14  C   UNL A   1      42.576  23.887  27.292  1.00  0.00    -0.014 A 
BRANCH  14  15
ATOM     15  C   UNL A   1      42.990  25.244  27.735  1.00  0.00     0.031 A 
ATOM     16  C   UNL A   1      44.388  25.756  27.534  1.00  0.00     0.074 A 
ATOM     17  C   UNL A   1      42.057  26.039  28.294  1.00  0.00     0.049 A 
ATOM     18  N   UNL A   1      44.857  26.957  27.756  1.00  0.00    -0.248 NA
ATOM     19  C   UNL A   1      45.395  24.807  27.034  1.00  0.00     0.031 C 
ATOM     20  C   UNL A   1      40.683  25.626  28.594  1.00  0.00     0.029 A 
ATOM     21  N   UNL A   1      42.101  27.353  28.685  1.00  0.00    -0.354 N 
ATOM     22  C   UNL A   1      46.213  26.903  27.462  1.00  0.00     0.074 A 
ATOM     23  C   UNL A   1      46.499  25.545  27.051  1.00  0.00     0.031 C 
ATOM     24  C   UNL A   1      39.999  26.680  29.058  1.00  0.00     0.029 A 
ATOM     25  C   UNL A   1      40.895  27.828  29.145  1.00  0.00     0.049 A 
ATOM     26  H   UNL A   1      42.917  27.902  28.640  1.00  0.00     0.167 HD
ATOM     27  C   UNL A   1      47.131  27.899  27.516  1.00  0.00     0.034 A 
ATOM     28  C   UNL A   1      40.540  29.050  29.585  1.00  0.00     0.034 A 
ATOM     29  C   UNL A   1      46.826  29.257  27.882  1.00  0.00     0.049 A 
ATOM     30  C   UNL A   1      41.560  30.149  29.582  1.00  0.00     0.074 A 
ATOM     31  C   UNL A   1      47.671  30.354  27.881  1.00  0.00     0.029 A 
ATOM     32  N   UNL A   1      45.589  29.706  28.320  1.00  0.00    -0.354 N 
ATOM     33  N   UNL A   1      42.803  30.111  29.166  1.00  0.00    -0.248 NA
ATOM     34  C   UNL A   1      41.133  31.461  30.086  1.00  0.00     0.031 C 
ATOM     35  C   UNL A   1      46.951  31.460  28.341  1.00  0.00     0.029 A 
ATOM     36  C   UNL A   1      45.651  31.059  28.607  1.00  0.00     0.049 A 
ATOM     37  H   UNL A   1      44.786  29.145  28.412  1.00  0.00     0.167 HD
ATOM     38  C   UNL A   1      43.306  31.392  29.346  1.00  0.00     0.074 A 
ATOM     39  C   UNL A   1      42.224  32.192  29.886  1.00  0.00     0.031 C 
ATOM     40  C   UNL A   1      44.557  31.855  29.105  1.00  0.00     0.034 A 
BRANCH  27  41
ATOM     41  C   UNL A   1      48.551  27.581  27.124  1.00  0.00     0.023 A 
ATOM     42  C   UNL A   1      49.418  26.996  28.068  1.00  0.00     0.012 A 
ATOM     43  C   UNL A   1      48.995  27.761  25.799  1.00  0.00     0.148 A 
ATOM     44  C   UNL A   1      50.711  26.617  27.708  1.00  0.00     0.002 A 
ATOM     45  C   UNL A   1      50.272  27.344  25.436  1.00  0.00     0.091 A 
ATOM     46  F   UNL A   1      48.165  28.338  24.917  1.00  0.00    -0.205 F 
ATOM     47  C   UNL A   1      51.132  26.780  26.391  1.00  0.00     0.022 A 
BRANCH  45  48
ATOM     48  S   UNL A   1      50.872  27.436  23.745  1.00  0.00     0.127 S 
ATOM     49  O   UNL A   1      52.139  26.714  23.842  1.00  0.00    -0.237 OA
ATOM     50  O   UNL A   1      49.825  26.731  23.003  1.00  0.00    -0.237 OA
ATOM     51  O   UNL A   1      50.978  28.855  23.436  1.00  0.00    -0.744 OA
ENDBRANCH  45  48
ENDBRANCH  27  41
BRANCH  28  52
ATOM     52  C   UNL A   1      39.123  29.285  29.981  1.00  0.00     0.023 A 
ATOM     53  C   UNL A   1      38.703  28.938  31.279  1.00  0.00     0.012 A 
ATOM     54  C   UNL A   1      38.236  29.974  29.130  1.00  0.00     0.148 A 
ATOM     55  C   UNL A   1      37.425  29.280  31.724  1.00  0.00     0.002 A 
ATOM     56  C   UNL A   1      36.991  30.368  29.603  1.00  0.00     0.091 A 
ATOM     57  F   UNL A   1      38.656  30.281  27.894  1.00  0.00    -0.205 F 
ATOM     58  C   UNL A   1      36.578  30.011  30.894  1.00  0.00     0.022 A 
BRANCH  56  59
ATOM     59  S   UNL A   1      35.911  31.461  28.669  1.00  0.00     0.127 S 
ATOM     60  O   UNL A   1      35.651  30.670  27.469  1.00  0.00    -0.237 OA
ATOM     61  O   UNL A   1      34.771  31.600  29.576  1.00  0.00    -0.237 OA
ATOM     62  O   UNL A   1      36.670  32.687  28.467  1.00  0.00    -0.744 OA
ENDBRANCH  56  59
ENDBRANCH  28  52
BRANCH  40  63
ATOM     63  C   UNL A   1      44.848  33.297  29.419  1.00  0.00     0.023 A 
ATOM     64  C   UNL A   1      45.375  33.638  30.680  1.00  0.00     0.012 A 
ATOM     65  C   UNL A   1      44.721  34.290  28.428  1.00  0.00     0.148 A 
ATOM     66  C   UNL A   1      45.763  34.948  30.954  1.00  0.00     0.002 A 
ATOM     67  C   UNL A   1      45.151  35.585  28.694  1.00  0.00     0.091 A 
ATOM     68  F   UNL A   1      44.200  33.945  27.242  1.00  0.00    -0.205 F 
ATOM     69  C   UNL A   1      45.666  35.916  29.958  1.00  0.00     0.022 A 
BRANCH  67  70
ATOM     70  S   UNL A   1      45.155  36.876  27.445  1.00  0.00     0.127 S 
ATOM     71  O   UNL A   1      46.087  36.332  26.459  1.00  0.00    -0.237 OA
ATOM     72  O   UNL A   1      43.757  36.897  27.016  1.00  0.00    -0.237 OA
ATOM     73  O   UNL A   1      45.601  38.089  28.119  1.00  0.00    -0.744 OA
ENDBRANCH  67  70
ENDBRANCH  40  63
ENDBRANCH  14  15
ENDBRANCH   7   9
ENDBRANCH   4   5
ENDBRANCH   3   4
ENDBRANCH   2   3
ENDBRANCH   1   2
BRANCH   1  74
ATOM     74  C   UNL A   1      34.186  19.892  24.968  1.00  0.00     0.021 C 
BRANCH  74  75
ATOM     75  C   UNL A   1      32.921  20.688  25.278  1.00  0.00     0.116 C 
BRANCH  75  76
ATOM     76  N   UNL A   1      33.207  22.090  25.506  1.00  0.00    -0.354 N 
ATOM     77  C   UNL A   1      32.932  23.167  24.713  1.00  0.00     0.249 C 
ATOM     78  H   UNL A   1      33.663  22.296  26.354  1.00  0.00     0.163 HD
ATOM     79  O   UNL A   1      33.306  24.281  25.092  1.00  0.00    -0.272 OA
BRANCH  77  80
ATOM     80  C   UNL A   1      32.157  22.953  23.392  1.00  0.00     0.207 C 
ATOM     81  C   UNL A   1      30.777  23.588  23.447  1.00  0.00     0.045 C 
ATOM     82  O   UNL A   1      32.817  23.590  22.287  1.00  0.00    -0.363 OA
ATOM     83  C   UNL A   1      31.091  25.018  23.085  1.00  0.00     0.037 C 
ATOM     84  C   UNL A   1      32.184  24.869  22.036  1.00  0.00     0.138 C 
BRANCH  84  85
ATOM     85  C   UNL A   1      33.259  25.977  21.948  1.00  0.00     0.145 C 
BRANCH  85  86
ATOM     86  N   UNL A   1      32.720  27.336  21.835  1.00  0.00    -0.377 N 
ATOM     87  H   UNL A   1      32.440  27.676  20.956  1.00  0.00     0.160 HD
BRANCH  86  88
ATOM     88  C   UNL A   1      32.601  28.150  22.959  1.00  0.00     0.116 A 
ATOM     89  C   UNL A   1      33.624  28.168  23.924  1.00  0.00     0.033 A 
ATOM     90  C   UNL A   1      31.460  28.927  23.238  1.00  0.00     0.327 A 
ATOM     91  C   UNL A   1      33.520  28.932  25.094  1.00  0.00     0.006 A 
ATOM     92  C   UNL A   1      31.347  29.681  24.404  1.00  0.00     0.202 A 
ATOM     93  C   UNL A   1      32.378  29.686  25.336  1.00  0.00     0.047 A 
ATOM     94  F   UNL A   1      30.267  30.440  24.648  1.00  0.00    -0.199 F 
BRANCH  90  95
ATOM     95  N   UNL A   1      30.350  28.965  22.315  1.00  0.00     0.068 N 
ATOM     96  O   UNL A   1      29.547  28.019  22.353  1.00  0.00    -0.258 OA
ATOM     97  O   UNL A   1      30.250  29.946  21.562  1.00  0.00    -0.258 OA
ENDBRANCH  90  95
ENDBRANCH  86  88
ENDBRANCH  85  86
ENDBRANCH  84  85
ENDBRANCH  77  80
ENDBRANCH  75  76
ENDBRANCH  74  75
ENDBRANCH   1  74
TORSDOF 20
ENDMDL
