MODEL 1
REMARK VINA RESULT:     -11.7      0.000      0.000
REMARK SMILES C[C@@H](C(=O)NCCCCCCNC(=O)c1ccc(-c2c3nc(c(-c4cccc(S(=O)(=O)[O-])c4F)c4ccc([nH]4)c(-c4cccc(S(=O)(=O)[O-])c4F)c4nc(c(-c5cccc(S(=O)(=O)[O-])c5F)c5ccc2[nH]5)C=C4)C=C3)cc1)c1ccc(C[C@H]2CCC[C@@H]2O)cc1Br
REMARK SMILES IDX 8 1 7 2 6 3 5 4 3 5 4 6 2 8 1 9 78 10 79 11 90 12 80 13
REMARK SMILES IDX 89 14 91 15 81 16 82 17 83 18 84 19 87 20 85 21 86 22 88 23
REMARK SMILES IDX 9 25 10 26 11 27 12 28 13 29 14 31 15 32 16 33 77 34 17 35
REMARK SMILES IDX 76 36 18 37 19 38 20 39 70 40 21 41 75 42 69 43 71 44 22 45
REMARK SMILES IDX 74 46 68 47 67 48 23 50 55 51 35 52 54 53 36 54 39 55 53 56
REMARK SMILES IDX 72 57 37 58 38 59 52 61 73 62 40 63 24 64 25 65 33 66 26 67
REMARK SMILES IDX 28 68 34 69 27 70 29 71 30 72 31 73 32 74 56 75 57 76 65 77
REMARK SMILES IDX 58 78 60 79 66 80 59 81 61 82 62 83 63 84 64 85 41 86 42 87
REMARK SMILES IDX 50 88 43 89 45 90 51 91 44 92 46 93 47 94 48 95 49 96
REMARK H PARENT 5 7 88 24 12 30 71 49 39 60
REMARK Flexibility Score: inf
ROOT
ATOM      1  C   UNL A   1      36.147  22.553  23.886  1.00  0.00     0.002 C 
ENDROOT
BRANCH   1   2
ATOM      2  C   UNL A   1      34.959  23.511  24.052  1.00  0.00     0.021 C 
BRANCH   2   3
ATOM      3  C   UNL A   1      34.257  23.881  22.743  1.00  0.00     0.116 C 
BRANCH   3   4
ATOM      4  N   UNL A   1      32.905  23.364  22.735  1.00  0.00    -0.356 N 
ATOM      5  C   UNL A   1      31.806  23.729  23.454  1.00  0.00     0.227 C 
ATOM      6  O   UNL A   1      30.836  22.978  23.342  1.00  0.00    -0.274 OA
ATOM      7  H   UNL A   1      32.752  22.624  22.103  1.00  0.00     0.163 HD
BRANCH   5   8
ATOM      8  C   UNL A   1      31.826  25.027  24.293  1.00  0.00     0.106 C 
ATOM      9  C   UNL A   1      31.606  24.759  25.784  1.00  0.00     0.023 C 
BRANCH   8  10
ATOM     10  C   UNL A   1      30.850  26.130  23.860  1.00  0.00    -0.022 A 
ATOM     11  C   UNL A   1      29.503  26.102  24.264  1.00  0.00     0.006 A 
ATOM     12  C   UNL A   1      31.273  27.255  23.125  1.00  0.00     0.022 A 
ATOM     13  C   UNL A   1      28.596  27.088  23.871  1.00  0.00     0.004 A 
ATOM     14  C   UNL A   1      30.366  28.259  22.755  1.00  0.00     0.019 A 
ATOM     15  Br  UNL A   1      33.077  27.524  22.578  1.00  0.00    -0.051 Br
ATOM     16  C   UNL A   1      29.011  28.157  23.082  1.00  0.00    -0.047 A 
BRANCH  16  17
ATOM     17  C   UNL A   1      28.008  29.152  22.554  1.00  0.00     0.041 C 
BRANCH  17  18
ATOM     18  C   UNL A   1      28.599  30.506  22.122  1.00  0.00     0.022 C 
ATOM     19  C   UNL A   1      28.029  31.105  20.826  1.00  0.00     0.007 C 
ATOM     20  C   UNL A   1      28.477  31.637  23.146  1.00  0.00     0.117 C 
ATOM     21  C   UNL A   1      28.004  32.623  21.035  1.00  0.00     0.003 C 
ATOM     22  C   UNL A   1      28.785  32.873  22.315  1.00  0.00     0.032 C 
BRANCH  20  23
ATOM     23  O   UNL A   1      29.404  31.476  24.204  1.00  0.00    -0.393 OA
ATOM     24  H   UNL A   1      29.037  31.853  25.017  1.00  0.00     0.210 HD
ENDBRANCH  20  23
ENDBRANCH  17  18
ENDBRANCH  16  17
ENDBRANCH   8  10
ENDBRANCH   5   8
ENDBRANCH   3   4
ENDBRANCH   2   3
ENDBRANCH   1   2
BRANCH   1  25
ATOM     25  C   UNL A   1      36.063  21.267  24.710  1.00  0.00     0.002 C 
BRANCH  25  26
ATOM     26  C   UNL A   1      37.369  20.475  24.791  1.00  0.00     0.021 C 
BRANCH  26  27
ATOM     27  C   UNL A   1      38.529  21.238  25.418  1.00  0.00     0.116 C 
BRANCH  27  28
ATOM     28  N   UNL A   1      39.455  20.353  26.108  1.00  0.00    -0.352 N 
ATOM     29  C   UNL A   1      40.579  20.674  26.826  1.00  0.00     0.251 C 
ATOM     30  H   UNL A   1      39.245  19.392  26.053  1.00  0.00     0.163 HD
ATOM     31  O   UNL A   1      41.364  19.794  27.171  1.00  0.00    -0.269 OA
BRANCH  29  32
ATOM     32  C   UNL A   1      40.847  22.088  27.164  1.00  0.00     0.039 A 
ATOM     33  C   UNL A   1      41.517  22.386  28.352  1.00  0.00     0.014 A 
ATOM     34  C   UNL A   1      40.450  23.114  26.301  1.00  0.00     0.014 A 
ATOM     35  C   UNL A   1      41.838  23.713  28.648  1.00  0.00     0.010 A 
ATOM     36  C   UNL A   1      40.841  24.424  26.559  1.00  0.00     0.010 A 
ATOM     37  C   UNL A   1      41.531  24.739  27.739  1.00  0.00    -0.014 A 
BRANCH  37  38
ATOM     38  C   UNL A   1      41.936  26.144  28.000  1.00  0.00     0.031 A 
ATOM     39  C   UNL A   1      43.321  26.614  27.647  1.00  0.00     0.074 A 
ATOM     40  C   UNL A   1      41.081  26.977  28.626  1.00  0.00     0.049 A 
ATOM     41  N   UNL A   1      43.867  27.788  27.838  1.00  0.00    -0.248 NA
ATOM     42  C   UNL A   1      44.222  25.631  27.021  1.00  0.00     0.031 C 
ATOM     43  C   UNL A   1      39.738  26.619  29.089  1.00  0.00     0.029 A 
ATOM     44  N   UNL A   1      41.222  28.289  29.004  1.00  0.00    -0.354 N 
ATOM     45  C   UNL A   1      45.177  27.676  27.390  1.00  0.00     0.074 A 
ATOM     46  C   UNL A   1      45.359  26.310  26.951  1.00  0.00     0.031 C 
ATOM     47  C   UNL A   1      39.177  27.686  29.680  1.00  0.00     0.029 A 
ATOM     48  C   UNL A   1      40.130  28.792  29.672  1.00  0.00     0.049 A 
ATOM     49  H   UNL A   1      42.029  28.821  28.814  1.00  0.00     0.167 HD
ATOM     50  C   UNL A   1      46.138  28.630  27.324  1.00  0.00     0.034 A 
ATOM     51  C   UNL A   1      39.921  30.002  30.227  1.00  0.00     0.034 A 
ATOM     52  C   UNL A   1      45.944  29.995  27.732  1.00  0.00     0.049 A 
ATOM     53  C   UNL A   1      40.995  31.050  30.116  1.00  0.00     0.074 A 
ATOM     54  C   UNL A   1      46.824  31.057  27.625  1.00  0.00     0.029 A 
ATOM     55  N   UNL A   1      44.797  30.486  28.337  1.00  0.00    -0.354 N 
ATOM     56  N   UNL A   1      42.172  30.970  29.547  1.00  0.00    -0.248 NA
ATOM     57  C   UNL A   1      40.696  32.370  30.693  1.00  0.00     0.031 C 
ATOM     58  C   UNL A   1      46.224  32.182  28.199  1.00  0.00     0.029 A 
ATOM     59  C   UNL A   1      44.953  31.832  28.624  1.00  0.00     0.049 A 
ATOM     60  H   UNL A   1      43.991  29.957  28.534  1.00  0.00     0.167 HD
ATOM     61  C   UNL A   1      42.740  32.234  29.661  1.00  0.00     0.074 A 
ATOM     62  C   UNL A   1      41.766  33.067  30.337  1.00  0.00     0.031 C 
ATOM     63  C   UNL A   1      43.959  32.663  29.254  1.00  0.00     0.034 A 
BRANCH  50  64
ATOM     64  C   UNL A   1      47.477  28.240  26.753  1.00  0.00     0.023 A 
ATOM     65  C   UNL A   1      48.577  28.051  27.615  1.00  0.00     0.012 A 
ATOM     66  C   UNL A   1      47.634  28.004  25.373  1.00  0.00     0.148 A 
ATOM     67  C   UNL A   1      49.819  27.669  27.111  1.00  0.00     0.002 A 
ATOM     68  C   UNL A   1      48.862  27.576  24.883  1.00  0.00     0.091 A 
ATOM     69  F   UNL A   1      46.583  28.208  24.566  1.00  0.00    -0.205 F 
ATOM     70  C   UNL A   1      49.959  27.421  25.748  1.00  0.00     0.022 A 
BRANCH  68  71
ATOM     71  S   UNL A   1      49.125  27.150  23.159  1.00  0.00     0.127 S 
ATOM     72  O   UNL A   1      48.363  25.908  23.043  1.00  0.00    -0.237 OA
ATOM     73  O   UNL A   1      48.533  28.295  22.467  1.00  0.00    -0.237 OA
ATOM     74  O   UNL A   1      50.565  27.016  22.992  1.00  0.00    -0.744 OA
ENDBRANCH  68  71
ENDBRANCH  50  64
BRANCH  51  75
ATOM     75  C   UNL A   1      38.622  30.304  30.893  1.00  0.00     0.023 A 
ATOM     76  C   UNL A   1      38.384  29.831  32.197  1.00  0.00     0.012 A 
ATOM     77  C   UNL A   1      37.632  31.070  30.249  1.00  0.00     0.148 A 
ATOM     78  C   UNL A   1      37.169  30.083  32.836  1.00  0.00     0.002 A 
ATOM     79  C   UNL A   1      36.448  31.368  30.912  1.00  0.00     0.091 A 
ATOM     80  F   UNL A   1      37.874  31.504  29.004  1.00  0.00    -0.205 F 
ATOM     81  C   UNL A   1      36.206  30.860  32.197  1.00  0.00     0.022 A 
BRANCH  79  82
ATOM     82  S   UNL A   1      35.208  32.470  30.221  1.00  0.00     0.127 S 
ATOM     83  O   UNL A   1      34.709  31.687  29.094  1.00  0.00    -0.237 OA
ATOM     84  O   UNL A   1      34.274  32.609  31.338  1.00  0.00    -0.237 OA
ATOM     85  O   UNL A   1      35.917  33.694  29.875  1.00  0.00    -0.744 OA
ENDBRANCH  79  82
ENDBRANCH  51  75
BRANCH  63  86
ATOM     86  C   UNL A   1      44.304  34.113  29.482  1.00  0.00     0.023 A 
ATOM     87  C   UNL A   1      45.309  34.463  30.404  1.00  0.00     0.012 A 
ATOM     88  C   UNL A   1      43.678  35.122  28.725  1.00  0.00     0.148 A 
ATOM     89  C   UNL A   1      45.660  35.799  30.596  1.00  0.00     0.002 A 
ATOM     90  C   UNL A   1      44.070  36.445  28.882  1.00  0.00     0.091 A 
ATOM     91  F   UNL A   1      42.711  34.770  27.865  1.00  0.00    -0.205 F 
ATOM     92  C   UNL A   1      45.051  36.788  29.827  1.00  0.00     0.022 A 
BRANCH  90  93
ATOM     93  S   UNL A   1      43.413  37.774  27.866  1.00  0.00     0.127 S 
ATOM     94  O   UNL A   1      43.671  37.273  26.516  1.00  0.00    -0.237 OA
ATOM     95  O   UNL A   1      42.002  37.788  28.253  1.00  0.00    -0.237 OA
ATOM     96  O   UNL A   1      44.154  38.971  28.239  1.00  0.00    -0.744 OA
ENDBRANCH  90  93
ENDBRANCH  63  86
ENDBRANCH  37  38
ENDBRANCH  29  32
ENDBRANCH  27  28
ENDBRANCH  26  27
ENDBRANCH  25  26
ENDBRANCH   1  25
TORSDOF 20
ENDMDL
MODEL 2
REMARK VINA RESULT:     -11.7      5.046     10.135
REMARK SMILES C[C@@H](C(=O)NCCCCCCNC(=O)c1ccc(-c2c3nc(c(-c4cccc(S(=O)(=O)[O-])c4F)c4ccc([nH]4)c(-c4cccc(S(=O)(=O)[O-])c4F)c4nc(c(-c5cccc(S(=O)(=O)[O-])c5F)c5ccc2[nH]5)C=C4)C=C3)cc1)c1ccc(C[C@H]2CCC[C@@H]2O)cc1Br
REMARK SMILES IDX 8 1 7 2 6 3 5 4 3 5 4 6 2 8 1 9 78 10 79 11 90 12 80 13
REMARK SMILES IDX 89 14 91 15 81 16 82 17 83 18 84 19 87 20 85 21 86 22 88 23
REMARK SMILES IDX 9 25 10 26 11 27 12 28 13 29 14 31 15 32 16 33 77 34 17 35
REMARK SMILES IDX 76 36 18 37 19 38 20 39 70 40 21 41 75 42 69 43 71 44 22 45
REMARK SMILES IDX 74 46 68 47 67 48 23 50 55 51 35 52 54 53 36 54 39 55 53 56
REMARK SMILES IDX 72 57 37 58 38 59 52 61 73 62 40 63 24 64 25 65 33 66 26 67
REMARK SMILES IDX 28 68 34 69 27 70 29 71 30 72 31 73 32 74 56 75 57 76 65 77
REMARK SMILES IDX 58 78 60 79 66 80 59 81 61 82 62 83 63 84 64 85 41 86 42 87
REMARK SMILES IDX 50 88 43 89 45 90 51 91 44 92 46 93 47 94 48 95 49 96
REMARK H PARENT 5 7 88 24 12 30 71 49 39 60
REMARK Flexibility Score: inf
ROOT
ATOM      1  C   UNL A   1      33.528  27.545  25.468  1.00  0.00     0.002 C 
ENDROOT
BRANCH   1   2
ATOM      2  C   UNL A   1      34.130  28.334  24.298  1.00  0.00     0.021 C 
BRANCH   2   3
ATOM      3  C   UNL A   1      33.120  28.738  23.220  1.00  0.00     0.116 C 
BRANCH   3   4
ATOM      4  N   UNL A   1      32.033  29.493  23.808  1.00  0.00    -0.356 N 
ATOM      5  C   UNL A   1      30.683  29.317  23.734  1.00  0.00     0.227 C 
ATOM      6  O   UNL A   1      30.012  30.235  24.207  1.00  0.00    -0.274 OA
ATOM      7  H   UNL A   1      32.316  30.262  24.353  1.00  0.00     0.163 HD
BRANCH   5   8
ATOM      8  C   UNL A   1      30.104  28.017  23.130  1.00  0.00     0.106 C 
ATOM      9  C   UNL A   1      28.580  28.069  22.993  1.00  0.00     0.023 C 
BRANCH   8  10
ATOM     10  C   UNL A   1      30.471  26.712  23.849  1.00  0.00    -0.022 A 
ATOM     11  C   UNL A   1      29.991  26.439  25.143  1.00  0.00     0.006 A 
ATOM     12  C   UNL A   1      31.221  25.698  23.220  1.00  0.00     0.022 A 
ATOM     13  C   UNL A   1      30.324  25.265  25.819  1.00  0.00     0.004 A 
ATOM     14  C   UNL A   1      31.530  24.506  23.891  1.00  0.00     0.019 A 
ATOM     15  Br  UNL A   1      31.868  25.838  21.434  1.00  0.00    -0.051 Br
ATOM     16  C   UNL A   1      31.127  24.303  25.214  1.00  0.00    -0.047 A 
BRANCH  16  17
ATOM     17  C   UNL A   1      31.589  23.094  25.989  1.00  0.00     0.041 C 
BRANCH  17  18
ATOM     18  C   UNL A   1      33.058  22.698  25.762  1.00  0.00     0.022 C 
ATOM     19  C   UNL A   1      34.075  23.851  25.776  1.00  0.00     0.007 C 
ATOM     20  C   UNL A   1      33.629  21.680  26.753  1.00  0.00     0.117 C 
ATOM     21  C   UNL A   1      35.348  23.287  26.416  1.00  0.00     0.003 C 
ATOM     22  C   UNL A   1      35.127  21.787  26.513  1.00  0.00     0.032 C 
BRANCH  20  23
ATOM     23  O   UNL A   1      33.150  20.376  26.483  1.00  0.00    -0.393 OA
ATOM     24  H   UNL A   1      32.260  20.430  26.102  1.00  0.00     0.210 HD
ENDBRANCH  20  23
ENDBRANCH  17  18
ENDBRANCH  16  17
ENDBRANCH   8  10
ENDBRANCH   5   8
ENDBRANCH   3   4
ENDBRANCH   2   3
ENDBRANCH   1   2
BRANCH   1  25
ATOM     25  C   UNL A   1      33.842  28.102  26.857  1.00  0.00     0.002 C 
BRANCH  25  26
ATOM     26  C   UNL A   1      33.282  29.500  27.126  1.00  0.00     0.021 C 
BRANCH  26  27
ATOM     27  C   UNL A   1      34.318  30.616  27.061  1.00  0.00     0.116 C 
BRANCH  27  28
ATOM     28  N   UNL A   1      34.066  31.650  28.053  1.00  0.00    -0.352 N 
ATOM     29  C   UNL A   1      34.731  31.895  29.227  1.00  0.00     0.251 C 
ATOM     30  H   UNL A   1      33.316  32.257  27.853  1.00  0.00     0.163 HD
ATOM     31  O   UNL A   1      34.262  32.678  30.051  1.00  0.00    -0.269 OA
BRANCH  29  32
ATOM     32  C   UNL A   1      36.004  31.198  29.502  1.00  0.00     0.039 A 
ATOM     33  C   UNL A   1      37.201  31.779  29.079  1.00  0.00     0.014 A 
ATOM     34  C   UNL A   1      36.016  29.979  30.188  1.00  0.00     0.014 A 
ATOM     35  C   UNL A   1      38.416  31.164  29.394  1.00  0.00     0.010 A 
ATOM     36  C   UNL A   1      37.227  29.412  30.569  1.00  0.00     0.010 A 
ATOM     37  C   UNL A   1      38.440  29.993  30.170  1.00  0.00    -0.014 A 
BRANCH  37  38
ATOM     38  C   UNL A   1      39.724  29.370  30.582  1.00  0.00     0.031 A 
ATOM     39  C   UNL A   1      40.452  29.865  31.802  1.00  0.00     0.074 A 
ATOM     40  C   UNL A   1      40.273  28.408  29.814  1.00  0.00     0.049 A 
ATOM     41  N   UNL A   1      41.601  29.475  32.291  1.00  0.00    -0.248 NA
ATOM     42  C   UNL A   1      39.821  30.960  32.559  1.00  0.00     0.031 C 
ATOM     43  C   UNL A   1      39.704  27.895  28.565  1.00  0.00     0.029 A 
ATOM     44  N   UNL A   1      41.445  27.708  29.955  1.00  0.00    -0.354 N 
ATOM     45  C   UNL A   1      41.847  30.294  33.386  1.00  0.00     0.074 A 
ATOM     46  C   UNL A   1      40.746  31.229  33.470  1.00  0.00     0.031 C 
ATOM     47  C   UNL A   1      40.522  26.959  28.060  1.00  0.00     0.029 A 
ATOM     48  C   UNL A   1      41.690  26.828  28.926  1.00  0.00     0.049 A 
ATOM     49  H   UNL A   1      42.053  27.823  30.721  1.00  0.00     0.167 HD
ATOM     50  C   UNL A   1      42.881  30.257  34.260  1.00  0.00     0.034 A 
ATOM     51  C   UNL A   1      42.741  26.016  28.697  1.00  0.00     0.034 A 
ATOM     52  C   UNL A   1      43.957  29.306  34.193  1.00  0.00     0.049 A 
ATOM     53  C   UNL A   1      43.863  25.976  29.698  1.00  0.00     0.074 A 
ATOM     54  C   UNL A   1      45.005  29.129  35.078  1.00  0.00     0.029 A 
ATOM     55  N   UNL A   1      44.133  28.380  33.176  1.00  0.00    -0.354 N 
ATOM     56  N   UNL A   1      43.999  26.650  30.814  1.00  0.00    -0.248 NA
ATOM     57  C   UNL A   1      44.961  25.035  29.427  1.00  0.00     0.031 C 
ATOM     58  C   UNL A   1      45.835  28.120  34.578  1.00  0.00     0.029 A 
ATOM     59  C   UNL A   1      45.281  27.639  33.403  1.00  0.00     0.049 A 
ATOM     60  H   UNL A   1      43.531  28.265  32.405  1.00  0.00     0.167 HD
ATOM     61  C   UNL A   1      45.175  26.190  31.397  1.00  0.00     0.074 A 
ATOM     62  C   UNL A   1      45.701  25.164  30.520  1.00  0.00     0.031 C 
ATOM     63  C   UNL A   1      45.770  26.588  32.548  1.00  0.00     0.034 A 
BRANCH  50  64
ATOM     64  C   UNL A   1      42.879  31.250  35.393  1.00  0.00     0.023 A 
ATOM     65  C   UNL A   1      42.323  30.891  36.639  1.00  0.00     0.012 A 
ATOM     66  C   UNL A   1      43.479  32.516  35.246  1.00  0.00     0.148 A 
ATOM     67  C   UNL A   1      42.331  31.786  37.707  1.00  0.00     0.002 A 
ATOM     68  C   UNL A   1      43.527  33.386  36.330  1.00  0.00     0.091 A 
ATOM     69  F   UNL A   1      43.985  32.849  34.050  1.00  0.00    -0.205 F 
ATOM     70  C   UNL A   1      42.942  33.028  37.556  1.00  0.00     0.022 A 
BRANCH  68  71
ATOM     71  S   UNL A   1      44.364  34.974  36.265  1.00  0.00     0.127 S 
ATOM     72  O   UNL A   1      43.583  35.676  35.248  1.00  0.00    -0.237 OA
ATOM     73  O   UNL A   1      44.181  35.473  37.627  1.00  0.00    -0.237 OA
ATOM     74  O   UNL A   1      45.745  34.686  35.903  1.00  0.00    -0.744 OA
ENDBRANCH  68  71
ENDBRANCH  50  64
BRANCH  51  75
ATOM     75  C   UNL A   1      42.756  25.137  27.494  1.00  0.00     0.023 A 
ATOM     76  C   UNL A   1      43.320  25.612  26.294  1.00  0.00     0.012 A 
ATOM     77  C   UNL A   1      42.234  23.830  27.537  1.00  0.00     0.148 A 
ATOM     78  C   UNL A   1      43.330  24.815  25.148  1.00  0.00     0.002 A 
ATOM     79  C   UNL A   1      42.300  23.021  26.410  1.00  0.00     0.091 A 
ATOM     80  F   UNL A   1      41.694  23.400  28.686  1.00  0.00    -0.205 F 
ATOM     81  C   UNL A   1      42.829  23.517  25.209  1.00  0.00     0.022 A 
BRANCH  79  82
ATOM     82  S   UNL A   1      41.802  21.295  26.432  1.00  0.00     0.127 S 
ATOM     83  O   UNL A   1      40.371  21.394  26.158  1.00  0.00    -0.237 OA
ATOM     84  O   UNL A   1      42.602  20.737  25.342  1.00  0.00    -0.237 OA
ATOM     85  O   UNL A   1      42.159  20.798  27.754  1.00  0.00    -0.744 OA
ENDBRANCH  79  82
ENDBRANCH  51  75
BRANCH  63  86
ATOM     86  C   UNL A   1      47.038  25.885  32.961  1.00  0.00     0.023 A 
ATOM     87  C   UNL A   1      48.290  26.400  32.572  1.00  0.00     0.012 A 
ATOM     88  C   UNL A   1      46.985  24.752  33.797  1.00  0.00     0.148 A 
ATOM     89  C   UNL A   1      49.469  25.776  32.979  1.00  0.00     0.002 A 
ATOM     90  C   UNL A   1      48.164  24.169  34.243  1.00  0.00     0.091 A 
ATOM     91  F   UNL A   1      45.783  24.267  34.142  1.00  0.00    -0.205 F 
ATOM     92  C   UNL A   1      49.407  24.670  33.824  1.00  0.00     0.022 A 
BRANCH  90  93
ATOM     93  S   UNL A   1      48.183  22.803  35.411  1.00  0.00     0.127 S 
ATOM     94  O   UNL A   1      49.618  22.569  35.571  1.00  0.00    -0.237 OA
ATOM     95  O   UNL A   1      47.526  23.388  36.580  1.00  0.00    -0.237 OA
ATOM     96  O   UNL A   1      47.442  21.721  34.778  1.00  0.00    -0.744 OA
ENDBRANCH  90  93
ENDBRANCH  63  86
ENDBRANCH  37  38
ENDBRANCH  29  32
ENDBRANCH  27  28
ENDBRANCH  26  27
ENDBRANCH  25  26
ENDBRANCH   1  25
TORSDOF 20
ENDMDL
MODEL 3
REMARK VINA RESULT:     -11.6      5.811      8.743
REMARK SMILES C[C@@H](C(=O)NCCCCCCNC(=O)c1ccc(-c2c3nc(c(-c4cccc(S(=O)(=O)[O-])c4F)c4ccc([nH]4)c(-c4cccc(S(=O)(=O)[O-])c4F)c4nc(c(-c5cccc(S(=O)(=O)[O-])c5F)c5ccc2[nH]5)C=C4)C=C3)cc1)c1ccc(C[C@H]2CCC[C@@H]2O)cc1Br
REMARK SMILES IDX 8 1 7 2 6 3 5 4 3 5 4 6 2 8 1 9 78 10 79 11 90 12 80 13
REMARK SMILES IDX 89 14 91 15 81 16 82 17 83 18 84 19 87 20 85 21 86 22 88 23
REMARK SMILES IDX 9 25 10 26 11 27 12 28 13 29 14 31 15 32 16 33 77 34 17 35
REMARK SMILES IDX 76 36 18 37 19 38 20 39 70 40 21 41 75 42 69 43 71 44 22 45
REMARK SMILES IDX 74 46 68 47 67 48 23 50 55 51 35 52 54 53 36 54 39 55 53 56
REMARK SMILES IDX 72 57 37 58 38 59 52 61 73 62 40 63 24 64 25 65 33 66 26 67
REMARK SMILES IDX 28 68 34 69 27 70 29 71 30 72 31 73 32 74 56 75 57 76 65 77
REMARK SMILES IDX 58 78 60 79 66 80 59 81 61 82 62 83 63 84 64 85 41 86 42 87
REMARK SMILES IDX 50 88 43 89 45 90 51 91 44 92 46 93 47 94 48 95 49 96
REMARK H PARENT 5 7 88 24 12 30 71 49 39 60
REMARK Flexibility Score: inf
ROOT
ATOM      1  C   UNL A   1      33.116  30.138  26.383  1.00  0.00     0.002 C 
ENDROOT
BRANCH   1   2
ATOM      2  C   UNL A   1      33.141  28.629  26.660  1.00  0.00     0.021 C 
BRANCH   2   3
ATOM      3  C   UNL A   1      33.775  27.791  25.547  1.00  0.00     0.116 C 
BRANCH   3   4
ATOM      4  N   UNL A   1      33.843  26.400  25.941  1.00  0.00    -0.356 N 
ATOM      5  C   UNL A   1      33.352  25.278  25.343  1.00  0.00     0.227 C 
ATOM      6  O   UNL A   1      33.427  24.251  26.020  1.00  0.00    -0.274 OA
ATOM      7  H   UNL A   1      34.326  26.236  26.783  1.00  0.00     0.163 HD
BRANCH   5   8
ATOM      8  C   UNL A   1      32.797  25.349  23.902  1.00  0.00     0.106 C 
ATOM      9  C   UNL A   1      33.882  25.692  22.878  1.00  0.00     0.023 C 
BRANCH   8  10
ATOM     10  C   UNL A   1      31.614  26.300  23.677  1.00  0.00    -0.022 A 
ATOM     11  C   UNL A   1      31.651  27.273  22.662  1.00  0.00     0.006 A 
ATOM     12  C   UNL A   1      30.413  26.185  24.406  1.00  0.00     0.022 A 
ATOM     13  C   UNL A   1      30.592  28.157  22.449  1.00  0.00     0.004 A 
ATOM     14  C   UNL A   1      29.339  27.055  24.172  1.00  0.00     0.019 A 
ATOM     15  Br  UNL A   1      30.133  24.862  25.748  1.00  0.00    -0.051 Br
ATOM     16  C   UNL A   1      29.439  28.080  23.226  1.00  0.00    -0.047 A 
BRANCH  16  17
ATOM     17  C   UNL A   1      28.349  29.112  23.081  1.00  0.00     0.041 C 
BRANCH  17  18
ATOM     18  C   UNL A   1      28.762  30.395  22.338  1.00  0.00     0.022 C 
ATOM     19  C   UNL A   1      28.080  30.635  20.981  1.00  0.00     0.007 C 
ATOM     20  C   UNL A   1      28.545  31.702  23.106  1.00  0.00     0.117 C 
ATOM     21  C   UNL A   1      27.884  32.150  20.867  1.00  0.00     0.003 C 
ATOM     22  C   UNL A   1      28.677  32.753  22.015  1.00  0.00     0.032 C 
BRANCH  20  23
ATOM     23  O   UNL A   1      29.522  31.873  24.116  1.00  0.00    -0.393 OA
ATOM     24  H   UNL A   1      30.222  32.461  23.793  1.00  0.00     0.210 HD
ENDBRANCH  20  23
ENDBRANCH  17  18
ENDBRANCH  16  17
ENDBRANCH   8  10
ENDBRANCH   5   8
ENDBRANCH   3   4
ENDBRANCH   2   3
ENDBRANCH   1   2
BRANCH   1  25
ATOM     25  C   UNL A   1      31.722  30.765  26.325  1.00  0.00     0.002 C 
BRANCH  25  26
ATOM     26  C   UNL A   1      31.588  32.092  27.073  1.00  0.00     0.021 C 
BRANCH  26  27
ATOM     27  C   UNL A   1      32.862  32.927  27.107  1.00  0.00     0.116 C 
BRANCH  27  28
ATOM     28  N   UNL A   1      32.646  34.226  27.724  1.00  0.00    -0.352 N 
ATOM     29  C   UNL A   1      33.230  34.752  28.849  1.00  0.00     0.251 C 
ATOM     30  H   UNL A   1      31.992  34.808  27.273  1.00  0.00     0.163 HD
ATOM     31  O   UNL A   1      32.784  35.781  29.353  1.00  0.00    -0.269 OA
BRANCH  29  32
ATOM     32  C   UNL A   1      34.385  34.062  29.459  1.00  0.00     0.039 A 
ATOM     33  C   UNL A   1      35.676  34.439  29.083  1.00  0.00     0.014 A 
ATOM     34  C   UNL A   1      34.193  33.056  30.410  1.00  0.00     0.014 A 
ATOM     35  C   UNL A   1      36.777  33.842  29.704  1.00  0.00     0.010 A 
ATOM     36  C   UNL A   1      35.287  32.522  31.083  1.00  0.00     0.010 A 
ATOM     37  C   UNL A   1      36.591  32.903  30.732  1.00  0.00    -0.014 A 
BRANCH  37  38
ATOM     38  C   UNL A   1      37.748  32.319  31.458  1.00  0.00     0.031 A 
ATOM     39  C   UNL A   1      38.513  31.166  30.867  1.00  0.00     0.074 A 
ATOM     40  C   UNL A   1      38.062  32.778  32.686  1.00  0.00     0.049 A 
ATOM     41  N   UNL A   1      39.520  30.501  31.372  1.00  0.00    -0.248 NA
ATOM     42  C   UNL A   1      38.075  30.678  29.548  1.00  0.00     0.031 C 
ATOM     43  C   UNL A   1      37.348  33.838  33.401  1.00  0.00     0.029 A 
ATOM     44  N   UNL A   1      39.046  32.393  33.562  1.00  0.00    -0.354 N 
ATOM     45  C   UNL A   1      39.813  29.499  30.454  1.00  0.00     0.074 A 
ATOM     46  C   UNL A   1      38.855  29.619  29.378  1.00  0.00     0.031 C 
ATOM     47  C   UNL A   1      37.922  34.025  34.600  1.00  0.00     0.029 A 
ATOM     48  C   UNL A   1      39.020  33.076  34.757  1.00  0.00     0.049 A 
ATOM     49  H   UNL A   1      39.709  31.695  33.355  1.00  0.00     0.167 HD
ATOM     50  C   UNL A   1      40.806  28.578  30.488  1.00  0.00     0.034 A 
ATOM     51  C   UNL A   1      39.784  32.945  35.859  1.00  0.00     0.034 A 
ATOM     52  C   UNL A   1      41.777  28.482  31.545  1.00  0.00     0.049 A 
ATOM     53  C   UNL A   1      40.896  31.932  35.860  1.00  0.00     0.074 A 
ATOM     54  C   UNL A   1      42.873  27.642  31.631  1.00  0.00     0.029 A 
ATOM     55  N   UNL A   1      41.763  29.241  32.705  1.00  0.00    -0.354 N 
ATOM     56  N   UNL A   1      41.255  31.100  34.914  1.00  0.00    -0.248 NA
ATOM     57  C   UNL A   1      41.733  31.867  37.067  1.00  0.00     0.031 C 
ATOM     58  C   UNL A   1      43.501  27.867  32.861  1.00  0.00     0.029 A 
ATOM     59  C   UNL A   1      42.821  28.878  33.521  1.00  0.00     0.049 A 
ATOM     60  H   UNL A   1      41.099  29.935  32.918  1.00  0.00     0.167 HD
ATOM     61  C   UNL A   1      42.380  30.438  35.394  1.00  0.00     0.074 A 
ATOM     62  C   UNL A   1      42.654  30.983  36.708  1.00  0.00     0.031 C 
ATOM     63  C   UNL A   1      43.113  29.461  34.806  1.00  0.00     0.034 A 
BRANCH  50  64
ATOM     64  C   UNL A   1      40.919  27.623  29.329  1.00  0.00     0.023 A 
ATOM     65  C   UNL A   1      40.046  26.518  29.244  1.00  0.00     0.012 A 
ATOM     66  C   UNL A   1      41.847  27.849  28.293  1.00  0.00     0.148 A 
ATOM     67  C   UNL A   1      40.118  25.635  28.169  1.00  0.00     0.002 A 
ATOM     68  C   UNL A   1      41.881  26.991  27.199  1.00  0.00     0.091 A 
ATOM     69  F   UNL A   1      42.683  28.892  28.399  1.00  0.00    -0.205 F 
ATOM     70  C   UNL A   1      41.027  25.877  27.142  1.00  0.00     0.022 A 
BRANCH  68  71
ATOM     71  S   UNL A   1      42.955  27.262  25.786  1.00  0.00     0.127 S 
ATOM     72  O   UNL A   1      42.807  28.700  25.574  1.00  0.00    -0.237 OA
ATOM     73  O   UNL A   1      44.258  26.853  26.309  1.00  0.00    -0.237 OA
ATOM     74  O   UNL A   1      42.437  26.418  24.719  1.00  0.00    -0.744 OA
ENDBRANCH  68  71
ENDBRANCH  50  64
BRANCH  51  75
ATOM     75  C   UNL A   1      39.555  33.833  37.034  1.00  0.00     0.023 A 
ATOM     76  C   UNL A   1      39.931  35.188  36.965  1.00  0.00     0.012 A 
ATOM     77  C   UNL A   1      38.953  33.346  38.210  1.00  0.00     0.148 A 
ATOM     78  C   UNL A   1      39.745  36.035  38.058  1.00  0.00     0.002 A 
ATOM     79  C   UNL A   1      38.717  34.208  39.274  1.00  0.00     0.091 A 
ATOM     80  F   UNL A   1      38.612  32.051  38.260  1.00  0.00    -0.205 F 
ATOM     81  C   UNL A   1      39.129  35.548  39.208  1.00  0.00     0.022 A 
BRANCH  79  82
ATOM     82  S   UNL A   1      37.812  33.703  40.741  1.00  0.00     0.127 S 
ATOM     83  O   UNL A   1      37.678  34.967  41.460  1.00  0.00    -0.237 OA
ATOM     84  O   UNL A   1      36.571  33.184  40.166  1.00  0.00    -0.237 OA
ATOM     85  O   UNL A   1      38.641  32.694  41.388  1.00  0.00    -0.744 OA
ENDBRANCH  79  82
ENDBRANCH  51  75
BRANCH  63  86
ATOM     86  C   UNL A   1      44.316  28.942  35.552  1.00  0.00     0.023 A 
ATOM     87  C   UNL A   1      45.570  29.562  35.388  1.00  0.00     0.012 A 
ATOM     88  C   UNL A   1      44.183  27.881  36.469  1.00  0.00     0.148 A 
ATOM     89  C   UNL A   1      46.681  29.111  36.100  1.00  0.00     0.002 A 
ATOM     90  C   UNL A   1      45.280  27.473  37.215  1.00  0.00     0.091 A 
ATOM     91  F   UNL A   1      42.984  27.293  36.598  1.00  0.00    -0.205 F 
ATOM     92  C   UNL A   1      46.534  28.077  37.022  1.00  0.00     0.022 A 
BRANCH  90  93
ATOM     93  S   UNL A   1      45.165  26.217  38.495  1.00  0.00     0.127 S 
ATOM     94  O   UNL A   1      44.236  26.838  39.439  1.00  0.00    -0.237 OA
ATOM     95  O   UNL A   1      44.618  25.077  37.760  1.00  0.00    -0.237 OA
ATOM     96  O   UNL A   1      46.521  26.022  38.991  1.00  0.00    -0.744 OA
ENDBRANCH  90  93
ENDBRANCH  63  86
ENDBRANCH  37  38
ENDBRANCH  29  32
ENDBRANCH  27  28
ENDBRANCH  26  27
ENDBRANCH  25  26
ENDBRANCH   1  25
TORSDOF 20
ENDMDL
