MODEL 1
REMARK VINA RESULT:     -11.9      0.000      0.000
REMARK SMILES C[C@@H](Sc1nc(-c2ccc3c(c2)OCO3)ccc1C#N)C(=O)NCCCCCCNC(=O)c1ccc(-c2c3nc(c(-c4cccc(S(=O)(=O)[O-])c4F)c4ccc([nH]4)c(-c4cccc(S(=O)(=O)[O-])c4F)c4nc(c(-c5cccc(S(=O)(=O)[O-])c5F)c5ccc2[nH]5)C=C4)C=C3)cc1
REMARK SMILES IDX 26 1 25 2 24 3 23 4 21 5 22 6 2 8 1 9 3 10 4 11 5 12 18 13
REMARK SMILES IDX 6 14 17 15 16 16 19 17 20 18 7 19 8 20 12 21 9 22 11 23
REMARK SMILES IDX 10 24 13 25 15 26 14 27 27 28 28 29 29 30 30 31 31 32 32 34
REMARK SMILES IDX 33 35 34 36 95 37 35 38 94 39 36 40 37 41 38 42 88 43 39 44
REMARK SMILES IDX 93 45 87 46 89 47 40 48 92 49 86 50 85 51 41 53 73 54 53 55
REMARK SMILES IDX 72 56 54 57 57 58 71 59 90 60 55 61 56 62 70 64 91 65 58 66
REMARK SMILES IDX 42 67 43 68 51 69 44 70 46 71 52 72 45 73 47 74 48 75 49 76
REMARK SMILES IDX 50 77 74 78 75 79 83 80 76 81 78 82 84 83 77 84 79 85 80 86
REMARK SMILES IDX 81 87 82 88 59 89 60 90 68 91 61 92 63 93 69 94 62 95 64 96
REMARK SMILES IDX 65 97 66 98 67 99
REMARK H PARENT 23 7 30 33 89 52 57 63
REMARK Flexibility Score: inf
ROOT
ATOM      1  C   UNL A   1      32.408  28.984  26.058  1.00  0.00     0.002 C 
ENDROOT
BRANCH   1   2
ATOM      2  C   UNL A   1      33.421  27.943  26.542  1.00  0.00     0.021 C 
BRANCH   2   3
ATOM      3  C   UNL A   1      32.997  26.508  26.248  1.00  0.00     0.116 C 
BRANCH   3   4
ATOM      4  N   UNL A   1      31.580  26.321  26.516  1.00  0.00    -0.355 N 
ATOM      5  C   UNL A   1      30.729  25.335  26.102  1.00  0.00     0.233 C 
ATOM      6  O   UNL A   1      29.546  25.412  26.450  1.00  0.00    -0.274 OA
ATOM      7  H   UNL A   1      31.169  27.013  27.084  1.00  0.00     0.163 HD
BRANCH   5   8
ATOM      8  C   UNL A   1      31.223  24.173  25.224  1.00  0.00     0.139 C 
ATOM      9  C   UNL A   1      30.894  22.842  25.896  1.00  0.00     0.030 C 
BRANCH   8  10
ATOM     10  S   UNL A   1      30.608  24.534  23.518  1.00  0.00    -0.092 SA
BRANCH  10  11
ATOM     11  C   UNL A   1      31.385  26.050  23.013  1.00  0.00     0.115 A 
ATOM     12  N   UNL A   1      30.622  27.168  22.995  1.00  0.00    -0.240 NA
ATOM     13  C   UNL A   1      32.757  26.075  22.747  1.00  0.00     0.084 A 
ATOM     14  C   UNL A   1      31.219  28.351  22.709  1.00  0.00     0.072 A 
ATOM     15  C   UNL A   1      33.359  27.303  22.468  1.00  0.00     0.024 A 
ATOM     16  C   UNL A   1      32.583  28.455  22.451  1.00  0.00     0.030 A 
BRANCH  13  17
ATOM     17  C   UNL A   1      33.566  24.891  22.733  1.00  0.00     0.102 C 
ATOM     18  N   UNL A   1      34.262  23.965  22.713  1.00  0.00    -0.192 NA
ENDBRANCH  13  17
BRANCH  14  19
ATOM     19  C   UNL A   1      30.345  29.527  22.661  1.00  0.00     0.004 A 
ATOM     20  C   UNL A   1      29.878  30.116  23.866  1.00  0.00     0.014 A 
ATOM     21  C   UNL A   1      29.929  30.073  21.435  1.00  0.00     0.061 A 
ATOM     22  C   UNL A   1      29.003  31.205  23.857  1.00  0.00     0.051 A 
ATOM     23  C   UNL A   1      29.052  31.140  21.455  1.00  0.00     0.166 A 
ATOM     24  C   UNL A   1      28.600  31.687  22.633  1.00  0.00     0.165 A 
ATOM     25  O   UNL A   1      28.527  31.761  20.365  1.00  0.00    -0.454 OA
ATOM     26  O   UNL A   1      27.736  32.718  22.432  1.00  0.00    -0.454 OA
ATOM     27  C   UNL A   1      27.654  32.724  20.991  1.00  0.00     0.468 C 
ENDBRANCH  14  19
ENDBRANCH  10  11
ENDBRANCH   8  10
ENDBRANCH   5   8
ENDBRANCH   3   4
ENDBRANCH   2   3
ENDBRANCH   1   2
BRANCH   1  28
ATOM     28  C   UNL A   1      31.852  29.891  27.162  1.00  0.00     0.002 C 
BRANCH  28  29
ATOM     29  C   UNL A   1      31.751  31.370  26.785  1.00  0.00     0.021 C 
BRANCH  29  30
ATOM     30  C   UNL A   1      33.015  32.172  27.072  1.00  0.00     0.116 C 
BRANCH  30  31
ATOM     31  N   UNL A   1      32.708  33.554  27.412  1.00  0.00    -0.352 N 
ATOM     32  C   UNL A   1      33.180  34.315  28.452  1.00  0.00     0.251 C 
ATOM     33  H   UNL A   1      32.072  34.006  26.812  1.00  0.00     0.163 HD
ATOM     34  O   UNL A   1      32.644  35.384  28.725  1.00  0.00    -0.269 OA
BRANCH  32  35
ATOM     35  C   UNL A   1      34.328  33.829  29.246  1.00  0.00     0.039 A 
ATOM     36  C   UNL A   1      34.097  32.928  30.287  1.00  0.00     0.014 A 
ATOM     37  C   UNL A   1      35.626  34.257  28.957  1.00  0.00     0.014 A 
ATOM     38  C   UNL A   1      35.180  32.414  31.003  1.00  0.00     0.010 A 
ATOM     39  C   UNL A   1      36.707  33.676  29.610  1.00  0.00     0.010 A 
ATOM     40  C   UNL A   1      36.496  32.757  30.649  1.00  0.00    -0.014 A 
BRANCH  40  41
ATOM     41  C   UNL A   1      37.659  32.156  31.348  1.00  0.00     0.031 A 
ATOM     42  C   UNL A   1      38.428  31.027  30.716  1.00  0.00     0.074 A 
ATOM     43  C   UNL A   1      37.986  32.584  32.583  1.00  0.00     0.049 A 
ATOM     44  N   UNL A   1      39.449  30.359  31.188  1.00  0.00    -0.248 NA
ATOM     45  C   UNL A   1      37.975  30.570  29.391  1.00  0.00     0.031 C 
ATOM     46  C   UNL A   1      37.280  33.628  33.331  1.00  0.00     0.029 A 
ATOM     47  N   UNL A   1      38.982  32.183  33.437  1.00  0.00    -0.354 N 
ATOM     48  C   UNL A   1      39.740  29.388  30.238  1.00  0.00     0.074 A 
ATOM     49  C   UNL A   1      38.763  29.526  29.181  1.00  0.00     0.031 C 
ATOM     50  C   UNL A   1      37.876  33.797  34.521  1.00  0.00     0.029 A 
ATOM     51  C   UNL A   1      38.975  32.844  34.643  1.00  0.00     0.049 A 
ATOM     52  H   UNL A   1      39.640  31.488  33.209  1.00  0.00     0.167 HD
ATOM     53  C   UNL A   1      40.743  28.479  30.234  1.00  0.00     0.034 A 
ATOM     54  C   UNL A   1      39.754  32.692  35.732  1.00  0.00     0.034 A 
ATOM     55  C   UNL A   1      41.721  28.355  31.281  1.00  0.00     0.049 A 
ATOM     56  C   UNL A   1      40.856  31.669  35.704  1.00  0.00     0.074 A 
ATOM     57  C   UNL A   1      42.819  27.516  31.336  1.00  0.00     0.029 A 
ATOM     58  N   UNL A   1      41.704  29.069  32.469  1.00  0.00    -0.354 N 
ATOM     59  N   UNL A   1      41.204  30.856  34.736  1.00  0.00    -0.248 NA
ATOM     60  C   UNL A   1      41.693  31.563  36.908  1.00  0.00     0.031 C 
ATOM     61  C   UNL A   1      43.434  27.682  32.581  1.00  0.00     0.029 A 
ATOM     62  C   UNL A   1      42.759  28.672  33.274  1.00  0.00     0.049 A 
ATOM     63  H   UNL A   1      41.042  29.758  32.705  1.00  0.00     0.167 HD
ATOM     64  C   UNL A   1      42.326  30.175  35.196  1.00  0.00     0.074 A 
ATOM     65  C   UNL A   1      42.608  30.684  36.522  1.00  0.00     0.031 C 
ATOM     66  C   UNL A   1      43.053  29.212  34.577  1.00  0.00     0.034 A 
BRANCH  53  67
ATOM     67  C   UNL A   1      40.843  27.551  29.049  1.00  0.00     0.023 A 
ATOM     68  C   UNL A   1      40.021  26.407  28.977  1.00  0.00     0.012 A 
ATOM     69  C   UNL A   1      41.720  27.837  27.984  1.00  0.00     0.148 A 
ATOM     70  C   UNL A   1      40.104  25.538  27.889  1.00  0.00     0.002 A 
ATOM     71  C   UNL A   1      41.757  26.997  26.878  1.00  0.00     0.091 A 
ATOM     72  F   UNL A   1      42.506  28.919  28.076  1.00  0.00    -0.205 F 
ATOM     73  C   UNL A   1      40.963  25.839  26.837  1.00  0.00     0.022 A 
BRANCH  71  74
ATOM     74  S   UNL A   1      42.768  27.340  25.435  1.00  0.00     0.127 S 
ATOM     75  O   UNL A   1      42.586  26.119  24.650  1.00  0.00    -0.237 OA
ATOM     76  O   UNL A   1      42.115  28.525  24.878  1.00  0.00    -0.237 OA
ATOM     77  O   UNL A   1      44.118  27.565  25.931  1.00  0.00    -0.744 OA
ENDBRANCH  71  74
ENDBRANCH  53  67
BRANCH  54  78
ATOM     78  C   UNL A   1      39.545  33.554  36.929  1.00  0.00     0.023 A 
ATOM     79  C   UNL A   1      40.061  34.865  36.943  1.00  0.00     0.012 A 
ATOM     80  C   UNL A   1      38.837  33.083  38.051  1.00  0.00     0.148 A 
ATOM     81  C   UNL A   1      39.912  35.676  38.069  1.00  0.00     0.002 A 
ATOM     82  C   UNL A   1      38.642  33.915  39.146  1.00  0.00     0.091 A 
ATOM     83  F   UNL A   1      38.359  31.832  38.020  1.00  0.00    -0.205 F 
ATOM     84  C   UNL A   1      39.196  35.205  39.165  1.00  0.00     0.022 A 
BRANCH  82  85
ATOM     85  S   UNL A   1      37.632  33.438  40.553  1.00  0.00     0.127 S 
ATOM     86  O   UNL A   1      37.530  34.698  41.287  1.00  0.00    -0.237 OA
ATOM     87  O   UNL A   1      36.398  33.002  39.900  1.00  0.00    -0.237 OA
ATOM     88  O   UNL A   1      38.367  32.376  41.227  1.00  0.00    -0.744 OA
ENDBRANCH  82  85
ENDBRANCH  54  78
BRANCH  66  89
ATOM     89  C   UNL A   1      44.265  28.678  35.299  1.00  0.00     0.023 A 
ATOM     90  C   UNL A   1      45.541  29.222  35.052  1.00  0.00     0.012 A 
ATOM     91  C   UNL A   1      44.120  27.670  36.275  1.00  0.00     0.148 A 
ATOM     92  C   UNL A   1      46.658  28.743  35.735  1.00  0.00     0.002 A 
ATOM     93  C   UNL A   1      45.228  27.241  36.993  1.00  0.00     0.091 A 
ATOM     94  F   UNL A   1      42.901  27.155  36.485  1.00  0.00    -0.205 F 
ATOM     95  C   UNL A   1      46.501  27.763  36.712  1.00  0.00     0.022 A 
BRANCH  93  96
ATOM     96  S   UNL A   1      45.107  26.057  38.338  1.00  0.00     0.127 S 
ATOM     97  O   UNL A   1      46.500  25.958  38.772  1.00  0.00    -0.237 OA
ATOM     98  O   UNL A   1      44.223  26.749  39.276  1.00  0.00    -0.237 OA
ATOM     99  O   UNL A   1      44.548  24.843  37.760  1.00  0.00    -0.744 OA
ENDBRANCH  93  96
ENDBRANCH  66  89
ENDBRANCH  40  41
ENDBRANCH  32  35
ENDBRANCH  30  31
ENDBRANCH  29  30
ENDBRANCH  28  29
ENDBRANCH   1  28
TORSDOF 20
ENDMDL
MODEL 2
REMARK VINA RESULT:     -11.5      2.663      5.220
REMARK SMILES C[C@@H](Sc1nc(-c2ccc3c(c2)OCO3)ccc1C#N)C(=O)NCCCCCCNC(=O)c1ccc(-c2c3nc(c(-c4cccc(S(=O)(=O)[O-])c4F)c4ccc([nH]4)c(-c4cccc(S(=O)(=O)[O-])c4F)c4nc(c(-c5cccc(S(=O)(=O)[O-])c5F)c5ccc2[nH]5)C=C4)C=C3)cc1
REMARK SMILES IDX 26 1 25 2 24 3 23 4 21 5 22 6 2 8 1 9 3 10 4 11 5 12 18 13
REMARK SMILES IDX 6 14 17 15 16 16 19 17 20 18 7 19 8 20 12 21 9 22 11 23
REMARK SMILES IDX 10 24 13 25 15 26 14 27 27 28 28 29 29 30 30 31 31 32 32 34
REMARK SMILES IDX 33 35 34 36 95 37 35 38 94 39 36 40 37 41 38 42 88 43 39 44
REMARK SMILES IDX 93 45 87 46 89 47 40 48 92 49 86 50 85 51 41 53 73 54 53 55
REMARK SMILES IDX 72 56 54 57 57 58 71 59 90 60 55 61 56 62 70 64 91 65 58 66
REMARK SMILES IDX 42 67 43 68 51 69 44 70 46 71 52 72 45 73 47 74 48 75 49 76
REMARK SMILES IDX 50 77 74 78 75 79 83 80 76 81 78 82 84 83 77 84 79 85 80 86
REMARK SMILES IDX 81 87 82 88 59 89 60 90 68 91 61 92 63 93 69 94 62 95 64 96
REMARK SMILES IDX 65 97 66 98 67 99
REMARK H PARENT 23 7 30 33 89 52 57 63
REMARK Flexibility Score: inf
ROOT
ATOM      1  C   UNL A   1      32.511  29.309  25.967  1.00  0.00     0.002 C 
ENDROOT
BRANCH   1   2
ATOM      2  C   UNL A   1      33.358  28.260  26.691  1.00  0.00     0.021 C 
BRANCH   2   3
ATOM      3  C   UNL A   1      33.584  26.996  25.870  1.00  0.00     0.116 C 
BRANCH   3   4
ATOM      4  N   UNL A   1      32.336  26.274  25.677  1.00  0.00    -0.355 N 
ATOM      5  C   UNL A   1      32.021  24.973  25.950  1.00  0.00     0.233 C 
ATOM      6  O   UNL A   1      30.882  24.585  25.670  1.00  0.00    -0.274 OA
ATOM      7  H   UNL A   1      31.605  26.806  25.286  1.00  0.00     0.163 HD
BRANCH   5   8
ATOM      8  C   UNL A   1      33.051  24.018  26.579  1.00  0.00     0.139 C 
ATOM      9  C   UNL A   1      32.330  22.886  27.305  1.00  0.00     0.030 C 
BRANCH   8  10
ATOM     10  S   UNL A   1      34.270  23.641  25.241  1.00  0.00    -0.092 SA
BRANCH  10  11
ATOM     11  C   UNL A   1      33.544  22.360  24.245  1.00  0.00     0.115 A 
ATOM     12  N   UNL A   1      33.746  21.078  24.631  1.00  0.00    -0.240 NA
ATOM     13  C   UNL A   1      32.718  22.696  23.170  1.00  0.00     0.084 A 
ATOM     14  C   UNL A   1      33.120  20.091  23.945  1.00  0.00     0.072 A 
ATOM     15  C   UNL A   1      32.070  21.670  22.482  1.00  0.00     0.024 A 
ATOM     16  C   UNL A   1      32.270  20.353  22.874  1.00  0.00     0.030 A 
BRANCH  13  17
ATOM     17  C   UNL A   1      32.524  24.049  22.735  1.00  0.00     0.102 C 
ATOM     18  N   UNL A   1      32.372  25.125  22.334  1.00  0.00    -0.192 NA
ENDBRANCH  13  17
BRANCH  14  19
ATOM     19  C   UNL A   1      33.402  18.719  24.373  1.00  0.00     0.004 A 
ATOM     20  C   UNL A   1      34.721  18.200  24.278  1.00  0.00     0.014 A 
ATOM     21  C   UNL A   1      32.379  17.883  24.854  1.00  0.00     0.061 A 
ATOM     22  C   UNL A   1      35.016  16.881  24.629  1.00  0.00     0.051 A 
ATOM     23  C   UNL A   1      32.696  16.578  25.179  1.00  0.00     0.166 A 
ATOM     24  C   UNL A   1      33.976  16.091  25.067  1.00  0.00     0.165 A 
ATOM     25  O   UNL A   1      31.824  15.634  25.622  1.00  0.00    -0.454 OA
ATOM     26  O   UNL A   1      34.071  14.782  25.424  1.00  0.00    -0.454 OA
ATOM     27  C   UNL A   1      32.691  14.485  25.724  1.00  0.00     0.468 C 
ENDBRANCH  14  19
ENDBRANCH  10  11
ENDBRANCH   8  10
ENDBRANCH   5   8
ENDBRANCH   3   4
ENDBRANCH   2   3
ENDBRANCH   1   2
BRANCH   1  28
ATOM     28  C   UNL A   1      31.652  30.180  26.892  1.00  0.00     0.002 C 
BRANCH  28  29
ATOM     29  C   UNL A   1      31.722  31.681  26.603  1.00  0.00     0.021 C 
BRANCH  29  30
ATOM     30  C   UNL A   1      32.931  32.376  27.218  1.00  0.00     0.116 C 
BRANCH  30  31
ATOM     31  N   UNL A   1      32.655  33.776  27.509  1.00  0.00    -0.352 N 
ATOM     32  C   UNL A   1      33.157  34.567  28.511  1.00  0.00     0.251 C 
ATOM     33  H   UNL A   1      32.017  34.216  26.902  1.00  0.00     0.163 HD
ATOM     34  O   UNL A   1      32.646  35.655  28.751  1.00  0.00    -0.269 OA
BRANCH  32  35
ATOM     35  C   UNL A   1      34.309  34.090  29.305  1.00  0.00     0.039 A 
ATOM     36  C   UNL A   1      34.072  33.316  30.442  1.00  0.00     0.014 A 
ATOM     37  C   UNL A   1      35.616  34.402  28.922  1.00  0.00     0.014 A 
ATOM     38  C   UNL A   1      35.154  32.808  31.165  1.00  0.00     0.010 A 
ATOM     39  C   UNL A   1      36.689  33.821  29.589  1.00  0.00     0.010 A 
ATOM     40  C   UNL A   1      36.470  33.027  30.725  1.00  0.00    -0.014 A 
BRANCH  40  41
ATOM     41  C   UNL A   1      37.626  32.426  31.436  1.00  0.00     0.031 A 
ATOM     42  C   UNL A   1      38.396  31.291  30.816  1.00  0.00     0.074 A 
ATOM     43  C   UNL A   1      37.943  32.858  32.672  1.00  0.00     0.049 A 
ATOM     44  N   UNL A   1      39.411  30.623  31.299  1.00  0.00    -0.248 NA
ATOM     45  C   UNL A   1      37.953  30.830  29.489  1.00  0.00     0.031 C 
ATOM     46  C   UNL A   1      37.235  33.907  33.410  1.00  0.00     0.029 A 
ATOM     47  N   UNL A   1      38.932  32.458  33.537  1.00  0.00    -0.354 N 
ATOM     48  C   UNL A   1      39.707  29.646  30.355  1.00  0.00     0.074 A 
ATOM     49  C   UNL A   1      38.739  29.782  29.290  1.00  0.00     0.031 C 
ATOM     50  C   UNL A   1      37.822  34.080  34.604  1.00  0.00     0.029 A 
ATOM     51  C   UNL A   1      38.917  33.124  34.740  1.00  0.00     0.049 A 
ATOM     52  H   UNL A   1      39.589  31.759  33.316  1.00  0.00     0.167 HD
ATOM     53  C   UNL A   1      40.707  28.734  30.363  1.00  0.00     0.034 A 
ATOM     54  C   UNL A   1      39.686  32.974  35.835  1.00  0.00     0.034 A 
ATOM     55  C   UNL A   1      41.676  28.612  31.420  1.00  0.00     0.049 A 
ATOM     56  C   UNL A   1      40.786  31.948  35.820  1.00  0.00     0.074 A 
ATOM     57  C   UNL A   1      42.771  27.770  31.487  1.00  0.00     0.029 A 
ATOM     58  N   UNL A   1      41.652  29.331  32.604  1.00  0.00    -0.354 N 
ATOM     59  N   UNL A   1      41.139  31.129  34.860  1.00  0.00    -0.248 NA
ATOM     60  C   UNL A   1      41.612  31.845  37.031  1.00  0.00     0.031 C 
ATOM     61  C   UNL A   1      43.376  27.939  32.736  1.00  0.00     0.029 A 
ATOM     62  C   UNL A   1      42.699  28.934  33.420  1.00  0.00     0.049 A 
ATOM     63  H   UNL A   1      40.989  30.023  32.832  1.00  0.00     0.167 HD
ATOM     64  C   UNL A   1      42.255  30.447  35.331  1.00  0.00     0.074 A 
ATOM     65  C   UNL A   1      42.527  30.961  36.657  1.00  0.00     0.031 C 
ATOM     66  C   UNL A   1      42.984  29.479  34.723  1.00  0.00     0.034 A 
BRANCH  53  67
ATOM     67  C   UNL A   1      40.813  27.801  29.184  1.00  0.00     0.023 A 
ATOM     68  C   UNL A   1      40.015  26.640  29.127  1.00  0.00     0.012 A 
ATOM     69  C   UNL A   1      41.674  28.097  28.109  1.00  0.00     0.148 A 
ATOM     70  C   UNL A   1      40.104  25.766  28.044  1.00  0.00     0.002 A 
ATOM     71  C   UNL A   1      41.717  27.251  27.007  1.00  0.00     0.091 A 
ATOM     72  F   UNL A   1      42.439  29.196  28.185  1.00  0.00    -0.205 F 
ATOM     73  C   UNL A   1      40.946  26.077  26.981  1.00  0.00     0.022 A 
BRANCH  71  74
ATOM     74  S   UNL A   1      42.707  27.604  25.552  1.00  0.00     0.127 S 
ATOM     75  O   UNL A   1      42.415  26.446  24.707  1.00  0.00    -0.237 OA
ATOM     76  O   UNL A   1      42.124  28.862  25.084  1.00  0.00    -0.237 OA
ATOM     77  O   UNL A   1      44.084  27.706  26.014  1.00  0.00    -0.744 OA
ENDBRANCH  71  74
ENDBRANCH  53  67
BRANCH  54  78
ATOM     78  C   UNL A   1      39.470  33.842  37.027  1.00  0.00     0.023 A 
ATOM     79  C   UNL A   1      39.911  35.181  37.004  1.00  0.00     0.012 A 
ATOM     80  C   UNL A   1      38.830  33.350  38.180  1.00  0.00     0.148 A 
ATOM     81  C   UNL A   1      39.755  35.999  38.123  1.00  0.00     0.002 A 
ATOM     82  C   UNL A   1      38.626  34.187  39.269  1.00  0.00     0.091 A 
ATOM     83  F   UNL A   1      38.423  32.073  38.183  1.00  0.00    -0.205 F 
ATOM     84  C   UNL A   1      39.105  35.506  39.251  1.00  0.00     0.022 A 
BRANCH  82  85
ATOM     85  S   UNL A   1      37.695  33.677  40.717  1.00  0.00     0.127 S 
ATOM     86  O   UNL A   1      36.479  33.134  40.114  1.00  0.00    -0.237 OA
ATOM     87  O   UNL A   1      38.587  32.681  41.310  1.00  0.00    -0.237 OA
ATOM     88  O   UNL A   1      37.515  34.880  41.518  1.00  0.00    -0.744 OA
ENDBRANCH  82  85
ENDBRANCH  54  78
BRANCH  66  89
ATOM     89  C   UNL A   1      44.188  28.944  35.456  1.00  0.00     0.023 A 
ATOM     90  C   UNL A   1      45.448  29.554  35.302  1.00  0.00     0.012 A 
ATOM     91  C   UNL A   1      44.048  27.866  36.355  1.00  0.00     0.148 A 
ATOM     92  C   UNL A   1      46.558  29.074  35.997  1.00  0.00     0.002 A 
ATOM     93  C   UNL A   1      45.144  27.432  37.088  1.00  0.00     0.091 A 
ATOM     94  F   UNL A   1      42.844  27.289  36.478  1.00  0.00    -0.205 F 
ATOM     95  C   UNL A   1      46.404  28.022  36.897  1.00  0.00     0.022 A 
BRANCH  93  96
ATOM     96  S   UNL A   1      45.021  26.154  38.343  1.00  0.00     0.127 S 
ATOM     97  O   UNL A   1      46.422  25.964  38.713  1.00  0.00    -0.237 OA
ATOM     98  O   UNL A   1      44.203  26.806  39.365  1.00  0.00    -0.237 OA
ATOM     99  O   UNL A   1      44.388  25.012  37.697  1.00  0.00    -0.744 OA
ENDBRANCH  93  96
ENDBRANCH  66  89
ENDBRANCH  40  41
ENDBRANCH  32  35
ENDBRANCH  30  31
ENDBRANCH  29  30
ENDBRANCH  28  29
ENDBRANCH   1  28
TORSDOF 20
ENDMDL
MODEL 3
REMARK VINA RESULT:     -11.4      6.149      9.977
REMARK SMILES C[C@@H](Sc1nc(-c2ccc3c(c2)OCO3)ccc1C#N)C(=O)NCCCCCCNC(=O)c1ccc(-c2c3nc(c(-c4cccc(S(=O)(=O)[O-])c4F)c4ccc([nH]4)c(-c4cccc(S(=O)(=O)[O-])c4F)c4nc(c(-c5cccc(S(=O)(=O)[O-])c5F)c5ccc2[nH]5)C=C4)C=C3)cc1
REMARK SMILES IDX 26 1 25 2 24 3 23 4 21 5 22 6 2 8 1 9 3 10 4 11 5 12 18 13
REMARK SMILES IDX 6 14 17 15 16 16 19 17 20 18 7 19 8 20 12 21 9 22 11 23
REMARK SMILES IDX 10 24 13 25 15 26 14 27 27 28 28 29 29 30 30 31 31 32 32 34
REMARK SMILES IDX 33 35 34 36 95 37 35 38 94 39 36 40 37 41 38 42 88 43 39 44
REMARK SMILES IDX 93 45 87 46 89 47 40 48 92 49 86 50 85 51 41 53 73 54 53 55
REMARK SMILES IDX 72 56 54 57 57 58 71 59 90 60 55 61 56 62 70 64 91 65 58 66
REMARK SMILES IDX 42 67 43 68 51 69 44 70 46 71 52 72 45 73 47 74 48 75 49 76
REMARK SMILES IDX 50 77 74 78 75 79 83 80 76 81 78 82 84 83 77 84 79 85 80 86
REMARK SMILES IDX 81 87 82 88 59 89 60 90 68 91 61 92 63 93 69 94 62 95 64 96
REMARK SMILES IDX 65 97 66 98 67 99
REMARK H PARENT 23 7 30 33 89 52 57 63
REMARK Flexibility Score: inf
ROOT
ATOM      1  C   UNL A   1      35.993  22.485  25.148  1.00  0.00     0.002 C 
ENDROOT
BRANCH   1   2
ATOM      2  C   UNL A   1      35.286  22.903  23.857  1.00  0.00     0.021 C 
BRANCH   2   3
ATOM      3  C   UNL A   1      34.665  24.293  23.932  1.00  0.00     0.116 C 
BRANCH   3   4
ATOM      4  N   UNL A   1      34.299  24.769  22.607  1.00  0.00    -0.355 N 
ATOM      5  C   UNL A   1      33.275  25.587  22.218  1.00  0.00     0.233 C 
ATOM      6  O   UNL A   1      33.159  25.829  21.012  1.00  0.00    -0.274 OA
ATOM      7  H   UNL A   1      34.878  24.452  21.876  1.00  0.00     0.163 HD
BRANCH   5   8
ATOM      8  C   UNL A   1      32.295  26.179  23.244  1.00  0.00     0.139 C 
ATOM      9  C   UNL A   1      32.013  27.641  22.905  1.00  0.00     0.030 C 
BRANCH   8  10
ATOM     10  S   UNL A   1      30.905  24.966  23.370  1.00  0.00    -0.092 SA
BRANCH  10  11
ATOM     11  C   UNL A   1      31.382  23.779  24.602  1.00  0.00     0.115 A 
ATOM     12  N   UNL A   1      31.700  22.532  24.180  1.00  0.00    -0.240 NA
ATOM     13  C   UNL A   1      31.514  24.173  25.937  1.00  0.00     0.084 A 
ATOM     14  C   UNL A   1      32.162  21.641  25.090  1.00  0.00     0.072 A 
ATOM     15  C   UNL A   1      32.004  23.248  26.859  1.00  0.00     0.024 A 
ATOM     16  C   UNL A   1      32.335  21.968  26.432  1.00  0.00     0.030 A 
BRANCH  13  17
ATOM     17  C   UNL A   1      31.150  25.482  26.397  1.00  0.00     0.102 C 
ATOM     18  N   UNL A   1      30.857  26.556  26.718  1.00  0.00    -0.192 NA
ENDBRANCH  13  17
BRANCH  14  19
ATOM     19  C   UNL A   1      32.453  20.293  24.594  1.00  0.00     0.004 A 
ATOM     20  C   UNL A   1      32.228  19.974  23.228  1.00  0.00     0.014 A 
ATOM     21  C   UNL A   1      32.926  19.288  25.455  1.00  0.00     0.061 A 
ATOM     22  C   UNL A   1      32.446  18.686  22.732  1.00  0.00     0.051 A 
ATOM     23  C   UNL A   1      33.117  18.020  24.941  1.00  0.00     0.166 A 
ATOM     24  C   UNL A   1      32.881  17.728  23.619  1.00  0.00     0.165 A 
ATOM     25  O   UNL A   1      33.535  16.932  25.641  1.00  0.00    -0.454 OA
ATOM     26  O   UNL A   1      33.119  16.422  23.322  1.00  0.00    -0.454 OA
ATOM     27  C   UNL A   1      33.482  15.912  24.622  1.00  0.00     0.468 C 
ENDBRANCH  14  19
ENDBRANCH  10  11
ENDBRANCH   8  10
ENDBRANCH   5   8
ENDBRANCH   3   4
ENDBRANCH   2   3
ENDBRANCH   1   2
BRANCH   1  28
ATOM     28  C   UNL A   1      36.207  20.974  25.295  1.00  0.00     0.002 C 
BRANCH  28  29
ATOM     29  C   UNL A   1      37.599  20.482  24.893  1.00  0.00     0.021 C 
BRANCH  29  30
ATOM     30  C   UNL A   1      38.731  21.073  25.725  1.00  0.00     0.116 C 
BRANCH  30  31
ATOM     31  N   UNL A   1      39.738  20.073  26.047  1.00  0.00    -0.352 N 
ATOM     32  C   UNL A   1      41.050  20.251  26.408  1.00  0.00     0.251 C 
ATOM     33  H   UNL A   1      39.436  19.137  25.999  1.00  0.00     0.163 HD
ATOM     34  O   UNL A   1      41.820  19.296  26.420  1.00  0.00    -0.269 OA
BRANCH  32  35
ATOM     35  C   UNL A   1      41.528  21.602  26.767  1.00  0.00     0.039 A 
ATOM     36  C   UNL A   1      41.881  22.488  25.748  1.00  0.00     0.014 A 
ATOM     37  C   UNL A   1      41.621  21.991  28.106  1.00  0.00     0.014 A 
ATOM     38  C   UNL A   1      42.275  23.787  26.074  1.00  0.00     0.010 A 
ATOM     39  C   UNL A   1      41.925  23.311  28.422  1.00  0.00     0.010 A 
ATOM     40  C   UNL A   1      42.267  24.221  27.410  1.00  0.00    -0.014 A 
BRANCH  40  41
ATOM     41  C   UNL A   1      42.604  25.622  27.764  1.00  0.00     0.031 A 
ATOM     42  C   UNL A   1      44.020  26.118  27.648  1.00  0.00     0.074 A 
ATOM     43  C   UNL A   1      41.645  26.433  28.253  1.00  0.00     0.049 A 
ATOM     44  N   UNL A   1      44.508  27.296  27.938  1.00  0.00    -0.248 NA
ATOM     45  C   UNL A   1      45.027  25.157  27.164  1.00  0.00     0.031 C 
ATOM     46  C   UNL A   1      40.248  26.052  28.475  1.00  0.00     0.029 A 
ATOM     47  N   UNL A   1      41.702  27.739  28.671  1.00  0.00    -0.354 N 
ATOM     48  C   UNL A   1      45.875  27.211  27.705  1.00  0.00     0.074 A 
ATOM     49  C   UNL A   1      46.147  25.854  27.288  1.00  0.00     0.031 C 
ATOM     50  C   UNL A   1      39.578  27.105  28.968  1.00  0.00     0.029 A 
ATOM     51  C   UNL A   1      40.503  28.220  29.144  1.00  0.00     0.049 A 
ATOM     52  H   UNL A   1      42.523  28.281  28.636  1.00  0.00     0.167 HD
ATOM     53  C   UNL A   1      46.815  28.179  27.807  1.00  0.00     0.034 A 
ATOM     54  C   UNL A   1      40.187  29.416  29.675  1.00  0.00     0.034 A 
ATOM     55  C   UNL A   1      46.537  29.532  28.210  1.00  0.00     0.049 A 
ATOM     56  C   UNL A   1      41.253  30.472  29.784  1.00  0.00     0.074 A 
ATOM     57  C   UNL A   1      47.407  30.605  28.273  1.00  0.00     0.029 A 
ATOM     58  N   UNL A   1      45.303  29.991  28.644  1.00  0.00    -0.354 N 
ATOM     59  N   UNL A   1      42.512  30.415  29.425  1.00  0.00    -0.248 NA
ATOM     60  C   UNL A   1      40.846  31.769  30.346  1.00  0.00     0.031 C 
ATOM     61  C   UNL A   1      46.713  31.699  28.800  1.00  0.00     0.029 A 
ATOM     62  C   UNL A   1      45.395  31.326  29.001  1.00  0.00     0.049 A 
ATOM     63  H   UNL A   1      44.483  29.449  28.691  1.00  0.00     0.167 HD
ATOM     64  C   UNL A   1      43.036  31.678  29.672  1.00  0.00     0.074 A 
ATOM     65  C   UNL A   1      41.953  32.483  30.198  1.00  0.00     0.031 C 
ATOM     66  C   UNL A   1      44.302  32.129  29.487  1.00  0.00     0.034 A 
BRANCH  53  67
ATOM     67  C   UNL A   1      48.237  27.814  27.464  1.00  0.00     0.023 A 
ATOM     68  C   UNL A   1      49.128  27.409  28.480  1.00  0.00     0.012 A 
ATOM     69  C   UNL A   1      48.680  27.828  26.126  1.00  0.00     0.148 A 
ATOM     70  C   UNL A   1      50.447  27.070  28.178  1.00  0.00     0.002 A 
ATOM     71  C   UNL A   1      49.978  27.436  25.826  1.00  0.00     0.091 A 
ATOM     72  F   UNL A   1      47.826  28.231  25.174  1.00  0.00    -0.205 F 
ATOM     73  C   UNL A   1      50.868  27.074  26.851  1.00  0.00     0.022 A 
BRANCH  71  74
ATOM     74  S   UNL A   1      50.593  27.327  24.143  1.00  0.00     0.127 S 
ATOM     75  O   UNL A   1      50.841  28.734  23.827  1.00  0.00    -0.237 OA
ATOM     76  O   UNL A   1      51.800  26.518  24.310  1.00  0.00    -0.237 OA
ATOM     77  O   UNL A   1      49.537  26.693  23.367  1.00  0.00    -0.744 OA
ENDBRANCH  71  74
ENDBRANCH  53  67
BRANCH  54  78
ATOM     78  C   UNL A   1      38.789  29.697  30.111  1.00  0.00     0.023 A 
ATOM     79  C   UNL A   1      38.369  29.307  31.399  1.00  0.00     0.012 A 
ATOM     80  C   UNL A   1      37.877  30.348  29.260  1.00  0.00     0.148 A 
ATOM     81  C   UNL A   1      37.055  29.523  31.813  1.00  0.00     0.002 A 
ATOM     82  C   UNL A   1      36.587  30.613  29.700  1.00  0.00     0.091 A 
ATOM     83  F   UNL A   1      38.296  30.706  28.038  1.00  0.00    -0.205 F 
ATOM     84  C   UNL A   1      36.167  30.183  30.969  1.00  0.00     0.022 A 
BRANCH  82  85
ATOM     85  S   UNL A   1      35.412  31.562  28.728  1.00  0.00     0.127 S 
ATOM     86  O   UNL A   1      34.597  32.182  29.770  1.00  0.00    -0.237 OA
ATOM     87  O   UNL A   1      36.294  32.479  28.006  1.00  0.00    -0.237 OA
ATOM     88  O   UNL A   1      34.723  30.595  27.884  1.00  0.00    -0.744 OA
ENDBRANCH  82  85
ENDBRANCH  54  78
BRANCH  66  89
ATOM     89  C   UNL A   1      44.582  33.577  29.798  1.00  0.00     0.023 A 
ATOM     90  C   UNL A   1      44.890  33.980  31.113  1.00  0.00     0.012 A 
ATOM     91  C   UNL A   1      44.600  34.534  28.762  1.00  0.00     0.148 A 
ATOM     92  C   UNL A   1      45.171  35.316  31.398  1.00  0.00     0.002 A 
ATOM     93  C   UNL A   1      44.939  35.850  29.043  1.00  0.00     0.091 A 
ATOM     94  F   UNL A   1      44.290  34.135  27.520  1.00  0.00    -0.205 F 
ATOM     95  C   UNL A   1      45.207  36.247  30.363  1.00  0.00     0.022 A 
BRANCH  93  96
ATOM     96  S   UNL A   1      45.110  37.097  27.763  1.00  0.00     0.127 S 
ATOM     97  O   UNL A   1      43.746  37.176  27.241  1.00  0.00    -0.237 OA
ATOM     98  O   UNL A   1      45.538  38.267  28.529  1.00  0.00    -0.237 OA
ATOM     99  O   UNL A   1      46.104  36.586  26.829  1.00  0.00    -0.744 OA
ENDBRANCH  93  96
ENDBRANCH  66  89
ENDBRANCH  40  41
ENDBRANCH  32  35
ENDBRANCH  30  31
ENDBRANCH  29  30
ENDBRANCH  28  29
ENDBRANCH   1  28
TORSDOF 20
ENDMDL
