MODEL 1
REMARK VINA RESULT:     -10.3      0.000      0.000
REMARK SMILES C#CC[N@H+](CC(=O)NCCCCCCNC(=O)c1ccc(-c2c3nc(c(-c4cccc(S(=O)(=O)[O-])c4F)c4ccc([nH]4)c(-c4cccc(S(=O)(=O)[O-])c4F)c4nc(c(-c5cccc(S(=O)(=O)[O-])c5F)c5ccc2[nH]5)C=C4)C=C3)cc1)[C@H](C)c1ccccc1[N+](=O)[O-]
REMARK SMILES IDX 11 1 10 2 9 3 8 4 6 5 7 6 5 8 4 9 3 11 2 12 1 13 81 14 82 15
REMARK SMILES IDX 83 16 84 17 88 18 85 19 87 20 86 21 89 22 90 23 91 24 12 25
REMARK SMILES IDX 13 26 14 27 15 28 16 29 17 31 18 32 19 33 80 34 20 35 79 36
REMARK SMILES IDX 21 37 22 38 23 39 73 40 24 41 78 42 72 43 74 44 25 45 77 46
REMARK SMILES IDX 71 47 70 48 26 50 58 51 38 52 57 53 39 54 42 55 56 56 75 57
REMARK SMILES IDX 40 58 41 59 55 61 76 62 43 63 27 64 28 65 36 66 29 67 31 68
REMARK SMILES IDX 37 69 30 70 32 71 33 72 34 73 35 74 59 75 60 76 68 77 61 78
REMARK SMILES IDX 63 79 69 80 62 81 64 82 65 83 66 84 67 85 44 86 45 87 53 88
REMARK SMILES IDX 46 89 48 90 54 91 47 92 49 93 50 94 51 95 52 96
REMARK H PARENT 8 7 4 10 15 30 74 49 42 60
REMARK Flexibility Score: inf
ROOT
ATOM      1  C   UNL A   1      37.700  22.293  25.327  1.00  0.00     0.002 C 
ENDROOT
BRANCH   1   2
ATOM      2  C   UNL A   1      36.964  23.557  24.903  1.00  0.00     0.021 C 
BRANCH   2   3
ATOM      3  C   UNL A   1      35.845  23.996  25.864  1.00  0.00     0.116 C 
BRANCH   3   4
ATOM      4  N   UNL A   1      34.572  23.423  25.448  1.00  0.00    -0.351 N 
ATOM      5  C   UNL A   1      33.493  23.977  24.805  1.00  0.00     0.275 C 
ATOM      6  O   UNL A   1      32.463  23.301  24.749  1.00  0.00    -0.269 OA
ATOM      7  H   UNL A   1      34.465  22.469  25.668  1.00  0.00     0.163 HD
BRANCH   5   8
ATOM      8  C   UNL A   1      33.599  25.339  24.087  1.00  0.00     0.364 C 
BRANCH   8   9
ATOM      9  N   UNL A   1      32.672  26.420  24.572  1.00  0.00    -0.311 N 
ATOM     10  H   UNL A   1      31.759  26.024  24.798  1.00  0.00     0.349 HD
BRANCH   9  11
ATOM     11  C   UNL A   1      33.196  27.000  25.813  1.00  0.00     0.354 C 
BRANCH  11  12
ATOM     12  C   UNL A   1      32.320  27.603  26.818  1.00  0.00    -0.047 C 
ATOM     13  C   UNL A   1      31.568  28.209  27.539  1.00  0.00     0.010 C 
ENDBRANCH  11  12
ENDBRANCH   9  11
BRANCH   9  14
ATOM     14  C   UNL A   1      32.408  27.425  23.486  1.00  0.00     0.220 C 
ATOM     15  C   UNL A   1      33.517  28.504  23.451  1.00  0.00     0.081 C 
BRANCH  14  16
ATOM     16  C   UNL A   1      30.955  27.959  23.553  1.00  0.00     0.087 A 
ATOM     17  C   UNL A   1      30.741  29.345  23.377  1.00  0.00     0.017 A 
ATOM     18  C   UNL A   1      29.791  27.170  23.646  1.00  0.00     0.278 A 
ATOM     19  C   UNL A   1      29.472  29.862  23.076  1.00  0.00     0.001 A 
ATOM     20  C   UNL A   1      28.517  27.673  23.328  1.00  0.00     0.086 A 
ATOM     21  C   UNL A   1      28.371  29.016  23.000  1.00  0.00     0.007 A 
BRANCH  18  22
ATOM     22  N   UNL A   1      29.815  25.825  24.196  1.00  0.00     0.063 N 
ATOM     23  O   UNL A   1      29.695  25.702  25.420  1.00  0.00    -0.258 OA
ATOM     24  O   UNL A   1      29.994  24.897  23.392  1.00  0.00    -0.258 OA
ENDBRANCH  18  22
ENDBRANCH  14  16
ENDBRANCH   9  14
ENDBRANCH   8   9
ENDBRANCH   5   8
ENDBRANCH   3   4
ENDBRANCH   2   3
ENDBRANCH   1   2
BRANCH   1  25
ATOM     25  C   UNL A   1      37.371  21.070  24.477  1.00  0.00     0.002 C 
BRANCH  25  26
ATOM     26  C   UNL A   1      38.193  19.821  24.805  1.00  0.00     0.021 C 
BRANCH  26  27
ATOM     27  C   UNL A   1      38.976  19.902  26.113  1.00  0.00     0.116 C 
BRANCH  27  28
ATOM     28  N   UNL A   1      40.161  19.058  26.076  1.00  0.00    -0.352 N 
ATOM     29  C   UNL A   1      41.480  19.432  26.045  1.00  0.00     0.251 C 
ATOM     30  H   UNL A   1      39.993  18.088  26.073  1.00  0.00     0.163 HD
ATOM     31  O   UNL A   1      42.347  18.625  25.725  1.00  0.00    -0.269 OA
BRANCH  29  32
ATOM     32  C   UNL A   1      41.841  20.819  26.400  1.00  0.00     0.039 A 
ATOM     33  C   UNL A   1      42.313  21.098  27.683  1.00  0.00     0.014 A 
ATOM     34  C   UNL A   1      41.712  21.839  25.452  1.00  0.00     0.014 A 
ATOM     35  C   UNL A   1      42.701  22.400  28.002  1.00  0.00     0.010 A 
ATOM     36  C   UNL A   1      42.179  23.113  25.746  1.00  0.00     0.010 A 
ATOM     37  C   UNL A   1      42.662  23.412  27.028  1.00  0.00    -0.014 A 
BRANCH  37  38
ATOM     38  C   UNL A   1      43.105  24.796  27.332  1.00  0.00     0.031 A 
ATOM     39  C   UNL A   1      42.153  25.765  27.978  1.00  0.00     0.074 A 
ATOM     40  C   UNL A   1      44.333  25.203  26.951  1.00  0.00     0.049 A 
ATOM     41  N   UNL A   1      42.327  27.031  28.256  1.00  0.00    -0.248 NA
ATOM     42  C   UNL A   1      40.818  25.253  28.333  1.00  0.00     0.031 C 
ATOM     43  C   UNL A   1      45.321  24.376  26.255  1.00  0.00     0.029 A 
ATOM     44  N   UNL A   1      44.948  26.424  27.071  1.00  0.00    -0.354 N 
ATOM     45  C   UNL A   1      41.119  27.474  28.779  1.00  0.00     0.074 A 
ATOM     46  C   UNL A   1      40.206  26.353  28.747  1.00  0.00     0.031 C 
ATOM     47  C   UNL A   1      46.418  25.111  26.014  1.00  0.00     0.029 A 
ATOM     48  C   UNL A   1      46.198  26.470  26.500  1.00  0.00     0.049 A 
ATOM     49  H   UNL A   1      44.533  27.194  27.523  1.00  0.00     0.167 HD
ATOM     50  C   UNL A   1      40.803  28.697  29.267  1.00  0.00     0.034 A 
ATOM     51  C   UNL A   1      47.063  27.494  26.368  1.00  0.00     0.034 A 
ATOM     52  C   UNL A   1      41.724  29.798  29.326  1.00  0.00     0.049 A 
ATOM     53  C   UNL A   1      46.695  28.837  26.935  1.00  0.00     0.074 A 
ATOM     54  C   UNL A   1      41.529  31.053  29.877  1.00  0.00     0.029 A 
ATOM     55  N   UNL A   1      43.008  29.785  28.803  1.00  0.00    -0.354 N 
ATOM     56  N   UNL A   1      45.599  29.198  27.558  1.00  0.00    -0.248 NA
ATOM     57  C   UNL A   1      47.696  29.908  26.815  1.00  0.00     0.031 C 
ATOM     58  C   UNL A   1      42.681  31.812  29.649  1.00  0.00     0.029 A 
ATOM     59  C   UNL A   1      43.613  31.014  29.004  1.00  0.00     0.049 A 
ATOM     60  H   UNL A   1      43.428  29.016  28.356  1.00  0.00     0.167 HD
ATOM     61  C   UNL A   1      45.796  30.521  27.941  1.00  0.00     0.074 A 
ATOM     62  C   UNL A   1      47.122  30.891  27.494  1.00  0.00     0.031 C 
ATOM     63  C   UNL A   1      44.952  31.354  28.598  1.00  0.00     0.034 A 
BRANCH  50  64
ATOM     64  C   UNL A   1      39.410  28.900  29.805  1.00  0.00     0.023 A 
ATOM     65  C   UNL A   1      39.116  28.565  31.143  1.00  0.00     0.012 A 
ATOM     66  C   UNL A   1      38.406  29.475  29.002  1.00  0.00     0.148 A 
ATOM     67  C   UNL A   1      37.837  28.761  31.661  1.00  0.00     0.002 A 
ATOM     68  C   UNL A   1      37.147  29.715  29.541  1.00  0.00     0.091 A 
ATOM     69  F   UNL A   1      38.696  29.769  27.727  1.00  0.00    -0.205 F 
ATOM     70  C   UNL A   1      36.857  29.345  30.864  1.00  0.00     0.022 A 
BRANCH  68  71
ATOM     71  S   UNL A   1      35.841  30.540  28.625  1.00  0.00     0.127 S 
ATOM     72  O   UNL A   1      35.170  31.295  29.683  1.00  0.00    -0.237 OA
ATOM     73  O   UNL A   1      36.600  31.359  27.680  1.00  0.00    -0.237 OA
ATOM     74  O   UNL A   1      35.046  29.483  28.015  1.00  0.00    -0.744 OA
ENDBRANCH  68  71
ENDBRANCH  50  64
BRANCH  51  75
ATOM     75  C   UNL A   1      48.382  27.278  25.707  1.00  0.00     0.023 A 
ATOM     76  C   UNL A   1      49.489  26.875  26.478  1.00  0.00     0.012 A 
ATOM     77  C   UNL A   1      48.540  27.456  24.319  1.00  0.00     0.148 A 
ATOM     78  C   UNL A   1      50.740  26.691  25.886  1.00  0.00     0.002 A 
ATOM     79  C   UNL A   1      49.774  27.215  23.727  1.00  0.00     0.091 A 
ATOM     80  F   UNL A   1      47.475  27.847  23.605  1.00  0.00    -0.205 F 
ATOM     81  C   UNL A   1      50.879  26.853  24.510  1.00  0.00     0.022 A 
BRANCH  79  82
ATOM     82  S   UNL A   1      50.015  27.271  21.948  1.00  0.00     0.127 S 
ATOM     83  O   UNL A   1      48.968  26.367  21.477  1.00  0.00    -0.237 OA
ATOM     84  O   UNL A   1      49.785  28.686  21.659  1.00  0.00    -0.237 OA
ATOM     85  O   UNL A   1      51.383  26.825  21.720  1.00  0.00    -0.744 OA
ENDBRANCH  79  82
ENDBRANCH  51  75
BRANCH  63  86
ATOM     86  C   UNL A   1      45.450  32.736  28.934  1.00  0.00     0.023 A 
ATOM     87  C   UNL A   1      46.161  32.966  30.128  1.00  0.00     0.012 A 
ATOM     88  C   UNL A   1      45.277  33.792  28.017  1.00  0.00     0.148 A 
ATOM     89  C   UNL A   1      46.662  34.234  30.421  1.00  0.00     0.002 A 
ATOM     90  C   UNL A   1      45.827  35.038  28.289  1.00  0.00     0.091 A 
ATOM     91  F   UNL A   1      44.583  33.556  26.894  1.00  0.00    -0.205 F 
ATOM     92  C   UNL A   1      46.507  35.265  29.496  1.00  0.00     0.022 A 
BRANCH  90  93
ATOM     93  S   UNL A   1      45.767  36.395  27.114  1.00  0.00     0.127 S 
ATOM     94  O   UNL A   1      46.700  37.348  27.713  1.00  0.00    -0.237 OA
ATOM     95  O   UNL A   1      46.247  35.759  25.887  1.00  0.00    -0.237 OA
ATOM     96  O   UNL A   1      44.378  36.830  27.068  1.00  0.00    -0.744 OA
ENDBRANCH  90  93
ENDBRANCH  63  86
ENDBRANCH  37  38
ENDBRANCH  29  32
ENDBRANCH  27  28
ENDBRANCH  26  27
ENDBRANCH  25  26
ENDBRANCH   1  25
TORSDOF 22
ENDMDL
MODEL 2
REMARK VINA RESULT:      -9.9      5.320     10.211
REMARK SMILES C#CC[N@H+](CC(=O)NCCCCCCNC(=O)c1ccc(-c2c3nc(c(-c4cccc(S(=O)(=O)[O-])c4F)c4ccc([nH]4)c(-c4cccc(S(=O)(=O)[O-])c4F)c4nc(c(-c5cccc(S(=O)(=O)[O-])c5F)c5ccc2[nH]5)C=C4)C=C3)cc1)[C@H](C)c1ccccc1[N+](=O)[O-]
REMARK SMILES IDX 11 1 10 2 9 3 8 4 6 5 7 6 5 8 4 9 3 11 2 12 1 13 81 14 82 15
REMARK SMILES IDX 83 16 84 17 88 18 85 19 87 20 86 21 89 22 90 23 91 24 12 25
REMARK SMILES IDX 13 26 14 27 15 28 16 29 17 31 18 32 19 33 80 34 20 35 79 36
REMARK SMILES IDX 21 37 22 38 23 39 73 40 24 41 78 42 72 43 74 44 25 45 77 46
REMARK SMILES IDX 71 47 70 48 26 50 58 51 38 52 57 53 39 54 42 55 56 56 75 57
REMARK SMILES IDX 40 58 41 59 55 61 76 62 43 63 27 64 28 65 36 66 29 67 31 68
REMARK SMILES IDX 37 69 30 70 32 71 33 72 34 73 35 74 59 75 60 76 68 77 61 78
REMARK SMILES IDX 63 79 69 80 62 81 64 82 65 83 66 84 67 85 44 86 45 87 53 88
REMARK SMILES IDX 46 89 48 90 54 91 47 92 49 93 50 94 51 95 52 96
REMARK H PARENT 8 7 4 10 15 30 74 49 42 60
REMARK Flexibility Score: inf
ROOT
ATOM      1  C   UNL A   1      33.658  27.381  22.121  1.00  0.00     0.002 C 
ENDROOT
BRANCH   1   2
ATOM      2  C   UNL A   1      33.638  26.236  23.124  1.00  0.00     0.021 C 
BRANCH   2   3
ATOM      3  C   UNL A   1      33.171  24.889  22.546  1.00  0.00     0.116 C 
BRANCH   3   4
ATOM      4  N   UNL A   1      34.307  23.992  22.379  1.00  0.00    -0.351 N 
ATOM      5  C   UNL A   1      35.270  23.572  23.262  1.00  0.00     0.275 C 
ATOM      6  O   UNL A   1      36.232  22.956  22.795  1.00  0.00    -0.269 OA
ATOM      7  H   UNL A   1      34.402  23.622  21.471  1.00  0.00     0.163 HD
BRANCH   5   8
ATOM      8  C   UNL A   1      35.102  23.763  24.784  1.00  0.00     0.364 C 
BRANCH   8   9
ATOM      9  N   UNL A   1      34.111  22.857  25.463  1.00  0.00    -0.311 N 
ATOM     10  H   UNL A   1      33.337  22.647  24.832  1.00  0.00     0.349 HD
BRANCH   9  11
ATOM     11  C   UNL A   1      34.750  21.576  25.780  1.00  0.00     0.354 C 
BRANCH  11  12
ATOM     12  C   UNL A   1      34.370  20.331  25.111  1.00  0.00    -0.047 C 
ATOM     13  C   UNL A   1      34.179  19.241  24.633  1.00  0.00     0.010 C 
ENDBRANCH  11  12
ENDBRANCH   9  11
BRANCH   9  14
ATOM     14  C   UNL A   1      33.483  23.541  26.644  1.00  0.00     0.220 C 
ATOM     15  C   UNL A   1      33.301  22.553  27.822  1.00  0.00     0.081 C 
BRANCH  14  16
ATOM     16  C   UNL A   1      32.216  24.332  26.230  1.00  0.00     0.087 A 
ATOM     17  C   UNL A   1      32.057  25.648  26.721  1.00  0.00     0.017 A 
ATOM     18  C   UNL A   1      31.251  23.911  25.294  1.00  0.00     0.278 A 
ATOM     19  C   UNL A   1      31.151  26.546  26.139  1.00  0.00     0.001 A 
ATOM     20  C   UNL A   1      30.351  24.806  24.691  1.00  0.00     0.086 A 
ATOM     21  C   UNL A   1      30.336  26.138  25.088  1.00  0.00     0.007 A 
BRANCH  18  22
ATOM     22  N   UNL A   1      31.040  22.506  24.985  1.00  0.00     0.063 N 
ATOM     23  O   UNL A   1      31.521  22.071  23.932  1.00  0.00    -0.258 OA
ATOM     24  O   UNL A   1      30.356  21.856  25.788  1.00  0.00    -0.258 OA
ENDBRANCH  18  22
ENDBRANCH  14  16
ENDBRANCH   9  14
ENDBRANCH   8   9
ENDBRANCH   5   8
ENDBRANCH   3   4
ENDBRANCH   2   3
ENDBRANCH   1   2
BRANCH   1  25
ATOM     25  C   UNL A   1      33.566  28.765  22.757  1.00  0.00     0.002 C 
BRANCH  25  26
ATOM     26  C   UNL A   1      32.589  28.867  23.930  1.00  0.00     0.021 C 
BRANCH  26  27
ATOM     27  C   UNL A   1      33.225  29.289  25.252  1.00  0.00     0.116 C 
BRANCH  27  28
ATOM     28  N   UNL A   1      32.682  30.554  25.723  1.00  0.00    -0.352 N 
ATOM     29  C   UNL A   1      33.040  31.283  26.829  1.00  0.00     0.251 C 
ATOM     30  H   UNL A   1      31.960  30.938  25.175  1.00  0.00     0.163 HD
ATOM     31  O   UNL A   1      32.304  32.169  27.253  1.00  0.00    -0.269 OA
BRANCH  29  32
ATOM     32  C   UNL A   1      34.320  30.985  27.500  1.00  0.00     0.039 A 
ATOM     33  C   UNL A   1      35.272  31.996  27.641  1.00  0.00     0.014 A 
ATOM     34  C   UNL A   1      34.569  29.700  27.992  1.00  0.00     0.014 A 
ATOM     35  C   UNL A   1      36.461  31.726  28.320  1.00  0.00     0.010 A 
ATOM     36  C   UNL A   1      35.713  29.460  28.741  1.00  0.00     0.010 A 
ATOM     37  C   UNL A   1      36.680  30.464  28.898  1.00  0.00    -0.014 A 
BRANCH  37  38
ATOM     38  C   UNL A   1      37.919  30.165  29.658  1.00  0.00     0.031 A 
ATOM     39  C   UNL A   1      38.936  29.210  29.093  1.00  0.00     0.074 A 
ATOM     40  C   UNL A   1      38.090  30.687  30.890  1.00  0.00     0.049 A 
ATOM     41  N   UNL A   1      40.040  28.767  29.632  1.00  0.00    -0.248 NA
ATOM     42  C   UNL A   1      38.659  28.657  27.756  1.00  0.00     0.031 C 
ATOM     43  C   UNL A   1      37.144  31.569  31.574  1.00  0.00     0.029 A 
ATOM     44  N   UNL A   1      39.108  30.525  31.796  1.00  0.00    -0.354 N 
ATOM     45  C   UNL A   1      40.569  27.858  28.724  1.00  0.00     0.074 A 
ATOM     46  C   UNL A   1      39.646  27.784  27.613  1.00  0.00     0.031 C 
ATOM     47  C   UNL A   1      37.627  31.875  32.788  1.00  0.00     0.029 A 
ATOM     48  C   UNL A   1      38.895  31.180  32.987  1.00  0.00     0.049 A 
ATOM     49  H   UNL A   1      39.914  29.990  31.611  1.00  0.00     0.167 HD
ATOM     50  C   UNL A   1      41.731  27.167  28.793  1.00  0.00     0.034 A 
ATOM     51  C   UNL A   1      39.629  31.204  34.116  1.00  0.00     0.034 A 
ATOM     52  C   UNL A   1      42.659  27.269  29.885  1.00  0.00     0.049 A 
ATOM     53  C   UNL A   1      40.924  30.441  34.160  1.00  0.00     0.074 A 
ATOM     54  C   UNL A   1      43.903  26.675  30.014  1.00  0.00     0.029 A 
ATOM     55  N   UNL A   1      42.443  28.000  31.043  1.00  0.00    -0.354 N 
ATOM     56  N   UNL A   1      41.479  29.700  33.231  1.00  0.00    -0.248 NA
ATOM     57  C   UNL A   1      41.716  30.544  35.396  1.00  0.00     0.031 C 
ATOM     58  C   UNL A   1      44.419  27.013  31.269  1.00  0.00     0.029 A 
ATOM     59  C   UNL A   1      43.522  27.860  31.899  1.00  0.00     0.049 A 
ATOM     60  H   UNL A   1      41.641  28.539  31.229  1.00  0.00     0.167 HD
ATOM     61  C   UNL A   1      42.700  29.286  33.751  1.00  0.00     0.074 A 
ATOM     62  C   UNL A   1      42.811  29.872  35.071  1.00  0.00     0.031 C 
ATOM     63  C   UNL A   1      43.641  28.489  33.189  1.00  0.00     0.034 A 
BRANCH  50  64
ATOM     64  C   UNL A   1      42.078  26.259  27.642  1.00  0.00     0.023 A 
ATOM     65  C   UNL A   1      42.843  26.751  26.564  1.00  0.00     0.012 A 
ATOM     66  C   UNL A   1      41.695  24.904  27.653  1.00  0.00     0.148 A 
ATOM     67  C   UNL A   1      43.187  25.921  25.498  1.00  0.00     0.002 A 
ATOM     68  C   UNL A   1      42.085  24.070  26.612  1.00  0.00     0.091 A 
ATOM     69  F   UNL A   1      40.951  24.458  28.675  1.00  0.00    -0.205 F 
ATOM     70  C   UNL A   1      42.817  24.580  25.527  1.00  0.00     0.022 A 
BRANCH  68  71
ATOM     71  S   UNL A   1      41.732  22.309  26.596  1.00  0.00     0.127 S 
ATOM     72  O   UNL A   1      40.272  22.301  26.512  1.00  0.00    -0.237 OA
ATOM     73  O   UNL A   1      42.415  21.871  25.379  1.00  0.00    -0.237 OA
ATOM     74  O   UNL A   1      42.286  21.775  27.833  1.00  0.00    -0.744 OA
ENDBRANCH  68  71
ENDBRANCH  50  64
BRANCH  51  75
ATOM     75  C   UNL A   1      39.177  32.013  35.283  1.00  0.00     0.023 A 
ATOM     76  C   UNL A   1      38.248  31.468  36.190  1.00  0.00     0.012 A 
ATOM     77  C   UNL A   1      39.672  33.312  35.506  1.00  0.00     0.148 A 
ATOM     78  C   UNL A   1      37.790  32.216  37.276  1.00  0.00     0.002 A 
ATOM     79  C   UNL A   1      39.257  34.030  36.621  1.00  0.00     0.091 A 
ATOM     80  F   UNL A   1      40.551  33.814  34.627  1.00  0.00    -0.205 F 
ATOM     81  C   UNL A   1      38.301  33.493  37.496  1.00  0.00     0.022 A 
BRANCH  79  82
ATOM     82  S   UNL A   1      39.958  35.625  37.055  1.00  0.00     0.127 S 
ATOM     83  O   UNL A   1      41.370  35.293  37.230  1.00  0.00    -0.237 OA
ATOM     84  O   UNL A   1      39.654  36.419  35.865  1.00  0.00    -0.237 OA
ATOM     85  O   UNL A   1      39.256  36.052  38.258  1.00  0.00    -0.744 OA
ENDBRANCH  79  82
ENDBRANCH  51  75
BRANCH  63  86
ATOM     86  C   UNL A   1      44.909  28.244  33.966  1.00  0.00     0.023 A 
ATOM     87  C   UNL A   1      45.992  29.139  33.862  1.00  0.00     0.012 A 
ATOM     88  C   UNL A   1      44.990  27.160  34.864  1.00  0.00     0.148 A 
ATOM     89  C   UNL A   1      47.150  28.939  34.614  1.00  0.00     0.002 A 
ATOM     90  C   UNL A   1      46.124  27.000  35.650  1.00  0.00     0.091 A 
ATOM     91  F   UNL A   1      43.955  26.311  34.935  1.00  0.00    -0.205 F 
ATOM     92  C   UNL A   1      47.210  27.879  35.516  1.00  0.00     0.022 A 
BRANCH  90  93
ATOM     93  S   UNL A   1      46.249  25.728  36.912  1.00  0.00     0.127 S 
ATOM     94  O   UNL A   1      47.562  26.011  37.490  1.00  0.00    -0.237 OA
ATOM     95  O   UNL A   1      45.116  26.046  37.782  1.00  0.00    -0.237 OA
ATOM     96  O   UNL A   1      46.139  24.454  36.214  1.00  0.00    -0.744 OA
ENDBRANCH  90  93
ENDBRANCH  63  86
ENDBRANCH  37  38
ENDBRANCH  29  32
ENDBRANCH  27  28
ENDBRANCH  26  27
ENDBRANCH  25  26
ENDBRANCH   1  25
TORSDOF 22
ENDMDL
MODEL 3
REMARK VINA RESULT:      -9.8      5.358     10.465
REMARK SMILES C#CC[N@H+](CC(=O)NCCCCCCNC(=O)c1ccc(-c2c3nc(c(-c4cccc(S(=O)(=O)[O-])c4F)c4ccc([nH]4)c(-c4cccc(S(=O)(=O)[O-])c4F)c4nc(c(-c5cccc(S(=O)(=O)[O-])c5F)c5ccc2[nH]5)C=C4)C=C3)cc1)[C@H](C)c1ccccc1[N+](=O)[O-]
REMARK SMILES IDX 11 1 10 2 9 3 8 4 6 5 7 6 5 8 4 9 3 11 2 12 1 13 81 14 82 15
REMARK SMILES IDX 83 16 84 17 88 18 85 19 87 20 86 21 89 22 90 23 91 24 12 25
REMARK SMILES IDX 13 26 14 27 15 28 16 29 17 31 18 32 19 33 80 34 20 35 79 36
REMARK SMILES IDX 21 37 22 38 23 39 73 40 24 41 78 42 72 43 74 44 25 45 77 46
REMARK SMILES IDX 71 47 70 48 26 50 58 51 38 52 57 53 39 54 42 55 56 56 75 57
REMARK SMILES IDX 40 58 41 59 55 61 76 62 43 63 27 64 28 65 36 66 29 67 31 68
REMARK SMILES IDX 37 69 30 70 32 71 33 72 34 73 35 74 59 75 60 76 68 77 61 78
REMARK SMILES IDX 63 79 69 80 62 81 64 82 65 83 66 84 67 85 44 86 45 87 53 88
REMARK SMILES IDX 46 89 48 90 54 91 47 92 49 93 50 94 51 95 52 96
REMARK H PARENT 8 7 4 10 15 30 74 49 42 60
REMARK Flexibility Score: inf
ROOT
ATOM      1  C   UNL A   1      33.465  27.478  22.371  1.00  0.00     0.002 C 
ENDROOT
BRANCH   1   2
ATOM      2  C   UNL A   1      32.011  27.056  22.210  1.00  0.00     0.021 C 
BRANCH   2   3
ATOM      3  C   UNL A   1      31.779  25.951  21.165  1.00  0.00     0.116 C 
BRANCH   3   4
ATOM      4  N   UNL A   1      32.846  24.961  21.234  1.00  0.00    -0.351 N 
ATOM      5  C   UNL A   1      32.994  23.838  22.008  1.00  0.00     0.275 C 
ATOM      6  O   UNL A   1      34.098  23.286  21.993  1.00  0.00    -0.269 OA
ATOM      7  H   UNL A   1      33.595  25.129  20.617  1.00  0.00     0.163 HD
BRANCH   5   8
ATOM      8  C   UNL A   1      31.802  23.229  22.776  1.00  0.00     0.364 C 
BRANCH   8   9
ATOM      9  N   UNL A   1      31.850  23.343  24.275  1.00  0.00    -0.311 N 
ATOM     10  H   UNL A   1      32.694  23.839  24.563  1.00  0.00     0.349 HD
BRANCH   9  11
ATOM     11  C   UNL A   1      30.714  24.143  24.746  1.00  0.00     0.354 C 
BRANCH  11  12
ATOM     12  C   UNL A   1      30.896  25.434  25.412  1.00  0.00    -0.047 C 
ATOM     13  C   UNL A   1      31.190  26.445  25.997  1.00  0.00     0.010 C 
ENDBRANCH  11  12
ENDBRANCH   9  11
BRANCH   9  14
ATOM     14  C   UNL A   1      31.952  21.986  24.912  1.00  0.00     0.220 C 
ATOM     15  C   UNL A   1      31.004  21.875  26.131  1.00  0.00     0.081 C 
BRANCH  14  16
ATOM     16  C   UNL A   1      33.428  21.596  25.174  1.00  0.00     0.087 A 
ATOM     17  C   UNL A   1      33.779  20.226  25.126  1.00  0.00     0.017 A 
ATOM     18  C   UNL A   1      34.503  22.494  25.332  1.00  0.00     0.278 A 
ATOM     19  C   UNL A   1      35.113  19.812  25.002  1.00  0.00     0.001 A 
ATOM     20  C   UNL A   1      35.843  22.092  25.191  1.00  0.00     0.086 A 
ATOM     21  C   UNL A   1      36.140  20.750  24.981  1.00  0.00     0.007 A 
BRANCH  18  22
ATOM     22  N   UNL A   1      34.302  23.864  25.774  1.00  0.00     0.063 N 
ATOM     23  O   UNL A   1      33.771  24.039  26.877  1.00  0.00    -0.258 OA
ATOM     24  O   UNL A   1      34.645  24.759  24.988  1.00  0.00    -0.258 OA
ENDBRANCH  18  22
ENDBRANCH  14  16
ENDBRANCH   9  14
ENDBRANCH   8   9
ENDBRANCH   5   8
ENDBRANCH   3   4
ENDBRANCH   2   3
ENDBRANCH   1   2
BRANCH   1  25
ATOM     25  C   UNL A   1      33.819  27.965  23.772  1.00  0.00     0.002 C 
BRANCH  25  26
ATOM     26  C   UNL A   1      33.183  29.301  24.166  1.00  0.00     0.021 C 
BRANCH  26  27
ATOM     27  C   UNL A   1      32.934  29.469  25.662  1.00  0.00     0.116 C 
BRANCH  27  28
ATOM     28  N   UNL A   1      32.536  30.832  25.985  1.00  0.00    -0.352 N 
ATOM     29  C   UNL A   1      33.015  31.653  26.974  1.00  0.00     0.251 C 
ATOM     30  H   UNL A   1      31.830  31.215  25.417  1.00  0.00     0.163 HD
ATOM     31  O   UNL A   1      32.388  32.655  27.305  1.00  0.00    -0.269 OA
BRANCH  29  32
ATOM     32  C   UNL A   1      34.291  31.315  27.633  1.00  0.00     0.039 A 
ATOM     33  C   UNL A   1      35.248  32.312  27.829  1.00  0.00     0.014 A 
ATOM     34  C   UNL A   1      34.531  30.005  28.060  1.00  0.00     0.014 A 
ATOM     35  C   UNL A   1      36.434  32.001  28.497  1.00  0.00     0.010 A 
ATOM     36  C   UNL A   1      35.672  29.720  28.798  1.00  0.00     0.010 A 
ATOM     37  C   UNL A   1      36.643  30.710  29.010  1.00  0.00    -0.014 A 
BRANCH  37  38
ATOM     38  C   UNL A   1      37.878  30.365  29.757  1.00  0.00     0.031 A 
ATOM     39  C   UNL A   1      38.869  29.398  29.167  1.00  0.00     0.074 A 
ATOM     40  C   UNL A   1      38.067  30.856  30.998  1.00  0.00     0.049 A 
ATOM     41  N   UNL A   1      39.965  28.917  29.692  1.00  0.00    -0.248 NA
ATOM     42  C   UNL A   1      38.573  28.879  27.820  1.00  0.00     0.031 C 
ATOM     43  C   UNL A   1      37.145  31.747  31.706  1.00  0.00     0.029 A 
ATOM     44  N   UNL A   1      39.085  30.652  31.897  1.00  0.00    -0.354 N 
ATOM     45  C   UNL A   1      40.467  28.015  28.763  1.00  0.00     0.074 A 
ATOM     46  C   UNL A   1      39.537  27.986  27.655  1.00  0.00     0.031 C 
ATOM     47  C   UNL A   1      37.641  32.016  32.924  1.00  0.00     0.029 A 
ATOM     48  C   UNL A   1      38.893  31.286  33.101  1.00  0.00     0.049 A 
ATOM     49  H   UNL A   1      39.877  30.101  31.697  1.00  0.00     0.167 HD
ATOM     50  C   UNL A   1      41.613  27.294  28.812  1.00  0.00     0.034 A 
ATOM     51  C   UNL A   1      39.632  31.269  34.227  1.00  0.00     0.034 A 
ATOM     52  C   UNL A   1      42.548  27.352  29.901  1.00  0.00     0.049 A 
ATOM     53  C   UNL A   1      40.909  30.474  34.249  1.00  0.00     0.074 A 
ATOM     54  C   UNL A   1      43.777  26.725  30.011  1.00  0.00     0.029 A 
ATOM     55  N   UNL A   1      42.354  28.063  31.075  1.00  0.00    -0.354 N 
ATOM     56  N   UNL A   1      41.441  29.740  33.302  1.00  0.00    -0.248 NA
ATOM     57  C   UNL A   1      41.708  30.533  35.483  1.00  0.00     0.031 C 
ATOM     58  C   UNL A   1      44.307  27.024  31.270  1.00  0.00     0.029 A 
ATOM     59  C   UNL A   1      43.433  27.880  31.922  1.00  0.00     0.049 A 
ATOM     60  H   UNL A   1      41.567  28.618  31.275  1.00  0.00     0.167 HD
ATOM     61  C   UNL A   1      42.655  29.286  33.808  1.00  0.00     0.074 A 
ATOM     62  C   UNL A   1      42.786  29.842  35.139  1.00  0.00     0.031 C 
ATOM     63  C   UNL A   1      43.574  28.478  33.224  1.00  0.00     0.034 A 
BRANCH  50  64
ATOM     64  C   UNL A   1      41.932  26.403  27.641  1.00  0.00     0.023 A 
ATOM     65  C   UNL A   1      42.645  26.919  26.537  1.00  0.00     0.012 A 
ATOM     66  C   UNL A   1      41.577  25.040  27.655  1.00  0.00     0.148 A 
ATOM     67  C   UNL A   1      42.963  26.104  25.452  1.00  0.00     0.002 A 
ATOM     68  C   UNL A   1      41.943  24.222  26.592  1.00  0.00     0.091 A 
ATOM     69  F   UNL A   1      40.882  24.571  28.701  1.00  0.00    -0.205 F 
ATOM     70  C   UNL A   1      42.622  24.755  25.484  1.00  0.00     0.022 A 
BRANCH  68  71
ATOM     71  S   UNL A   1      41.625  22.455  26.575  1.00  0.00     0.127 S 
ATOM     72  O   UNL A   1      42.234  22.033  27.836  1.00  0.00    -0.237 OA
ATOM     73  O   UNL A   1      40.163  22.407  26.558  1.00  0.00    -0.237 OA
ATOM     74  O   UNL A   1      42.267  21.940  25.373  1.00  0.00    -0.744 OA
ENDBRANCH  68  71
ENDBRANCH  50  64
BRANCH  51  75
ATOM     75  C   UNL A   1      39.205  32.064  35.413  1.00  0.00     0.023 A 
ATOM     76  C   UNL A   1      38.347  31.485  36.368  1.00  0.00     0.012 A 
ATOM     77  C   UNL A   1      39.654  33.385  35.606  1.00  0.00     0.148 A 
ATOM     78  C   UNL A   1      37.913  32.219  37.473  1.00  0.00     0.002 A 
ATOM     79  C   UNL A   1      39.265  34.090  36.739  1.00  0.00     0.091 A 
ATOM     80  F   UNL A   1      40.465  33.920  34.682  1.00  0.00    -0.205 F 
ATOM     81  C   UNL A   1      38.379  33.517  37.662  1.00  0.00     0.022 A 
BRANCH  79  82
ATOM     82  S   UNL A   1      39.918  35.717  37.131  1.00  0.00     0.127 S 
ATOM     83  O   UNL A   1      41.327  35.421  37.380  1.00  0.00    -0.237 OA
ATOM     84  O   UNL A   1      39.650  36.452  35.896  1.00  0.00    -0.237 OA
ATOM     85  O   UNL A   1      39.157  36.180  38.284  1.00  0.00    -0.744 OA
ENDBRANCH  79  82
ENDBRANCH  51  75
BRANCH  63  86
ATOM     86  C   UNL A   1      44.839  28.187  33.990  1.00  0.00     0.023 A 
ATOM     87  C   UNL A   1      45.942  29.058  33.901  1.00  0.00     0.012 A 
ATOM     88  C   UNL A   1      44.898  27.082  34.864  1.00  0.00     0.148 A 
ATOM     89  C   UNL A   1      47.098  28.815  34.642  1.00  0.00     0.002 A 
ATOM     90  C   UNL A   1      46.031  26.878  35.641  1.00  0.00     0.091 A 
ATOM     91  F   UNL A   1      43.843  26.256  34.921  1.00  0.00    -0.205 F 
ATOM     92  C   UNL A   1      47.137  27.735  35.521  1.00  0.00     0.022 A 
BRANCH  90  93
ATOM     93  S   UNL A   1      46.131  25.576  36.874  1.00  0.00     0.127 S 
ATOM     94  O   UNL A   1      46.161  24.377  36.037  1.00  0.00    -0.237 OA
ATOM     95  O   UNL A   1      47.394  25.884  37.544  1.00  0.00    -0.237 OA
ATOM     96  O   UNL A   1      44.949  25.720  37.712  1.00  0.00    -0.744 OA
ENDBRANCH  90  93
ENDBRANCH  63  86
ENDBRANCH  37  38
ENDBRANCH  29  32
ENDBRANCH  27  28
ENDBRANCH  26  27
ENDBRANCH  25  26
ENDBRANCH   1  25
TORSDOF 22
ENDMDL
