MODEL 1
REMARK VINA RESULT:     -12.3      0.000      0.000
REMARK SMILES O=C(NCCCCCCNC(=O)c1ccc(-c2c3nc(c(-c4cccc(S(=O)(=O)[O-])c4F)c4ccc([nH]4)c(-c4cccc(S(=O)(=O)[O-])c4F)c4nc(c(-c5cccc(S(=O)(=O)[O-])c5F)c5ccc2[nH]5)C=C4)C=C3)cc1)C1=Cc2cc(Cl)c(Cl)cc2O[C@@H]1C(F)(F)F
REMARK SMILES IDX 7 1 6 2 5 3 4 4 3 5 1 6 2 7 76 9 77 10 87 11 78 12 86 13
REMARK SMILES IDX 79 14 85 15 80 16 84 17 81 18 82 19 83 20 88 21 89 22 90 23
REMARK SMILES IDX 91 24 8 25 9 26 10 27 11 28 12 30 13 31 14 32 75 33 15 34
REMARK SMILES IDX 74 35 16 36 17 37 18 38 68 39 19 40 73 41 67 42 69 43 20 44
REMARK SMILES IDX 72 45 66 46 65 47 21 49 53 50 33 51 52 52 34 53 37 54 51 55
REMARK SMILES IDX 70 56 35 57 36 58 50 60 71 61 38 62 22 63 23 64 31 65 24 66
REMARK SMILES IDX 26 67 32 68 25 69 27 70 28 71 29 72 30 73 54 74 55 75 63 76
REMARK SMILES IDX 56 77 58 78 64 79 57 80 59 81 60 82 61 83 62 84 39 85 40 86
REMARK SMILES IDX 48 87 41 88 43 89 49 90 42 91 44 92 45 93 46 94 47 95
REMARK H PARENT 3 8 10 29 69 48 37 59
REMARK Flexibility Score: inf
ROOT
ATOM      1  C   UNL A   1      38.408  22.646  25.754  1.00  0.00     0.002 C 
ENDROOT
BRANCH   1   2
ATOM      2  C   UNL A   1      37.310  23.617  26.206  1.00  0.00     0.002 C 
BRANCH   2   3
ATOM      3  C   UNL A   1      36.312  24.068  25.142  1.00  0.00     0.021 C 
BRANCH   3   4
ATOM      4  C   UNL A   1      34.865  24.220  25.598  1.00  0.00     0.116 C 
BRANCH   4   5
ATOM      5  N   UNL A   1      34.430  23.263  26.603  1.00  0.00    -0.352 N 
ATOM      6  O   UNL A   1      33.853  21.262  27.453  1.00  0.00    -0.270 OA
ATOM      7  C   UNL A   1      34.023  21.963  26.456  1.00  0.00     0.251 C 
ATOM      8  H   UNL A   1      34.429  23.599  27.528  1.00  0.00     0.163 HD
BRANCH   7   9
ATOM      9  C   UNL A   1      33.874  21.329  25.112  1.00  0.00     0.067 C 
ATOM     10  C   UNL A   1      34.759  20.414  24.683  1.00  0.00     0.025 C 
ATOM     11  C   UNL A   1      32.439  21.256  24.647  1.00  0.00     0.314 C 
ATOM     12  C   UNL A   1      34.172  19.062  24.562  1.00  0.00     0.019 A 
ATOM     13  O   UNL A   1      31.891  19.917  24.763  1.00  0.00    -0.475 OA
ATOM     14  C   UNL A   1      35.035  17.963  24.627  1.00  0.00     0.034 A 
ATOM     15  C   UNL A   1      32.790  18.882  24.724  1.00  0.00     0.129 A 
ATOM     16  C   UNL A   1      34.530  16.703  24.963  1.00  0.00     0.060 A 
ATOM     17  C   UNL A   1      32.282  17.617  25.007  1.00  0.00     0.069 A 
ATOM     18  Cl  UNL A   1      35.673  15.441  25.246  1.00  0.00    -0.083 Cl
ATOM     19  C   UNL A   1      33.154  16.534  25.167  1.00  0.00     0.063 A 
ATOM     20  Cl  UNL A   1      32.482  15.048  25.730  1.00  0.00    -0.083 Cl
BRANCH  11  21
ATOM     21  C   UNL A   1      32.282  21.804  23.218  1.00  0.00     0.429 C 
ATOM     22  F   UNL A   1      32.222  20.800  22.310  1.00  0.00    -0.167 F 
ATOM     23  F   UNL A   1      31.141  22.523  23.080  1.00  0.00    -0.167 F 
ATOM     24  F   UNL A   1      33.305  22.614  22.859  1.00  0.00    -0.167 F 
ENDBRANCH  11  21
ENDBRANCH   7   9
ENDBRANCH   4   5
ENDBRANCH   3   4
ENDBRANCH   2   3
ENDBRANCH   1   2
BRANCH   1  25
ATOM     25  C   UNL A   1      38.167  21.153  26.001  1.00  0.00     0.021 C 
BRANCH  25  26
ATOM     26  C   UNL A   1      38.879  20.183  25.061  1.00  0.00     0.116 C 
BRANCH  26  27
ATOM     27  N   UNL A   1      39.807  19.304  25.751  1.00  0.00    -0.352 N 
ATOM     28  C   UNL A   1      40.971  19.596  26.419  1.00  0.00     0.251 C 
ATOM     29  H   UNL A   1      39.564  18.350  25.737  1.00  0.00     0.163 HD
ATOM     30  O   UNL A   1      41.679  18.673  26.820  1.00  0.00    -0.269 OA
BRANCH  28  31
ATOM     31  C   UNL A   1      41.393  20.997  26.649  1.00  0.00     0.039 A 
ATOM     32  C   UNL A   1      41.259  21.533  27.934  1.00  0.00     0.014 A 
ATOM     33  C   UNL A   1      41.873  21.800  25.610  1.00  0.00     0.014 A 
ATOM     34  C   UNL A   1      41.647  22.851  28.188  1.00  0.00     0.010 A 
ATOM     35  C   UNL A   1      42.324  23.094  25.880  1.00  0.00     0.010 A 
ATOM     36  C   UNL A   1      42.207  23.638  27.168  1.00  0.00    -0.014 A 
BRANCH  36  37
ATOM     37  C   UNL A   1      42.675  25.023  27.436  1.00  0.00     0.031 A 
ATOM     38  C   UNL A   1      41.748  26.039  28.051  1.00  0.00     0.074 A 
ATOM     39  C   UNL A   1      43.916  25.391  27.059  1.00  0.00     0.049 A 
ATOM     40  N   UNL A   1      41.967  27.301  28.316  1.00  0.00    -0.248 NA
ATOM     41  C   UNL A   1      40.391  25.582  28.388  1.00  0.00     0.031 C 
ATOM     42  C   UNL A   1      44.882  24.526  26.381  1.00  0.00     0.029 A 
ATOM     43  N   UNL A   1      44.565  26.597  27.165  1.00  0.00    -0.354 N 
ATOM     44  C   UNL A   1      40.772  27.797  28.824  1.00  0.00     0.074 A 
ATOM     45  C   UNL A   1      39.819  26.708  28.793  1.00  0.00     0.031 C 
ATOM     46  C   UNL A   1      45.997  25.228  26.125  1.00  0.00     0.029 A 
ATOM     47  C   UNL A   1      45.817  26.598  26.596  1.00  0.00     0.049 A 
ATOM     48  H   UNL A   1      44.172  27.384  27.605  1.00  0.00     0.167 HD
ATOM     49  C   UNL A   1      40.497  29.035  29.302  1.00  0.00     0.034 A 
ATOM     50  C   UNL A   1      46.717  27.592  26.456  1.00  0.00     0.034 A 
ATOM     51  C   UNL A   1      41.454  30.107  29.361  1.00  0.00     0.049 A 
ATOM     52  C   UNL A   1      46.404  28.949  27.029  1.00  0.00     0.074 A 
ATOM     53  C   UNL A   1      41.297  31.375  29.896  1.00  0.00     0.029 A 
ATOM     54  N   UNL A   1      42.747  30.044  28.860  1.00  0.00    -0.354 N 
ATOM     55  N   UNL A   1      45.323  29.354  27.649  1.00  0.00    -0.248 NA
ATOM     56  C   UNL A   1      47.453  29.974  26.921  1.00  0.00     0.031 C 
ATOM     57  C   UNL A   1      42.487  32.084  29.699  1.00  0.00     0.029 A 
ATOM     58  C   UNL A   1      43.395  31.250  29.067  1.00  0.00     0.049 A 
ATOM     59  H   UNL A   1      43.143  29.258  28.422  1.00  0.00     0.167 HD
ATOM     60  C   UNL A   1      45.569  30.667  28.029  1.00  0.00     0.074 A 
ATOM     61  C   UNL A   1      46.914  30.982  27.593  1.00  0.00     0.031 C 
ATOM     62  C   UNL A   1      44.751  31.538  28.670  1.00  0.00     0.034 A 
BRANCH  49  63
ATOM     63  C   UNL A   1      39.115  29.277  29.854  1.00  0.00     0.023 A 
ATOM     64  C   UNL A   1      38.806  28.848  31.162  1.00  0.00     0.012 A 
ATOM     65  C   UNL A   1      38.139  29.966  29.107  1.00  0.00     0.148 A 
ATOM     66  C   UNL A   1      37.539  29.060  31.702  1.00  0.00     0.002 A 
ATOM     67  C   UNL A   1      36.891  30.214  29.669  1.00  0.00     0.091 A 
ATOM     68  F   UNL A   1      38.440  30.351  27.859  1.00  0.00    -0.205 F 
ATOM     69  C   UNL A   1      36.584  29.750  30.960  1.00  0.00     0.022 A 
BRANCH  67  70
ATOM     70  S   UNL A   1      35.619  31.162  28.826  1.00  0.00     0.127 S 
ATOM     71  O   UNL A   1      34.920  30.119  28.076  1.00  0.00    -0.237 OA
ATOM     72  O   UNL A   1      34.859  31.723  29.943  1.00  0.00    -0.237 OA
ATOM     73  O   UNL A   1      36.325  32.148  28.017  1.00  0.00    -0.744 OA
ENDBRANCH  67  70
ENDBRANCH  49  63
BRANCH  50  74
ATOM     74  C   UNL A   1      48.023  27.318  25.794  1.00  0.00     0.023 A 
ATOM     75  C   UNL A   1      49.100  26.826  26.557  1.00  0.00     0.012 A 
ATOM     76  C   UNL A   1      48.189  27.498  24.407  1.00  0.00     0.148 A 
ATOM     77  C   UNL A   1      50.327  26.546  25.956  1.00  0.00     0.002 A 
ATOM     78  C   UNL A   1      49.396  27.163  23.805  1.00  0.00     0.091 A 
ATOM     79  F   UNL A   1      47.155  27.976  23.700  1.00  0.00    -0.205 F 
ATOM     80  C   UNL A   1      50.472  26.703  24.580  1.00  0.00     0.022 A 
BRANCH  78  81
ATOM     81  S   UNL A   1      49.633  27.206  22.025  1.00  0.00     0.127 S 
ATOM     82  O   UNL A   1      49.342  28.604  21.718  1.00  0.00    -0.237 OA
ATOM     83  O   UNL A   1      51.040  26.827  21.898  1.00  0.00    -0.237 OA
ATOM     84  O   UNL A   1      48.697  26.232  21.478  1.00  0.00    -0.744 OA
ENDBRANCH  78  81
ENDBRANCH  50  74
BRANCH  62  85
ATOM     85  C   UNL A   1      45.289  32.914  28.969  1.00  0.00     0.023 A 
ATOM     86  C   UNL A   1      46.033  33.137  30.145  1.00  0.00     0.012 A 
ATOM     87  C   UNL A   1      45.121  33.967  28.047  1.00  0.00     0.148 A 
ATOM     88  C   UNL A   1      46.574  34.393  30.415  1.00  0.00     0.002 A 
ATOM     89  C   UNL A   1      45.704  35.203  28.300  1.00  0.00     0.091 A 
ATOM     90  F   UNL A   1      44.396  33.741  26.942  1.00  0.00    -0.205 F 
ATOM     91  C   UNL A   1      46.420  35.422  29.489  1.00  0.00     0.022 A 
BRANCH  89  92
ATOM     92  S   UNL A   1      45.639  36.558  27.121  1.00  0.00     0.127 S 
ATOM     93  O   UNL A   1      46.411  37.590  27.810  1.00  0.00    -0.237 OA
ATOM     94  O   UNL A   1      46.302  35.981  25.950  1.00  0.00    -0.237 OA
ATOM     95  O   UNL A   1      44.226  36.856  26.929  1.00  0.00    -0.744 OA
ENDBRANCH  89  92
ENDBRANCH  62  85
ENDBRANCH  36  37
ENDBRANCH  28  31
ENDBRANCH  26  27
ENDBRANCH  25  26
ENDBRANCH   1  25
TORSDOF 17
ENDMDL
MODEL 2
REMARK VINA RESULT:     -12.1      5.246      9.752
REMARK SMILES O=C(NCCCCCCNC(=O)c1ccc(-c2c3nc(c(-c4cccc(S(=O)(=O)[O-])c4F)c4ccc([nH]4)c(-c4cccc(S(=O)(=O)[O-])c4F)c4nc(c(-c5cccc(S(=O)(=O)[O-])c5F)c5ccc2[nH]5)C=C4)C=C3)cc1)C1=Cc2cc(Cl)c(Cl)cc2O[C@@H]1C(F)(F)F
REMARK SMILES IDX 7 1 6 2 5 3 4 4 3 5 1 6 2 7 76 9 77 10 87 11 78 12 86 13
REMARK SMILES IDX 79 14 85 15 80 16 84 17 81 18 82 19 83 20 88 21 89 22 90 23
REMARK SMILES IDX 91 24 8 25 9 26 10 27 11 28 12 30 13 31 14 32 75 33 15 34
REMARK SMILES IDX 74 35 16 36 17 37 18 38 68 39 19 40 73 41 67 42 69 43 20 44
REMARK SMILES IDX 72 45 66 46 65 47 21 49 53 50 33 51 52 52 34 53 37 54 51 55
REMARK SMILES IDX 70 56 35 57 36 58 50 60 71 61 38 62 22 63 23 64 31 65 24 66
REMARK SMILES IDX 26 67 32 68 25 69 27 70 28 71 29 72 30 73 54 74 55 75 63 76
REMARK SMILES IDX 56 77 58 78 64 79 57 80 59 81 60 82 61 83 62 84 39 85 40 86
REMARK SMILES IDX 48 87 41 88 43 89 49 90 42 91 44 92 45 93 46 94 47 95
REMARK H PARENT 3 8 10 29 69 48 37 59
REMARK Flexibility Score: inf
ROOT
ATOM      1  C   UNL A   1      33.058  26.727  26.332  1.00  0.00     0.002 C 
ENDROOT
BRANCH   1   2
ATOM      2  C   UNL A   1      32.947  25.461  25.474  1.00  0.00     0.002 C 
BRANCH   2   3
ATOM      3  C   UNL A   1      34.199  25.038  24.708  1.00  0.00     0.021 C 
BRANCH   3   4
ATOM      4  C   UNL A   1      35.203  24.187  25.477  1.00  0.00     0.116 C 
BRANCH   4   5
ATOM      5  N   UNL A   1      34.627  23.314  26.488  1.00  0.00    -0.352 N 
ATOM      6  O   UNL A   1      33.805  21.414  27.368  1.00  0.00    -0.270 OA
ATOM      7  C   UNL A   1      34.089  22.060  26.360  1.00  0.00     0.251 C 
ATOM      8  H   UNL A   1      34.624  23.679  27.403  1.00  0.00     0.163 HD
BRANCH   7   9
ATOM      9  C   UNL A   1      33.928  21.402  25.029  1.00  0.00     0.067 C 
ATOM     10  C   UNL A   1      34.785  20.450  24.627  1.00  0.00     0.025 C 
ATOM     11  C   UNL A   1      32.495  21.367  24.555  1.00  0.00     0.314 C 
ATOM     12  C   UNL A   1      34.155  19.116  24.531  1.00  0.00     0.019 A 
ATOM     13  O   UNL A   1      31.902  20.049  24.695  1.00  0.00    -0.475 OA
ATOM     14  C   UNL A   1      34.980  17.990  24.626  1.00  0.00     0.034 A 
ATOM     15  C   UNL A   1      32.767  18.984  24.686  1.00  0.00     0.129 A 
ATOM     16  C   UNL A   1      34.432  16.755  24.985  1.00  0.00     0.060 A 
ATOM     17  C   UNL A   1      32.215  17.743  24.992  1.00  0.00     0.069 A 
ATOM     18  Cl  UNL A   1      35.531  15.462  25.303  1.00  0.00    -0.083 Cl
ATOM     19  C   UNL A   1      33.050  16.636  25.182  1.00  0.00     0.063 A 
ATOM     20  Cl  UNL A   1      32.325  15.186  25.772  1.00  0.00    -0.083 Cl
BRANCH  11  21
ATOM     21  C   UNL A   1      32.366  21.888  23.113  1.00  0.00     0.429 C 
ATOM     22  F   UNL A   1      32.114  20.879  22.245  1.00  0.00    -0.167 F 
ATOM     23  F   UNL A   1      31.346  22.772  22.990  1.00  0.00    -0.167 F 
ATOM     24  F   UNL A   1      33.487  22.517  22.688  1.00  0.00    -0.167 F 
ENDBRANCH  11  21
ENDBRANCH   7   9
ENDBRANCH   4   5
ENDBRANCH   3   4
ENDBRANCH   2   3
ENDBRANCH   1   2
BRANCH   1  25
ATOM     25  C   UNL A   1      32.283  27.962  25.859  1.00  0.00     0.021 C 
BRANCH  25  26
ATOM     26  C   UNL A   1      33.118  29.141  25.363  1.00  0.00     0.116 C 
BRANCH  26  27
ATOM     27  N   UNL A   1      32.640  30.421  25.856  1.00  0.00    -0.352 N 
ATOM     28  C   UNL A   1      33.112  31.208  26.878  1.00  0.00     0.251 C 
ATOM     29  H   UNL A   1      31.854  30.781  25.384  1.00  0.00     0.163 HD
ATOM     30  O   UNL A   1      32.468  32.200  27.216  1.00  0.00    -0.269 OA
BRANCH  28  31
ATOM     31  C   UNL A   1      34.369  30.872  27.587  1.00  0.00     0.039 A 
ATOM     32  C   UNL A   1      35.349  31.863  27.713  1.00  0.00     0.014 A 
ATOM     33  C   UNL A   1      34.613  29.589  28.084  1.00  0.00     0.014 A 
ATOM     34  C   UNL A   1      36.547  31.582  28.376  1.00  0.00     0.010 A 
ATOM     35  C   UNL A   1      35.781  29.330  28.805  1.00  0.00     0.010 A 
ATOM     36  C   UNL A   1      36.765  30.319  28.950  1.00  0.00    -0.014 A 
BRANCH  36  37
ATOM     37  C   UNL A   1      38.011  30.023  29.705  1.00  0.00     0.031 A 
ATOM     38  C   UNL A   1      39.034  29.067  29.149  1.00  0.00     0.074 A 
ATOM     39  C   UNL A   1      38.192  30.561  30.928  1.00  0.00     0.049 A 
ATOM     40  N   UNL A   1      40.155  28.656  29.684  1.00  0.00    -0.248 NA
ATOM     41  C   UNL A   1      38.746  28.476  27.833  1.00  0.00     0.031 C 
ATOM     42  C   UNL A   1      37.241  31.437  31.612  1.00  0.00     0.029 A 
ATOM     43  N   UNL A   1      39.223  30.424  31.824  1.00  0.00    -0.354 N 
ATOM     44  C   UNL A   1      40.692  27.740  28.787  1.00  0.00     0.074 A 
ATOM     45  C   UNL A   1      39.754  27.627  27.691  1.00  0.00     0.031 C 
ATOM     46  C   UNL A   1      37.728  31.755  32.822  1.00  0.00     0.029 A 
ATOM     47  C   UNL A   1      39.011  31.085  33.012  1.00  0.00     0.049 A 
ATOM     48  H   UNL A   1      40.037  29.902  31.635  1.00  0.00     0.167 HD
ATOM     49  C   UNL A   1      41.872  27.077  28.850  1.00  0.00     0.034 A 
ATOM     50  C   UNL A   1      39.758  31.138  34.132  1.00  0.00     0.034 A 
ATOM     51  C   UNL A   1      42.818  27.214  29.925  1.00  0.00     0.049 A 
ATOM     52  C   UNL A   1      41.082  30.424  34.165  1.00  0.00     0.074 A 
ATOM     53  C   UNL A   1      44.074  26.645  30.047  1.00  0.00     0.029 A 
ATOM     54  N   UNL A   1      42.611  27.969  31.071  1.00  0.00    -0.354 N 
ATOM     55  N   UNL A   1      41.646  29.688  33.238  1.00  0.00    -0.248 NA
ATOM     56  C   UNL A   1      41.894  30.582  35.381  1.00  0.00     0.031 C 
ATOM     57  C   UNL A   1      44.617  27.038  31.275  1.00  0.00     0.029 A 
ATOM     58  C   UNL A   1      43.711  27.875  31.907  1.00  0.00     0.049 A 
ATOM     59  H   UNL A   1      41.801  28.494  31.261  1.00  0.00     0.167 HD
ATOM     60  C   UNL A   1      42.886  29.319  33.745  1.00  0.00     0.074 A 
ATOM     61  C   UNL A   1      43.003  29.934  35.051  1.00  0.00     0.031 C 
ATOM     62  C   UNL A   1      43.837  28.530  33.185  1.00  0.00     0.034 A 
BRANCH  49  63
ATOM     63  C   UNL A   1      42.231  26.182  27.691  1.00  0.00     0.023 A 
ATOM     64  C   UNL A   1      42.994  26.703  26.624  1.00  0.00     0.012 A 
ATOM     65  C   UNL A   1      41.860  24.823  27.673  1.00  0.00     0.148 A 
ATOM     66  C   UNL A   1      43.344  25.900  25.540  1.00  0.00     0.002 A 
ATOM     67  C   UNL A   1      42.252  24.017  26.609  1.00  0.00     0.091 A 
ATOM     68  F   UNL A   1      41.119  24.347  28.683  1.00  0.00    -0.205 F 
ATOM     69  C   UNL A   1      42.981  24.556  25.536  1.00  0.00     0.022 A 
BRANCH  67  70
ATOM     70  S   UNL A   1      41.903  22.256  26.547  1.00  0.00     0.127 S 
ATOM     71  O   UNL A   1      42.427  21.806  27.836  1.00  0.00    -0.237 OA
ATOM     72  O   UNL A   1      40.443  22.232  26.442  1.00  0.00    -0.237 OA
ATOM     73  O   UNL A   1      42.604  21.749  25.375  1.00  0.00    -0.744 OA
ENDBRANCH  67  70
ENDBRANCH  49  63
BRANCH  50  74
ATOM     74  C   UNL A   1      39.291  31.948  35.293  1.00  0.00     0.023 A 
ATOM     75  C   UNL A   1      38.428  31.368  36.242  1.00  0.00     0.012 A 
ATOM     76  C   UNL A   1      39.733  33.272  35.484  1.00  0.00     0.148 A 
ATOM     77  C   UNL A   1      37.991  32.100  37.346  1.00  0.00     0.002 A 
ATOM     78  C   UNL A   1      39.339  33.977  36.615  1.00  0.00     0.091 A 
ATOM     79  F   UNL A   1      40.546  33.809  34.562  1.00  0.00    -0.205 F 
ATOM     80  C   UNL A   1      38.455  33.398  37.539  1.00  0.00     0.022 A 
BRANCH  78  81
ATOM     81  S   UNL A   1      39.988  35.603  37.014  1.00  0.00     0.127 S 
ATOM     82  O   UNL A   1      39.291  35.906  38.260  1.00  0.00    -0.237 OA
ATOM     83  O   UNL A   1      41.418  35.331  37.158  1.00  0.00    -0.237 OA
ATOM     84  O   UNL A   1      39.650  36.453  35.879  1.00  0.00    -0.744 OA
ENDBRANCH  78  81
ENDBRANCH  50  74
BRANCH  62  85
ATOM     85  C   UNL A   1      45.106  28.303  33.965  1.00  0.00     0.023 A 
ATOM     86  C   UNL A   1      46.196  29.182  33.803  1.00  0.00     0.012 A 
ATOM     87  C   UNL A   1      45.192  27.264  34.913  1.00  0.00     0.148 A 
ATOM     88  C   UNL A   1      47.363  29.011  34.547  1.00  0.00     0.002 A 
ATOM     89  C   UNL A   1      46.339  27.129  35.686  1.00  0.00     0.091 A 
ATOM     90  F   UNL A   1      44.152  26.427  35.041  1.00  0.00    -0.205 F 
ATOM     91  C   UNL A   1      47.430  27.993  35.496  1.00  0.00     0.022 A 
BRANCH  89  92
ATOM     92  S   UNL A   1      46.479  25.909  36.997  1.00  0.00     0.127 S 
ATOM     93  O   UNL A   1      47.620  26.415  37.757  1.00  0.00    -0.237 OA
ATOM     94  O   UNL A   1      45.188  26.036  37.678  1.00  0.00    -0.237 OA
ATOM     95  O   UNL A   1      46.687  24.629  36.334  1.00  0.00    -0.744 OA
ENDBRANCH  89  92
ENDBRANCH  62  85
ENDBRANCH  36  37
ENDBRANCH  28  31
ENDBRANCH  26  27
ENDBRANCH  25  26
ENDBRANCH   1  25
TORSDOF 17
ENDMDL
MODEL 3
REMARK VINA RESULT:     -12.0      5.076      7.998
REMARK SMILES O=C(NCCCCCCNC(=O)c1ccc(-c2c3nc(c(-c4cccc(S(=O)(=O)[O-])c4F)c4ccc([nH]4)c(-c4cccc(S(=O)(=O)[O-])c4F)c4nc(c(-c5cccc(S(=O)(=O)[O-])c5F)c5ccc2[nH]5)C=C4)C=C3)cc1)C1=Cc2cc(Cl)c(Cl)cc2O[C@@H]1C(F)(F)F
REMARK SMILES IDX 7 1 6 2 5 3 4 4 3 5 1 6 2 7 76 9 77 10 87 11 78 12 86 13
REMARK SMILES IDX 79 14 85 15 80 16 84 17 81 18 82 19 83 20 88 21 89 22 90 23
REMARK SMILES IDX 91 24 8 25 9 26 10 27 11 28 12 30 13 31 14 32 75 33 15 34
REMARK SMILES IDX 74 35 16 36 17 37 18 38 68 39 19 40 73 41 67 42 69 43 20 44
REMARK SMILES IDX 72 45 66 46 65 47 21 49 53 50 33 51 52 52 34 53 37 54 51 55
REMARK SMILES IDX 70 56 35 57 36 58 50 60 71 61 38 62 22 63 23 64 31 65 24 66
REMARK SMILES IDX 26 67 32 68 25 69 27 70 28 71 29 72 30 73 54 74 55 75 63 76
REMARK SMILES IDX 56 77 58 78 64 79 57 80 59 81 60 82 61 83 62 84 39 85 40 86
REMARK SMILES IDX 48 87 41 88 43 89 49 90 42 91 44 92 45 93 46 94 47 95
REMARK H PARENT 3 8 10 29 69 48 37 59
REMARK Flexibility Score: inf
ROOT
ATOM      1  C   UNL A   1      33.819  27.762  25.180  1.00  0.00     0.002 C 
ENDROOT
BRANCH   1   2
ATOM      2  C   UNL A   1      33.933  26.374  24.540  1.00  0.00     0.002 C 
BRANCH   2   3
ATOM      3  C   UNL A   1      34.255  25.211  25.475  1.00  0.00     0.021 C 
BRANCH   3   4
ATOM      4  C   UNL A   1      33.094  24.287  25.826  1.00  0.00     0.116 C 
BRANCH   4   5
ATOM      5  N   UNL A   1      33.408  23.232  26.777  1.00  0.00    -0.352 N 
ATOM      6  O   UNL A   1      34.134  21.226  27.488  1.00  0.00    -0.270 OA
ATOM      7  C   UNL A   1      33.736  21.921  26.554  1.00  0.00     0.251 C 
ATOM      8  H   UNL A   1      33.384  23.502  27.723  1.00  0.00     0.163 HD
BRANCH   7   9
ATOM      9  C   UNL A   1      33.724  21.325  25.184  1.00  0.00     0.067 C 
ATOM     10  C   UNL A   1      34.686  20.472  24.798  1.00  0.00     0.025 C 
ATOM     11  C   UNL A   1      32.334  21.196  24.607  1.00  0.00     0.314 C 
ATOM     12  C   UNL A   1      34.183  19.097  24.592  1.00  0.00     0.019 A 
ATOM     13  O   UNL A   1      31.852  19.827  24.639  1.00  0.00    -0.475 OA
ATOM     14  C   UNL A   1      35.096  18.041  24.691  1.00  0.00     0.034 A 
ATOM     15  C   UNL A   1      32.805  18.841  24.641  1.00  0.00     0.129 A 
ATOM     16  C   UNL A   1      34.635  16.747  24.949  1.00  0.00     0.060 A 
ATOM     17  C   UNL A   1      32.345  17.543  24.845  1.00  0.00     0.069 A 
ATOM     18  Cl  UNL A   1      35.820  15.536  25.283  1.00  0.00    -0.083 Cl
ATOM     19  C   UNL A   1      33.259  16.502  25.040  1.00  0.00     0.063 A 
ATOM     20  Cl  UNL A   1      32.626  14.965  25.505  1.00  0.00    -0.083 Cl
BRANCH  11  21
ATOM     21  C   UNL A   1      32.258  21.782  23.187  1.00  0.00     0.429 C 
ATOM     22  F   UNL A   1      31.942  20.830  22.276  1.00  0.00    -0.167 F 
ATOM     23  F   UNL A   1      31.306  22.743  23.093  1.00  0.00    -0.167 F 
ATOM     24  F   UNL A   1      33.426  22.345  22.795  1.00  0.00    -0.167 F 
ENDBRANCH  11  21
ENDBRANCH   7   9
ENDBRANCH   4   5
ENDBRANCH   3   4
ENDBRANCH   2   3
ENDBRANCH   1   2
BRANCH   1  25
ATOM     25  C   UNL A   1      32.860  27.909  26.367  1.00  0.00     0.021 C 
BRANCH  25  26
ATOM     26  C   UNL A   1      33.423  28.577  27.619  1.00  0.00     0.116 C 
BRANCH  26  27
ATOM     27  N   UNL A   1      33.459  30.026  27.521  1.00  0.00    -0.352 N 
ATOM     28  C   UNL A   1      34.441  30.914  27.888  1.00  0.00     0.251 C 
ATOM     29  H   UNL A   1      32.654  30.436  27.130  1.00  0.00     0.163 HD
ATOM     30  O   UNL A   1      34.207  32.120  27.838  1.00  0.00    -0.269 OA
BRANCH  28  31
ATOM     31  C   UNL A   1      35.765  30.442  28.357  1.00  0.00     0.039 A 
ATOM     32  C   UNL A   1      35.824  29.672  29.523  1.00  0.00     0.014 A 
ATOM     33  C   UNL A   1      36.946  30.786  27.693  1.00  0.00     0.014 A 
ATOM     34  C   UNL A   1      37.056  29.209  29.996  1.00  0.00     0.010 A 
ATOM     35  C   UNL A   1      38.168  30.267  28.128  1.00  0.00     0.010 A 
ATOM     36  C   UNL A   1      38.238  29.482  29.288  1.00  0.00    -0.014 A 
BRANCH  36  37
ATOM     37  C   UNL A   1      39.548  28.951  29.748  1.00  0.00     0.031 A 
ATOM     38  C   UNL A   1      40.313  29.645  30.844  1.00  0.00     0.074 A 
ATOM     39  C   UNL A   1      40.087  27.881  29.130  1.00  0.00     0.049 A 
ATOM     40  N   UNL A   1      41.487  29.353  31.344  1.00  0.00    -0.248 NA
ATOM     41  C   UNL A   1      39.690  30.838  31.438  1.00  0.00     0.031 C 
ATOM     42  C   UNL A   1      39.485  27.168  28.002  1.00  0.00     0.029 A 
ATOM     43  N   UNL A   1      41.276  27.227  29.341  1.00  0.00    -0.354 N 
ATOM     44  C   UNL A   1      41.755  30.337  32.288  1.00  0.00     0.074 A 
ATOM     45  C   UNL A   1      40.639  31.257  32.263  1.00  0.00     0.031 C 
ATOM     46  C   UNL A   1      40.309  26.180  27.617  1.00  0.00     0.029 A 
ATOM     47  C   UNL A   1      41.507  26.205  28.450  1.00  0.00     0.049 A 
ATOM     48  H   UNL A   1      41.902  27.466  30.062  1.00  0.00     0.167 HD
ATOM     49  C   UNL A   1      42.817  30.450  33.122  1.00  0.00     0.034 A 
ATOM     50  C   UNL A   1      42.569  25.388  28.309  1.00  0.00     0.034 A 
ATOM     51  C   UNL A   1      43.911  29.517  33.167  1.00  0.00     0.049 A 
ATOM     52  C   UNL A   1      43.720  25.508  29.271  1.00  0.00     0.074 A 
ATOM     53  C   UNL A   1      44.996  29.501  34.027  1.00  0.00     0.029 A 
ATOM     54  N   UNL A   1      44.067  28.437  32.310  1.00  0.00    -0.354 N 
ATOM     55  N   UNL A   1      43.882  26.350  30.263  1.00  0.00    -0.248 NA
ATOM     56  C   UNL A   1      44.815  24.539  29.123  1.00  0.00     0.031 C 
ATOM     57  C   UNL A   1      45.818  28.425  33.676  1.00  0.00     0.029 A 
ATOM     58  C   UNL A   1      45.232  27.753  32.615  1.00  0.00     0.049 A 
ATOM     59  H   UNL A   1      43.441  28.194  31.590  1.00  0.00     0.167 HD
ATOM     60  C   UNL A   1      45.079  25.996  30.873  1.00  0.00     0.074 A 
ATOM     61  C   UNL A   1      45.588  24.846  30.156  1.00  0.00     0.031 C 
ATOM     62  C   UNL A   1      45.706  26.580  31.925  1.00  0.00     0.034 A 
BRANCH  49  63
ATOM     63  C   UNL A   1      42.816  31.600  34.098  1.00  0.00     0.023 A 
ATOM     64  C   UNL A   1      43.378  32.836  33.713  1.00  0.00     0.012 A 
ATOM     65  C   UNL A   1      42.225  31.480  35.371  1.00  0.00     0.148 A 
ATOM     66  C   UNL A   1      43.390  33.918  34.590  1.00  0.00     0.002 A 
ATOM     67  C   UNL A   1      42.201  32.577  36.225  1.00  0.00     0.091 A 
ATOM     68  F   UNL A   1      41.713  30.294  35.731  1.00  0.00    -0.205 F 
ATOM     69  C   UNL A   1      42.795  33.792  35.842  1.00  0.00     0.022 A 
BRANCH  67  70
ATOM     70  S   UNL A   1      41.389  32.542  37.827  1.00  0.00     0.127 S 
ATOM     71  O   UNL A   1      41.491  33.941  38.241  1.00  0.00    -0.237 OA
ATOM     72  O   UNL A   1      40.036  32.107  37.479  1.00  0.00    -0.237 OA
ATOM     73  O   UNL A   1      42.142  31.594  38.637  1.00  0.00    -0.744 OA
ENDBRANCH  67  70
ENDBRANCH  49  63
BRANCH  50  74
ATOM     74  C   UNL A   1      42.560  24.344  27.245  1.00  0.00     0.023 A 
ATOM     75  C   UNL A   1      43.220  24.589  26.025  1.00  0.00     0.012 A 
ATOM     76  C   UNL A   1      41.943  23.095  27.453  1.00  0.00     0.148 A 
ATOM     77  C   UNL A   1      43.241  23.621  25.021  1.00  0.00     0.002 A 
ATOM     78  C   UNL A   1      42.016  22.114  26.472  1.00  0.00     0.091 A 
ATOM     79  F   UNL A   1      41.312  22.885  28.618  1.00  0.00    -0.205 F 
ATOM     80  C   UNL A   1      42.650  22.381  25.248  1.00  0.00     0.022 A 
BRANCH  78  81
ATOM     81  S   UNL A   1      41.400  20.446  26.725  1.00  0.00     0.127 S 
ATOM     82  O   UNL A   1      42.138  20.032  27.915  1.00  0.00    -0.237 OA
ATOM     83  O   UNL A   1      39.971  20.680  26.936  1.00  0.00    -0.237 OA
ATOM     84  O   UNL A   1      41.715  19.718  25.502  1.00  0.00    -0.744 OA
ENDBRANCH  78  81
ENDBRANCH  50  74
BRANCH  62  85
ATOM     85  C   UNL A   1      47.005  25.972  32.390  1.00  0.00     0.023 A 
ATOM     86  C   UNL A   1      48.225  26.427  31.851  1.00  0.00     0.012 A 
ATOM     87  C   UNL A   1      47.019  25.004  33.414  1.00  0.00     0.148 A 
ATOM     88  C   UNL A   1      49.437  25.904  32.300  1.00  0.00     0.002 A 
ATOM     89  C   UNL A   1      48.233  24.524  33.891  1.00  0.00     0.091 A 
ATOM     90  F   UNL A   1      45.848  24.571  33.902  1.00  0.00    -0.205 F 
ATOM     91  C   UNL A   1      49.442  24.963  33.327  1.00  0.00     0.022 A 
BRANCH  89  92
ATOM     92  S   UNL A   1      48.341  23.383  35.274  1.00  0.00     0.127 S 
ATOM     93  O   UNL A   1      47.727  22.179  34.717  1.00  0.00    -0.237 OA
ATOM     94  O   UNL A   1      49.787  23.287  35.485  1.00  0.00    -0.237 OA
ATOM     95  O   UNL A   1      47.612  24.008  36.369  1.00  0.00    -0.744 OA
ENDBRANCH  89  92
ENDBRANCH  62  85
ENDBRANCH  36  37
ENDBRANCH  28  31
ENDBRANCH  26  27
ENDBRANCH  25  26
ENDBRANCH   1  25
TORSDOF 17
ENDMDL
