MODEL 1
REMARK VINA RESULT:     -12.5      0.000      0.000
REMARK SMILES CC1CCN(S(=O)(=O)c2ccc3c(ccn3CC(=O)NCCCCCCNC(=O)c3ccc(-c4c5nc(c(-c6cccc(S(=O)(=O)[O-])c6F)c6ccc([nH]6)c(-c6cccc(S(=O)(=O)[O-])c6F)c6nc(c(-c7cccc(S(=O)(=O)[O-])c7F)c7ccc4[nH]7)C=C6)C=C5)cc3)c2)CC1
REMARK SMILES IDX 23 1 22 2 21 3 20 4 18 5 19 6 17 8 16 9 9 10 10 11 93 12
REMARK SMILES IDX 11 13 13 14 12 15 14 16 15 17 6 18 7 19 8 20 5 21 1 22 2 23
REMARK SMILES IDX 3 24 95 25 4 26 94 27 24 28 25 29 26 30 27 31 28 32 29 34
REMARK SMILES IDX 30 35 31 36 92 37 32 38 91 39 33 40 34 41 35 42 85 43 36 44
REMARK SMILES IDX 90 45 84 46 86 47 37 48 89 49 83 50 82 51 38 53 70 54 50 55
REMARK SMILES IDX 69 56 51 57 54 58 68 59 87 60 52 61 53 62 67 64 88 65 55 66
REMARK SMILES IDX 39 67 40 68 48 69 41 70 43 71 49 72 42 73 44 74 45 75 46 76
REMARK SMILES IDX 47 77 71 78 72 79 80 80 73 81 75 82 81 83 74 84 76 85 77 86
REMARK SMILES IDX 78 87 79 88 56 89 57 90 65 91 58 92 60 93 66 94 59 95 61 96
REMARK SMILES IDX 62 97 63 98 64 99
REMARK H PARENT 20 7 27 33 86 52 54 63
REMARK Flexibility Score: inf
ROOT
ATOM      1  C   UNL A   1      33.117  28.243  26.432  1.00  0.00     0.002 C 
ENDROOT
BRANCH   1   2
ATOM      2  C   UNL A   1      31.772  28.806  25.958  1.00  0.00     0.021 C 
BRANCH   2   3
ATOM      3  C   UNL A   1      31.901  29.786  24.793  1.00  0.00     0.116 C 
BRANCH   3   4
ATOM      4  N   UNL A   1      30.641  30.446  24.509  1.00  0.00    -0.355 N 
ATOM      5  C   UNL A   1      29.795  30.267  23.452  1.00  0.00     0.239 C 
ATOM      6  O   UNL A   1      28.798  30.989  23.369  1.00  0.00    -0.273 OA
ATOM      7  H   UNL A   1      30.355  31.118  25.170  1.00  0.00     0.163 HD
BRANCH   5   8
ATOM      8  C   UNL A   1      30.039  29.159  22.447  1.00  0.00     0.222 C 
BRANCH   8   9
ATOM      9  N   UNL A   1      29.845  27.822  22.992  1.00  0.00    -0.338 N 
ATOM     10  C   UNL A   1      32.208  24.434  23.186  1.00  0.00     0.083 A 
ATOM     11  C   UNL A   1      32.767  25.538  22.543  1.00  0.00     0.024 A 
ATOM     12  C   UNL A   1      30.912  24.496  23.715  1.00  0.00     0.032 A 
ATOM     13  C   UNL A   1      32.100  26.760  22.511  1.00  0.00     0.028 A 
ATOM     14  C   UNL A   1      30.181  25.696  23.597  1.00  0.00     0.001 A 
ATOM     15  C   UNL A   1      30.789  26.810  23.009  1.00  0.00     0.049 A 
ATOM     16  C   UNL A   1      28.854  26.071  23.939  1.00  0.00     0.028 A 
ATOM     17  C   UNL A   1      28.678  27.385  23.567  1.00  0.00     0.087 A 
BRANCH  10  18
ATOM     18  S   UNL A   1      33.073  22.882  23.161  1.00  0.00     0.243 S 
ATOM     19  O   UNL A   1      34.385  23.147  22.619  1.00  0.00    -0.207 OA
ATOM     20  O   UNL A   1      32.200  21.913  22.518  1.00  0.00    -0.207 OA
BRANCH  18  21
ATOM     21  N   UNL A   1      33.222  22.388  24.801  1.00  0.00    -0.198 NA
ATOM     22  C   UNL A   1      34.098  18.248  24.179  1.00  0.00     0.008 C 
ATOM     23  C   UNL A   1      33.813  19.510  24.994  1.00  0.00    -0.012 C 
ATOM     24  C   UNL A   1      32.401  20.038  24.684  1.00  0.00     0.020 C 
ATOM     25  C   UNL A   1      34.908  20.559  24.745  1.00  0.00     0.020 C 
ATOM     26  C   UNL A   1      32.153  21.440  25.238  1.00  0.00     0.103 C 
ATOM     27  C   UNL A   1      34.530  21.916  25.320  1.00  0.00     0.103 C 
ENDBRANCH  18  21
ENDBRANCH  10  18
ENDBRANCH   8   9
ENDBRANCH   5   8
ENDBRANCH   3   4
ENDBRANCH   2   3
ENDBRANCH   1   2
BRANCH   1  28
ATOM     28  C   UNL A   1      33.722  28.949  27.653  1.00  0.00     0.002 C 
BRANCH  28  29
ATOM     29  C   UNL A   1      34.816  29.983  27.345  1.00  0.00     0.021 C 
BRANCH  29  30
ATOM     30  C   UNL A   1      34.385  31.435  27.552  1.00  0.00     0.116 C 
BRANCH  30  31
ATOM     31  N   UNL A   1      34.298  31.814  28.946  1.00  0.00    -0.352 N 
ATOM     32  C   UNL A   1      35.152  31.815  30.012  1.00  0.00     0.251 C 
ATOM     33  H   UNL A   1      33.405  32.154  29.184  1.00  0.00     0.163 HD
ATOM     34  O   UNL A   1      34.702  32.313  31.048  1.00  0.00    -0.269 OA
BRANCH  32  35
ATOM     35  C   UNL A   1      36.514  31.217  30.033  1.00  0.00     0.039 A 
ATOM     36  C   UNL A   1      37.709  31.888  29.770  1.00  0.00     0.014 A 
ATOM     37  C   UNL A   1      36.566  29.832  30.292  1.00  0.00     0.014 A 
ATOM     38  C   UNL A   1      38.903  31.180  29.665  1.00  0.00     0.010 A 
ATOM     39  C   UNL A   1      37.756  29.123  30.202  1.00  0.00     0.010 A 
ATOM     40  C   UNL A   1      38.916  29.792  29.834  1.00  0.00    -0.014 A 
BRANCH  40  41
ATOM     41  C   UNL A   1      40.195  29.096  29.731  1.00  0.00     0.031 A 
ATOM     42  C   UNL A   1      40.879  28.884  31.038  1.00  0.00     0.074 A 
ATOM     43  C   UNL A   1      40.684  28.594  28.578  1.00  0.00     0.049 A 
ATOM     44  N   UNL A   1      41.977  29.428  31.453  1.00  0.00    -0.248 NA
ATOM     45  C   UNL A   1      40.181  28.086  32.057  1.00  0.00     0.031 C 
ATOM     46  C   UNL A   1      40.005  28.491  27.284  1.00  0.00     0.029 A 
ATOM     47  N   UNL A   1      41.866  27.951  28.353  1.00  0.00    -0.354 N 
ATOM     48  C   UNL A   1      42.231  28.849  32.694  1.00  0.00     0.074 A 
ATOM     49  C   UNL A   1      41.020  28.177  33.090  1.00  0.00     0.031 C 
ATOM     50  C   UNL A   1      40.674  27.616  26.497  1.00  0.00     0.029 A 
ATOM     51  C   UNL A   1      41.893  27.209  27.172  1.00  0.00     0.049 A 
ATOM     52  H   UNL A   1      42.632  28.005  28.969  1.00  0.00     0.167 HD
ATOM     53  C   UNL A   1      43.492  28.747  33.194  1.00  0.00     0.034 A 
ATOM     54  C   UNL A   1      42.818  26.279  26.822  1.00  0.00     0.034 A 
ATOM     55  C   UNL A   1      44.422  29.600  32.512  1.00  0.00     0.049 A 
ATOM     56  C   UNL A   1      44.033  26.574  27.615  1.00  0.00     0.074 A 
ATOM     57  C   UNL A   1      44.531  30.958  32.298  1.00  0.00     0.029 A 
ATOM     58  N   UNL A   1      45.244  28.999  31.591  1.00  0.00    -0.354 N 
ATOM     59  N   UNL A   1      44.747  27.655  27.473  1.00  0.00    -0.248 NA
ATOM     60  C   UNL A   1      44.231  25.844  28.856  1.00  0.00     0.031 C 
ATOM     61  C   UNL A   1      45.030  31.077  30.969  1.00  0.00     0.029 A 
ATOM     62  C   UNL A   1      45.248  29.789  30.476  1.00  0.00     0.049 A 
ATOM     63  H   UNL A   1      45.740  28.157  31.713  1.00  0.00     0.167 HD
ATOM     64  C   UNL A   1      45.130  27.981  28.766  1.00  0.00     0.074 A 
ATOM     65  C   UNL A   1      44.876  26.779  29.556  1.00  0.00     0.031 C 
ATOM     66  C   UNL A   1      45.344  29.277  29.128  1.00  0.00     0.034 A 
BRANCH  53  67
ATOM     67  C   UNL A   1      43.966  27.591  34.036  1.00  0.00     0.023 A 
ATOM     68  C   UNL A   1      44.365  26.407  33.378  1.00  0.00     0.012 A 
ATOM     69  C   UNL A   1      43.761  27.521  35.432  1.00  0.00     0.148 A 
ATOM     70  C   UNL A   1      44.536  25.208  34.079  1.00  0.00     0.002 A 
ATOM     71  C   UNL A   1      44.004  26.348  36.134  1.00  0.00     0.091 A 
ATOM     72  F   UNL A   1      43.189  28.548  36.069  1.00  0.00    -0.205 F 
ATOM     73  C   UNL A   1      44.369  25.181  35.460  1.00  0.00     0.022 A 
BRANCH  71  74
ATOM     74  S   UNL A   1      43.827  26.269  37.919  1.00  0.00     0.127 S 
ATOM     75  O   UNL A   1      44.540  27.474  38.335  1.00  0.00    -0.237 OA
ATOM     76  O   UNL A   1      42.373  26.320  38.076  1.00  0.00    -0.237 OA
ATOM     77  O   UNL A   1      44.425  24.999  38.311  1.00  0.00    -0.744 OA
ENDBRANCH  71  74
ENDBRANCH  53  67
BRANCH  54  78
ATOM     78  C   UNL A   1      42.668  24.992  26.089  1.00  0.00     0.023 A 
ATOM     79  C   UNL A   1      43.651  24.621  25.142  1.00  0.00     0.012 A 
ATOM     80  C   UNL A   1      41.762  23.997  26.516  1.00  0.00     0.148 A 
ATOM     81  C   UNL A   1      43.768  23.300  24.693  1.00  0.00     0.002 A 
ATOM     82  C   UNL A   1      41.875  22.686  26.055  1.00  0.00     0.091 A 
ATOM     83  F   UNL A   1      40.852  24.304  27.447  1.00  0.00    -0.205 F 
ATOM     84  C   UNL A   1      42.888  22.329  25.158  1.00  0.00     0.022 A 
BRANCH  82  85
ATOM     85  S   UNL A   1      40.771  21.379  26.614  1.00  0.00     0.127 S 
ATOM     86  O   UNL A   1      40.802  21.554  28.066  1.00  0.00    -0.237 OA
ATOM     87  O   UNL A   1      39.510  21.754  25.979  1.00  0.00    -0.237 OA
ATOM     88  O   UNL A   1      41.368  20.133  26.151  1.00  0.00    -0.744 OA
ENDBRANCH  82  85
ENDBRANCH  54  78
BRANCH  66  89
ATOM     89  C   UNL A   1      45.430  30.321  28.048  1.00  0.00     0.023 A 
ATOM     90  C   UNL A   1      44.286  30.972  27.541  1.00  0.00     0.012 A 
ATOM     91  C   UNL A   1      46.704  30.824  27.742  1.00  0.00     0.148 A 
ATOM     92  C   UNL A   1      44.417  32.119  26.751  1.00  0.00     0.002 A 
ATOM     93  C   UNL A   1      46.827  31.987  26.995  1.00  0.00     0.091 A 
ATOM     94  F   UNL A   1      47.770  30.189  28.251  1.00  0.00    -0.205 F 
ATOM     95  C   UNL A   1      45.686  32.637  26.495  1.00  0.00     0.022 A 
BRANCH  93  96
ATOM     96  S   UNL A   1      48.414  32.782  26.741  1.00  0.00     0.127 S 
ATOM     97  O   UNL A   1      48.164  33.593  25.551  1.00  0.00    -0.237 OA
ATOM     98  O   UNL A   1      48.576  33.545  27.979  1.00  0.00    -0.237 OA
ATOM     99  O   UNL A   1      49.386  31.710  26.563  1.00  0.00    -0.744 OA
ENDBRANCH  93  96
ENDBRANCH  66  89
ENDBRANCH  40  41
ENDBRANCH  32  35
ENDBRANCH  30  31
ENDBRANCH  29  30
ENDBRANCH  28  29
ENDBRANCH   1  28
TORSDOF 19
ENDMDL
MODEL 2
REMARK VINA RESULT:     -12.3      2.756      9.156
REMARK SMILES CC1CCN(S(=O)(=O)c2ccc3c(ccn3CC(=O)NCCCCCCNC(=O)c3ccc(-c4c5nc(c(-c6cccc(S(=O)(=O)[O-])c6F)c6ccc([nH]6)c(-c6cccc(S(=O)(=O)[O-])c6F)c6nc(c(-c7cccc(S(=O)(=O)[O-])c7F)c7ccc4[nH]7)C=C6)C=C5)cc3)c2)CC1
REMARK SMILES IDX 23 1 22 2 21 3 20 4 18 5 19 6 17 8 16 9 9 10 10 11 93 12
REMARK SMILES IDX 11 13 13 14 12 15 14 16 15 17 6 18 7 19 8 20 5 21 1 22 2 23
REMARK SMILES IDX 3 24 95 25 4 26 94 27 24 28 25 29 26 30 27 31 28 32 29 34
REMARK SMILES IDX 30 35 31 36 92 37 32 38 91 39 33 40 34 41 35 42 85 43 36 44
REMARK SMILES IDX 90 45 84 46 86 47 37 48 89 49 83 50 82 51 38 53 70 54 50 55
REMARK SMILES IDX 69 56 51 57 54 58 68 59 87 60 52 61 53 62 67 64 88 65 55 66
REMARK SMILES IDX 39 67 40 68 48 69 41 70 43 71 49 72 42 73 44 74 45 75 46 76
REMARK SMILES IDX 47 77 71 78 72 79 80 80 73 81 75 82 81 83 74 84 76 85 77 86
REMARK SMILES IDX 78 87 79 88 56 89 57 90 65 91 58 92 60 93 66 94 59 95 61 96
REMARK SMILES IDX 62 97 63 98 64 99
REMARK H PARENT 20 7 27 33 86 52 54 63
REMARK Flexibility Score: inf
ROOT
ATOM      1  C   UNL A   1      36.940  23.159  25.536  1.00  0.00     0.002 C 
ENDROOT
BRANCH   1   2
ATOM      2  C   UNL A   1      36.396  21.927  24.804  1.00  0.00     0.021 C 
BRANCH   2   3
ATOM      3  C   UNL A   1      35.635  20.966  25.716  1.00  0.00     0.116 C 
BRANCH   3   4
ATOM      4  N   UNL A   1      35.058  19.865  24.968  1.00  0.00    -0.355 N 
ATOM      5  C   UNL A   1      33.755  19.649  24.620  1.00  0.00     0.239 C 
ATOM      6  O   UNL A   1      33.469  18.601  24.034  1.00  0.00    -0.273 OA
ATOM      7  H   UNL A   1      35.695  19.176  24.670  1.00  0.00     0.163 HD
BRANCH   5   8
ATOM      8  C   UNL A   1      32.701  20.706  24.883  1.00  0.00     0.222 C 
BRANCH   8   9
ATOM      9  N   UNL A   1      32.874  21.915  24.089  1.00  0.00    -0.338 N 
ATOM     10  C   UNL A   1      33.392  25.909  25.023  1.00  0.00     0.083 A 
ATOM     11  C   UNL A   1      33.236  25.041  26.102  1.00  0.00     0.024 A 
ATOM     12  C   UNL A   1      33.358  25.428  23.707  1.00  0.00     0.032 A 
ATOM     13  C   UNL A   1      33.158  23.664  25.906  1.00  0.00     0.028 A 
ATOM     14  C   UNL A   1      33.173  24.047  23.488  1.00  0.00     0.001 A 
ATOM     15  C   UNL A   1      33.088  23.187  24.588  1.00  0.00     0.049 A 
ATOM     16  C   UNL A   1      33.014  23.255  22.320  1.00  0.00     0.028 A 
ATOM     17  C   UNL A   1      32.844  21.948  22.718  1.00  0.00     0.087 A 
BRANCH  10  18
ATOM     18  S   UNL A   1      33.439  27.662  25.316  1.00  0.00     0.243 S 
ATOM     19  O   UNL A   1      33.679  28.289  24.038  1.00  0.00    -0.207 OA
ATOM     20  O   UNL A   1      34.354  27.889  26.423  1.00  0.00    -0.207 OA
BRANCH  18  21
ATOM     21  N   UNL A   1      31.876  28.097  25.882  1.00  0.00    -0.198 NA
ATOM     22  C   UNL A   1      30.186  29.470  22.199  1.00  0.00     0.008 C 
ATOM     23  C   UNL A   1      30.220  29.179  23.701  1.00  0.00    -0.012 C 
ATOM     24  C   UNL A   1      31.323  30.008  24.382  1.00  0.00     0.020 C 
ATOM     25  C   UNL A   1      30.375  27.669  23.942  1.00  0.00     0.020 C 
ATOM     26  C   UNL A   1      31.604  29.564  25.816  1.00  0.00     0.103 C 
ATOM     27  C   UNL A   1      30.680  27.360  25.402  1.00  0.00     0.103 C 
ENDBRANCH  18  21
ENDBRANCH  10  18
ENDBRANCH   8   9
ENDBRANCH   5   8
ENDBRANCH   3   4
ENDBRANCH   2   3
ENDBRANCH   1   2
BRANCH   1  28
ATOM     28  C   UNL A   1      38.358  23.004  26.104  1.00  0.00     0.002 C 
BRANCH  28  29
ATOM     29  C   UNL A   1      39.053  21.670  25.791  1.00  0.00     0.021 C 
BRANCH  29  30
ATOM     30  C   UNL A   1      40.420  21.503  26.455  1.00  0.00     0.116 C 
BRANCH  30  31
ATOM     31  N   UNL A   1      41.512  22.025  25.660  1.00  0.00    -0.352 N 
ATOM     32  C   UNL A   1      42.210  23.198  25.612  1.00  0.00     0.251 C 
ATOM     33  H   UNL A   1      41.827  21.376  24.990  1.00  0.00     0.163 HD
ATOM     34  O   UNL A   1      43.156  23.217  24.819  1.00  0.00    -0.269 OA
BRANCH  32  35
ATOM     35  C   UNL A   1      41.882  24.435  26.372  1.00  0.00     0.039 A 
ATOM     36  C   UNL A   1      41.062  25.474  25.933  1.00  0.00     0.014 A 
ATOM     37  C   UNL A   1      42.519  24.565  27.624  1.00  0.00     0.014 A 
ATOM     38  C   UNL A   1      40.964  26.650  26.672  1.00  0.00     0.010 A 
ATOM     39  C   UNL A   1      42.412  25.730  28.372  1.00  0.00     0.010 A 
ATOM     40  C   UNL A   1      41.677  26.794  27.866  1.00  0.00    -0.014 A 
BRANCH  40  41
ATOM     41  C   UNL A   1      41.528  28.038  28.615  1.00  0.00     0.031 A 
ATOM     42  C   UNL A   1      42.532  29.081  28.267  1.00  0.00     0.074 A 
ATOM     43  C   UNL A   1      40.518  28.277  29.477  1.00  0.00     0.049 A 
ATOM     44  N   UNL A   1      43.487  29.538  29.010  1.00  0.00    -0.248 NA
ATOM     45  C   UNL A   1      42.566  29.565  26.878  1.00  0.00     0.031 C 
ATOM     46  C   UNL A   1      39.324  27.460  29.713  1.00  0.00     0.029 A 
ATOM     47  N   UNL A   1      40.286  29.380  30.246  1.00  0.00    -0.354 N 
ATOM     48  C   UNL A   1      44.092  30.544  28.259  1.00  0.00     0.074 A 
ATOM     49  C   UNL A   1      43.609  30.397  26.910  1.00  0.00     0.031 C 
ATOM     50  C   UNL A   1      38.395  28.201  30.359  1.00  0.00     0.029 A 
ATOM     51  C   UNL A   1      38.973  29.487  30.705  1.00  0.00     0.049 A 
ATOM     52  H   UNL A   1      40.983  30.042  30.458  1.00  0.00     0.167 HD
ATOM     53  C   UNL A   1      44.747  31.582  28.845  1.00  0.00     0.034 A 
ATOM     54  C   UNL A   1      38.398  30.584  31.261  1.00  0.00     0.034 A 
ATOM     55  C   UNL A   1      45.057  31.326  30.222  1.00  0.00     0.049 A 
ATOM     56  C   UNL A   1      39.502  31.423  31.779  1.00  0.00     0.074 A 
ATOM     57  C   UNL A   1      45.790  30.375  30.901  1.00  0.00     0.029 A 
ATOM     58  N   UNL A   1      44.248  31.926  31.155  1.00  0.00    -0.354 N 
ATOM     59  N   UNL A   1      40.285  31.068  32.759  1.00  0.00    -0.248 NA
ATOM     60  C   UNL A   1      39.995  32.499  30.935  1.00  0.00     0.031 C 
ATOM     61  C   UNL A   1      45.047  30.126  32.092  1.00  0.00     0.029 A 
ATOM     62  C   UNL A   1      43.941  30.979  32.092  1.00  0.00     0.049 A 
ATOM     63  H   UNL A   1      43.946  32.863  31.150  1.00  0.00     0.167 HD
ATOM     64  C   UNL A   1      41.533  31.545  32.387  1.00  0.00     0.074 A 
ATOM     65  C   UNL A   1      41.273  32.505  31.316  1.00  0.00     0.031 C 
ATOM     66  C   UNL A   1      42.672  30.909  32.780  1.00  0.00     0.034 A 
BRANCH  53  67
ATOM     67  C   UNL A   1      44.762  32.983  28.290  1.00  0.00     0.023 A 
ATOM     68  C   UNL A   1      43.528  33.651  28.135  1.00  0.00     0.012 A 
ATOM     69  C   UNL A   1      45.889  33.546  27.652  1.00  0.00     0.148 A 
ATOM     70  C   UNL A   1      43.424  34.817  27.369  1.00  0.00     0.002 A 
ATOM     71  C   UNL A   1      45.796  34.743  26.955  1.00  0.00     0.091 A 
ATOM     72  F   UNL A   1      47.031  32.851  27.593  1.00  0.00    -0.205 F 
ATOM     73  C   UNL A   1      44.560  35.371  26.789  1.00  0.00     0.022 A 
BRANCH  71  74
ATOM     74  S   UNL A   1      47.238  35.510  26.210  1.00  0.00     0.127 S 
ATOM     75  O   UNL A   1      48.191  35.471  27.316  1.00  0.00    -0.237 OA
ATOM     76  O   UNL A   1      47.526  34.594  25.106  1.00  0.00    -0.237 OA
ATOM     77  O   UNL A   1      46.796  36.834  25.788  1.00  0.00    -0.744 OA
ENDBRANCH  71  74
ENDBRANCH  53  67
BRANCH  54  78
ATOM     78  C   UNL A   1      37.014  31.119  31.136  1.00  0.00     0.023 A 
ATOM     79  C   UNL A   1      36.360  31.609  32.290  1.00  0.00     0.012 A 
ATOM     80  C   UNL A   1      36.453  31.439  29.880  1.00  0.00     0.148 A 
ATOM     81  C   UNL A   1      35.235  32.437  32.194  1.00  0.00     0.002 A 
ATOM     82  C   UNL A   1      35.324  32.253  29.791  1.00  0.00     0.091 A 
ATOM     83  F   UNL A   1      37.076  31.032  28.769  1.00  0.00    -0.205 F 
ATOM     84  C   UNL A   1      34.724  32.770  30.944  1.00  0.00     0.022 A 
BRANCH  82  85
ATOM     85  S   UNL A   1      34.610  32.723  28.208  1.00  0.00     0.127 S 
ATOM     86  O   UNL A   1      33.510  33.598  28.616  1.00  0.00    -0.237 OA
ATOM     87  O   UNL A   1      35.727  33.406  27.561  1.00  0.00    -0.237 OA
ATOM     88  O   UNL A   1      34.181  31.478  27.583  1.00  0.00    -0.744 OA
ENDBRANCH  82  85
ENDBRANCH  54  78
BRANCH  66  89
ATOM     89  C   UNL A   1      42.575  29.851  33.845  1.00  0.00     0.023 A 
ATOM     90  C   UNL A   1      42.106  28.550  33.569  1.00  0.00     0.012 A 
ATOM     91  C   UNL A   1      43.212  30.110  35.068  1.00  0.00     0.148 A 
ATOM     92  C   UNL A   1      42.287  27.521  34.499  1.00  0.00     0.002 A 
ATOM     93  C   UNL A   1      43.430  29.077  35.968  1.00  0.00     0.091 A 
ATOM     94  F   UNL A   1      43.659  31.355  35.294  1.00  0.00    -0.205 F 
ATOM     95  C   UNL A   1      42.966  27.780  35.689  1.00  0.00     0.022 A 
BRANCH  93  96
ATOM     96  S   UNL A   1      44.410  29.307  37.452  1.00  0.00     0.127 S 
ATOM     97  O   UNL A   1      44.350  27.983  38.067  1.00  0.00    -0.237 OA
ATOM     98  O   UNL A   1      45.717  29.668  36.902  1.00  0.00    -0.237 OA
ATOM     99  O   UNL A   1      43.761  30.369  38.211  1.00  0.00    -0.744 OA
ENDBRANCH  93  96
ENDBRANCH  66  89
ENDBRANCH  40  41
ENDBRANCH  32  35
ENDBRANCH  30  31
ENDBRANCH  29  30
ENDBRANCH  28  29
ENDBRANCH   1  28
TORSDOF 19
ENDMDL
MODEL 3
REMARK VINA RESULT:     -11.9      1.308      1.688
REMARK SMILES CC1CCN(S(=O)(=O)c2ccc3c(ccn3CC(=O)NCCCCCCNC(=O)c3ccc(-c4c5nc(c(-c6cccc(S(=O)(=O)[O-])c6F)c6ccc([nH]6)c(-c6cccc(S(=O)(=O)[O-])c6F)c6nc(c(-c7cccc(S(=O)(=O)[O-])c7F)c7ccc4[nH]7)C=C6)C=C5)cc3)c2)CC1
REMARK SMILES IDX 23 1 22 2 21 3 20 4 18 5 19 6 17 8 16 9 9 10 10 11 93 12
REMARK SMILES IDX 11 13 13 14 12 15 14 16 15 17 6 18 7 19 8 20 5 21 1 22 2 23
REMARK SMILES IDX 3 24 95 25 4 26 94 27 24 28 25 29 26 30 27 31 28 32 29 34
REMARK SMILES IDX 30 35 31 36 92 37 32 38 91 39 33 40 34 41 35 42 85 43 36 44
REMARK SMILES IDX 90 45 84 46 86 47 37 48 89 49 83 50 82 51 38 53 70 54 50 55
REMARK SMILES IDX 69 56 51 57 54 58 68 59 87 60 52 61 53 62 67 64 88 65 55 66
REMARK SMILES IDX 39 67 40 68 48 69 41 70 43 71 49 72 42 73 44 74 45 75 46 76
REMARK SMILES IDX 47 77 71 78 72 79 80 80 73 81 75 82 81 83 74 84 76 85 77 86
REMARK SMILES IDX 78 87 79 88 56 89 57 90 65 91 58 92 60 93 66 94 59 95 61 96
REMARK SMILES IDX 62 97 63 98 64 99
REMARK H PARENT 20 7 27 33 86 52 54 63
REMARK Flexibility Score: inf
ROOT
ATOM      1  C   UNL A   1      33.539  29.575  27.074  1.00  0.00     0.002 C 
ENDROOT
BRANCH   1   2
ATOM      2  C   UNL A   1      32.151  29.276  26.498  1.00  0.00     0.021 C 
BRANCH   2   3
ATOM      3  C   UNL A   1      32.036  29.575  25.004  1.00  0.00     0.116 C 
BRANCH   3   4
ATOM      4  N   UNL A   1      30.793  30.254  24.689  1.00  0.00    -0.355 N 
ATOM      5  C   UNL A   1      29.993  30.120  23.590  1.00  0.00     0.239 C 
ATOM      6  O   UNL A   1      29.005  30.852  23.491  1.00  0.00    -0.273 OA
ATOM      7  H   UNL A   1      30.482  30.901  25.363  1.00  0.00     0.163 HD
BRANCH   5   8
ATOM      8  C   UNL A   1      30.276  29.050  22.556  1.00  0.00     0.222 C 
BRANCH   8   9
ATOM      9  N   UNL A   1      30.045  27.695  23.038  1.00  0.00    -0.338 N 
ATOM     10  C   UNL A   1      32.372  24.281  23.223  1.00  0.00     0.083 A 
ATOM     11  C   UNL A   1      32.971  25.403  22.652  1.00  0.00     0.024 A 
ATOM     12  C   UNL A   1      31.051  24.335  23.687  1.00  0.00     0.032 A 
ATOM     13  C   UNL A   1      32.315  26.632  22.633  1.00  0.00     0.028 A 
ATOM     14  C   UNL A   1      30.335  25.545  23.577  1.00  0.00     0.001 A 
ATOM     15  C   UNL A   1      30.980  26.675  23.065  1.00  0.00     0.049 A 
ATOM     16  C   UNL A   1      28.995  25.918  23.865  1.00  0.00     0.028 A 
ATOM     17  C   UNL A   1      28.848  27.246  23.535  1.00  0.00     0.087 A 
BRANCH  10  18
ATOM     18  S   UNL A   1      33.227  22.723  23.182  1.00  0.00     0.243 S 
ATOM     19  O   UNL A   1      34.568  22.998  22.723  1.00  0.00    -0.207 OA
ATOM     20  O   UNL A   1      32.384  21.788  22.454  1.00  0.00    -0.207 OA
BRANCH  18  21
ATOM     21  N   UNL A   1      33.282  22.163  24.806  1.00  0.00    -0.198 NA
ATOM     22  C   UNL A   1      34.160  18.043  24.067  1.00  0.00     0.008 C 
ATOM     23  C   UNL A   1      33.840  19.275  24.915  1.00  0.00    -0.012 C 
ATOM     24  C   UNL A   1      32.451  19.828  24.551  1.00  0.00     0.020 C 
ATOM     25  C   UNL A   1      34.956  20.321  24.768  1.00  0.00     0.020 C 
ATOM     26  C   UNL A   1      32.184  21.209  25.146  1.00  0.00     0.103 C 
ATOM     27  C   UNL A   1      34.557  21.659  25.376  1.00  0.00     0.103 C 
ENDBRANCH  18  21
ENDBRANCH  10  18
ENDBRANCH   8   9
ENDBRANCH   5   8
ENDBRANCH   3   4
ENDBRANCH   2   3
ENDBRANCH   1   2
BRANCH   1  28
ATOM     28  C   UNL A   1      33.901  31.064  27.158  1.00  0.00     0.002 C 
BRANCH  28  29
ATOM     29  C   UNL A   1      34.812  31.458  28.331  1.00  0.00     0.021 C 
BRANCH  29  30
ATOM     30  C   UNL A   1      34.361  32.709  29.085  1.00  0.00     0.116 C 
BRANCH  30  31
ATOM     31  N   UNL A   1      34.441  32.570  30.525  1.00  0.00    -0.352 N 
ATOM     32  C   UNL A   1      35.337  32.034  31.405  1.00  0.00     0.251 C 
ATOM     33  H   UNL A   1      33.658  32.957  30.979  1.00  0.00     0.163 HD
ATOM     34  O   UNL A   1      35.067  32.199  32.598  1.00  0.00    -0.269 OA
BRANCH  32  35
ATOM     35  C   UNL A   1      36.537  31.233  31.041  1.00  0.00     0.039 A 
ATOM     36  C   UNL A   1      36.597  29.842  30.943  1.00  0.00     0.014 A 
ATOM     37  C   UNL A   1      37.721  31.971  30.838  1.00  0.00     0.014 A 
ATOM     38  C   UNL A   1      37.820  29.205  30.752  1.00  0.00     0.010 A 
ATOM     39  C   UNL A   1      38.941  31.341  30.633  1.00  0.00     0.010 A 
ATOM     40  C   UNL A   1      38.996  29.953  30.644  1.00  0.00    -0.014 A 
BRANCH  40  41
ATOM     41  C   UNL A   1      40.251  29.241  30.427  1.00  0.00     0.031 A 
ATOM     42  C   UNL A   1      41.012  28.955  31.675  1.00  0.00     0.074 A 
ATOM     43  C   UNL A   1      40.655  28.786  29.223  1.00  0.00     0.049 A 
ATOM     44  N   UNL A   1      42.145  29.459  32.043  1.00  0.00    -0.248 NA
ATOM     45  C   UNL A   1      40.364  28.121  32.698  1.00  0.00     0.031 C 
ATOM     46  C   UNL A   1      39.894  28.757  27.971  1.00  0.00     0.029 A 
ATOM     47  N   UNL A   1      41.807  28.134  28.892  1.00  0.00    -0.354 N 
ATOM     48  C   UNL A   1      42.465  28.818  33.238  1.00  0.00     0.074 A 
ATOM     49  C   UNL A   1      41.269  28.149  33.679  1.00  0.00     0.031 C 
ATOM     50  C   UNL A   1      40.493  27.909  27.103  1.00  0.00     0.029 A 
ATOM     51  C   UNL A   1      41.744  27.450  27.678  1.00  0.00     0.049 A 
ATOM     52  H   UNL A   1      42.612  28.145  29.459  1.00  0.00     0.167 HD
ATOM     53  C   UNL A   1      43.753  28.670  33.650  1.00  0.00     0.034 A 
ATOM     54  C   UNL A   1      42.626  26.521  27.227  1.00  0.00     0.034 A 
ATOM     55  C   UNL A   1      44.655  29.538  32.949  1.00  0.00     0.049 A 
ATOM     56  C   UNL A   1      43.895  26.756  27.952  1.00  0.00     0.074 A 
ATOM     57  C   UNL A   1      44.778  30.903  32.792  1.00  0.00     0.029 A 
ATOM     58  N   UNL A   1      45.405  28.968  31.951  1.00  0.00    -0.354 N 
ATOM     59  N   UNL A   1      44.620  27.831  27.816  1.00  0.00    -0.248 NA
ATOM     60  C   UNL A   1      44.156  25.965  29.143  1.00  0.00     0.031 C 
ATOM     61  C   UNL A   1      45.194  31.077  31.441  1.00  0.00     0.029 A 
ATOM     62  C   UNL A   1      45.354  29.809  30.875  1.00  0.00     0.049 A 
ATOM     63  H   UNL A   1      45.890  28.113  32.001  1.00  0.00     0.167 HD
ATOM     64  C   UNL A   1      45.090  28.088  29.094  1.00  0.00     0.074 A 
ATOM     65  C   UNL A   1      44.863  26.853  29.843  1.00  0.00     0.031 C 
ATOM     66  C   UNL A   1      45.353  29.361  29.502  1.00  0.00     0.034 A 
BRANCH  53  67
ATOM     67  C   UNL A   1      44.257  27.467  34.404  1.00  0.00     0.023 A 
ATOM     68  C   UNL A   1      45.145  27.679  35.480  1.00  0.00     0.012 A 
ATOM     69  C   UNL A   1      44.126  26.145  33.922  1.00  0.00     0.148 A 
ATOM     70  C   UNL A   1      45.878  26.625  36.038  1.00  0.00     0.002 A 
ATOM     71  C   UNL A   1      44.798  25.091  34.526  1.00  0.00     0.091 A 
ATOM     72  F   UNL A   1      43.462  25.920  32.782  1.00  0.00    -0.205 F 
ATOM     73  C   UNL A   1      45.695  25.329  35.570  1.00  0.00     0.022 A 
BRANCH  71  74
ATOM     74  S   UNL A   1      44.576  23.397  33.974  1.00  0.00     0.127 S 
ATOM     75  O   UNL A   1      45.591  22.701  34.761  1.00  0.00    -0.237 OA
ATOM     76  O   UNL A   1      43.192  23.134  34.369  1.00  0.00    -0.237 OA
ATOM     77  O   UNL A   1      44.790  23.430  32.533  1.00  0.00    -0.744 OA
ENDBRANCH  71  74
ENDBRANCH  53  67
BRANCH  54  78
ATOM     78  C   UNL A   1      42.403  25.274  26.445  1.00  0.00     0.023 A 
ATOM     79  C   UNL A   1      43.335  24.913  25.444  1.00  0.00     0.012 A 
ATOM     80  C   UNL A   1      41.481  24.290  26.866  1.00  0.00     0.148 A 
ATOM     81  C   UNL A   1      43.389  23.610  24.934  1.00  0.00     0.002 A 
ATOM     82  C   UNL A   1      41.531  22.998  26.344  1.00  0.00     0.091 A 
ATOM     83  F   UNL A   1      40.619  24.584  27.846  1.00  0.00    -0.205 F 
ATOM     84  C   UNL A   1      42.496  22.648  25.393  1.00  0.00     0.022 A 
BRANCH  82  85
ATOM     85  S   UNL A   1      40.407  21.704  26.892  1.00  0.00     0.127 S 
ATOM     86  O   UNL A   1      40.857  20.554  26.106  1.00  0.00    -0.237 OA
ATOM     87  O   UNL A   1      40.707  21.625  28.319  1.00  0.00    -0.237 OA
ATOM     88  O   UNL A   1      39.069  22.172  26.550  1.00  0.00    -0.744 OA
ENDBRANCH  82  85
ENDBRANCH  54  78
BRANCH  66  89
ATOM     89  C   UNL A   1      45.392  30.454  28.469  1.00  0.00     0.023 A 
ATOM     90  C   UNL A   1      44.231  31.143  28.061  1.00  0.00     0.012 A 
ATOM     91  C   UNL A   1      46.653  30.954  28.110  1.00  0.00     0.148 A 
ATOM     92  C   UNL A   1      44.333  32.324  27.319  1.00  0.00     0.002 A 
ATOM     93  C   UNL A   1      46.751  32.150  27.413  1.00  0.00     0.091 A 
ATOM     94  F   UNL A   1      47.738  30.283  28.525  1.00  0.00    -0.205 F 
ATOM     95  C   UNL A   1      45.592  32.837  27.012  1.00  0.00     0.022 A 
BRANCH  93  96
ATOM     96  S   UNL A   1      48.332  32.935  27.101  1.00  0.00     0.127 S 
ATOM     97  O   UNL A   1      48.784  33.263  28.452  1.00  0.00    -0.237 OA
ATOM     98  O   UNL A   1      49.083  31.863  26.448  1.00  0.00    -0.237 OA
ATOM     99  O   UNL A   1      48.057  34.085  26.247  1.00  0.00    -0.744 OA
ENDBRANCH  93  96
ENDBRANCH  66  89
ENDBRANCH  40  41
ENDBRANCH  32  35
ENDBRANCH  30  31
ENDBRANCH  29  30
ENDBRANCH  28  29
ENDBRANCH   1  28
TORSDOF 19
ENDMDL
