MODEL 1
REMARK VINA RESULT:     -12.3      0.000      0.000
REMARK SMILES Cc1c(Cl)cc2c(c1C)O[C@H](C(F)(F)F)C(C(=O)NCCCCCCNC(=O)c1ccc(-c3c4nc(c(-c5cccc(S(=O)(=O)[O-])c5F)c5ccc([nH]5)c(-c5cccc(S(=O)(=O)[O-])c5F)c5nc(c(-c6cccc(S(=O)(=O)[O-])c6F)c6ccc3[nH]6)C=C5)C=C4)cc1)=C2
REMARK SMILES IDX 23 1 22 2 21 3 20 4 19 5 17 6 18 7 16 9 1 10 2 11 3 12 8 13
REMARK SMILES IDX 4 14 5 15 7 16 9 17 6 18 10 19 92 20 11 21 12 22 13 23 14 24
REMARK SMILES IDX 15 25 24 26 25 27 26 28 27 29 28 31 29 32 30 33 91 34 31 35
REMARK SMILES IDX 90 36 32 37 33 38 34 39 84 40 35 41 89 42 83 43 85 44 36 45
REMARK SMILES IDX 88 46 82 47 81 48 37 50 69 51 49 52 68 53 50 54 53 55 67 56
REMARK SMILES IDX 86 57 51 58 52 59 66 61 87 62 54 63 38 64 39 65 47 66 40 67
REMARK SMILES IDX 42 68 48 69 41 70 43 71 44 72 45 73 46 74 70 75 71 76 79 77
REMARK SMILES IDX 72 78 74 79 80 80 73 81 75 82 76 83 77 84 78 85 55 86 56 87
REMARK SMILES IDX 64 88 57 89 59 90 65 91 58 92 60 93 61 94 62 95 63 96
REMARK H PARENT 19 8 26 30 85 49 53 60
REMARK Flexibility Score: inf
ROOT
ATOM      1  C   UNL A   1      31.621  29.337  24.386  1.00  0.00     0.002 C 
ENDROOT
BRANCH   1   2
ATOM      2  C   UNL A   1      30.202  29.044  23.878  1.00  0.00     0.002 C 
BRANCH   2   3
ATOM      3  C   UNL A   1      30.121  28.007  22.755  1.00  0.00     0.021 C 
BRANCH   3   4
ATOM      4  C   UNL A   1      30.650  26.636  23.160  1.00  0.00     0.116 C 
BRANCH   4   5
ATOM      5  N   UNL A   1      30.226  26.272  24.501  1.00  0.00    -0.352 N 
ATOM      6  C   UNL A   1      30.605  25.392  25.457  1.00  0.00     0.251 C 
ATOM      7  O   UNL A   1      29.952  25.433  26.505  1.00  0.00    -0.270 OA
ATOM      8  H   UNL A   1      29.454  26.810  24.794  1.00  0.00     0.163 HD
BRANCH   6   9
ATOM      9  C   UNL A   1      31.721  24.409  25.324  1.00  0.00     0.067 C 
ATOM     10  C   UNL A   1      37.381  21.137  25.247  1.00  0.00     0.046 C 
ATOM     11  C   UNL A   1      36.243  22.115  25.374  1.00  0.00    -0.026 A 
ATOM     12  C   UNL A   1      36.450  23.470  25.704  1.00  0.00     0.045 A 
ATOM     13  C   UNL A   1      34.918  21.668  25.167  1.00  0.00    -0.004 A 
ATOM     14  Cl  UNL A   1      38.026  24.119  26.006  1.00  0.00    -0.084 Cl
ATOM     15  C   UNL A   1      35.377  24.366  25.811  1.00  0.00     0.032 A 
ATOM     16  C   UNL A   1      33.858  22.590  25.269  1.00  0.00     0.131 A 
ATOM     17  C   UNL A   1      34.572  20.239  24.817  1.00  0.00     0.049 C 
ATOM     18  C   UNL A   1      34.074  23.929  25.589  1.00  0.00     0.019 A 
ATOM     19  O   UNL A   1      32.601  22.090  25.088  1.00  0.00    -0.475 OA
ATOM     20  C   UNL A   1      32.936  24.832  25.722  1.00  0.00     0.025 C 
ATOM     21  C   UNL A   1      31.558  23.032  24.748  1.00  0.00     0.314 C 
BRANCH  21  22
ATOM     22  C   UNL A   1      31.361  23.045  23.221  1.00  0.00     0.429 C 
ATOM     23  F   UNL A   1      32.233  23.899  22.636  1.00  0.00    -0.167 F 
ATOM     24  F   UNL A   1      31.574  21.832  22.661  1.00  0.00    -0.167 F 
ATOM     25  F   UNL A   1      30.112  23.427  22.866  1.00  0.00    -0.167 F 
ENDBRANCH  21  22
ENDBRANCH   6   9
ENDBRANCH   4   5
ENDBRANCH   3   4
ENDBRANCH   2   3
ENDBRANCH   1   2
BRANCH   1  26
ATOM     26  C   UNL A   1      31.864  29.015  25.863  1.00  0.00     0.021 C 
BRANCH  26  27
ATOM     27  C   UNL A   1      33.156  29.596  26.428  1.00  0.00     0.116 C 
BRANCH  27  28
ATOM     28  N   UNL A   1      33.039  31.026  26.670  1.00  0.00    -0.352 N 
ATOM     29  C   UNL A   1      33.793  31.826  27.487  1.00  0.00     0.251 C 
ATOM     30  H   UNL A   1      32.317  31.481  26.178  1.00  0.00     0.163 HD
ATOM     31  O   UNL A   1      33.415  32.966  27.753  1.00  0.00    -0.269 OA
BRANCH  29  32
ATOM     32  C   UNL A   1      35.054  31.307  28.051  1.00  0.00     0.039 A 
ATOM     33  C   UNL A   1      36.191  32.116  28.030  1.00  0.00     0.014 A 
ATOM     34  C   UNL A   1      35.107  30.021  28.596  1.00  0.00     0.014 A 
ATOM     35  C   UNL A   1      37.376  31.648  28.599  1.00  0.00     0.010 A 
ATOM     36  C   UNL A   1      36.267  29.586  29.227  1.00  0.00     0.010 A 
ATOM     37  C   UNL A   1      37.417  30.389  29.222  1.00  0.00    -0.014 A 
BRANCH  37  38
ATOM     38  C   UNL A   1      38.662  29.890  29.856  1.00  0.00     0.031 A 
ATOM     39  C   UNL A   1      39.073  30.405  31.208  1.00  0.00     0.074 A 
ATOM     40  C   UNL A   1      39.442  29.014  29.193  1.00  0.00     0.049 A 
ATOM     41  N   UNL A   1      40.133  30.106  31.914  1.00  0.00    -0.248 NA
ATOM     42  C   UNL A   1      38.192  31.398  31.846  1.00  0.00     0.031 C 
ATOM     43  C   UNL A   1      39.173  28.489  27.853  1.00  0.00     0.029 A 
ATOM     44  N   UNL A   1      40.625  28.417  29.552  1.00  0.00    -0.354 N 
ATOM     45  C   UNL A   1      40.054  30.881  33.064  1.00  0.00     0.074 A 
ATOM     46  C   UNL A   1      38.871  31.701  32.943  1.00  0.00     0.031 C 
ATOM     47  C   UNL A   1      40.150  27.633  27.512  1.00  0.00     0.029 A 
ATOM     48  C   UNL A   1      41.129  27.569  28.594  1.00  0.00     0.049 A 
ATOM     49  H   UNL A   1      41.071  28.579  30.415  1.00  0.00     0.167 HD
ATOM     50  C   UNL A   1      40.869  30.878  34.144  1.00  0.00     0.034 A 
ATOM     51  C   UNL A   1      42.252  26.823  28.589  1.00  0.00     0.034 A 
ATOM     52  C   UNL A   1      42.022  30.030  34.275  1.00  0.00     0.049 A 
ATOM     53  C   UNL A   1      43.141  26.841  29.804  1.00  0.00     0.074 A 
ATOM     54  C   UNL A   1      42.881  29.914  35.353  1.00  0.00     0.029 A 
ATOM     55  N   UNL A   1      42.477  29.154  33.302  1.00  0.00    -0.354 N 
ATOM     56  N   UNL A   1      42.978  27.480  30.937  1.00  0.00    -0.248 NA
ATOM     57  C   UNL A   1      44.354  26.010  29.755  1.00  0.00     0.031 C 
ATOM     58  C   UNL A   1      43.869  28.981  35.023  1.00  0.00     0.029 A 
ATOM     59  C   UNL A   1      43.609  28.497  33.751  1.00  0.00     0.049 A 
ATOM     60  H   UNL A   1      42.056  29.018  32.423  1.00  0.00     0.167 HD
ATOM     61  C   UNL A   1      44.046  27.107  31.745  1.00  0.00     0.074 A 
ATOM     62  C   UNL A   1      44.837  26.164  30.981  1.00  0.00     0.031 C 
ATOM     63  C   UNL A   1      44.355  27.520  32.999  1.00  0.00     0.034 A 
BRANCH  50  64
ATOM     64  C   UNL A   1      40.506  31.764  35.307  1.00  0.00     0.023 A 
ATOM     65  C   UNL A   1      41.173  32.996  35.467  1.00  0.00     0.012 A 
ATOM     66  C   UNL A   1      39.448  31.432  36.176  1.00  0.00     0.148 A 
ATOM     67  C   UNL A   1      40.810  33.874  36.487  1.00  0.00     0.002 A 
ATOM     68  C   UNL A   1      39.060  32.334  37.160  1.00  0.00     0.091 A 
ATOM     69  F   UNL A   1      38.838  30.249  36.018  1.00  0.00    -0.205 F 
ATOM     70  C   UNL A   1      39.745  33.549  37.323  1.00  0.00     0.022 A 
BRANCH  68  71
ATOM     71  S   UNL A   1      37.649  32.055  38.236  1.00  0.00     0.127 S 
ATOM     72  O   UNL A   1      37.372  30.638  37.998  1.00  0.00    -0.237 OA
ATOM     73  O   UNL A   1      38.206  32.354  39.555  1.00  0.00    -0.237 OA
ATOM     74  O   UNL A   1      36.610  32.972  37.788  1.00  0.00    -0.744 OA
ENDBRANCH  68  71
ENDBRANCH  50  64
BRANCH  51  75
ATOM     75  C   UNL A   1      42.550  25.931  27.431  1.00  0.00     0.023 A 
ATOM     76  C   UNL A   1      43.296  26.438  26.349  1.00  0.00     0.012 A 
ATOM     77  C   UNL A   1      42.137  24.585  27.408  1.00  0.00     0.148 A 
ATOM     78  C   UNL A   1      43.602  25.630  25.253  1.00  0.00     0.002 A 
ATOM     79  C   UNL A   1      42.494  23.769  26.340  1.00  0.00     0.091 A 
ATOM     80  F   UNL A   1      41.416  24.123  28.439  1.00  0.00    -0.205 F 
ATOM     81  C   UNL A   1      43.212  24.293  25.253  1.00  0.00     0.022 A 
BRANCH  79  82
ATOM     82  S   UNL A   1      42.156  22.004  26.317  1.00  0.00     0.127 S 
ATOM     83  O   UNL A   1      42.585  21.600  27.653  1.00  0.00    -0.237 OA
ATOM     84  O   UNL A   1      40.709  21.978  26.100  1.00  0.00    -0.237 OA
ATOM     85  O   UNL A   1      42.940  21.468  25.213  1.00  0.00    -0.744 OA
ENDBRANCH  79  82
ENDBRANCH  51  75
BRANCH  63  86
ATOM     86  C   UNL A   1      45.590  26.953  33.649  1.00  0.00     0.023 A 
ATOM     87  C   UNL A   1      46.799  27.675  33.591  1.00  0.00     0.012 A 
ATOM     88  C   UNL A   1      45.524  25.775  34.419  1.00  0.00     0.148 A 
ATOM     89  C   UNL A   1      47.928  27.222  34.271  1.00  0.00     0.002 A 
ATOM     90  C   UNL A   1      46.638  25.359  35.138  1.00  0.00     0.091 A 
ATOM     91  F   UNL A   1      44.367  25.096  34.450  1.00  0.00    -0.205 F 
ATOM     92  C   UNL A   1      47.843  26.074  35.056  1.00  0.00     0.022 A 
BRANCH  90  93
ATOM     93  S   UNL A   1      46.596  23.958  36.263  1.00  0.00     0.127 S 
ATOM     94  O   UNL A   1      46.371  22.844  35.342  1.00  0.00    -0.237 OA
ATOM     95  O   UNL A   1      47.933  23.999  36.855  1.00  0.00    -0.237 OA
ATOM     96  O   UNL A   1      45.509  24.220  37.196  1.00  0.00    -0.744 OA
ENDBRANCH  90  93
ENDBRANCH  63  86
ENDBRANCH  37  38
ENDBRANCH  29  32
ENDBRANCH  27  28
ENDBRANCH  26  27
ENDBRANCH   1  26
TORSDOF 17
ENDMDL
MODEL 2
REMARK VINA RESULT:     -12.3      2.356      8.010
REMARK SMILES Cc1c(Cl)cc2c(c1C)O[C@H](C(F)(F)F)C(C(=O)NCCCCCCNC(=O)c1ccc(-c3c4nc(c(-c5cccc(S(=O)(=O)[O-])c5F)c5ccc([nH]5)c(-c5cccc(S(=O)(=O)[O-])c5F)c5nc(c(-c6cccc(S(=O)(=O)[O-])c6F)c6ccc3[nH]6)C=C5)C=C4)cc1)=C2
REMARK SMILES IDX 23 1 22 2 21 3 20 4 19 5 17 6 18 7 16 9 1 10 2 11 3 12 8 13
REMARK SMILES IDX 4 14 5 15 7 16 9 17 6 18 10 19 92 20 11 21 12 22 13 23 14 24
REMARK SMILES IDX 15 25 24 26 25 27 26 28 27 29 28 31 29 32 30 33 91 34 31 35
REMARK SMILES IDX 90 36 32 37 33 38 34 39 84 40 35 41 89 42 83 43 85 44 36 45
REMARK SMILES IDX 88 46 82 47 81 48 37 50 69 51 49 52 68 53 50 54 53 55 67 56
REMARK SMILES IDX 86 57 51 58 52 59 66 61 87 62 54 63 38 64 39 65 47 66 40 67
REMARK SMILES IDX 42 68 48 69 41 70 43 71 44 72 45 73 46 74 70 75 71 76 79 77
REMARK SMILES IDX 72 78 74 79 80 80 73 81 75 82 76 83 77 84 78 85 55 86 56 87
REMARK SMILES IDX 64 88 57 89 59 90 65 91 58 92 60 93 61 94 62 95 63 96
REMARK H PARENT 19 8 26 30 85 49 53 60
REMARK Flexibility Score: inf
ROOT
ATOM      1  C   UNL A   1      31.765  30.353  26.215  1.00  0.00     0.002 C 
ENDROOT
BRANCH   1   2
ATOM      2  C   UNL A   1      33.199  29.804  26.214  1.00  0.00     0.002 C 
BRANCH   2   3
ATOM      3  C   UNL A   1      33.348  28.390  25.648  1.00  0.00     0.021 C 
BRANCH   3   4
ATOM      4  C   UNL A   1      32.182  27.968  24.761  1.00  0.00     0.116 C 
BRANCH   4   5
ATOM      5  N   UNL A   1      31.184  27.219  25.506  1.00  0.00    -0.352 N 
ATOM      6  C   UNL A   1      31.008  25.942  25.920  1.00  0.00     0.251 C 
ATOM      7  O   UNL A   1      29.981  25.734  26.574  1.00  0.00    -0.270 OA
ATOM      8  H   UNL A   1      30.434  27.794  25.783  1.00  0.00     0.163 HD
BRANCH   6   9
ATOM      9  C   UNL A   1      31.945  24.813  25.643  1.00  0.00     0.067 C 
ATOM     10  C   UNL A   1      36.993  20.709  24.986  1.00  0.00     0.046 C 
ATOM     11  C   UNL A   1      36.033  21.838  25.258  1.00  0.00    -0.026 A 
ATOM     12  C   UNL A   1      36.469  23.104  25.701  1.00  0.00     0.045 A 
ATOM     13  C   UNL A   1      34.647  21.630  25.076  1.00  0.00    -0.004 A 
ATOM     14  Cl  UNL A   1      38.139  23.462  25.984  1.00  0.00    -0.084 Cl
ATOM     15  C   UNL A   1      35.560  24.143  25.943  1.00  0.00     0.032 A 
ATOM     16  C   UNL A   1      33.755  22.693  25.315  1.00  0.00     0.131 A 
ATOM     17  C   UNL A   1      34.062  20.316  24.613  1.00  0.00     0.049 C 
ATOM     18  C   UNL A   1      34.197  23.942  25.746  1.00  0.00     0.019 A 
ATOM     19  O   UNL A   1      32.428  22.419  25.151  1.00  0.00    -0.475 OA
ATOM     20  C   UNL A   1      33.225  24.997  26.017  1.00  0.00     0.025 C 
ATOM     21  C   UNL A   1      31.541  23.543  24.951  1.00  0.00     0.314 C 
BRANCH  21  22
ATOM     22  C   UNL A   1      31.297  23.739  23.443  1.00  0.00     0.429 C 
ATOM     23  F   UNL A   1      31.564  22.597  22.766  1.00  0.00    -0.167 F 
ATOM     24  F   UNL A   1      30.013  24.062  23.164  1.00  0.00    -0.167 F 
ATOM     25  F   UNL A   1      32.070  24.718  22.919  1.00  0.00    -0.167 F 
ENDBRANCH  21  22
ENDBRANCH   6   9
ENDBRANCH   4   5
ENDBRANCH   3   4
ENDBRANCH   2   3
ENDBRANCH   1   2
BRANCH   1  26
ATOM     26  C   UNL A   1      31.636  31.844  26.539  1.00  0.00     0.021 C 
BRANCH  26  27
ATOM     27  C   UNL A   1      32.835  32.431  27.276  1.00  0.00     0.116 C 
BRANCH  27  28
ATOM     28  N   UNL A   1      32.632  33.835  27.596  1.00  0.00    -0.352 N 
ATOM     29  C   UNL A   1      33.180  34.577  28.609  1.00  0.00     0.251 C 
ATOM     30  H   UNL A   1      32.014  34.320  27.001  1.00  0.00     0.163 HD
ATOM     31  O   UNL A   1      32.725  35.688  28.876  1.00  0.00    -0.269 OA
BRANCH  29  32
ATOM     32  C   UNL A   1      34.313  34.029  29.379  1.00  0.00     0.039 A 
ATOM     33  C   UNL A   1      34.055  33.215  30.482  1.00  0.00     0.014 A 
ATOM     34  C   UNL A   1      35.628  34.326  29.008  1.00  0.00     0.014 A 
ATOM     35  C   UNL A   1      35.121  32.658  31.189  1.00  0.00     0.010 A 
ATOM     36  C   UNL A   1      36.687  33.712  29.669  1.00  0.00     0.010 A 
ATOM     37  C   UNL A   1      36.444  32.885  30.775  1.00  0.00    -0.014 A 
BRANCH  37  38
ATOM     38  C   UNL A   1      37.588  32.278  31.500  1.00  0.00     0.031 A 
ATOM     39  C   UNL A   1      38.355  31.145  30.876  1.00  0.00     0.074 A 
ATOM     40  C   UNL A   1      37.900  32.714  32.736  1.00  0.00     0.049 A 
ATOM     41  N   UNL A   1      39.367  30.473  31.359  1.00  0.00    -0.248 NA
ATOM     42  C   UNL A   1      37.921  30.693  29.543  1.00  0.00     0.031 C 
ATOM     43  C   UNL A   1      37.190  33.767  33.464  1.00  0.00     0.029 A 
ATOM     44  N   UNL A   1      38.889  32.320  33.603  1.00  0.00    -0.354 N 
ATOM     45  C   UNL A   1      39.679  29.515  30.403  1.00  0.00     0.074 A 
ATOM     46  C   UNL A   1      38.719  29.657  29.332  1.00  0.00     0.031 C 
ATOM     47  C   UNL A   1      37.779  33.950  34.657  1.00  0.00     0.029 A 
ATOM     48  C   UNL A   1      38.888  33.010  34.792  1.00  0.00     0.049 A 
ATOM     49  H   UNL A   1      39.538  31.610  33.392  1.00  0.00     0.167 HD
ATOM     50  C   UNL A   1      40.699  28.626  30.396  1.00  0.00     0.034 A 
ATOM     51  C   UNL A   1      39.693  32.900  35.868  1.00  0.00     0.034 A 
ATOM     52  C   UNL A   1      41.674  28.518  31.446  1.00  0.00     0.049 A 
ATOM     53  C   UNL A   1      40.819  31.901  35.833  1.00  0.00     0.074 A 
ATOM     54  C   UNL A   1      42.778  27.686  31.508  1.00  0.00     0.029 A 
ATOM     55  N   UNL A   1      41.666  29.263  32.615  1.00  0.00    -0.354 N 
ATOM     56  N   UNL A   1      41.178  31.095  34.863  1.00  0.00    -0.248 NA
ATOM     57  C   UNL A   1      41.672  31.816  37.028  1.00  0.00     0.031 C 
ATOM     58  C   UNL A   1      43.426  27.914  32.725  1.00  0.00     0.029 A 
ATOM     59  C   UNL A   1      42.742  28.906  33.409  1.00  0.00     0.049 A 
ATOM     60  H   UNL A   1      40.996  29.946  32.846  1.00  0.00     0.167 HD
ATOM     61  C   UNL A   1      42.313  30.432  35.316  1.00  0.00     0.074 A 
ATOM     62  C   UNL A   1      42.599  30.949  36.639  1.00  0.00     0.031 C 
ATOM     63  C   UNL A   1      43.044  29.469  34.700  1.00  0.00     0.034 A 
BRANCH  50  64
ATOM     64  C   UNL A   1      40.865  27.748  29.184  1.00  0.00     0.023 A 
ATOM     65  C   UNL A   1      40.086  26.578  29.071  1.00  0.00     0.012 A 
ATOM     66  C   UNL A   1      41.705  28.124  28.118  1.00  0.00     0.148 A 
ATOM     67  C   UNL A   1      40.157  25.783  27.929  1.00  0.00     0.002 A 
ATOM     68  C   UNL A   1      41.735  27.352  26.962  1.00  0.00     0.091 A 
ATOM     69  F   UNL A   1      42.450  29.231  28.251  1.00  0.00    -0.205 F 
ATOM     70  C   UNL A   1      40.970  26.178  26.870  1.00  0.00     0.022 A 
BRANCH  68  71
ATOM     71  S   UNL A   1      42.682  27.813  25.506  1.00  0.00     0.127 S 
ATOM     72  O   UNL A   1      42.533  26.624  24.668  1.00  0.00    -0.237 OA
ATOM     73  O   UNL A   1      41.955  28.990  25.030  1.00  0.00    -0.237 OA
ATOM     74  O   UNL A   1      44.036  28.077  25.972  1.00  0.00    -0.744 OA
ENDBRANCH  68  71
ENDBRANCH  50  64
BRANCH  51  75
ATOM     75  C   UNL A   1      39.515  33.817  37.030  1.00  0.00     0.023 A 
ATOM     76  C   UNL A   1      39.910  35.164  36.908  1.00  0.00     0.012 A 
ATOM     77  C   UNL A   1      38.929  33.381  38.235  1.00  0.00     0.148 A 
ATOM     78  C   UNL A   1      39.750  36.053  37.972  1.00  0.00     0.002 A 
ATOM     79  C   UNL A   1      38.719  34.286  39.270  1.00  0.00     0.091 A 
ATOM     80  F   UNL A   1      38.572  32.094  38.338  1.00  0.00    -0.205 F 
ATOM     81  C   UNL A   1      39.145  35.618  39.148  1.00  0.00     0.022 A 
BRANCH  79  82
ATOM     82  S   UNL A   1      37.825  33.851  40.766  1.00  0.00     0.127 S 
ATOM     83  O   UNL A   1      38.779  32.974  41.441  1.00  0.00    -0.237 OA
ATOM     84  O   UNL A   1      37.637  35.159  41.396  1.00  0.00    -0.237 OA
ATOM     85  O   UNL A   1      36.593  33.217  40.318  1.00  0.00    -0.744 OA
ENDBRANCH  79  82
ENDBRANCH  51  75
BRANCH  63  86
ATOM     86  C   UNL A   1      44.238  28.911  35.429  1.00  0.00     0.023 A 
ATOM     87  C   UNL A   1      45.493  29.536  35.288  1.00  0.00     0.012 A 
ATOM     88  C   UNL A   1      44.092  27.851  36.347  1.00  0.00     0.148 A 
ATOM     89  C   UNL A   1      46.589  29.101  36.033  1.00  0.00     0.002 A 
ATOM     90  C   UNL A   1      45.175  27.459  37.124  1.00  0.00     0.091 A 
ATOM     91  F   UNL A   1      42.891  27.261  36.456  1.00  0.00    -0.205 F 
ATOM     92  C   UNL A   1      46.426  28.074  36.960  1.00  0.00     0.022 A 
BRANCH  90  93
ATOM     93  S   UNL A   1      45.038  26.223  38.422  1.00  0.00     0.127 S 
ATOM     94  O   UNL A   1      44.019  26.814  39.288  1.00  0.00    -0.237 OA
ATOM     95  O   UNL A   1      44.596  25.044  37.678  1.00  0.00    -0.237 OA
ATOM     96  O   UNL A   1      46.364  26.108  39.013  1.00  0.00    -0.744 OA
ENDBRANCH  90  93
ENDBRANCH  63  86
ENDBRANCH  37  38
ENDBRANCH  29  32
ENDBRANCH  27  28
ENDBRANCH  26  27
ENDBRANCH   1  26
TORSDOF 17
ENDMDL
MODEL 3
REMARK VINA RESULT:     -12.2      1.391      7.597
REMARK SMILES Cc1c(Cl)cc2c(c1C)O[C@H](C(F)(F)F)C(C(=O)NCCCCCCNC(=O)c1ccc(-c3c4nc(c(-c5cccc(S(=O)(=O)[O-])c5F)c5ccc([nH]5)c(-c5cccc(S(=O)(=O)[O-])c5F)c5nc(c(-c6cccc(S(=O)(=O)[O-])c6F)c6ccc3[nH]6)C=C5)C=C4)cc1)=C2
REMARK SMILES IDX 23 1 22 2 21 3 20 4 19 5 17 6 18 7 16 9 1 10 2 11 3 12 8 13
REMARK SMILES IDX 4 14 5 15 7 16 9 17 6 18 10 19 92 20 11 21 12 22 13 23 14 24
REMARK SMILES IDX 15 25 24 26 25 27 26 28 27 29 28 31 29 32 30 33 91 34 31 35
REMARK SMILES IDX 90 36 32 37 33 38 34 39 84 40 35 41 89 42 83 43 85 44 36 45
REMARK SMILES IDX 88 46 82 47 81 48 37 50 69 51 49 52 68 53 50 54 53 55 67 56
REMARK SMILES IDX 86 57 51 58 52 59 66 61 87 62 54 63 38 64 39 65 47 66 40 67
REMARK SMILES IDX 42 68 48 69 41 70 43 71 44 72 45 73 46 74 70 75 71 76 79 77
REMARK SMILES IDX 72 78 74 79 80 80 73 81 75 82 76 83 77 84 78 85 55 86 56 87
REMARK SMILES IDX 64 88 57 89 59 90 65 91 58 92 60 93 61 94 62 95 63 96
REMARK H PARENT 19 8 26 30 85 49 53 60
REMARK Flexibility Score: inf
ROOT
ATOM      1  C   UNL A   1      32.643  28.948  23.206  1.00  0.00     0.002 C 
ENDROOT
BRANCH   1   2
ATOM      2  C   UNL A   1      31.119  29.000  23.385  1.00  0.00     0.002 C 
BRANCH   2   3
ATOM      3  C   UNL A   1      30.347  27.890  22.667  1.00  0.00     0.021 C 
BRANCH   3   4
ATOM      4  C   UNL A   1      30.774  26.489  23.088  1.00  0.00     0.116 C 
BRANCH   4   5
ATOM      5  N   UNL A   1      30.377  26.194  24.454  1.00  0.00    -0.352 N 
ATOM      6  C   UNL A   1      30.776  25.364  25.446  1.00  0.00     0.251 C 
ATOM      7  O   UNL A   1      30.145  25.459  26.503  1.00  0.00    -0.270 OA
ATOM      8  H   UNL A   1      29.612  26.747  24.734  1.00  0.00     0.163 HD
BRANCH   6   9
ATOM      9  C   UNL A   1      31.890  24.375  25.341  1.00  0.00     0.067 C 
ATOM     10  C   UNL A   1      37.540  21.084  25.371  1.00  0.00     0.046 C 
ATOM     11  C   UNL A   1      36.404  22.068  25.470  1.00  0.00    -0.026 A 
ATOM     12  C   UNL A   1      36.613  23.429  25.772  1.00  0.00     0.045 A 
ATOM     13  C   UNL A   1      35.079  21.622  25.262  1.00  0.00    -0.004 A 
ATOM     14  Cl  UNL A   1      38.190  24.079  26.072  1.00  0.00    -0.084 Cl
ATOM     15  C   UNL A   1      35.543  24.330  25.854  1.00  0.00     0.032 A 
ATOM     16  C   UNL A   1      34.022  22.548  25.338  1.00  0.00     0.131 A 
ATOM     17  C   UNL A   1      34.731  20.187  24.939  1.00  0.00     0.049 C 
ATOM     18  C   UNL A   1      34.240  23.893  25.632  1.00  0.00     0.019 A 
ATOM     19  O   UNL A   1      32.764  22.048  25.158  1.00  0.00    -0.475 OA
ATOM     20  C   UNL A   1      33.104  24.802  25.738  1.00  0.00     0.025 C 
ATOM     21  C   UNL A   1      31.727  22.987  24.792  1.00  0.00     0.314 C 
BRANCH  21  22
ATOM     22  C   UNL A   1      31.540  22.970  23.264  1.00  0.00     0.429 C 
ATOM     23  F   UNL A   1      30.277  23.328  22.934  1.00  0.00    -0.167 F 
ATOM     24  F   UNL A   1      32.365  23.837  22.631  1.00  0.00    -0.167 F 
ATOM     25  F   UNL A   1      31.773  21.748  22.730  1.00  0.00    -0.167 F 
ENDBRANCH  21  22
ENDBRANCH   6   9
ENDBRANCH   4   5
ENDBRANCH   3   4
ENDBRANCH   2   3
ENDBRANCH   1   2
BRANCH   1  26
ATOM     26  C   UNL A   1      33.447  28.788  24.499  1.00  0.00     0.021 C 
BRANCH  26  27
ATOM     27  C   UNL A   1      32.637  29.007  25.773  1.00  0.00     0.116 C 
BRANCH  27  28
ATOM     28  N   UNL A   1      32.327  30.413  25.976  1.00  0.00    -0.352 N 
ATOM     29  C   UNL A   1      32.894  31.303  26.849  1.00  0.00     0.251 C 
ATOM     30  H   UNL A   1      31.610  30.775  25.406  1.00  0.00     0.163 HD
ATOM     31  O   UNL A   1      32.359  32.391  27.055  1.00  0.00    -0.269 OA
BRANCH  29  32
ATOM     32  C   UNL A   1      34.144  30.943  27.545  1.00  0.00     0.039 A 
ATOM     33  C   UNL A   1      35.126  31.917  27.727  1.00  0.00     0.014 A 
ATOM     34  C   UNL A   1      34.341  29.640  28.013  1.00  0.00     0.014 A 
ATOM     35  C   UNL A   1      36.293  31.595  28.422  1.00  0.00     0.010 A 
ATOM     36  C   UNL A   1      35.470  29.341  28.767  1.00  0.00     0.010 A 
ATOM     37  C   UNL A   1      36.464  30.311  28.966  1.00  0.00    -0.014 A 
BRANCH  37  38
ATOM     38  C   UNL A   1      37.686  29.961  29.731  1.00  0.00     0.031 A 
ATOM     39  C   UNL A   1      38.697  29.019  29.139  1.00  0.00     0.074 A 
ATOM     40  C   UNL A   1      37.858  30.453  30.974  1.00  0.00     0.049 A 
ATOM     41  N   UNL A   1      39.813  28.578  29.659  1.00  0.00    -0.248 NA
ATOM     42  C   UNL A   1      38.413  28.486  27.796  1.00  0.00     0.031 C 
ATOM     43  C   UNL A   1      36.916  31.330  31.673  1.00  0.00     0.029 A 
ATOM     44  N   UNL A   1      38.879  30.279  31.874  1.00  0.00    -0.354 N 
ATOM     45  C   UNL A   1      40.353  27.709  28.719  1.00  0.00     0.074 A 
ATOM     46  C   UNL A   1      39.420  27.643  27.617  1.00  0.00     0.031 C 
ATOM     47  C   UNL A   1      37.414  31.634  32.883  1.00  0.00     0.029 A 
ATOM     48  C   UNL A   1      38.693  30.952  33.058  1.00  0.00     0.049 A 
ATOM     49  H   UNL A   1      39.671  29.724  31.689  1.00  0.00     0.167 HD
ATOM     50  C   UNL A   1      41.539  27.058  28.750  1.00  0.00     0.034 A 
ATOM     51  C   UNL A   1      39.467  31.015  34.161  1.00  0.00     0.034 A 
ATOM     52  C   UNL A   1      42.479  27.160  29.832  1.00  0.00     0.049 A 
ATOM     53  C   UNL A   1      40.781  30.279  34.167  1.00  0.00     0.074 A 
ATOM     54  C   UNL A   1      43.733  26.582  29.934  1.00  0.00     0.029 A 
ATOM     55  N   UNL A   1      42.275  27.885  30.995  1.00  0.00    -0.354 N 
ATOM     56  N   UNL A   1      41.335  29.570  33.215  1.00  0.00    -0.248 NA
ATOM     57  C   UNL A   1      41.593  30.378  35.390  1.00  0.00     0.031 C 
ATOM     58  C   UNL A   1      44.278  26.943  31.169  1.00  0.00     0.029 A 
ATOM     59  C   UNL A   1      43.376  27.766  31.825  1.00  0.00     0.049 A 
ATOM     60  H   UNL A   1      41.468  28.409  31.200  1.00  0.00     0.167 HD
ATOM     61  C   UNL A   1      42.570  29.163  33.707  1.00  0.00     0.074 A 
ATOM     62  C   UNL A   1      42.695  29.729  35.035  1.00  0.00     0.031 C 
ATOM     63  C   UNL A   1      43.509  28.379  33.122  1.00  0.00     0.034 A 
BRANCH  50  64
ATOM     64  C   UNL A   1      41.927  26.236  27.549  1.00  0.00     0.023 A 
ATOM     65  C   UNL A   1      42.562  26.868  26.461  1.00  0.00     0.012 A 
ATOM     66  C   UNL A   1      41.759  24.838  27.534  1.00  0.00     0.148 A 
ATOM     67  C   UNL A   1      43.004  26.128  25.366  1.00  0.00     0.002 A 
ATOM     68  C   UNL A   1      42.245  24.100  26.461  1.00  0.00     0.091 A 
ATOM     69  F   UNL A   1      41.137  24.258  28.570  1.00  0.00    -0.205 F 
ATOM     70  C   UNL A   1      42.858  24.743  25.373  1.00  0.00     0.022 A 
BRANCH  68  71
ATOM     71  S   UNL A   1      42.185  22.305  26.406  1.00  0.00     0.127 S 
ATOM     72  O   UNL A   1      42.891  21.949  27.637  1.00  0.00    -0.237 OA
ATOM     73  O   UNL A   1      40.745  22.046  26.432  1.00  0.00    -0.237 OA
ATOM     74  O   UNL A   1      42.855  21.916  25.174  1.00  0.00    -0.744 OA
ENDBRANCH  68  71
ENDBRANCH  50  64
BRANCH  51  75
ATOM     75  C   UNL A   1      39.060  31.873  35.310  1.00  0.00     0.023 A 
ATOM     76  C   UNL A   1      38.174  31.355  36.274  1.00  0.00     0.012 A 
ATOM     77  C   UNL A   1      39.569  33.177  35.477  1.00  0.00     0.148 A 
ATOM     78  C   UNL A   1      37.778  32.126  37.368  1.00  0.00     0.002 A 
ATOM     79  C   UNL A   1      39.217  33.918  36.600  1.00  0.00     0.091 A 
ATOM     80  F   UNL A   1      40.400  33.659  34.544  1.00  0.00    -0.205 F 
ATOM     81  C   UNL A   1      38.308  33.402  37.537  1.00  0.00     0.022 A 
BRANCH  79  82
ATOM     82  S   UNL A   1      39.953  35.514  36.973  1.00  0.00     0.127 S 
ATOM     83  O   UNL A   1      39.283  35.868  38.222  1.00  0.00    -0.237 OA
ATOM     84  O   UNL A   1      41.368  35.168  37.109  1.00  0.00    -0.237 OA
ATOM     85  O   UNL A   1      39.649  36.365  35.831  1.00  0.00    -0.744 OA
ENDBRANCH  79  82
ENDBRANCH  51  75
BRANCH  63  86
ATOM     86  C   UNL A   1      44.770  28.088  33.892  1.00  0.00     0.023 A 
ATOM     87  C   UNL A   1      45.860  28.977  33.802  1.00  0.00     0.012 A 
ATOM     88  C   UNL A   1      44.830  27.009  34.797  1.00  0.00     0.148 A 
ATOM     89  C   UNL A   1      46.997  28.784  34.584  1.00  0.00     0.002 A 
ATOM     90  C   UNL A   1      45.944  26.855  35.612  1.00  0.00     0.091 A 
ATOM     91  F   UNL A   1      43.786  26.168  34.857  1.00  0.00    -0.205 F 
ATOM     92  C   UNL A   1      47.033  27.733  35.499  1.00  0.00     0.022 A 
BRANCH  90  93
ATOM     93  S   UNL A   1      46.038  25.601  36.896  1.00  0.00     0.127 S 
ATOM     94  O   UNL A   1      47.381  25.821  37.429  1.00  0.00    -0.237 OA
ATOM     95  O   UNL A   1      44.953  25.999  37.794  1.00  0.00    -0.237 OA
ATOM     96  O   UNL A   1      45.836  24.322  36.229  1.00  0.00    -0.744 OA
ENDBRANCH  90  93
ENDBRANCH  63  86
ENDBRANCH  37  38
ENDBRANCH  29  32
ENDBRANCH  27  28
ENDBRANCH  26  27
ENDBRANCH   1  26
TORSDOF 17
ENDMDL
