MODEL 1
REMARK VINA RESULT:     -12.0      0.000      0.000
REMARK SMILES CC1(C)CCC[C@H]1NS(=O)(=O)c1cccc(C(=O)NCCCCCCNC(=O)c2ccc(-c3c4nc(c(-c5cccc(S(=O)(=O)[O-])c5F)c5ccc([nH]5)c(-c5cccc(S(=O)(=O)[O-])c5F)c5nc(c(-c6cccc(S(=O)(=O)[O-])c6F)c6ccc3[nH]6)C=C5)C=C4)cc2)c1
REMARK SMILES IDX 22 1 21 2 20 3 19 4 17 5 18 6 16 8 12 9 13 10 92 11 14 12
REMARK SMILES IDX 15 13 9 14 10 15 11 16 8 17 7 19 1 20 2 21 3 22 4 23 5 24
REMARK SMILES IDX 6 25 23 26 24 27 25 28 26 29 27 30 28 32 29 33 30 34 91 35
REMARK SMILES IDX 31 36 90 37 32 38 33 39 34 40 84 41 35 42 89 43 83 44 85 45
REMARK SMILES IDX 36 46 88 47 82 48 81 49 37 51 69 52 49 53 68 54 50 55 53 56
REMARK SMILES IDX 67 57 86 58 51 59 52 60 66 62 87 63 54 64 38 65 39 66 47 67
REMARK SMILES IDX 40 68 42 69 48 70 41 71 43 72 44 73 45 74 46 75 70 76 71 77
REMARK SMILES IDX 79 78 72 79 74 80 80 81 73 82 75 83 76 84 77 85 78 86 55 87
REMARK SMILES IDX 56 88 64 89 57 90 59 91 65 92 58 93 60 94 61 95 62 96 63 97
REMARK H PARENT 19 7 8 18 26 31 85 50 53 61
REMARK Flexibility Score: inf
ROOT
ATOM      1  C   UNL A   1      34.003  27.172  25.726  1.00  0.00     0.002 C 
ENDROOT
BRANCH   1   2
ATOM      2  C   UNL A   1      33.017  27.064  24.568  1.00  0.00     0.021 C 
BRANCH   2   3
ATOM      3  C   UNL A   1      32.536  25.665  24.203  1.00  0.00     0.116 C 
BRANCH   3   4
ATOM      4  N   UNL A   1      32.659  25.318  22.791  1.00  0.00    -0.352 N 
ATOM      5  C   UNL A   1      33.300  24.248  22.198  1.00  0.00     0.251 C 
ATOM      6  O   UNL A   1      33.310  24.139  20.973  1.00  0.00    -0.269 OA
ATOM      7  H   UNL A   1      32.219  25.940  22.168  1.00  0.00     0.163 HD
BRANCH   5   8
ATOM      8  C   UNL A   1      34.039  23.256  23.022  1.00  0.00     0.041 A 
ATOM      9  C   UNL A   1      34.020  21.583  24.754  1.00  0.00     0.083 A 
ATOM     10  C   UNL A   1      35.394  21.719  24.942  1.00  0.00     0.022 A 
ATOM     11  C   UNL A   1      33.365  22.269  23.731  1.00  0.00     0.035 A 
ATOM     12  C   UNL A   1      36.106  22.582  24.102  1.00  0.00     0.002 A 
ATOM     13  C   UNL A   1      35.426  23.369  23.161  1.00  0.00     0.014 A 
BRANCH   9  14
ATOM     14  S   UNL A   1      32.962  20.700  25.860  1.00  0.00     0.240 S 
ATOM     15  O   UNL A   1      31.638  20.738  25.283  1.00  0.00    -0.207 OA
ATOM     16  O   UNL A   1      33.230  21.244  27.172  1.00  0.00    -0.207 OA
BRANCH  14  17
ATOM     17  N   UNL A   1      33.504  19.118  25.904  1.00  0.00    -0.208 NA
ATOM     18  H   UNL A   1      34.522  19.166  25.877  1.00  0.00     0.141 HD
BRANCH  17  19
ATOM     19  C   UNL A   1      33.112  18.129  24.890  1.00  0.00     0.075 C 
ATOM     20  C   UNL A   1      35.699  18.101  24.461  1.00  0.00     0.013 C 
ATOM     21  C   UNL A   1      34.360  17.348  24.380  1.00  0.00    -0.019 C 
ATOM     22  C   UNL A   1      34.146  16.934  22.911  1.00  0.00     0.013 C 
ATOM     23  C   UNL A   1      34.385  16.113  25.297  1.00  0.00     0.008 C 
ATOM     24  C   UNL A   1      32.924  15.731  25.449  1.00  0.00     0.002 C 
ATOM     25  C   UNL A   1      32.172  17.056  25.466  1.00  0.00     0.020 C 
ENDBRANCH  17  19
ENDBRANCH  14  17
ENDBRANCH   9  14
ENDBRANCH   5   8
ENDBRANCH   3   4
ENDBRANCH   2   3
ENDBRANCH   1   2
BRANCH   1  26
ATOM     26  C   UNL A   1      34.249  28.571  26.296  1.00  0.00     0.002 C 
BRANCH  26  27
ATOM     27  C   UNL A   1      33.258  29.670  25.905  1.00  0.00     0.021 C 
BRANCH  27  28
ATOM     28  C   UNL A   1      32.478  30.329  27.040  1.00  0.00     0.116 C 
BRANCH  28  29
ATOM     29  N   UNL A   1      32.631  31.772  27.079  1.00  0.00    -0.352 N 
ATOM     30  C   UNL A   1      33.617  32.544  27.640  1.00  0.00     0.251 C 
ATOM     31  H   UNL A   1      31.913  32.277  26.632  1.00  0.00     0.163 HD
ATOM     32  O   UNL A   1      33.489  33.767  27.645  1.00  0.00    -0.269 OA
BRANCH  30  33
ATOM     33  C   UNL A   1      34.819  31.933  28.260  1.00  0.00     0.039 A 
ATOM     34  C   UNL A   1      36.054  32.563  28.075  1.00  0.00     0.014 A 
ATOM     35  C   UNL A   1      34.756  30.734  28.976  1.00  0.00     0.014 A 
ATOM     36  C   UNL A   1      37.212  32.021  28.643  1.00  0.00     0.010 A 
ATOM     37  C   UNL A   1      35.901  30.227  29.594  1.00  0.00     0.010 A 
ATOM     38  C   UNL A   1      37.143  30.858  29.426  1.00  0.00    -0.014 A 
BRANCH  38  39
ATOM     39  C   UNL A   1      38.361  30.302  30.073  1.00  0.00     0.031 A 
ATOM     40  C   UNL A   1      38.773  30.749  31.449  1.00  0.00     0.074 A 
ATOM     41  C   UNL A   1      39.139  29.436  29.393  1.00  0.00     0.049 A 
ATOM     42  N   UNL A   1      39.798  30.368  32.169  1.00  0.00    -0.248 NA
ATOM     43  C   UNL A   1      37.940  31.778  32.095  1.00  0.00     0.031 C 
ATOM     44  C   UNL A   1      38.905  28.991  28.018  1.00  0.00     0.029 A 
ATOM     45  N   UNL A   1      40.295  28.792  29.759  1.00  0.00    -0.354 N 
ATOM     46  C   UNL A   1      39.754  31.129  33.331  1.00  0.00     0.074 A 
ATOM     47  C   UNL A   1      38.619  32.017  33.208  1.00  0.00     0.031 C 
ATOM     48  C   UNL A   1      39.884  28.146  27.657  1.00  0.00     0.029 A 
ATOM     49  C   UNL A   1      40.819  27.995  28.768  1.00  0.00     0.049 A 
ATOM     50  H   UNL A   1      40.710  28.891  30.645  1.00  0.00     0.167 HD
ATOM     51  C   UNL A   1      40.563  31.072  34.417  1.00  0.00     0.034 A 
ATOM     52  C   UNL A   1      41.923  27.220  28.757  1.00  0.00     0.034 A 
ATOM     53  C   UNL A   1      41.658  30.151  34.563  1.00  0.00     0.049 A 
ATOM     54  C   UNL A   1      42.756  27.113  30.005  1.00  0.00     0.074 A 
ATOM     55  C   UNL A   1      42.473  29.948  35.664  1.00  0.00     0.029 A 
ATOM     56  N   UNL A   1      42.093  29.278  33.580  1.00  0.00    -0.354 N 
ATOM     57  N   UNL A   1      42.589  27.706  31.163  1.00  0.00    -0.248 NA
ATOM     58  C   UNL A   1      43.904  26.194  29.962  1.00  0.00     0.031 C 
ATOM     59  C   UNL A   1      43.405  28.955  35.342  1.00  0.00     0.029 A 
ATOM     60  C   UNL A   1      43.166  28.535  34.044  1.00  0.00     0.049 A 
ATOM     61  H   UNL A   1      41.698  29.197  32.681  1.00  0.00     0.167 HD
ATOM     62  C   UNL A   1      43.590  27.213  31.993  1.00  0.00     0.074 A 
ATOM     63  C   UNL A   1      44.341  26.250  31.212  1.00  0.00     0.031 C 
ATOM     64  C   UNL A   1      43.873  27.541  33.277  1.00  0.00     0.034 A 
BRANCH  51  65
ATOM     65  C   UNL A   1      40.245  31.991  35.569  1.00  0.00     0.023 A 
ATOM     66  C   UNL A   1      41.005  33.165  35.742  1.00  0.00     0.012 A 
ATOM     67  C   UNL A   1      39.176  31.723  36.447  1.00  0.00     0.148 A 
ATOM     68  C   UNL A   1      40.731  34.042  36.790  1.00  0.00     0.002 A 
ATOM     69  C   UNL A   1      38.884  32.623  37.467  1.00  0.00     0.091 A 
ATOM     70  F   UNL A   1      38.479  30.590  36.284  1.00  0.00    -0.205 F 
ATOM     71  C   UNL A   1      39.665  33.777  37.646  1.00  0.00     0.022 A 
BRANCH  69  72
ATOM     72  S   UNL A   1      37.487  32.402  38.574  1.00  0.00     0.127 S 
ATOM     73  O   UNL A   1      36.390  32.955  37.782  1.00  0.00    -0.237 OA
ATOM     74  O   UNL A   1      37.445  30.948  38.740  1.00  0.00    -0.237 OA
ATOM     75  O   UNL A   1      37.822  33.136  39.787  1.00  0.00    -0.744 OA
ENDBRANCH  69  72
ENDBRANCH  51  65
BRANCH  52  76
ATOM     76  C   UNL A   1      42.242  26.407  27.551  1.00  0.00     0.023 A 
ATOM     77  C   UNL A   1      42.948  27.003  26.488  1.00  0.00     0.012 A 
ATOM     78  C   UNL A   1      41.891  25.046  27.465  1.00  0.00     0.148 A 
ATOM     79  C   UNL A   1      43.279  26.266  25.351  1.00  0.00     0.002 A 
ATOM     80  C   UNL A   1      42.267  24.304  26.351  1.00  0.00     0.091 A 
ATOM     81  F   UNL A   1      41.204  24.501  28.481  1.00  0.00    -0.205 F 
ATOM     82  C   UNL A   1      42.949  24.915  25.288  1.00  0.00     0.022 A 
BRANCH  80  83
ATOM     83  S   UNL A   1      41.996  22.531  26.242  1.00  0.00     0.127 S 
ATOM     84  O   UNL A   1      42.679  22.200  24.994  1.00  0.00    -0.237 OA
ATOM     85  O   UNL A   1      42.658  22.045  27.454  1.00  0.00    -0.237 OA
ATOM     86  O   UNL A   1      40.549  22.358  26.241  1.00  0.00    -0.744 OA
ENDBRANCH  80  83
ENDBRANCH  52  76
BRANCH  64  87
ATOM     87  C   UNL A   1      45.039  26.847  33.932  1.00  0.00     0.023 A 
ATOM     88  C   UNL A   1      46.334  27.385  33.793  1.00  0.00     0.012 A 
ATOM     89  C   UNL A   1      44.850  25.700  34.728  1.00  0.00     0.148 A 
ATOM     90  C   UNL A   1      47.426  26.776  34.411  1.00  0.00     0.002 A 
ATOM     91  C   UNL A   1      45.937  25.123  35.374  1.00  0.00     0.091 A 
ATOM     92  F   UNL A   1      43.616  25.184  34.830  1.00  0.00    -0.205 F 
ATOM     93  C   UNL A   1      47.226  25.653  35.209  1.00  0.00     0.022 A 
BRANCH  91  94
ATOM     94  S   UNL A   1      45.743  23.728  36.491  1.00  0.00     0.127 S 
ATOM     95  O   UNL A   1      47.122  23.490  36.916  1.00  0.00    -0.237 OA
ATOM     96  O   UNL A   1      44.870  24.271  37.533  1.00  0.00    -0.237 OA
ATOM     97  O   UNL A   1      45.133  22.672  35.692  1.00  0.00    -0.744 OA
ENDBRANCH  91  94
ENDBRANCH  64  87
ENDBRANCH  38  39
ENDBRANCH  30  33
ENDBRANCH  28  29
ENDBRANCH  27  28
ENDBRANCH  26  27
ENDBRANCH   1  26
TORSDOF 19
ENDMDL
MODEL 2
REMARK VINA RESULT:     -11.2      2.511      8.287
REMARK SMILES CC1(C)CCC[C@H]1NS(=O)(=O)c1cccc(C(=O)NCCCCCCNC(=O)c2ccc(-c3c4nc(c(-c5cccc(S(=O)(=O)[O-])c5F)c5ccc([nH]5)c(-c5cccc(S(=O)(=O)[O-])c5F)c5nc(c(-c6cccc(S(=O)(=O)[O-])c6F)c6ccc3[nH]6)C=C5)C=C4)cc2)c1
REMARK SMILES IDX 22 1 21 2 20 3 19 4 17 5 18 6 16 8 12 9 13 10 92 11 14 12
REMARK SMILES IDX 15 13 9 14 10 15 11 16 8 17 7 19 1 20 2 21 3 22 4 23 5 24
REMARK SMILES IDX 6 25 23 26 24 27 25 28 26 29 27 30 28 32 29 33 30 34 91 35
REMARK SMILES IDX 31 36 90 37 32 38 33 39 34 40 84 41 35 42 89 43 83 44 85 45
REMARK SMILES IDX 36 46 88 47 82 48 81 49 37 51 69 52 49 53 68 54 50 55 53 56
REMARK SMILES IDX 67 57 86 58 51 59 52 60 66 62 87 63 54 64 38 65 39 66 47 67
REMARK SMILES IDX 40 68 42 69 48 70 41 71 43 72 44 73 45 74 46 75 70 76 71 77
REMARK SMILES IDX 79 78 72 79 74 80 80 81 73 82 75 83 76 84 77 85 78 86 55 87
REMARK SMILES IDX 56 88 64 89 57 90 59 91 65 92 58 93 60 94 61 95 62 96 63 97
REMARK H PARENT 19 7 8 18 26 31 85 50 53 61
REMARK Flexibility Score: inf
ROOT
ATOM      1  C   UNL A   1      33.231  29.830  27.187  1.00  0.00     0.002 C 
ENDROOT
BRANCH   1   2
ATOM      2  C   UNL A   1      32.795  29.927  25.728  1.00  0.00     0.021 C 
BRANCH   2   3
ATOM      3  C   UNL A   1      31.295  29.926  25.458  1.00  0.00     0.116 C 
BRANCH   3   4
ATOM      4  N   UNL A   1      30.919  30.126  24.063  1.00  0.00    -0.352 N 
ATOM      5  C   UNL A   1      30.622  29.195  23.086  1.00  0.00     0.251 C 
ATOM      6  O   UNL A   1      30.345  29.566  21.948  1.00  0.00    -0.269 OA
ATOM      7  H   UNL A   1      30.869  31.066  23.774  1.00  0.00     0.163 HD
BRANCH   5   8
ATOM      8  C   UNL A   1      30.701  27.740  23.379  1.00  0.00     0.041 A 
ATOM      9  C   UNL A   1      31.847  25.639  23.118  1.00  0.00     0.083 A 
ATOM     10  C   UNL A   1      30.697  24.934  23.465  1.00  0.00     0.022 A 
ATOM     11  C   UNL A   1      31.880  27.033  23.177  1.00  0.00     0.035 A 
ATOM     12  C   UNL A   1      29.559  25.651  23.847  1.00  0.00     0.002 A 
ATOM     13  C   UNL A   1      29.552  27.051  23.779  1.00  0.00     0.014 A 
BRANCH   9  14
ATOM     14  S   UNL A   1      33.285  24.885  22.419  1.00  0.00     0.240 S 
ATOM     15  O   UNL A   1      33.907  25.883  21.578  1.00  0.00    -0.207 OA
ATOM     16  O   UNL A   1      32.839  23.619  21.884  1.00  0.00    -0.207 OA
BRANCH  14  17
ATOM     17  N   UNL A   1      34.311  24.509  23.685  1.00  0.00    -0.208 NA
ATOM     18  H   UNL A   1      35.250  24.470  23.288  1.00  0.00     0.141 HD
BRANCH  17  19
ATOM     19  C   UNL A   1      34.151  23.287  24.484  1.00  0.00     0.075 C 
ATOM     20  C   UNL A   1      36.556  22.814  23.552  1.00  0.00     0.013 C 
ATOM     21  C   UNL A   1      35.524  22.571  24.666  1.00  0.00    -0.019 C 
ATOM     22  C   UNL A   1      35.303  21.049  24.774  1.00  0.00     0.013 C 
ATOM     23  C   UNL A   1      36.030  23.146  26.000  1.00  0.00     0.008 C 
ATOM     24  C   UNL A   1      34.789  23.224  26.869  1.00  0.00     0.002 C 
ATOM     25  C   UNL A   1      33.662  23.590  25.910  1.00  0.00     0.020 C 
ENDBRANCH  17  19
ENDBRANCH  14  17
ENDBRANCH   9  14
ENDBRANCH   5   8
ENDBRANCH   3   4
ENDBRANCH   2   3
ENDBRANCH   1   2
BRANCH   1  26
ATOM     26  C   UNL A   1      34.048  30.998  27.744  1.00  0.00     0.002 C 
BRANCH  26  27
ATOM     27  C   UNL A   1      33.753  32.390  27.178  1.00  0.00     0.021 C 
BRANCH  27  28
ATOM     28  C   UNL A   1      32.454  33.055  27.627  1.00  0.00     0.116 C 
BRANCH  28  29
ATOM     29  N   UNL A   1      32.610  34.463  27.943  1.00  0.00    -0.352 N 
ATOM     30  C   UNL A   1      33.496  35.091  28.781  1.00  0.00     0.251 C 
ATOM     31  H   UNL A   1      31.979  35.062  27.482  1.00  0.00     0.163 HD
ATOM     32  O   UNL A   1      33.378  36.299  28.979  1.00  0.00    -0.269 OA
BRANCH  30  33
ATOM     33  C   UNL A   1      34.575  34.340  29.468  1.00  0.00     0.039 A 
ATOM     34  C   UNL A   1      35.853  34.342  28.898  1.00  0.00     0.014 A 
ATOM     35  C   UNL A   1      34.341  33.600  30.631  1.00  0.00     0.014 A 
ATOM     36  C   UNL A   1      36.899  33.647  29.513  1.00  0.00     0.010 A 
ATOM     37  C   UNL A   1      35.399  32.958  31.278  1.00  0.00     0.010 A 
ATOM     38  C   UNL A   1      36.686  32.965  30.722  1.00  0.00    -0.014 A 
BRANCH  38  39
ATOM     39  C   UNL A   1      37.804  32.264  31.407  1.00  0.00     0.031 A 
ATOM     40  C   UNL A   1      38.518  31.120  30.739  1.00  0.00     0.074 A 
ATOM     41  C   UNL A   1      38.138  32.614  32.666  1.00  0.00     0.049 A 
ATOM     42  N   UNL A   1      39.516  30.398  31.184  1.00  0.00    -0.248 NA
ATOM     43  C   UNL A   1      38.035  30.715  29.409  1.00  0.00     0.031 C 
ATOM     44  C   UNL A   1      37.465  33.642  33.462  1.00  0.00     0.029 A 
ATOM     45  N   UNL A   1      39.112  32.129  33.503  1.00  0.00    -0.354 N 
ATOM     46  C   UNL A   1      39.758  29.438  30.209  1.00  0.00     0.074 A 
ATOM     47  C   UNL A   1      38.782  29.648  29.162  1.00  0.00     0.031 C 
ATOM     48  C   UNL A   1      38.047  33.713  34.670  1.00  0.00     0.029 A 
ATOM     49  C   UNL A   1      39.127  32.732  34.739  1.00  0.00     0.049 A 
ATOM     50  H   UNL A   1      39.740  31.418  33.244  1.00  0.00     0.167 HD
ATOM     51  C   UNL A   1      40.724  28.488  30.169  1.00  0.00     0.034 A 
ATOM     52  C   UNL A   1      39.926  32.528  35.805  1.00  0.00     0.034 A 
ATOM     53  C   UNL A   1      41.730  28.314  31.183  1.00  0.00     0.049 A 
ATOM     54  C   UNL A   1      41.043  31.525  35.703  1.00  0.00     0.074 A 
ATOM     55  C   UNL A   1      42.809  27.448  31.187  1.00  0.00     0.029 A 
ATOM     56  N   UNL A   1      41.781  29.019  32.375  1.00  0.00    -0.354 N 
ATOM     57  N   UNL A   1      41.369  30.751  34.695  1.00  0.00    -0.248 NA
ATOM     58  C   UNL A   1      41.931  31.398  36.868  1.00  0.00     0.031 C 
ATOM     59  C   UNL A   1      43.510  27.626  32.385  1.00  0.00     0.029 A 
ATOM     60  C   UNL A   1      42.871  28.608  33.124  1.00  0.00     0.049 A 
ATOM     61  H   UNL A   1      41.137  29.711  32.649  1.00  0.00     0.167 HD
ATOM     62  C   UNL A   1      42.513  30.069  35.092  1.00  0.00     0.074 A 
ATOM     63  C   UNL A   1      42.840  30.542  36.422  1.00  0.00     0.031 C 
ATOM     64  C   UNL A   1      43.218  29.123  34.424  1.00  0.00     0.034 A 
BRANCH  51  65
ATOM     65  C   UNL A   1      40.783  27.607  28.948  1.00  0.00     0.023 A 
ATOM     66  C   UNL A   1      39.847  26.562  28.808  1.00  0.00     0.012 A 
ATOM     67  C   UNL A   1      41.722  27.835  27.923  1.00  0.00     0.148 A 
ATOM     68  C   UNL A   1      39.865  25.735  27.686  1.00  0.00     0.002 A 
ATOM     69  C   UNL A   1      41.710  27.030  26.789  1.00  0.00     0.091 A 
ATOM     70  F   UNL A   1      42.621  28.817  28.083  1.00  0.00    -0.205 F 
ATOM     71  C   UNL A   1      40.789  25.974  26.673  1.00  0.00     0.022 A 
BRANCH  69  72
ATOM     72  S   UNL A   1      42.815  27.307  25.400  1.00  0.00     0.127 S 
ATOM     73  O   UNL A   1      42.695  26.048  24.669  1.00  0.00    -0.237 OA
ATOM     74  O   UNL A   1      42.201  28.458  24.736  1.00  0.00    -0.237 OA
ATOM     75  O   UNL A   1      44.123  27.577  25.982  1.00  0.00    -0.744 OA
ENDBRANCH  69  72
ENDBRANCH  51  65
BRANCH  52  76
ATOM     76  C   UNL A   1      39.757  33.365  37.025  1.00  0.00     0.023 A 
ATOM     77  C   UNL A   1      40.376  34.628  37.083  1.00  0.00     0.012 A 
ATOM     78  C   UNL A   1      38.958  32.941  38.105  1.00  0.00     0.148 A 
ATOM     79  C   UNL A   1      40.225  35.445  38.203  1.00  0.00     0.002 A 
ATOM     80  C   UNL A   1      38.771  33.781  39.197  1.00  0.00     0.091 A 
ATOM     81  F   UNL A   1      38.390  31.728  38.038  1.00  0.00    -0.205 F 
ATOM     82  C   UNL A   1      39.413  35.027  39.254  1.00  0.00     0.022 A 
BRANCH  80  83
ATOM     83  S   UNL A   1      37.642  33.377  40.536  1.00  0.00     0.127 S 
ATOM     84  O   UNL A   1      37.655  34.610  41.319  1.00  0.00    -0.237 OA
ATOM     85  O   UNL A   1      36.395  33.117  39.817  1.00  0.00    -0.237 OA
ATOM     86  O   UNL A   1      38.213  32.205  41.186  1.00  0.00    -0.744 OA
ENDBRANCH  80  83
ENDBRANCH  52  76
BRANCH  64  87
ATOM     87  C   UNL A   1      44.425  28.539  35.112  1.00  0.00     0.023 A 
ATOM     88  C   UNL A   1      45.669  29.191  34.999  1.00  0.00     0.012 A 
ATOM     89  C   UNL A   1      44.319  27.386  35.913  1.00  0.00     0.148 A 
ATOM     90  C   UNL A   1      46.796  28.685  35.647  1.00  0.00     0.002 A 
ATOM     91  C   UNL A   1      45.437  26.912  36.589  1.00  0.00     0.091 A 
ATOM     92  F   UNL A   1      43.134  26.762  35.990  1.00  0.00    -0.205 F 
ATOM     93  C   UNL A   1      46.678  27.553  36.450  1.00  0.00     0.022 A 
BRANCH  91  94
ATOM     94  S   UNL A   1      45.342  25.512  37.713  1.00  0.00     0.127 S 
ATOM     95  O   UNL A   1      46.034  24.471  36.955  1.00  0.00    -0.237 OA
ATOM     96  O   UNL A   1      46.069  25.995  38.888  1.00  0.00    -0.237 OA
ATOM     97  O   UNL A   1      43.919  25.292  37.940  1.00  0.00    -0.744 OA
ENDBRANCH  91  94
ENDBRANCH  64  87
ENDBRANCH  38  39
ENDBRANCH  30  33
ENDBRANCH  28  29
ENDBRANCH  27  28
ENDBRANCH  26  27
ENDBRANCH   1  26
TORSDOF 19
ENDMDL
MODEL 3
REMARK VINA RESULT:     -11.1      2.492      3.703
REMARK SMILES CC1(C)CCC[C@H]1NS(=O)(=O)c1cccc(C(=O)NCCCCCCNC(=O)c2ccc(-c3c4nc(c(-c5cccc(S(=O)(=O)[O-])c5F)c5ccc([nH]5)c(-c5cccc(S(=O)(=O)[O-])c5F)c5nc(c(-c6cccc(S(=O)(=O)[O-])c6F)c6ccc3[nH]6)C=C5)C=C4)cc2)c1
REMARK SMILES IDX 22 1 21 2 20 3 19 4 17 5 18 6 16 8 12 9 13 10 92 11 14 12
REMARK SMILES IDX 15 13 9 14 10 15 11 16 8 17 7 19 1 20 2 21 3 22 4 23 5 24
REMARK SMILES IDX 6 25 23 26 24 27 25 28 26 29 27 30 28 32 29 33 30 34 91 35
REMARK SMILES IDX 31 36 90 37 32 38 33 39 34 40 84 41 35 42 89 43 83 44 85 45
REMARK SMILES IDX 36 46 88 47 82 48 81 49 37 51 69 52 49 53 68 54 50 55 53 56
REMARK SMILES IDX 67 57 86 58 51 59 52 60 66 62 87 63 54 64 38 65 39 66 47 67
REMARK SMILES IDX 40 68 42 69 48 70 41 71 43 72 44 73 45 74 46 75 70 76 71 77
REMARK SMILES IDX 79 78 72 79 74 80 80 81 73 82 75 83 76 84 77 85 78 86 55 87
REMARK SMILES IDX 56 88 64 89 57 90 59 91 65 92 58 93 60 94 61 95 62 96 63 97
REMARK H PARENT 19 7 8 18 26 31 85 50 53 61
REMARK Flexibility Score: inf
ROOT
ATOM      1  C   UNL A   1      32.800  29.600  26.899  1.00  0.00     0.002 C 
ENDROOT
BRANCH   1   2
ATOM      2  C   UNL A   1      32.400  29.581  25.427  1.00  0.00     0.021 C 
BRANCH   2   3
ATOM      3  C   UNL A   1      30.996  30.069  25.091  1.00  0.00     0.116 C 
BRANCH   3   4
ATOM      4  N   UNL A   1      30.666  30.069  23.670  1.00  0.00    -0.352 N 
ATOM      5  C   UNL A   1      30.484  29.006  22.806  1.00  0.00     0.251 C 
ATOM      6  O   UNL A   1      30.229  29.213  21.622  1.00  0.00    -0.269 OA
ATOM      7  H   UNL A   1      30.557  30.959  23.266  1.00  0.00     0.163 HD
BRANCH   5   8
ATOM      8  C   UNL A   1      30.662  27.608  23.278  1.00  0.00     0.041 A 
ATOM      9  C   UNL A   1      31.811  25.499  23.109  1.00  0.00     0.083 A 
ATOM     10  C   UNL A   1      30.765  24.842  23.753  1.00  0.00     0.022 A 
ATOM     11  C   UNL A   1      31.808  26.888  22.967  1.00  0.00     0.035 A 
ATOM     12  C   UNL A   1      29.689  25.598  24.231  1.00  0.00     0.002 A 
ATOM     13  C   UNL A   1      29.625  26.975  23.971  1.00  0.00     0.014 A 
BRANCH   9  14
ATOM     14  S   UNL A   1      33.126  24.665  22.273  1.00  0.00     0.240 S 
ATOM     15  O   UNL A   1      33.654  25.594  21.301  1.00  0.00    -0.207 OA
ATOM     16  O   UNL A   1      32.584  23.385  21.877  1.00  0.00    -0.207 OA
BRANCH  14  17
ATOM     17  N   UNL A   1      34.301  24.328  23.414  1.00  0.00    -0.208 NA
ATOM     18  H   UNL A   1      35.174  24.216  22.898  1.00  0.00     0.141 HD
BRANCH  17  19
ATOM     19  C   UNL A   1      34.207  23.172  24.316  1.00  0.00     0.075 C 
ATOM     20  C   UNL A   1      36.641  22.760  23.435  1.00  0.00     0.013 C 
ATOM     21  C   UNL A   1      35.617  22.556  24.563  1.00  0.00    -0.019 C 
ATOM     22  C   UNL A   1      35.483  21.039  24.804  1.00  0.00     0.013 C 
ATOM     23  C   UNL A   1      36.080  23.273  25.843  1.00  0.00     0.008 C 
ATOM     24  C   UNL A   1      34.830  23.355  26.699  1.00  0.00     0.002 C 
ATOM     25  C   UNL A   1      33.690  23.570  25.710  1.00  0.00     0.020 C 
ENDBRANCH  17  19
ENDBRANCH  14  17
ENDBRANCH   9  14
ENDBRANCH   5   8
ENDBRANCH   3   4
ENDBRANCH   2   3
ENDBRANCH   1   2
BRANCH   1  26
ATOM     26  C   UNL A   1      34.015  30.453  27.274  1.00  0.00     0.002 C 
BRANCH  26  27
ATOM     27  C   UNL A   1      33.834  31.973  27.257  1.00  0.00     0.021 C 
BRANCH  27  28
ATOM     28  C   UNL A   1      32.448  32.505  27.613  1.00  0.00     0.116 C 
BRANCH  28  29
ATOM     29  N   UNL A   1      32.439  33.925  27.915  1.00  0.00    -0.352 N 
ATOM     30  C   UNL A   1      33.284  34.670  28.699  1.00  0.00     0.251 C 
ATOM     31  H   UNL A   1      31.711  34.433  27.490  1.00  0.00     0.163 HD
ATOM     32  O   UNL A   1      33.023  35.855  28.900  1.00  0.00    -0.269 OA
BRANCH  30  33
ATOM     33  C   UNL A   1      34.488  34.070  29.325  1.00  0.00     0.039 A 
ATOM     34  C   UNL A   1      34.313  33.232  30.432  1.00  0.00     0.014 A 
ATOM     35  C   UNL A   1      35.779  34.353  28.872  1.00  0.00     0.014 A 
ATOM     36  C   UNL A   1      35.420  32.646  31.052  1.00  0.00     0.010 A 
ATOM     37  C   UNL A   1      36.880  33.718  29.452  1.00  0.00     0.010 A 
ATOM     38  C   UNL A   1      36.714  32.867  30.554  1.00  0.00    -0.014 A 
BRANCH  38  39
ATOM     39  C   UNL A   1      37.893  32.209  31.177  1.00  0.00     0.031 A 
ATOM     40  C   UNL A   1      38.477  32.735  32.461  1.00  0.00     0.074 A 
ATOM     41  C   UNL A   1      38.484  31.170  30.553  1.00  0.00     0.049 A 
ATOM     42  N   UNL A   1      39.496  32.284  33.149  1.00  0.00    -0.248 NA
ATOM     43  C   UNL A   1      37.853  33.937  33.036  1.00  0.00     0.031 C 
ATOM     44  C   UNL A   1      38.076  30.622  29.258  1.00  0.00     0.029 A 
ATOM     45  N   UNL A   1      39.566  30.405  30.912  1.00  0.00    -0.354 N 
ATOM     46  C   UNL A   1      39.656  33.163  34.214  1.00  0.00     0.074 A 
ATOM     47  C   UNL A   1      38.649  34.191  34.065  1.00  0.00     0.031 C 
ATOM     48  C   UNL A   1      38.894  29.608  28.933  1.00  0.00     0.029 A 
ATOM     49  C   UNL A   1      39.890  29.439  29.989  1.00  0.00     0.049 A 
ATOM     50  H   UNL A   1      40.063  30.536  31.751  1.00  0.00     0.167 HD
ATOM     51  C   UNL A   1      40.537  33.104  35.242  1.00  0.00     0.034 A 
ATOM     52  C   UNL A   1      40.870  28.514  29.994  1.00  0.00     0.034 A 
ATOM     53  C   UNL A   1      41.502  32.051  35.421  1.00  0.00     0.049 A 
ATOM     54  C   UNL A   1      41.782  28.418  31.187  1.00  0.00     0.074 A 
ATOM     55  C   UNL A   1      42.370  31.849  36.480  1.00  0.00     0.029 A 
ATOM     56  N   UNL A   1      41.728  31.024  34.519  1.00  0.00    -0.354 N 
ATOM     57  N   UNL A   1      41.797  29.149  32.275  1.00  0.00    -0.248 NA
ATOM     58  C   UNL A   1      42.783  27.341  31.173  1.00  0.00     0.031 C 
ATOM     59  C   UNL A   1      43.126  30.701  36.214  1.00  0.00     0.029 A 
ATOM     60  C   UNL A   1      42.722  30.185  34.994  1.00  0.00     0.049 A 
ATOM     61  H   UNL A   1      41.252  30.908  33.665  1.00  0.00     0.167 HD
ATOM     62  C   UNL A   1      42.785  28.604  33.087  1.00  0.00     0.074 A 
ATOM     63  C   UNL A   1      43.327  27.464  32.376  1.00  0.00     0.031 C 
ATOM     64  C   UNL A   1      43.218  29.022  34.302  1.00  0.00     0.034 A 
BRANCH  51  65
ATOM     65  C   UNL A   1      40.447  34.176  36.298  1.00  0.00     0.023 A 
ATOM     66  C   UNL A   1      40.929  35.468  36.008  1.00  0.00     0.012 A 
ATOM     67  C   UNL A   1      39.850  33.925  37.549  1.00  0.00     0.148 A 
ATOM     68  C   UNL A   1      40.852  36.486  36.956  1.00  0.00     0.002 A 
ATOM     69  C   UNL A   1      39.741  34.957  38.476  1.00  0.00     0.091 A 
ATOM     70  F   UNL A   1      39.419  32.685  37.817  1.00  0.00    -0.205 F 
ATOM     71  C   UNL A   1      40.249  36.234  38.186  1.00  0.00     0.022 A 
BRANCH  69  72
ATOM     72  S   UNL A   1      38.916  34.744  40.058  1.00  0.00     0.127 S 
ATOM     73  O   UNL A   1      37.813  33.854  39.700  1.00  0.00    -0.237 OA
ATOM     74  O   UNL A   1      39.959  34.123  40.875  1.00  0.00    -0.237 OA
ATOM     75  O   UNL A   1      38.533  36.083  40.488  1.00  0.00    -0.744 OA
ENDBRANCH  69  72
ENDBRANCH  51  65
BRANCH  52  76
ATOM     76  C   UNL A   1      40.971  27.539  28.872  1.00  0.00     0.023 A 
ATOM     77  C   UNL A   1      40.086  26.445  28.832  1.00  0.00     0.012 A 
ATOM     78  C   UNL A   1      41.902  27.710  27.829  1.00  0.00     0.148 A 
ATOM     79  C   UNL A   1      40.142  25.523  27.786  1.00  0.00     0.002 A 
ATOM     80  C   UNL A   1      41.918  26.816  26.765  1.00  0.00     0.091 A 
ATOM     81  F   UNL A   1      42.746  28.750  27.894  1.00  0.00    -0.205 F 
ATOM     82  C   UNL A   1      41.049  25.714  26.748  1.00  0.00     0.022 A 
BRANCH  80  83
ATOM     83  S   UNL A   1      42.965  27.057  25.324  1.00  0.00     0.127 S 
ATOM     84  O   UNL A   1      44.276  27.254  25.936  1.00  0.00    -0.237 OA
ATOM     85  O   UNL A   1      42.802  25.789  24.612  1.00  0.00    -0.237 OA
ATOM     86  O   UNL A   1      42.409  28.210  24.627  1.00  0.00    -0.744 OA
ENDBRANCH  80  83
ENDBRANCH  52  76
BRANCH  64  87
ATOM     87  C   UNL A   1      44.327  28.237  34.954  1.00  0.00     0.023 A 
ATOM     88  C   UNL A   1      45.657  28.686  34.833  1.00  0.00     0.012 A 
ATOM     89  C   UNL A   1      44.051  27.094  35.729  1.00  0.00     0.148 A 
ATOM     90  C   UNL A   1      46.699  27.991  35.448  1.00  0.00     0.002 A 
ATOM     91  C   UNL A   1      45.089  26.432  36.373  1.00  0.00     0.091 A 
ATOM     92  F   UNL A   1      42.783  26.664  35.814  1.00  0.00    -0.205 F 
ATOM     93  C   UNL A   1      46.414  26.872  36.226  1.00  0.00     0.022 A 
BRANCH  91  94
ATOM     94  S   UNL A   1      44.789  25.035  37.465  1.00  0.00     0.127 S 
ATOM     95  O   UNL A   1      46.139  24.724  37.932  1.00  0.00    -0.237 OA
ATOM     96  O   UNL A   1      43.910  25.610  38.485  1.00  0.00    -0.237 OA
ATOM     97  O   UNL A   1      44.154  24.021  36.633  1.00  0.00    -0.744 OA
ENDBRANCH  91  94
ENDBRANCH  64  87
ENDBRANCH  38  39
ENDBRANCH  30  33
ENDBRANCH  28  29
ENDBRANCH  27  28
ENDBRANCH  26  27
ENDBRANCH   1  26
TORSDOF 19
ENDMDL
