MODEL 1
REMARK VINA RESULT:     -11.2      0.000      0.000
REMARK SMILES NNS(=O)(=O)c1ccc(O)c(C(=O)NCCCCCCNC(=O)c2ccc(-c3c4nc(c(-c5cccc(S(=O)(=O)[O-])c5F)c5ccc([nH]5)c(-c5cccc(S(=O)(=O)[O-])c5F)c5nc(c(-c6cccc(S(=O)(=O)[O-])c6F)c6ccc3[nH]6)C=C5)C=C4)cc2)c1
REMARK SMILES IDX 17 1 16 2 15 3 14 4 12 5 13 6 11 8 6 9 7 10 87 11 8 12 9 13
REMARK SMILES IDX 3 14 4 15 5 16 2 17 1 19 10 22 18 24 19 25 20 26 21 27 22 28
REMARK SMILES IDX 23 30 24 31 25 32 86 33 26 34 85 35 27 36 28 37 29 38 79 39
REMARK SMILES IDX 30 40 84 41 78 42 80 43 31 44 83 45 77 46 76 47 32 49 64 50
REMARK SMILES IDX 44 51 63 52 45 53 48 54 62 55 81 56 46 57 47 58 61 60 82 61
REMARK SMILES IDX 49 62 33 63 34 64 42 65 35 66 37 67 43 68 36 69 38 70 39 71
REMARK SMILES IDX 40 72 41 73 65 74 66 75 74 76 67 77 69 78 75 79 68 80 70 81
REMARK SMILES IDX 71 82 72 83 73 84 50 85 51 86 59 87 52 88 54 89 60 90 53 91
REMARK SMILES IDX 55 92 56 93 57 94 58 95
REMARK H PARENT 14 7 2 18 1 20 1 21 10 23 21 29 80 48 48 59
REMARK Flexibility Score: inf
ROOT
ATOM      1  C   UNL A   1      32.798  29.885  27.121  1.00  0.00     0.002 C 
ENDROOT
BRANCH   1   2
ATOM      2  C   UNL A   1      32.686  28.360  27.228  1.00  0.00     0.021 C 
BRANCH   2   3
ATOM      3  C   UNL A   1      31.248  27.861  27.417  1.00  0.00     0.116 C 
BRANCH   3   4
ATOM      4  N   UNL A   1      31.050  26.639  26.664  1.00  0.00    -0.352 N 
ATOM      5  C   UNL A   1      30.791  26.400  25.340  1.00  0.00     0.255 C 
ATOM      6  O   UNL A   1      30.589  25.222  25.027  1.00  0.00    -0.269 OA
ATOM      7  H   UNL A   1      31.116  25.821  27.208  1.00  0.00     0.163 HD
BRANCH   5   8
ATOM      8  C   UNL A   1      30.822  27.424  24.249  1.00  0.00     0.082 A 
ATOM      9  C   UNL A   1      29.444  29.005  22.996  1.00  0.00     0.084 A 
ATOM     10  C   UNL A   1      30.553  29.432  22.270  1.00  0.00     0.025 A 
ATOM     11  C   UNL A   1      29.564  27.986  23.945  1.00  0.00     0.039 A 
ATOM     12  C   UNL A   1      31.801  28.894  22.564  1.00  0.00     0.048 A 
ATOM     13  C   UNL A   1      31.942  27.941  23.582  1.00  0.00     0.128 A 
BRANCH   9  14
ATOM     14  S   UNL A   1      27.889  29.838  22.827  1.00  0.00     0.253 S 
ATOM     15  O   UNL A   1      28.030  31.130  23.465  1.00  0.00    -0.206 OA
ATOM     16  O   UNL A   1      26.833  28.907  23.160  1.00  0.00    -0.206 OA
BRANCH  14  17
ATOM     17  N   UNL A   1      27.777  30.092  21.112  1.00  0.00    -0.150 NA
ATOM     18  H   UNL A   1      28.475  29.516  20.643  1.00  0.00     0.160 HD
BRANCH  17  19
ATOM     19  N   UNL A   1      28.004  31.458  20.782  1.00  0.00    -0.257 NA
ATOM     20  H   UNL A   1      27.950  31.577  19.770  1.00  0.00     0.138 HD
ATOM     21  H   UNL A   1      28.929  31.737  21.109  1.00  0.00     0.138 HD
ENDBRANCH  17  19
ENDBRANCH  14  17
ENDBRANCH   9  14
BRANCH  13  22
ATOM     22  O   UNL A   1      33.216  27.618  23.945  1.00  0.00    -0.507 OA
ATOM     23  H   UNL A   1      33.429  27.498  24.850  1.00  0.00     0.293 HD
ENDBRANCH  13  22
ENDBRANCH   5   8
ENDBRANCH   3   4
ENDBRANCH   2   3
ENDBRANCH   1   2
BRANCH   1  24
ATOM     24  C   UNL A   1      31.569  30.575  26.518  1.00  0.00     0.002 C 
BRANCH  24  25
ATOM     25  C   UNL A   1      31.576  32.105  26.591  1.00  0.00     0.021 C 
BRANCH  25  26
ATOM     26  C   UNL A   1      32.831  32.713  27.214  1.00  0.00     0.116 C 
BRANCH  26  27
ATOM     27  N   UNL A   1      32.613  34.093  27.623  1.00  0.00    -0.352 N 
ATOM     28  C   UNL A   1      33.167  34.779  28.674  1.00  0.00     0.251 C 
ATOM     29  H   UNL A   1      31.982  34.604  27.068  1.00  0.00     0.163 HD
ATOM     30  O   UNL A   1      32.705  35.866  29.011  1.00  0.00    -0.269 OA
BRANCH  28  31
ATOM     31  C   UNL A   1      34.319  34.206  29.404  1.00  0.00     0.039 A 
ATOM     32  C   UNL A   1      34.083  33.373  30.501  1.00  0.00     0.014 A 
ATOM     33  C   UNL A   1      35.628  34.516  29.024  1.00  0.00     0.014 A 
ATOM     34  C   UNL A   1      35.162  32.812  31.192  1.00  0.00     0.010 A 
ATOM     35  C   UNL A   1      36.700  33.914  29.679  1.00  0.00     0.010 A 
ATOM     36  C   UNL A   1      36.478  33.066  30.774  1.00  0.00    -0.014 A 
BRANCH  36  37
ATOM     37  C   UNL A   1      37.643  32.467  31.473  1.00  0.00     0.031 A 
ATOM     38  C   UNL A   1      38.396  31.330  30.839  1.00  0.00     0.074 A 
ATOM     39  C   UNL A   1      37.960  32.880  32.716  1.00  0.00     0.049 A 
ATOM     40  N   UNL A   1      39.372  30.611  31.330  1.00  0.00    -0.248 NA
ATOM     41  C   UNL A   1      37.976  30.927  29.486  1.00  0.00     0.031 C 
ATOM     42  C   UNL A   1      37.260  33.924  33.466  1.00  0.00     0.029 A 
ATOM     43  N   UNL A   1      38.932  32.445  33.582  1.00  0.00    -0.354 N 
ATOM     44  C   UNL A   1      39.655  29.649  30.368  1.00  0.00     0.074 A 
ATOM     45  C   UNL A   1      38.732  29.858  29.275  1.00  0.00     0.031 C 
ATOM     46  C   UNL A   1      37.819  34.043  34.681  1.00  0.00     0.029 A 
ATOM     47  C   UNL A   1      38.902  33.072  34.805  1.00  0.00     0.049 A 
ATOM     48  H   UNL A   1      39.589  31.749  33.350  1.00  0.00     0.167 HD
ATOM     49  C   UNL A   1      40.616  28.695  30.381  1.00  0.00     0.034 A 
ATOM     50  C   UNL A   1      39.660  32.884  35.904  1.00  0.00     0.034 A 
ATOM     51  C   UNL A   1      41.574  28.531  31.440  1.00  0.00     0.049 A 
ATOM     52  C   UNL A   1      40.767  31.865  35.864  1.00  0.00     0.074 A 
ATOM     53  C   UNL A   1      42.640  27.651  31.508  1.00  0.00     0.029 A 
ATOM     54  N   UNL A   1      41.588  29.268  32.613  1.00  0.00    -0.354 N 
ATOM     55  N   UNL A   1      41.115  31.065  34.885  1.00  0.00    -0.248 NA
ATOM     56  C   UNL A   1      41.611  31.748  37.062  1.00  0.00     0.031 C 
ATOM     57  C   UNL A   1      43.299  27.857  32.725  1.00  0.00     0.029 A 
ATOM     58  C   UNL A   1      42.646  28.869  33.410  1.00  0.00     0.049 A 
ATOM     59  H   UNL A   1      40.940  29.973  32.845  1.00  0.00     0.167 HD
ATOM     60  C   UNL A   1      42.237  30.379  35.333  1.00  0.00     0.074 A 
ATOM     61  C   UNL A   1      42.522  30.869  36.666  1.00  0.00     0.031 C 
ATOM     62  C   UNL A   1      42.957  29.417  34.705  1.00  0.00     0.034 A 
BRANCH  49  63
ATOM     63  C   UNL A   1      40.728  27.798  29.177  1.00  0.00     0.023 A 
ATOM     64  C   UNL A   1      39.895  26.665  29.083  1.00  0.00     0.012 A 
ATOM     65  C   UNL A   1      41.604  28.103  28.117  1.00  0.00     0.148 A 
ATOM     66  C   UNL A   1      39.951  25.833  27.966  1.00  0.00     0.002 A 
ATOM     67  C   UNL A   1      41.628  27.288  26.990  1.00  0.00     0.091 A 
ATOM     68  F   UNL A   1      42.407  29.171  28.235  1.00  0.00    -0.205 F 
ATOM     69  C   UNL A   1      40.809  26.149  26.917  1.00  0.00     0.022 A 
BRANCH  67  70
ATOM     70  S   UNL A   1      42.648  27.655  25.557  1.00  0.00     0.127 S 
ATOM     71  O   UNL A   1      42.437  26.466  24.733  1.00  0.00    -0.237 OA
ATOM     72  O   UNL A   1      42.027  28.874  25.036  1.00  0.00    -0.237 OA
ATOM     73  O   UNL A   1      44.000  27.836  26.066  1.00  0.00    -0.744 OA
ENDBRANCH  67  70
ENDBRANCH  49  63
BRANCH  50  74
ATOM     74  C   UNL A   1      39.450  33.741  37.105  1.00  0.00     0.023 A 
ATOM     75  C   UNL A   1      39.898  35.076  37.080  1.00  0.00     0.012 A 
ATOM     76  C   UNL A   1      38.781  33.262  38.247  1.00  0.00     0.148 A 
ATOM     77  C   UNL A   1      39.707  35.911  38.181  1.00  0.00     0.002 A 
ATOM     78  C   UNL A   1      38.550  34.114  39.322  1.00  0.00     0.091 A 
ATOM     79  F   UNL A   1      38.378  31.984  38.261  1.00  0.00    -0.205 F 
ATOM     80  C   UNL A   1      39.025  35.435  39.297  1.00  0.00     0.022 A 
BRANCH  78  81
ATOM     81  S   UNL A   1      37.563  33.611  40.737  1.00  0.00     0.127 S 
ATOM     82  O   UNL A   1      36.367  33.075  40.094  1.00  0.00    -0.237 OA
ATOM     83  O   UNL A   1      38.422  32.612  41.375  1.00  0.00    -0.237 OA
ATOM     84  O   UNL A   1      37.378  34.824  41.525  1.00  0.00    -0.744 OA
ENDBRANCH  78  81
ENDBRANCH  50  74
BRANCH  62  85
ATOM     85  C   UNL A   1      44.145  28.846  35.429  1.00  0.00     0.023 A 
ATOM     86  C   UNL A   1      45.413  29.435  35.256  1.00  0.00     0.012 A 
ATOM     87  C   UNL A   1      43.990  27.791  36.350  1.00  0.00     0.148 A 
ATOM     88  C   UNL A   1      46.513  28.968  35.973  1.00  0.00     0.002 A 
ATOM     89  C   UNL A   1      45.083  27.359  37.092  1.00  0.00     0.091 A 
ATOM     90  F   UNL A   1      42.779  27.230  36.484  1.00  0.00    -0.205 F 
ATOM     91  C   UNL A   1      46.346  27.940  36.899  1.00  0.00     0.022 A 
BRANCH  89  92
ATOM     92  S   UNL A   1      44.936  26.102  38.367  1.00  0.00     0.127 S 
ATOM     93  O   UNL A   1      44.319  25.001  37.630  1.00  0.00    -0.237 OA
ATOM     94  O   UNL A   1      46.330  25.875  38.748  1.00  0.00    -0.237 OA
ATOM     95  O   UNL A   1      44.117  26.696  39.415  1.00  0.00    -0.744 OA
ENDBRANCH  89  92
ENDBRANCH  62  85
ENDBRANCH  36  37
ENDBRANCH  28  31
ENDBRANCH  26  27
ENDBRANCH  25  26
ENDBRANCH  24  25
ENDBRANCH   1  24
TORSDOF 20
ENDMDL
MODEL 2
REMARK VINA RESULT:     -10.8      3.158      4.792
REMARK SMILES NNS(=O)(=O)c1ccc(O)c(C(=O)NCCCCCCNC(=O)c2ccc(-c3c4nc(c(-c5cccc(S(=O)(=O)[O-])c5F)c5ccc([nH]5)c(-c5cccc(S(=O)(=O)[O-])c5F)c5nc(c(-c6cccc(S(=O)(=O)[O-])c6F)c6ccc3[nH]6)C=C5)C=C4)cc2)c1
REMARK SMILES IDX 17 1 16 2 15 3 14 4 12 5 13 6 11 8 6 9 7 10 87 11 8 12 9 13
REMARK SMILES IDX 3 14 4 15 5 16 2 17 1 19 10 22 18 24 19 25 20 26 21 27 22 28
REMARK SMILES IDX 23 30 24 31 25 32 86 33 26 34 85 35 27 36 28 37 29 38 79 39
REMARK SMILES IDX 30 40 84 41 78 42 80 43 31 44 83 45 77 46 76 47 32 49 64 50
REMARK SMILES IDX 44 51 63 52 45 53 48 54 62 55 81 56 46 57 47 58 61 60 82 61
REMARK SMILES IDX 49 62 33 63 34 64 42 65 35 66 37 67 43 68 36 69 38 70 39 71
REMARK SMILES IDX 40 72 41 73 65 74 66 75 74 76 67 77 69 78 75 79 68 80 70 81
REMARK SMILES IDX 71 82 72 83 73 84 50 85 51 86 59 87 52 88 54 89 60 90 53 91
REMARK SMILES IDX 55 92 56 93 57 94 58 95
REMARK H PARENT 14 7 2 18 1 20 1 21 10 23 21 29 80 48 48 59
REMARK Flexibility Score: inf
ROOT
ATOM      1  C   UNL A   1      31.806  26.998  26.590  1.00  0.00     0.002 C 
ENDROOT
BRANCH   1   2
ATOM      2  C   UNL A   1      32.156  25.519  26.388  1.00  0.00     0.021 C 
BRANCH   2   3
ATOM      3  C   UNL A   1      30.934  24.626  26.142  1.00  0.00     0.116 C 
BRANCH   3   4
ATOM      4  N   UNL A   1      30.821  24.326  24.729  1.00  0.00    -0.352 N 
ATOM      5  C   UNL A   1      31.506  23.471  23.908  1.00  0.00     0.255 C 
ATOM      6  O   UNL A   1      31.215  23.515  22.708  1.00  0.00    -0.269 OA
ATOM      7  H   UNL A   1      30.115  24.836  24.270  1.00  0.00     0.163 HD
BRANCH   5   8
ATOM      8  C   UNL A   1      32.497  22.442  24.355  1.00  0.00     0.082 A 
ATOM      9  C   UNL A   1      34.875  21.882  24.383  1.00  0.00     0.084 A 
ATOM     10  C   UNL A   1      34.616  20.716  25.098  1.00  0.00     0.025 A 
ATOM     11  C   UNL A   1      33.829  22.716  23.978  1.00  0.00     0.039 A 
ATOM     12  C   UNL A   1      33.310  20.436  25.485  1.00  0.00     0.048 A 
ATOM     13  C   UNL A   1      32.269  21.320  25.165  1.00  0.00     0.128 A 
BRANCH   9  14
ATOM     14  S   UNL A   1      36.544  22.400  24.089  1.00  0.00     0.253 S 
ATOM     15  O   UNL A   1      36.585  22.953  22.751  1.00  0.00    -0.206 OA
ATOM     16  O   UNL A   1      37.434  21.349  24.534  1.00  0.00    -0.206 OA
BRANCH  14  17
ATOM     17  N   UNL A   1      36.744  23.705  25.219  1.00  0.00    -0.150 NA
ATOM     18  H   UNL A   1      37.219  24.478  24.755  1.00  0.00     0.160 HD
BRANCH  17  19
ATOM     19  N   UNL A   1      37.515  23.293  26.343  1.00  0.00    -0.257 NA
ATOM     20  H   UNL A   1      37.189  22.380  26.662  1.00  0.00     0.138 HD
ATOM     21  H   UNL A   1      37.408  23.974  27.095  1.00  0.00     0.138 HD
ENDBRANCH  17  19
ENDBRANCH  14  17
ENDBRANCH   9  14
BRANCH  13  22
ATOM     22  O   UNL A   1      31.062  21.081  25.751  1.00  0.00    -0.507 OA
ATOM     23  H   UNL A   1      30.894  21.389  26.620  1.00  0.00     0.293 HD
ENDBRANCH  13  22
ENDBRANCH   5   8
ENDBRANCH   3   4
ENDBRANCH   2   3
ENDBRANCH   1   2
BRANCH   1  24
ATOM     24  C   UNL A   1      31.393  27.737  25.312  1.00  0.00     0.002 C 
BRANCH  24  25
ATOM     25  C   UNL A   1      32.539  28.081  24.355  1.00  0.00     0.021 C 
BRANCH  25  26
ATOM     26  C   UNL A   1      33.462  29.198  24.834  1.00  0.00     0.116 C 
BRANCH  26  27
ATOM     27  N   UNL A   1      32.712  30.319  25.378  1.00  0.00    -0.352 N 
ATOM     28  C   UNL A   1      32.881  30.974  26.573  1.00  0.00     0.251 C 
ATOM     29  H   UNL A   1      31.981  30.655  24.811  1.00  0.00     0.163 HD
ATOM     30  O   UNL A   1      32.020  31.750  26.976  1.00  0.00    -0.269 OA
BRANCH  28  31
ATOM     31  C   UNL A   1      34.101  30.738  27.375  1.00  0.00     0.039 A 
ATOM     32  C   UNL A   1      34.330  29.466  27.909  1.00  0.00     0.014 A 
ATOM     33  C   UNL A   1      35.000  31.779  27.626  1.00  0.00     0.014 A 
ATOM     34  C   UNL A   1      35.486  29.226  28.657  1.00  0.00     0.010 A 
ATOM     35  C   UNL A   1      36.177  31.524  28.326  1.00  0.00     0.010 A 
ATOM     36  C   UNL A   1      36.427  30.249  28.856  1.00  0.00    -0.014 A 
BRANCH  36  37
ATOM     37  C   UNL A   1      37.673  30.018  29.628  1.00  0.00     0.031 A 
ATOM     38  C   UNL A   1      38.730  29.093  29.088  1.00  0.00     0.074 A 
ATOM     39  C   UNL A   1      37.811  30.560  30.854  1.00  0.00     0.049 A 
ATOM     40  N   UNL A   1      39.837  28.686  29.652  1.00  0.00    -0.248 NA
ATOM     41  C   UNL A   1      38.496  28.528  27.748  1.00  0.00     0.031 C 
ATOM     42  C   UNL A   1      36.824  31.415  31.517  1.00  0.00     0.029 A 
ATOM     43  N   UNL A   1      38.821  30.442  31.776  1.00  0.00    -0.354 N 
ATOM     44  C   UNL A   1      40.409  27.788  28.759  1.00  0.00     0.074 A 
ATOM     45  C   UNL A   1      39.517  27.690  27.626  1.00  0.00     0.031 C 
ATOM     46  C   UNL A   1      37.273  31.737  32.740  1.00  0.00     0.029 A 
ATOM     47  C   UNL A   1      38.568  31.098  32.958  1.00  0.00     0.049 A 
ATOM     48  H   UNL A   1      39.648  29.936  31.607  1.00  0.00     0.167 HD
ATOM     49  C   UNL A   1      41.587  27.127  28.860  1.00  0.00     0.034 A 
ATOM     50  C   UNL A   1      39.296  31.172  34.091  1.00  0.00     0.034 A 
ATOM     51  C   UNL A   1      42.503  27.276  29.958  1.00  0.00     0.049 A 
ATOM     52  C   UNL A   1      40.633  30.484  34.147  1.00  0.00     0.074 A 
ATOM     53  C   UNL A   1      43.758  26.716  30.113  1.00  0.00     0.029 A 
ATOM     54  N   UNL A   1      42.265  28.046  31.085  1.00  0.00    -0.354 N 
ATOM     55  N   UNL A   1      41.227  29.760  33.229  1.00  0.00    -0.248 NA
ATOM     56  C   UNL A   1      41.420  30.655  35.378  1.00  0.00     0.031 C 
ATOM     57  C   UNL A   1      44.281  27.150  31.337  1.00  0.00     0.029 A 
ATOM     58  C   UNL A   1      43.352  27.983  31.939  1.00  0.00     0.049 A 
ATOM     59  H   UNL A   1      41.444  28.564  31.254  1.00  0.00     0.167 HD
ATOM     60  C   UNL A   1      42.468  29.421  33.754  1.00  0.00     0.074 A 
ATOM     61  C   UNL A   1      42.549  30.033  35.065  1.00  0.00     0.031 C 
ATOM     62  C   UNL A   1      43.445  28.656  33.208  1.00  0.00     0.034 A 
BRANCH  49  63
ATOM     63  C   UNL A   1      41.988  26.235  27.716  1.00  0.00     0.023 A 
ATOM     64  C   UNL A   1      42.803  26.756  26.690  1.00  0.00     0.012 A 
ATOM     65  C   UNL A   1      41.615  24.878  27.681  1.00  0.00     0.148 A 
ATOM     66  C   UNL A   1      43.219  25.947  25.634  1.00  0.00     0.002 A 
ATOM     67  C   UNL A   1      42.064  24.068  26.643  1.00  0.00     0.091 A 
ATOM     68  F   UNL A   1      40.819  24.407  28.652  1.00  0.00    -0.205 F 
ATOM     69  C   UNL A   1      42.858  24.603  25.615  1.00  0.00     0.022 A 
BRANCH  67  70
ATOM     70  S   UNL A   1      41.711  22.308  26.572  1.00  0.00     0.127 S 
ATOM     71  O   UNL A   1      42.450  21.908  25.375  1.00  0.00    -0.237 OA
ATOM     72  O   UNL A   1      42.282  21.824  27.830  1.00  0.00    -0.237 OA
ATOM     73  O   UNL A   1      40.262  22.195  26.484  1.00  0.00    -0.744 OA
ENDBRANCH  67  70
ENDBRANCH  49  63
BRANCH  50  74
ATOM     74  C   UNL A   1      38.810  31.999  35.230  1.00  0.00     0.023 A 
ATOM     75  C   UNL A   1      38.845  33.403  35.122  1.00  0.00     0.012 A 
ATOM     76  C   UNL A   1      38.280  31.414  36.396  1.00  0.00     0.148 A 
ATOM     77  C   UNL A   1      38.387  34.209  36.165  1.00  0.00     0.002 A 
ATOM     78  C   UNL A   1      37.778  32.222  37.410  1.00  0.00     0.091 A 
ATOM     79  F   UNL A   1      38.270  30.076  36.489  1.00  0.00    -0.205 F 
ATOM     80  C   UNL A   1      37.845  33.620  37.304  1.00  0.00     0.022 A 
BRANCH  78  81
ATOM     81  S   UNL A   1      36.943  31.536  38.846  1.00  0.00     0.127 S 
ATOM     82  O   UNL A   1      36.782  30.138  38.461  1.00  0.00    -0.237 OA
ATOM     83  O   UNL A   1      37.917  31.774  39.914  1.00  0.00    -0.237 OA
ATOM     84  O   UNL A   1      35.715  32.310  38.982  1.00  0.00    -0.744 OA
ENDBRANCH  78  81
ENDBRANCH  50  74
BRANCH  62  85
ATOM     85  C   UNL A   1      44.706  28.459  34.004  1.00  0.00     0.023 A 
ATOM     86  C   UNL A   1      45.774  29.365  33.850  1.00  0.00     0.012 A 
ATOM     87  C   UNL A   1      44.797  27.436  34.969  1.00  0.00     0.148 A 
ATOM     88  C   UNL A   1      46.922  29.243  34.630  1.00  0.00     0.002 A 
ATOM     89  C   UNL A   1      45.929  27.346  35.771  1.00  0.00     0.091 A 
ATOM     90  F   UNL A   1      43.779  26.571  35.084  1.00  0.00    -0.205 F 
ATOM     91  C   UNL A   1      46.995  28.243  35.598  1.00  0.00     0.022 A 
BRANCH  89  92
ATOM     92  S   UNL A   1      46.065  26.145  37.100  1.00  0.00     0.127 S 
ATOM     93  O   UNL A   1      47.357  26.494  37.687  1.00  0.00    -0.237 OA
ATOM     94  O   UNL A   1      44.908  26.470  37.936  1.00  0.00    -0.237 OA
ATOM     95  O   UNL A   1      45.996  24.838  36.461  1.00  0.00    -0.744 OA
ENDBRANCH  89  92
ENDBRANCH  62  85
ENDBRANCH  36  37
ENDBRANCH  28  31
ENDBRANCH  26  27
ENDBRANCH  25  26
ENDBRANCH  24  25
ENDBRANCH   1  24
TORSDOF 20
ENDMDL
MODEL 3
REMARK VINA RESULT:     -10.6      4.394     10.068
REMARK SMILES NNS(=O)(=O)c1ccc(O)c(C(=O)NCCCCCCNC(=O)c2ccc(-c3c4nc(c(-c5cccc(S(=O)(=O)[O-])c5F)c5ccc([nH]5)c(-c5cccc(S(=O)(=O)[O-])c5F)c5nc(c(-c6cccc(S(=O)(=O)[O-])c6F)c6ccc3[nH]6)C=C5)C=C4)cc2)c1
REMARK SMILES IDX 17 1 16 2 15 3 14 4 12 5 13 6 11 8 6 9 7 10 87 11 8 12 9 13
REMARK SMILES IDX 3 14 4 15 5 16 2 17 1 19 10 22 18 24 19 25 20 26 21 27 22 28
REMARK SMILES IDX 23 30 24 31 25 32 86 33 26 34 85 35 27 36 28 37 29 38 79 39
REMARK SMILES IDX 30 40 84 41 78 42 80 43 31 44 83 45 77 46 76 47 32 49 64 50
REMARK SMILES IDX 44 51 63 52 45 53 48 54 62 55 81 56 46 57 47 58 61 60 82 61
REMARK SMILES IDX 49 62 33 63 34 64 42 65 35 66 37 67 43 68 36 69 38 70 39 71
REMARK SMILES IDX 40 72 41 73 65 74 66 75 74 76 67 77 69 78 75 79 68 80 70 81
REMARK SMILES IDX 71 82 72 83 73 84 50 85 51 86 59 87 52 88 54 89 60 90 53 91
REMARK SMILES IDX 55 92 56 93 57 94 58 95
REMARK H PARENT 14 7 2 18 1 20 1 21 10 23 21 29 80 48 48 59
REMARK Flexibility Score: inf
ROOT
ATOM      1  C   UNL A   1      36.954  33.568  28.490  1.00  0.00     0.002 C 
ENDROOT
BRANCH   1   2
ATOM      2  C   UNL A   1      38.249  33.936  29.223  1.00  0.00     0.021 C 
BRANCH   2   3
ATOM      3  C   UNL A   1      38.135  33.858  30.750  1.00  0.00     0.116 C 
BRANCH   3   4
ATOM      4  N   UNL A   1      37.335  32.710  31.125  1.00  0.00    -0.352 N 
ATOM      5  C   UNL A   1      36.352  32.535  32.062  1.00  0.00     0.255 C 
ATOM      6  O   UNL A   1      35.919  31.385  32.190  1.00  0.00    -0.269 OA
ATOM      7  H   UNL A   1      37.535  31.899  30.604  1.00  0.00     0.163 HD
BRANCH   5   8
ATOM      8  C   UNL A   1      35.711  33.622  32.865  1.00  0.00     0.082 A 
ATOM      9  C   UNL A   1      34.091  35.448  32.765  1.00  0.00     0.084 A 
ATOM     10  C   UNL A   1      34.294  35.734  34.112  1.00  0.00     0.025 A 
ATOM     11  C   UNL A   1      34.818  34.434  32.135  1.00  0.00     0.039 A 
ATOM     12  C   UNL A   1      35.164  34.937  34.849  1.00  0.00     0.048 A 
ATOM     13  C   UNL A   1      35.823  33.858  34.244  1.00  0.00     0.128 A 
BRANCH   9  14
ATOM     14  S   UNL A   1      32.812  36.274  31.857  1.00  0.00     0.253 S 
ATOM     15  O   UNL A   1      31.895  36.830  32.831  1.00  0.00    -0.206 OA
ATOM     16  O   UNL A   1      32.386  35.411  30.778  1.00  0.00    -0.206 OA
BRANCH  14  17
ATOM     17  N   UNL A   1      33.665  37.589  31.107  1.00  0.00    -0.150 NA
ATOM     18  H   UNL A   1      33.326  38.470  31.493  1.00  0.00     0.160 HD
BRANCH  17  19
ATOM     19  N   UNL A   1      33.465  37.590  29.698  1.00  0.00    -0.257 NA
ATOM     20  H   UNL A   1      32.498  37.338  29.493  1.00  0.00     0.138 HD
ATOM     21  H   UNL A   1      34.092  36.912  29.266  1.00  0.00     0.138 HD
ENDBRANCH  17  19
ENDBRANCH  14  17
ENDBRANCH   9  14
BRANCH  13  22
ATOM     22  O   UNL A   1      36.494  33.008  35.073  1.00  0.00    -0.507 OA
ATOM     23  H   UNL A   1      36.053  32.620  35.802  1.00  0.00     0.293 HD
ENDBRANCH  13  22
ENDBRANCH   5   8
ENDBRANCH   3   4
ENDBRANCH   2   3
ENDBRANCH   1   2
BRANCH   1  24
ATOM     24  C   UNL A   1      35.804  34.562  28.689  1.00  0.00     0.002 C 
BRANCH  24  25
ATOM     25  C   UNL A   1      34.398  33.959  28.621  1.00  0.00     0.021 C 
BRANCH  25  26
ATOM     26  C   UNL A   1      34.290  32.522  29.126  1.00  0.00     0.116 C 
BRANCH  26  27
ATOM     27  N   UNL A   1      33.741  31.636  28.111  1.00  0.00    -0.352 N 
ATOM     28  C   UNL A   1      34.334  30.567  27.485  1.00  0.00     0.251 C 
ATOM     29  H   UNL A   1      32.817  31.829  27.834  1.00  0.00     0.163 HD
ATOM     30  O   UNL A   1      33.811  30.068  26.493  1.00  0.00    -0.269 OA
BRANCH  28  31
ATOM     31  C   UNL A   1      35.606  30.021  28.007  1.00  0.00     0.039 A 
ATOM     32  C   UNL A   1      36.754  30.095  27.214  1.00  0.00     0.014 A 
ATOM     33  C   UNL A   1      35.656  29.409  29.263  1.00  0.00     0.014 A 
ATOM     34  C   UNL A   1      37.967  29.596  27.700  1.00  0.00     0.010 A 
ATOM     35  C   UNL A   1      36.874  28.962  29.767  1.00  0.00     0.010 A 
ATOM     36  C   UNL A   1      38.038  29.041  28.988  1.00  0.00    -0.014 A 
BRANCH  36  37
ATOM     37  C   UNL A   1      39.315  28.523  29.539  1.00  0.00     0.031 A 
ATOM     38  C   UNL A   1      39.950  29.198  30.724  1.00  0.00     0.074 A 
ATOM     39  C   UNL A   1      39.950  27.510  28.916  1.00  0.00     0.049 A 
ATOM     40  N   UNL A   1      41.106  28.960  31.288  1.00  0.00    -0.248 NA
ATOM     41  C   UNL A   1      39.201  30.308  31.337  1.00  0.00     0.031 C 
ATOM     42  C   UNL A   1      39.471  26.821  27.716  1.00  0.00     0.029 A 
ATOM     43  N   UNL A   1      41.154  26.908  29.187  1.00  0.00    -0.354 N 
ATOM     44  C   UNL A   1      41.241  29.912  32.290  1.00  0.00     0.074 A 
ATOM     45  C   UNL A   1      40.062  30.748  32.244  1.00  0.00     0.031 C 
ATOM     46  C   UNL A   1      40.375  25.898  27.350  1.00  0.00     0.029 A 
ATOM     47  C   UNL A   1      41.504  25.942  28.273  1.00  0.00     0.049 A 
ATOM     48  H   UNL A   1      41.713  27.146  29.961  1.00  0.00     0.167 HD
ATOM     49  C   UNL A   1      42.243  30.060  33.190  1.00  0.00     0.034 A 
ATOM     50  C   UNL A   1      42.613  25.179  28.188  1.00  0.00     0.034 A 
ATOM     51  C   UNL A   1      43.383  29.188  33.276  1.00  0.00     0.049 A 
ATOM     52  C   UNL A   1      43.678  25.317  29.243  1.00  0.00     0.074 A 
ATOM     53  C   UNL A   1      44.409  29.201  34.204  1.00  0.00     0.029 A 
ATOM     54  N   UNL A   1      43.643  28.141  32.406  1.00  0.00    -0.354 N 
ATOM     55  N   UNL A   1      43.716  26.124  30.275  1.00  0.00    -0.248 NA
ATOM     56  C   UNL A   1      44.834  24.412  29.146  1.00  0.00     0.031 C 
ATOM     57  C   UNL A   1      45.291  28.160  33.894  1.00  0.00     0.029 A 
ATOM     58  C   UNL A   1      44.810  27.497  32.777  1.00  0.00     0.049 A 
ATOM     59  H   UNL A   1      43.081  27.892  31.637  1.00  0.00     0.167 HD
ATOM     60  C   UNL A   1      44.876  25.802  30.969  1.00  0.00     0.074 A 
ATOM     61  C   UNL A   1      45.505  24.713  30.250  1.00  0.00     0.031 C 
ATOM     62  C   UNL A   1      45.384  26.369  32.091  1.00  0.00     0.034 A 
BRANCH  49  63
ATOM     63  C   UNL A   1      42.116  31.165  34.204  1.00  0.00     0.023 A 
ATOM     64  C   UNL A   1      41.529  30.888  35.454  1.00  0.00     0.012 A 
ATOM     65  C   UNL A   1      42.626  32.453  33.948  1.00  0.00     0.148 A 
ATOM     66  C   UNL A   1      41.426  31.881  36.426  1.00  0.00     0.002 A 
ATOM     67  C   UNL A   1      42.552  33.429  34.937  1.00  0.00     0.091 A 
ATOM     68  F   UNL A   1      43.158  32.705  32.743  1.00  0.00    -0.205 F 
ATOM     69  C   UNL A   1      41.945  33.147  36.172  1.00  0.00     0.022 A 
BRANCH  67  70
ATOM     70  S   UNL A   1      43.258  35.068  34.727  1.00  0.00     0.127 S 
ATOM     71  O   UNL A   1      42.139  35.797  34.134  1.00  0.00    -0.237 OA
ATOM     72  O   UNL A   1      43.572  35.451  36.105  1.00  0.00    -0.237 OA
ATOM     73  O   UNL A   1      44.422  34.895  33.869  1.00  0.00    -0.744 OA
ENDBRANCH  67  70
ENDBRANCH  49  63
BRANCH  50  74
ATOM     74  C   UNL A   1      42.728  24.157  27.110  1.00  0.00     0.023 A 
ATOM     75  C   UNL A   1      43.487  24.457  25.961  1.00  0.00     0.012 A 
ATOM     76  C   UNL A   1      42.132  22.887  27.228  1.00  0.00     0.148 A 
ATOM     77  C   UNL A   1      43.626  23.520  24.937  1.00  0.00     0.002 A 
ATOM     78  C   UNL A   1      42.318  21.940  26.227  1.00  0.00     0.091 A 
ATOM     79  F   UNL A   1      41.399  22.626  28.320  1.00  0.00    -0.205 F 
ATOM     80  C   UNL A   1      43.052  22.259  25.073  1.00  0.00     0.022 A 
BRANCH  78  81
ATOM     81  S   UNL A   1      41.721  20.253  26.393  1.00  0.00     0.127 S 
ATOM     82  O   UNL A   1      42.162  19.910  27.741  1.00  0.00    -0.237 OA
ATOM     83  O   UNL A   1      40.274  20.420  26.241  1.00  0.00    -0.237 OA
ATOM     84  O   UNL A   1      42.350  19.515  25.304  1.00  0.00    -0.744 OA
ENDBRANCH  78  81
ENDBRANCH  50  74
BRANCH  62  85
ATOM     85  C   UNL A   1      46.668  25.807  32.639  1.00  0.00     0.023 A 
ATOM     86  C   UNL A   1      47.895  26.389  32.268  1.00  0.00     0.012 A 
ATOM     87  C   UNL A   1      46.651  24.768  33.591  1.00  0.00     0.148 A 
ATOM     88  C   UNL A   1      49.090  25.931  32.821  1.00  0.00     0.002 A 
ATOM     89  C   UNL A   1      47.843  24.344  34.167  1.00  0.00     0.091 A 
ATOM     90  F   UNL A   1      45.474  24.213  33.913  1.00  0.00    -0.205 F 
ATOM     91  C   UNL A   1      49.063  24.918  33.778  1.00  0.00     0.022 A 
BRANCH  89  92
ATOM     92  S   UNL A   1      47.887  23.109  35.471  1.00  0.00     0.127 S 
ATOM     93  O   UNL A   1      46.898  22.142  35.000  1.00  0.00    -0.237 OA
ATOM     94  O   UNL A   1      49.273  22.642  35.414  1.00  0.00    -0.237 OA
ATOM     95  O   UNL A   1      47.542  23.816  36.698  1.00  0.00    -0.744 OA
ENDBRANCH  89  92
ENDBRANCH  62  85
ENDBRANCH  36  37
ENDBRANCH  28  31
ENDBRANCH  26  27
ENDBRANCH  25  26
ENDBRANCH  24  25
ENDBRANCH   1  24
TORSDOF 20
ENDMDL
