MODEL 1
REMARK VINA RESULT:     -10.7      0.000      0.000
REMARK SMILES O=C(COc1ccnc(NCc2ccc(Br)cc2)n1)NCCCCCCNC(=O)c1ccc(-c2c3nc(c(-c4cccc(S(=O)(=O)[O-])c4F)c4ccc([nH]4)c(-c4cccc(S(=O)(=O)[O-])c4F)c4nc(c(-c5cccc(S(=O)(=O)[O-])c5F)c5ccc2[nH]5)C=C4)C=C3)cc1
REMARK SMILES IDX 22 1 21 2 20 3 1 4 2 5 3 7 4 8 5 9 6 10 19 11 7 12 9 13 8 14
REMARK SMILES IDX 10 15 11 17 12 18 13 19 18 20 14 21 17 22 15 23 16 24 23 25
REMARK SMILES IDX 24 26 25 27 26 28 27 29 28 30 29 32 30 33 31 34 92 35 32 36
REMARK SMILES IDX 91 37 33 38 34 39 35 40 85 41 36 42 90 43 84 44 86 45 37 46
REMARK SMILES IDX 89 47 83 48 82 49 38 51 70 52 50 53 69 54 51 55 54 56 68 57
REMARK SMILES IDX 87 58 52 59 53 60 67 62 88 63 55 64 39 65 40 66 48 67 41 68
REMARK SMILES IDX 43 69 49 70 42 71 44 72 45 73 46 74 47 75 71 76 72 77 80 78
REMARK SMILES IDX 73 79 75 80 81 81 74 82 76 83 77 84 78 85 79 86 56 87 57 88
REMARK SMILES IDX 65 89 58 90 60 91 66 92 59 93 61 94 62 95 63 96 64 97
REMARK H PARENT 20 6 10 16 27 31 86 50 54 61
REMARK Flexibility Score: inf
ROOT
ATOM      1  C   UNL A   1      33.735  27.125  26.238  1.00  0.00     0.021 C 
ENDROOT
BRANCH   1   2
ATOM      2  C   UNL A   1      32.298  27.514  26.564  1.00  0.00     0.116 C 
BRANCH   2   3
ATOM      3  N   UNL A   1      31.377  27.164  25.502  1.00  0.00    -0.353 N 
ATOM      4  O   UNL A   1      31.127  29.276  24.619  1.00  0.00    -0.271 OA
ATOM      5  C   UNL A   1      30.927  28.069  24.563  1.00  0.00     0.258 C 
ATOM      6  H   UNL A   1      31.055  26.235  25.450  1.00  0.00     0.163 HD
BRANCH   5   7
ATOM      7  C   UNL A   1      30.160  27.416  23.411  1.00  0.00     0.331 C 
BRANCH   7   8
ATOM      8  O   UNL A   1      30.094  25.993  23.518  1.00  0.00    -0.467 OA
BRANCH   8   9
ATOM      9  C   UNL A   1      31.107  25.375  22.823  1.00  0.00     0.218 A 
ATOM     10  C   UNL A   1      31.913  26.081  21.962  1.00  0.00     0.088 A 
ATOM     11  N   UNL A   1      31.317  24.091  23.153  1.00  0.00    -0.177 NA
ATOM     12  C   UNL A   1      32.944  25.370  21.411  1.00  0.00     0.121 A 
ATOM     13  C   UNL A   1      32.363  23.488  22.574  1.00  0.00     0.226 A 
ATOM     14  N   UNL A   1      33.181  24.082  21.698  1.00  0.00    -0.221 NA
BRANCH  13  15
ATOM     15  N   UNL A   1      32.669  22.188  22.848  1.00  0.00    -0.350 N 
ATOM     16  H   UNL A   1      33.474  22.006  23.383  1.00  0.00     0.164 HD
BRANCH  15  17
ATOM     17  C   UNL A   1      31.888  21.072  22.406  1.00  0.00     0.152 C 
BRANCH  17  18
ATOM     18  C   UNL A   1      32.321  19.824  23.145  1.00  0.00    -0.029 A 
ATOM     19  C   UNL A   1      32.522  19.842  24.533  1.00  0.00     0.007 A 
ATOM     20  C   UNL A   1      32.493  18.614  22.451  1.00  0.00     0.007 A 
ATOM     21  C   UNL A   1      32.890  18.677  25.210  1.00  0.00     0.016 A 
ATOM     22  C   UNL A   1      32.866  17.451  23.125  1.00  0.00     0.016 A 
ATOM     23  C   UNL A   1      33.059  17.488  24.504  1.00  0.00     0.017 A 
ATOM     24  Br  UNL A   1      33.546  15.910  25.423  1.00  0.00    -0.051 Br
ENDBRANCH  17  18
ENDBRANCH  15  17
ENDBRANCH  13  15
ENDBRANCH   8   9
ENDBRANCH   7   8
ENDBRANCH   5   7
ENDBRANCH   2   3
ENDBRANCH   1   2
BRANCH   1  25
ATOM     25  C   UNL A   1      33.876  26.035  25.168  1.00  0.00     0.002 C 
BRANCH  25  26
ATOM     26  C   UNL A   1      33.933  24.596  25.691  1.00  0.00     0.002 C 
BRANCH  26  27
ATOM     27  C   UNL A   1      35.175  23.799  25.290  1.00  0.00     0.021 C 
BRANCH  27  28
ATOM     28  C   UNL A   1      36.414  24.057  26.144  1.00  0.00     0.116 C 
BRANCH  28  29
ATOM     29  N   UNL A   1      37.388  22.978  26.057  1.00  0.00    -0.352 N 
ATOM     30  C   UNL A   1      38.739  23.001  26.303  1.00  0.00     0.251 C 
ATOM     31  H   UNL A   1      37.026  22.105  25.780  1.00  0.00     0.163 HD
ATOM     32  O   UNL A   1      39.430  22.024  26.018  1.00  0.00    -0.269 OA
BRANCH  30  33
ATOM     33  C   UNL A   1      39.367  24.206  26.887  1.00  0.00     0.039 A 
ATOM     34  C   UNL A   1      40.027  25.101  26.041  1.00  0.00     0.014 A 
ATOM     35  C   UNL A   1      39.300  24.461  28.260  1.00  0.00     0.014 A 
ATOM     36  C   UNL A   1      40.557  26.284  26.559  1.00  0.00     0.010 A 
ATOM     37  C   UNL A   1      39.762  25.675  28.762  1.00  0.00     0.010 A 
ATOM     38  C   UNL A   1      40.392  26.602  27.918  1.00  0.00    -0.014 A 
BRANCH  38  39
ATOM     39  C   UNL A   1      40.831  27.915  28.458  1.00  0.00     0.031 A 
ATOM     40  C   UNL A   1      42.289  28.217  28.663  1.00  0.00     0.074 A 
ATOM     41  C   UNL A   1      39.902  28.808  28.854  1.00  0.00     0.049 A 
ATOM     42  N   UNL A   1      42.847  29.290  29.164  1.00  0.00    -0.248 NA
ATOM     43  C   UNL A   1      43.246  27.168  28.279  1.00  0.00     0.031 C 
ATOM     44  C   UNL A   1      38.453  28.601  28.793  1.00  0.00     0.029 A 
ATOM     45  N   UNL A   1      40.035  30.055  29.414  1.00  0.00    -0.354 N 
ATOM     46  C   UNL A   1      44.213  29.036  29.183  1.00  0.00     0.074 A 
ATOM     47  C   UNL A   1      44.395  27.690  28.681  1.00  0.00     0.031 C 
ATOM     48  C   UNL A   1      37.833  29.679  29.296  1.00  0.00     0.029 A 
ATOM     49  C   UNL A   1      38.836  30.639  29.747  1.00  0.00     0.049 A 
ATOM     50  H   UNL A   1      40.907  30.489  29.561  1.00  0.00     0.167 HD
ATOM     51  C   UNL A   1      45.226  29.854  29.557  1.00  0.00     0.034 A 
ATOM     52  C   UNL A   1      38.568  31.806  30.366  1.00  0.00     0.034 A 
ATOM     53  C   UNL A   1      45.041  31.197  30.042  1.00  0.00     0.049 A 
ATOM     54  C   UNL A   1      39.705  32.709  30.754  1.00  0.00     0.074 A 
ATOM     55  C   UNL A   1      46.005  32.136  30.363  1.00  0.00     0.029 A 
ATOM     56  N   UNL A   1      43.812  31.786  30.297  1.00  0.00    -0.354 N 
ATOM     57  N   UNL A   1      40.994  32.520  30.607  1.00  0.00    -0.248 NA
ATOM     58  C   UNL A   1      39.352  34.000  31.361  1.00  0.00     0.031 C 
ATOM     59  C   UNL A   1      45.359  33.279  30.850  1.00  0.00     0.029 A 
ATOM     60  C   UNL A   1      43.991  33.067  30.793  1.00  0.00     0.049 A 
ATOM     61  H   UNL A   1      42.939  31.356  30.147  1.00  0.00     0.167 HD
ATOM     62  C   UNL A   1      41.606  33.674  31.081  1.00  0.00     0.074 A 
ATOM     63  C   UNL A   1      40.542  34.569  31.494  1.00  0.00     0.031 C 
ATOM     64  C   UNL A   1      42.928  33.962  31.177  1.00  0.00     0.034 A 
BRANCH  51  65
ATOM     65  C   UNL A   1      46.633  29.325  29.419  1.00  0.00     0.023 A 
ATOM     66  C   UNL A   1      47.231  28.643  30.499  1.00  0.00     0.012 A 
ATOM     67  C   UNL A   1      47.351  29.474  28.217  1.00  0.00     0.148 A 
ATOM     68  C   UNL A   1      48.538  28.165  30.406  1.00  0.00     0.002 A 
ATOM     69  C   UNL A   1      48.636  28.952  28.114  1.00  0.00     0.091 A 
ATOM     70  F   UNL A   1      46.777  30.140  27.205  1.00  0.00    -0.205 F 
ATOM     71  C   UNL A   1      49.236  28.312  29.211  1.00  0.00     0.022 A 
BRANCH  69  72
ATOM     72  S   UNL A   1      49.588  29.016  26.592  1.00  0.00     0.127 S 
ATOM     73  O   UNL A   1      50.722  28.152  26.916  1.00  0.00    -0.237 OA
ATOM     74  O   UNL A   1      48.651  28.452  25.619  1.00  0.00    -0.237 OA
ATOM     75  O   UNL A   1      49.908  30.421  26.380  1.00  0.00    -0.744 OA
ENDBRANCH  69  72
ENDBRANCH  51  65
BRANCH  52  76
ATOM     76  C   UNL A   1      37.151  32.193  30.614  1.00  0.00     0.023 A 
ATOM     77  C   UNL A   1      36.604  32.052  31.904  1.00  0.00     0.012 A 
ATOM     78  C   UNL A   1      36.366  32.759  29.591  1.00  0.00     0.148 A 
ATOM     79  C   UNL A   1      35.292  32.450  32.165  1.00  0.00     0.002 A 
ATOM     80  C   UNL A   1      35.081  33.206  29.872  1.00  0.00     0.091 A 
ATOM     81  F   UNL A   1      36.906  32.877  28.370  1.00  0.00    -0.205 F 
ATOM     82  C   UNL A   1      34.536  33.036  31.154  1.00  0.00     0.022 A 
BRANCH  80  83
ATOM     83  S   UNL A   1      34.088  34.103  28.673  1.00  0.00     0.127 S 
ATOM     84  O   UNL A   1      33.802  33.065  27.686  1.00  0.00    -0.237 OA
ATOM     85  O   UNL A   1      32.943  34.518  29.484  1.00  0.00    -0.237 OA
ATOM     86  O   UNL A   1      34.925  35.201  28.207  1.00  0.00    -0.744 OA
ENDBRANCH  80  83
ENDBRANCH  52  76
BRANCH  64  87
ATOM     87  C   UNL A   1      43.310  35.309  31.737  1.00  0.00     0.023 A 
ATOM     88  C   UNL A   1      43.582  36.381  30.865  1.00  0.00     0.012 A 
ATOM     89  C   UNL A   1      43.336  35.528  33.128  1.00  0.00     0.148 A 
ATOM     90  C   UNL A   1      43.907  37.641  31.367  1.00  0.00     0.002 A 
ATOM     91  C   UNL A   1      43.609  36.799  33.622  1.00  0.00     0.091 A 
ATOM     92  F   UNL A   1      43.091  34.492  33.943  1.00  0.00    -0.205 F 
ATOM     93  C   UNL A   1      43.909  37.853  32.744  1.00  0.00     0.022 A 
BRANCH  91  94
ATOM     94  S   UNL A   1      43.542  37.190  35.375  1.00  0.00     0.127 S 
ATOM     95  O   UNL A   1      44.605  36.340  35.910  1.00  0.00    -0.237 OA
ATOM     96  O   UNL A   1      43.843  38.621  35.382  1.00  0.00    -0.237 OA
ATOM     97  O   UNL A   1      42.195  36.851  35.813  1.00  0.00    -0.744 OA
ENDBRANCH  91  94
ENDBRANCH  64  87
ENDBRANCH  38  39
ENDBRANCH  30  33
ENDBRANCH  28  29
ENDBRANCH  27  28
ENDBRANCH  26  27
ENDBRANCH  25  26
ENDBRANCH   1  25
TORSDOF 21
ENDMDL
MODEL 2
REMARK VINA RESULT:     -10.7      3.893      8.684
REMARK SMILES O=C(COc1ccnc(NCc2ccc(Br)cc2)n1)NCCCCCCNC(=O)c1ccc(-c2c3nc(c(-c4cccc(S(=O)(=O)[O-])c4F)c4ccc([nH]4)c(-c4cccc(S(=O)(=O)[O-])c4F)c4nc(c(-c5cccc(S(=O)(=O)[O-])c5F)c5ccc2[nH]5)C=C4)C=C3)cc1
REMARK SMILES IDX 22 1 21 2 20 3 1 4 2 5 3 7 4 8 5 9 6 10 19 11 7 12 9 13 8 14
REMARK SMILES IDX 10 15 11 17 12 18 13 19 18 20 14 21 17 22 15 23 16 24 23 25
REMARK SMILES IDX 24 26 25 27 26 28 27 29 28 30 29 32 30 33 31 34 92 35 32 36
REMARK SMILES IDX 91 37 33 38 34 39 35 40 85 41 36 42 90 43 84 44 86 45 37 46
REMARK SMILES IDX 89 47 83 48 82 49 38 51 70 52 50 53 69 54 51 55 54 56 68 57
REMARK SMILES IDX 87 58 52 59 53 60 67 62 88 63 55 64 39 65 40 66 48 67 41 68
REMARK SMILES IDX 43 69 49 70 42 71 44 72 45 73 46 74 47 75 71 76 72 77 80 78
REMARK SMILES IDX 73 79 75 80 81 81 74 82 76 83 77 84 78 85 79 86 56 87 57 88
REMARK SMILES IDX 65 89 58 90 60 91 66 92 59 93 61 94 62 95 63 96 64 97
REMARK H PARENT 20 6 10 16 27 31 86 50 54 61
REMARK Flexibility Score: inf
ROOT
ATOM      1  C   UNL A   1      30.479  25.680  25.577  1.00  0.00     0.021 C 
ENDROOT
BRANCH   1   2
ATOM      2  C   UNL A   1      29.940  26.068  24.205  1.00  0.00     0.116 C 
BRANCH   2   3
ATOM      3  N   UNL A   1      30.729  25.510  23.125  1.00  0.00    -0.353 N 
ATOM      4  O   UNL A   1      31.596  27.493  22.338  1.00  0.00    -0.271 OA
ATOM      5  C   UNL A   1      31.558  26.269  22.325  1.00  0.00     0.258 C 
ATOM      6  H   UNL A   1      30.668  24.543  22.953  1.00  0.00     0.163 HD
BRANCH   5   7
ATOM      7  C   UNL A   1      32.462  25.430  21.420  1.00  0.00     0.331 C 
BRANCH   7   8
ATOM      8  O   UNL A   1      33.809  25.353  21.891  1.00  0.00    -0.467 OA
BRANCH   8   9
ATOM      9  C   UNL A   1      33.903  24.672  23.081  1.00  0.00     0.218 A 
ATOM     10  C   UNL A   1      34.503  25.241  24.179  1.00  0.00     0.088 A 
ATOM     11  N   UNL A   1      33.258  23.496  23.114  1.00  0.00    -0.177 NA
ATOM     12  C   UNL A   1      34.443  24.501  25.328  1.00  0.00     0.121 A 
ATOM     13  C   UNL A   1      33.239  22.856  24.290  1.00  0.00     0.226 A 
ATOM     14  N   UNL A   1      33.825  23.313  25.402  1.00  0.00    -0.221 NA
BRANCH  13  15
ATOM     15  N   UNL A   1      32.603  21.659  24.431  1.00  0.00    -0.350 N 
ATOM     16  H   UNL A   1      32.247  21.427  25.318  1.00  0.00     0.164 HD
BRANCH  15  17
ATOM     17  C   UNL A   1      32.423  20.717  23.367  1.00  0.00     0.152 C 
BRANCH  17  18
ATOM     18  C   UNL A   1      32.603  19.311  23.896  1.00  0.00    -0.029 A 
ATOM     19  C   UNL A   1      32.595  19.054  25.275  1.00  0.00     0.007 A 
ATOM     20  C   UNL A   1      32.744  18.232  23.007  1.00  0.00     0.007 A 
ATOM     21  C   UNL A   1      32.729  17.748  25.752  1.00  0.00     0.016 A 
ATOM     22  C   UNL A   1      32.884  16.928  23.482  1.00  0.00     0.016 A 
ATOM     23  C   UNL A   1      32.872  16.692  24.854  1.00  0.00     0.017 A 
ATOM     24  Br  UNL A   1      33.042  14.924  25.501  1.00  0.00    -0.051 Br
ENDBRANCH  17  18
ENDBRANCH  15  17
ENDBRANCH  13  15
ENDBRANCH   8   9
ENDBRANCH   7   8
ENDBRANCH   5   7
ENDBRANCH   2   3
ENDBRANCH   1   2
BRANCH   1  25
ATOM     25  C   UNL A   1      30.964  26.859  26.430  1.00  0.00     0.002 C 
BRANCH  25  26
ATOM     26  C   UNL A   1      32.059  27.725  25.801  1.00  0.00     0.002 C 
BRANCH  26  27
ATOM     27  C   UNL A   1      33.384  27.770  26.566  1.00  0.00     0.021 C 
BRANCH  27  28
ATOM     28  C   UNL A   1      34.341  28.880  26.142  1.00  0.00     0.116 C 
BRANCH  28  29
ATOM     29  N   UNL A   1      33.909  30.195  26.593  1.00  0.00    -0.352 N 
ATOM     30  C   UNL A   1      34.431  30.993  27.581  1.00  0.00     0.251 C 
ATOM     31  H   UNL A   1      33.128  30.567  26.121  1.00  0.00     0.163 HD
ATOM     32  O   UNL A   1      33.830  32.007  27.930  1.00  0.00    -0.269 OA
BRANCH  30  33
ATOM     33  C   UNL A   1      35.702  30.622  28.242  1.00  0.00     0.039 A 
ATOM     34  C   UNL A   1      35.712  29.536  29.121  1.00  0.00     0.014 A 
ATOM     35  C   UNL A   1      36.879  31.332  27.992  1.00  0.00     0.014 A 
ATOM     36  C   UNL A   1      36.916  29.119  29.693  1.00  0.00     0.010 A 
ATOM     37  C   UNL A   1      38.089  30.869  28.502  1.00  0.00     0.010 A 
ATOM     38  C   UNL A   1      38.122  29.756  29.356  1.00  0.00    -0.014 A 
BRANCH  38  39
ATOM     39  C   UNL A   1      39.427  29.241  29.849  1.00  0.00     0.031 A 
ATOM     40  C   UNL A   1      40.145  29.920  30.982  1.00  0.00     0.074 A 
ATOM     41  C   UNL A   1      40.012  28.208  29.211  1.00  0.00     0.049 A 
ATOM     42  N   UNL A   1      41.309  29.636  31.509  1.00  0.00    -0.248 NA
ATOM     43  C   UNL A   1      39.484  31.088  31.584  1.00  0.00     0.031 C 
ATOM     44  C   UNL A   1      39.461  27.519  28.041  1.00  0.00     0.029 A 
ATOM     45  N   UNL A   1      41.211  27.577  29.433  1.00  0.00    -0.354 N 
ATOM     46  C   UNL A   1      41.533  30.602  32.483  1.00  0.00     0.074 A 
ATOM     47  C   UNL A   1      40.402  31.505  32.444  1.00  0.00     0.031 C 
ATOM     48  C   UNL A   1      40.319  26.566  27.649  1.00  0.00     0.029 A 
ATOM     49  C   UNL A   1      41.495  26.597  28.513  1.00  0.00     0.049 A 
ATOM     50  H   UNL A   1      41.810  27.807  30.181  1.00  0.00     0.167 HD
ATOM     51  C   UNL A   1      42.569  30.713  33.349  1.00  0.00     0.034 A 
ATOM     52  C   UNL A   1      42.586  25.820  28.364  1.00  0.00     0.034 A 
ATOM     53  C   UNL A   1      43.684  29.804  33.394  1.00  0.00     0.049 A 
ATOM     54  C   UNL A   1      43.716  25.944  29.348  1.00  0.00     0.074 A 
ATOM     55  C   UNL A   1      44.738  29.779  34.289  1.00  0.00     0.029 A 
ATOM     56  N   UNL A   1      43.903  28.772  32.494  1.00  0.00    -0.354 N 
ATOM     57  N   UNL A   1      43.831  26.757  30.371  1.00  0.00    -0.248 NA
ATOM     58  C   UNL A   1      44.849  25.024  29.181  1.00  0.00     0.031 C 
ATOM     59  C   UNL A   1      45.615  28.758  33.907  1.00  0.00     0.029 A 
ATOM     60  C   UNL A   1      45.086  28.119  32.797  1.00  0.00     0.049 A 
ATOM     61  H   UNL A   1      43.304  28.539  31.748  1.00  0.00     0.167 HD
ATOM     62  C   UNL A   1      45.037  26.432  30.982  1.00  0.00     0.074 A 
ATOM     63  C   UNL A   1      45.601  25.328  30.230  1.00  0.00     0.031 C 
ATOM     64  C   UNL A   1      45.628  27.004  32.060  1.00  0.00     0.034 A 
BRANCH  51  65
ATOM     65  C   UNL A   1      42.520  31.845  34.346  1.00  0.00     0.023 A 
ATOM     66  C   UNL A   1      43.106  33.087  34.021  1.00  0.00     0.012 A 
ATOM     67  C   UNL A   1      41.875  31.694  35.588  1.00  0.00     0.148 A 
ATOM     68  C   UNL A   1      43.096  34.142  34.933  1.00  0.00     0.002 A 
ATOM     69  C   UNL A   1      41.826  32.765  36.473  1.00  0.00     0.091 A 
ATOM     70  F   UNL A   1      41.339  30.503  35.891  1.00  0.00    -0.205 F 
ATOM     71  C   UNL A   1      42.449  33.983  36.155  1.00  0.00     0.022 A 
BRANCH  69  72
ATOM     72  S   UNL A   1      40.946  32.689  38.037  1.00  0.00     0.127 S 
ATOM     73  O   UNL A   1      41.788  31.774  38.806  1.00  0.00    -0.237 OA
ATOM     74  O   UNL A   1      40.992  34.082  38.485  1.00  0.00    -0.237 OA
ATOM     75  O   UNL A   1      39.611  32.198  37.721  1.00  0.00    -0.744 OA
ENDBRANCH  69  72
ENDBRANCH  51  65
BRANCH  52  76
ATOM     76  C   UNL A   1      42.632  24.827  27.254  1.00  0.00     0.023 A 
ATOM     77  C   UNL A   1      43.330  25.134  26.071  1.00  0.00     0.012 A 
ATOM     78  C   UNL A   1      42.038  23.557  27.395  1.00  0.00     0.148 A 
ATOM     79  C   UNL A   1      43.419  24.200  25.037  1.00  0.00     0.002 A 
ATOM     80  C   UNL A   1      42.180  22.613  26.386  1.00  0.00     0.091 A 
ATOM     81  F   UNL A   1      41.372  23.291  28.527  1.00  0.00    -0.205 F 
ATOM     82  C   UNL A   1      42.855  22.937  25.199  1.00  0.00     0.022 A 
BRANCH  80  83
ATOM     83  S   UNL A   1      41.614  20.917  26.567  1.00  0.00     0.127 S 
ATOM     84  O   UNL A   1      42.331  20.489  27.764  1.00  0.00    -0.237 OA
ATOM     85  O   UNL A   1      40.173  21.100  26.742  1.00  0.00    -0.237 OA
ATOM     86  O   UNL A   1      41.989  20.240  25.332  1.00  0.00    -0.744 OA
ENDBRANCH  80  83
ENDBRANCH  52  76
BRANCH  64  87
ATOM     87  C   UNL A   1      46.952  26.440  32.511  1.00  0.00     0.023 A 
ATOM     88  C   UNL A   1      48.153  26.997  32.028  1.00  0.00     0.012 A 
ATOM     89  C   UNL A   1      47.007  25.403  33.463  1.00  0.00     0.148 A 
ATOM     90  C   UNL A   1      49.387  26.507  32.457  1.00  0.00     0.002 A 
ATOM     91  C   UNL A   1      48.238  24.955  33.926  1.00  0.00     0.091 A 
ATOM     92  F   UNL A   1      45.854  24.875  33.898  1.00  0.00    -0.205 F 
ATOM     93  C   UNL A   1      49.429  25.496  33.415  1.00  0.00     0.022 A 
BRANCH  91  94
ATOM     94  S   UNL A   1      48.393  23.724  35.225  1.00  0.00     0.127 S 
ATOM     95  O   UNL A   1      49.817  23.807  35.546  1.00  0.00    -0.237 OA
ATOM     96  O   UNL A   1      47.503  24.254  36.259  1.00  0.00    -0.237 OA
ATOM     97  O   UNL A   1      47.959  22.462  34.640  1.00  0.00    -0.744 OA
ENDBRANCH  91  94
ENDBRANCH  64  87
ENDBRANCH  38  39
ENDBRANCH  30  33
ENDBRANCH  28  29
ENDBRANCH  27  28
ENDBRANCH  26  27
ENDBRANCH  25  26
ENDBRANCH   1  25
TORSDOF 21
ENDMDL
MODEL 3
REMARK VINA RESULT:     -10.6      4.767      7.612
REMARK SMILES O=C(COc1ccnc(NCc2ccc(Br)cc2)n1)NCCCCCCNC(=O)c1ccc(-c2c3nc(c(-c4cccc(S(=O)(=O)[O-])c4F)c4ccc([nH]4)c(-c4cccc(S(=O)(=O)[O-])c4F)c4nc(c(-c5cccc(S(=O)(=O)[O-])c5F)c5ccc2[nH]5)C=C4)C=C3)cc1
REMARK SMILES IDX 22 1 21 2 20 3 1 4 2 5 3 7 4 8 5 9 6 10 19 11 7 12 9 13 8 14
REMARK SMILES IDX 10 15 11 17 12 18 13 19 18 20 14 21 17 22 15 23 16 24 23 25
REMARK SMILES IDX 24 26 25 27 26 28 27 29 28 30 29 32 30 33 31 34 92 35 32 36
REMARK SMILES IDX 91 37 33 38 34 39 35 40 85 41 36 42 90 43 84 44 86 45 37 46
REMARK SMILES IDX 89 47 83 48 82 49 38 51 70 52 50 53 69 54 51 55 54 56 68 57
REMARK SMILES IDX 87 58 52 59 53 60 67 62 88 63 55 64 39 65 40 66 48 67 41 68
REMARK SMILES IDX 43 69 49 70 42 71 44 72 45 73 46 74 47 75 71 76 72 77 80 78
REMARK SMILES IDX 73 79 75 80 81 81 74 82 76 83 77 84 78 85 79 86 56 87 57 88
REMARK SMILES IDX 65 89 58 90 60 91 66 92 59 93 61 94 62 95 63 96 64 97
REMARK H PARENT 20 6 10 16 27 31 86 50 54 61
REMARK Flexibility Score: inf
ROOT
ATOM      1  C   UNL A   1      31.741  27.631  26.651  1.00  0.00     0.021 C 
ENDROOT
BRANCH   1   2
ATOM      2  C   UNL A   1      30.864  26.466  26.210  1.00  0.00     0.116 C 
BRANCH   2   3
ATOM      3  N   UNL A   1      31.554  25.194  26.290  1.00  0.00    -0.353 N 
ATOM      4  O   UNL A   1      29.809  23.966  27.157  1.00  0.00    -0.271 OA
ATOM      5  C   UNL A   1      30.939  24.024  26.687  1.00  0.00     0.258 C 
ATOM      6  H   UNL A   1      32.509  25.164  26.052  1.00  0.00     0.163 HD
BRANCH   5   7
ATOM      7  C   UNL A   1      31.800  22.780  26.462  1.00  0.00     0.331 C 
BRANCH   7   8
ATOM      8  O   UNL A   1      31.523  22.125  25.223  1.00  0.00    -0.467 OA
BRANCH   8   9
ATOM      9  C   UNL A   1      32.421  22.473  24.242  1.00  0.00     0.218 A 
ATOM     10  C   UNL A   1      32.070  22.439  22.913  1.00  0.00     0.088 A 
ATOM     11  N   UNL A   1      33.587  22.964  24.690  1.00  0.00    -0.177 NA
ATOM     12  C   UNL A   1      33.020  22.904  22.045  1.00  0.00     0.121 A 
ATOM     13  C   UNL A   1      34.443  23.412  23.763  1.00  0.00     0.226 A 
ATOM     14  N   UNL A   1      34.205  23.386  22.446  1.00  0.00    -0.221 NA
BRANCH  13  15
ATOM     15  N   UNL A   1      35.651  23.938  24.113  1.00  0.00    -0.350 N 
ATOM     16  H   UNL A   1      36.246  24.248  23.393  1.00  0.00     0.164 HD
BRANCH  15  17
ATOM     17  C   UNL A   1      36.106  24.067  25.465  1.00  0.00     0.152 C 
BRANCH  17  18
ATOM     18  C   UNL A   1      37.299  23.162  25.688  1.00  0.00    -0.029 A 
ATOM     19  C   UNL A   1      38.420  23.611  26.401  1.00  0.00     0.007 A 
ATOM     20  C   UNL A   1      37.283  21.840  25.212  1.00  0.00     0.007 A 
ATOM     21  C   UNL A   1      39.502  22.757  26.629  1.00  0.00     0.016 A 
ATOM     22  C   UNL A   1      38.365  20.988  25.435  1.00  0.00     0.016 A 
ATOM     23  C   UNL A   1      39.470  21.450  26.146  1.00  0.00     0.017 A 
ATOM     24  Br  UNL A   1      40.929  20.293  26.465  1.00  0.00    -0.051 Br
ENDBRANCH  17  18
ENDBRANCH  15  17
ENDBRANCH  13  15
ENDBRANCH   8   9
ENDBRANCH   7   8
ENDBRANCH   5   7
ENDBRANCH   2   3
ENDBRANCH   1   2
BRANCH   1  25
ATOM     25  C   UNL A   1      32.136  28.596  25.526  1.00  0.00     0.002 C 
BRANCH  25  26
ATOM     26  C   UNL A   1      31.801  30.071  25.770  1.00  0.00     0.002 C 
BRANCH  26  27
ATOM     27  C   UNL A   1      32.173  30.611  27.152  1.00  0.00     0.021 C 
BRANCH  27  28
ATOM     28  C   UNL A   1      33.339  31.595  27.172  1.00  0.00     0.116 C 
BRANCH  28  29
ATOM     29  N   UNL A   1      32.914  32.960  27.448  1.00  0.00    -0.352 N 
ATOM     30  C   UNL A   1      33.355  33.833  28.412  1.00  0.00     0.251 C 
ATOM     31  H   UNL A   1      32.208  33.309  26.857  1.00  0.00     0.163 HD
ATOM     32  O   UNL A   1      32.761  34.894  28.596  1.00  0.00    -0.269 OA
BRANCH  30  33
ATOM     33  C   UNL A   1      34.527  33.487  29.247  1.00  0.00     0.039 A 
ATOM     34  C   UNL A   1      34.351  32.629  30.335  1.00  0.00     0.014 A 
ATOM     35  C   UNL A   1      35.795  33.998  28.956  1.00  0.00     0.014 A 
ATOM     36  C   UNL A   1      35.457  32.226  31.087  1.00  0.00     0.010 A 
ATOM     37  C   UNL A   1      36.906  33.536  29.658  1.00  0.00     0.010 A 
ATOM     38  C   UNL A   1      36.750  32.643  30.730  1.00  0.00    -0.014 A 
BRANCH  38  39
ATOM     39  C   UNL A   1      37.948  32.118  31.434  1.00  0.00     0.031 A 
ATOM     40  C   UNL A   1      38.781  31.022  30.829  1.00  0.00     0.074 A 
ATOM     41  C   UNL A   1      38.236  32.570  32.672  1.00  0.00     0.049 A 
ATOM     42  N   UNL A   1      39.830  30.415  31.323  1.00  0.00    -0.248 NA
ATOM     43  C   UNL A   1      38.366  30.524  29.509  1.00  0.00     0.031 C 
ATOM     44  C   UNL A   1      37.455  33.567  33.408  1.00  0.00     0.029 A 
ATOM     45  N   UNL A   1      39.242  32.228  33.541  1.00  0.00    -0.354 N 
ATOM     46  C   UNL A   1      40.183  29.447  30.391  1.00  0.00     0.074 A 
ATOM     47  C   UNL A   1      39.211  29.521  29.321  1.00  0.00     0.031 C 
ATOM     48  C   UNL A   1      38.008  33.754  34.615  1.00  0.00     0.029 A 
ATOM     49  C   UNL A   1      39.160  32.868  34.755  1.00  0.00     0.049 A 
ATOM     50  H   UNL A   1      39.954  31.586  33.316  1.00  0.00     0.167 HD
ATOM     51  C   UNL A   1      41.236  28.593  30.408  1.00  0.00     0.034 A 
ATOM     52  C   UNL A   1      39.912  32.745  35.867  1.00  0.00     0.034 A 
ATOM     53  C   UNL A   1      42.209  28.533  31.466  1.00  0.00     0.049 A 
ATOM     54  C   UNL A   1      41.087  31.808  35.858  1.00  0.00     0.074 A 
ATOM     55  C   UNL A   1      43.358  27.766  31.537  1.00  0.00     0.029 A 
ATOM     56  N   UNL A   1      42.138  29.251  32.651  1.00  0.00    -0.354 N 
ATOM     57  N   UNL A   1      41.506  31.021  34.896  1.00  0.00    -0.248 NA
ATOM     58  C   UNL A   1      41.914  31.767  37.072  1.00  0.00     0.031 C 
ATOM     59  C   UNL A   1      43.961  27.991  32.780  1.00  0.00     0.029 A 
ATOM     60  C   UNL A   1      43.209  28.929  33.468  1.00  0.00     0.049 A 
ATOM     61  H   UNL A   1      41.429  29.896  32.877  1.00  0.00     0.167 HD
ATOM     62  C   UNL A   1      42.656  30.407  35.379  1.00  0.00     0.074 A 
ATOM     63  C   UNL A   1      42.883  30.937  36.710  1.00  0.00     0.031 C 
ATOM     64  C   UNL A   1      43.444  29.481  34.779  1.00  0.00     0.034 A 
BRANCH  51  65
ATOM     65  C   UNL A   1      41.405  27.678  29.220  1.00  0.00     0.023 A 
ATOM     66  C   UNL A   1      40.859  26.377  29.257  1.00  0.00     0.012 A 
ATOM     67  C   UNL A   1      42.076  28.108  28.060  1.00  0.00     0.148 A 
ATOM     68  C   UNL A   1      41.022  25.503  28.183  1.00  0.00     0.002 A 
ATOM     69  C   UNL A   1      42.192  27.248  26.972  1.00  0.00     0.091 A 
ATOM     70  F   UNL A   1      42.606  29.339  28.045  1.00  0.00    -0.205 F 
ATOM     71  C   UNL A   1      41.680  25.942  27.038  1.00  0.00     0.022 A 
BRANCH  69  72
ATOM     72  S   UNL A   1      42.950  27.746  25.422  1.00  0.00     0.127 S 
ATOM     73  O   UNL A   1      42.891  26.504  24.652  1.00  0.00    -0.237 OA
ATOM     74  O   UNL A   1      42.041  28.795  24.957  1.00  0.00    -0.237 OA
ATOM     75  O   UNL A   1      44.288  28.210  25.762  1.00  0.00    -0.744 OA
ENDBRANCH  69  72
ENDBRANCH  51  65
BRANCH  52  76
ATOM     76  C   UNL A   1      39.588  33.570  37.064  1.00  0.00     0.023 A 
ATOM     77  C   UNL A   1      39.958  34.928  37.098  1.00  0.00     0.012 A 
ATOM     78  C   UNL A   1      38.861  33.027  38.141  1.00  0.00     0.148 A 
ATOM     79  C   UNL A   1      39.625  35.727  38.193  1.00  0.00     0.002 A 
ATOM     80  C   UNL A   1      38.483  33.842  39.201  1.00  0.00     0.091 A 
ATOM     81  F   UNL A   1      38.527  31.730  38.090  1.00  0.00    -0.205 F 
ATOM     82  C   UNL A   1      38.879  35.188  39.238  1.00  0.00     0.022 A 
BRANCH  80  83
ATOM     83  S   UNL A   1      37.401  33.272  40.517  1.00  0.00     0.127 S 
ATOM     84  O   UNL A   1      37.321  34.455  41.371  1.00  0.00    -0.237 OA
ATOM     85  O   UNL A   1      36.176  32.957  39.782  1.00  0.00    -0.237 OA
ATOM     86  O   UNL A   1      38.065  32.116  41.105  1.00  0.00    -0.744 OA
ENDBRANCH  80  83
ENDBRANCH  52  76
BRANCH  64  87
ATOM     87  C   UNL A   1      44.644  28.983  35.547  1.00  0.00     0.023 A 
ATOM     88  C   UNL A   1      45.904  29.578  35.343  1.00  0.00     0.012 A 
ATOM     89  C   UNL A   1      44.507  27.971  36.518  1.00  0.00     0.148 A 
ATOM     90  C   UNL A   1      47.017  29.150  36.066  1.00  0.00     0.002 A 
ATOM     91  C   UNL A   1      45.609  27.586  37.272  1.00  0.00     0.091 A 
ATOM     92  F   UNL A   1      43.303  27.405  36.686  1.00  0.00    -0.205 F 
ATOM     93  C   UNL A   1      46.867  28.163  37.038  1.00  0.00     0.022 A 
BRANCH  91  94
ATOM     94  S   UNL A   1      45.495  26.392  38.610  1.00  0.00     0.127 S 
ATOM     95  O   UNL A   1      45.099  25.180  37.894  1.00  0.00    -0.237 OA
ATOM     96  O   UNL A   1      46.863  26.376  39.126  1.00  0.00    -0.237 OA
ATOM     97  O   UNL A   1      44.502  26.917  39.537  1.00  0.00    -0.744 OA
ENDBRANCH  91  94
ENDBRANCH  64  87
ENDBRANCH  38  39
ENDBRANCH  30  33
ENDBRANCH  28  29
ENDBRANCH  27  28
ENDBRANCH  26  27
ENDBRANCH  25  26
ENDBRANCH   1  25
TORSDOF 21
ENDMDL
