MODEL 1
REMARK VINA RESULT:     -12.1      0.000      0.000
REMARK SMILES O=C(NCCCCCCNC(=O)c1cccc(F)c1N1CCN2C(=O)NC[C@@H]2C1)c1ccc(-c2c3nc(c(-c4cccc(S(=O)(=O)[O-])c4F)c4ccc([nH]4)c(-c4cccc(S(=O)(=O)[O-])c4F)c4nc(c(-c5cccc(S(=O)(=O)[O-])c5F)c5ccc2[nH]5)C=C4)C=C3)cc1
REMARK SMILES IDX 5 1 4 2 3 3 1 4 2 5 30 7 31 8 92 9 32 10 91 11 33 12 34 13
REMARK SMILES IDX 35 14 85 15 36 16 90 17 84 18 86 19 37 20 89 21 83 22 82 23
REMARK SMILES IDX 38 25 70 26 50 27 69 28 51 29 54 30 68 31 87 32 52 33 53 34
REMARK SMILES IDX 67 36 88 37 55 38 39 39 40 40 48 41 41 42 43 43 49 44 42 45
REMARK SMILES IDX 44 46 45 47 46 48 47 49 71 50 72 51 80 52 73 53 75 54 81 55
REMARK SMILES IDX 74 56 76 57 77 58 78 59 79 60 56 61 57 62 65 63 58 64 60 65
REMARK SMILES IDX 66 66 59 67 61 68 62 69 63 70 64 71 6 72 7 73 8 74 9 75
REMARK SMILES IDX 10 76 11 77 12 79 13 80 14 81 19 82 15 83 17 84 16 85 18 86
REMARK SMILES IDX 20 87 21 88 29 89 22 90 28 91 23 92 27 93 24 94 26 95 25 96
REMARK H PARENT 3 6 86 24 54 35 10 78 26 97
REMARK Flexibility Score: inf
ROOT
ATOM      1  C   UNL A   1      31.557  32.159  26.675  1.00  0.00     0.021 C 
ENDROOT
BRANCH   1   2
ATOM      2  C   UNL A   1      32.788  32.750  27.348  1.00  0.00     0.116 C 
BRANCH   2   3
ATOM      3  N   UNL A   1      32.585  34.129  27.760  1.00  0.00    -0.352 N 
ATOM      4  O   UNL A   1      32.765  35.926  29.109  1.00  0.00    -0.269 OA
ATOM      5  C   UNL A   1      33.190  34.822  28.783  1.00  0.00     0.251 C 
ATOM      6  H   UNL A   1      31.926  34.637  27.236  1.00  0.00     0.163 HD
BRANCH   5   7
ATOM      7  C   UNL A   1      34.330  34.211  29.498  1.00  0.00     0.039 A 
ATOM      8  C   UNL A   1      35.641  34.536  29.142  1.00  0.00     0.014 A 
ATOM      9  C   UNL A   1      34.089  33.295  30.525  1.00  0.00     0.014 A 
ATOM     10  C   UNL A   1      36.702  33.836  29.700  1.00  0.00     0.010 A 
ATOM     11  C   UNL A   1      35.164  32.665  31.158  1.00  0.00     0.010 A 
ATOM     12  C   UNL A   1      36.480  32.909  30.732  1.00  0.00    -0.014 A 
BRANCH  12  13
ATOM     13  C   UNL A   1      37.644  32.286  31.410  1.00  0.00     0.031 A 
ATOM     14  C   UNL A   1      38.141  32.780  32.739  1.00  0.00     0.074 A 
ATOM     15  C   UNL A   1      38.256  31.250  30.801  1.00  0.00     0.049 A 
ATOM     16  N   UNL A   1      39.137  32.330  33.457  1.00  0.00    -0.248 NA
ATOM     17  C   UNL A   1      37.441  33.926  33.339  1.00  0.00     0.031 C 
ATOM     18  C   UNL A   1      37.881  30.708  29.491  1.00  0.00     0.029 A 
ATOM     19  N   UNL A   1      39.314  30.471  31.190  1.00  0.00    -0.354 N 
ATOM     20  C   UNL A   1      39.211  33.155  34.573  1.00  0.00     0.074 A 
ATOM     21  C   UNL A   1      38.160  34.140  34.434  1.00  0.00     0.031 C 
ATOM     22  C   UNL A   1      38.671  29.667  29.203  1.00  0.00     0.029 A 
ATOM     23  C   UNL A   1      39.655  29.510  30.267  1.00  0.00     0.049 A 
ATOM     24  H   UNL A   1      39.785  30.587  32.047  1.00  0.00     0.167 HD
ATOM     25  C   UNL A   1      40.068  33.085  35.619  1.00  0.00     0.034 A 
ATOM     26  C   UNL A   1      40.661  28.615  30.258  1.00  0.00     0.034 A 
ATOM     27  C   UNL A   1      41.094  32.085  35.756  1.00  0.00     0.049 A 
ATOM     28  C   UNL A   1      41.596  28.564  31.428  1.00  0.00     0.074 A 
ATOM     29  C   UNL A   1      41.971  31.897  36.810  1.00  0.00     0.029 A 
ATOM     30  N   UNL A   1      41.396  31.116  34.811  1.00  0.00    -0.354 N 
ATOM     31  N   UNL A   1      41.578  29.281  32.526  1.00  0.00    -0.248 NA
ATOM     32  C   UNL A   1      42.675  27.569  31.375  1.00  0.00     0.031 C 
ATOM     33  C   UNL A   1      42.828  30.842  36.485  1.00  0.00     0.029 A 
ATOM     34  C   UNL A   1      42.456  30.340  35.248  1.00  0.00     0.049 A 
ATOM     35  H   UNL A   1      40.926  30.998  33.954  1.00  0.00     0.167 HD
ATOM     36  C   UNL A   1      42.625  28.809  33.305  1.00  0.00     0.074 A 
ATOM     37  C   UNL A   1      43.245  27.729  32.563  1.00  0.00     0.031 C 
ATOM     38  C   UNL A   1      43.041  29.242  34.521  1.00  0.00     0.034 A 
BRANCH  25  39
ATOM     39  C   UNL A   1      39.924  34.097  36.729  1.00  0.00     0.023 A 
ATOM     40  C   UNL A   1      40.194  35.457  36.474  1.00  0.00     0.012 A 
ATOM     41  C   UNL A   1      39.415  33.719  37.989  1.00  0.00     0.148 A 
ATOM     42  C   UNL A   1      39.983  36.421  37.461  1.00  0.00     0.002 A 
ATOM     43  C   UNL A   1      39.164  34.691  38.951  1.00  0.00     0.091 A 
ATOM     44  F   UNL A   1      39.179  32.420  38.219  1.00  0.00    -0.205 F 
ATOM     45  C   UNL A   1      39.456  36.040  38.692  1.00  0.00     0.022 A 
BRANCH  43  46
ATOM     46  S   UNL A   1      38.402  34.317  40.534  1.00  0.00     0.127 S 
ATOM     47  O   UNL A   1      38.134  35.658  41.055  1.00  0.00    -0.237 OA
ATOM     48  O   UNL A   1      37.209  33.572  40.132  1.00  0.00    -0.237 OA
ATOM     49  O   UNL A   1      39.382  33.544  41.282  1.00  0.00    -0.744 OA
ENDBRANCH  43  46
ENDBRANCH  25  39
BRANCH  26  50
ATOM     50  C   UNL A   1      40.789  27.677  29.108  1.00  0.00     0.023 A 
ATOM     51  C   UNL A   1      39.935  26.562  29.024  1.00  0.00     0.012 A 
ATOM     52  C   UNL A   1      41.690  27.938  28.055  1.00  0.00     0.148 A 
ATOM     53  C   UNL A   1      39.984  25.715  27.917  1.00  0.00     0.002 A 
ATOM     54  C   UNL A   1      41.688  27.128  26.928  1.00  0.00     0.091 A 
ATOM     55  F   UNL A   1      42.498  29.003  28.162  1.00  0.00    -0.205 F 
ATOM     56  C   UNL A   1      40.847  26.006  26.863  1.00  0.00     0.022 A 
BRANCH  54  57
ATOM     57  S   UNL A   1      42.651  27.512  25.461  1.00  0.00     0.127 S 
ATOM     58  O   UNL A   1      44.007  27.567  26.001  1.00  0.00    -0.237 OA
ATOM     59  O   UNL A   1      42.372  26.354  24.611  1.00  0.00    -0.237 OA
ATOM     60  O   UNL A   1      42.122  28.771  24.958  1.00  0.00    -0.744 OA
ENDBRANCH  54  57
ENDBRANCH  26  50
BRANCH  38  61
ATOM     61  C   UNL A   1      44.211  28.537  35.157  1.00  0.00     0.023 A 
ATOM     62  C   UNL A   1      45.522  28.973  34.890  1.00  0.00     0.012 A 
ATOM     63  C   UNL A   1      43.999  27.516  36.107  1.00  0.00     0.148 A 
ATOM     64  C   UNL A   1      46.609  28.389  35.542  1.00  0.00     0.002 A 
ATOM     65  C   UNL A   1      45.080  26.979  36.793  1.00  0.00     0.091 A 
ATOM     66  F   UNL A   1      42.743  27.105  36.332  1.00  0.00    -0.205 F 
ATOM     67  C   UNL A   1      46.387  27.406  36.504  1.00  0.00     0.022 A 
BRANCH  65  68
ATOM     68  S   UNL A   1      44.885  25.786  38.122  1.00  0.00     0.127 S 
ATOM     69  O   UNL A   1      46.263  25.630  38.586  1.00  0.00    -0.237 OA
ATOM     70  O   UNL A   1      44.005  26.499  39.049  1.00  0.00    -0.237 OA
ATOM     71  O   UNL A   1      44.297  24.599  37.516  1.00  0.00    -0.744 OA
ENDBRANCH  65  68
ENDBRANCH  38  61
ENDBRANCH  12  13
ENDBRANCH   5   7
ENDBRANCH   2   3
ENDBRANCH   1   2
BRANCH   1  72
ATOM     72  C   UNL A   1      31.735  30.734  26.154  1.00  0.00     0.002 C 
BRANCH  72  73
ATOM     73  C   UNL A   1      32.682  29.850  26.971  1.00  0.00     0.002 C 
BRANCH  73  74
ATOM     74  C   UNL A   1      33.697  29.040  26.160  1.00  0.00     0.021 C 
BRANCH  74  75
ATOM     75  C   UNL A   1      33.327  27.579  25.932  1.00  0.00     0.116 C 
BRANCH  75  76
ATOM     76  N   UNL A   1      33.799  27.081  24.651  1.00  0.00    -0.352 N 
ATOM     77  C   UNL A   1      33.135  26.982  23.451  1.00  0.00     0.253 C 
ATOM     78  H   UNL A   1      34.732  26.769  24.641  1.00  0.00     0.163 HD
ATOM     79  O   UNL A   1      33.715  26.512  22.478  1.00  0.00    -0.269 OA
BRANCH  77  80
ATOM     80  C   UNL A   1      31.737  27.469  23.355  1.00  0.00     0.066 A 
ATOM     81  C   UNL A   1      31.556  28.763  22.822  1.00  0.00     0.016 A 
ATOM     82  C   UNL A   1      30.637  26.653  23.698  1.00  0.00     0.086 A 
ATOM     83  C   UNL A   1      30.283  29.312  22.713  1.00  0.00     0.004 A 
ATOM     84  C   UNL A   1      29.366  27.250  23.565  1.00  0.00     0.147 A 
ATOM     85  C   UNL A   1      29.187  28.557  23.103  1.00  0.00     0.041 A 
ATOM     86  F   UNL A   1      28.265  26.562  23.912  1.00  0.00    -0.205 F 
BRANCH  82  87
ATOM     87  N   UNL A   1      30.769  25.334  24.105  1.00  0.00    -0.365 N 
ATOM     88  C   UNL A   1      30.536  24.236  23.143  1.00  0.00     0.138 C 
ATOM     89  C   UNL A   1      30.769  24.964  25.530  1.00  0.00     0.143 C 
ATOM     90  C   UNL A   1      31.479  23.037  23.407  1.00  0.00     0.143 C 
ATOM     91  C   UNL A   1      31.815  23.868  25.751  1.00  0.00     0.125 C 
ATOM     92  N   UNL A   1      31.645  22.762  24.822  1.00  0.00    -0.317 N 
ATOM     93  C   UNL A   1      31.790  23.162  27.100  1.00  0.00     0.144 C 
ATOM     94  C   UNL A   1      32.052  21.576  25.401  1.00  0.00     0.317 C 
ATOM     95  N   UNL A   1      32.204  21.819  26.762  1.00  0.00    -0.336 N 
ATOM     96  O   UNL A   1      32.251  20.505  24.853  1.00  0.00    -0.249 OA
ATOM     97  H   UNL A   1      32.549  21.162  27.411  1.00  0.00     0.165 HD
ENDBRANCH  82  87
ENDBRANCH  77  80
ENDBRANCH  75  76
ENDBRANCH  74  75
ENDBRANCH  73  74
ENDBRANCH  72  73
ENDBRANCH   1  72
TORSDOF 17
ENDMDL
MODEL 2
REMARK VINA RESULT:     -12.1      1.399      7.606
REMARK SMILES O=C(NCCCCCCNC(=O)c1cccc(F)c1N1CCN2C(=O)NC[C@@H]2C1)c1ccc(-c2c3nc(c(-c4cccc(S(=O)(=O)[O-])c4F)c4ccc([nH]4)c(-c4cccc(S(=O)(=O)[O-])c4F)c4nc(c(-c5cccc(S(=O)(=O)[O-])c5F)c5ccc2[nH]5)C=C4)C=C3)cc1
REMARK SMILES IDX 5 1 4 2 3 3 1 4 2 5 30 7 31 8 92 9 32 10 91 11 33 12 34 13
REMARK SMILES IDX 35 14 85 15 36 16 90 17 84 18 86 19 37 20 89 21 83 22 82 23
REMARK SMILES IDX 38 25 70 26 50 27 69 28 51 29 54 30 68 31 87 32 52 33 53 34
REMARK SMILES IDX 67 36 88 37 55 38 39 39 40 40 48 41 41 42 43 43 49 44 42 45
REMARK SMILES IDX 44 46 45 47 46 48 47 49 71 50 72 51 80 52 73 53 75 54 81 55
REMARK SMILES IDX 74 56 76 57 77 58 78 59 79 60 56 61 57 62 65 63 58 64 60 65
REMARK SMILES IDX 66 66 59 67 61 68 62 69 63 70 64 71 6 72 7 73 8 74 9 75
REMARK SMILES IDX 10 76 11 77 12 79 13 80 14 81 19 82 15 83 17 84 16 85 18 86
REMARK SMILES IDX 20 87 21 88 29 89 22 90 28 91 23 92 27 93 24 94 26 95 25 96
REMARK H PARENT 3 6 86 24 54 35 10 78 26 97
REMARK Flexibility Score: inf
ROOT
ATOM      1  C   UNL A   1      31.335  31.930  26.598  1.00  0.00     0.021 C 
ENDROOT
BRANCH   1   2
ATOM      2  C   UNL A   1      32.675  32.529  27.000  1.00  0.00     0.116 C 
BRANCH   2   3
ATOM      3  N   UNL A   1      32.554  33.902  27.460  1.00  0.00    -0.352 N 
ATOM      4  O   UNL A   1      32.872  35.649  28.849  1.00  0.00    -0.269 OA
ATOM      5  C   UNL A   1      33.232  34.537  28.474  1.00  0.00     0.251 C 
ATOM      6  H   UNL A   1      31.897  34.454  26.978  1.00  0.00     0.163 HD
BRANCH   5   7
ATOM      7  C   UNL A   1      34.372  33.855  29.122  1.00  0.00     0.039 A 
ATOM      8  C   UNL A   1      35.683  34.222  28.809  1.00  0.00     0.014 A 
ATOM      9  C   UNL A   1      34.131  32.831  30.041  1.00  0.00     0.014 A 
ATOM     10  C   UNL A   1      36.745  33.468  29.290  1.00  0.00     0.010 A 
ATOM     11  C   UNL A   1      35.206  32.138  30.605  1.00  0.00     0.010 A 
ATOM     12  C   UNL A   1      36.522  32.432  30.213  1.00  0.00    -0.014 A 
BRANCH  12  13
ATOM     13  C   UNL A   1      37.686  31.742  30.822  1.00  0.00     0.031 A 
ATOM     14  C   UNL A   1      38.486  30.721  30.064  1.00  0.00     0.074 A 
ATOM     15  C   UNL A   1      38.019  32.054  32.092  1.00  0.00     0.049 A 
ATOM     16  N   UNL A   1      39.533  30.045  30.459  1.00  0.00    -0.248 NA
ATOM     17  C   UNL A   1      38.058  30.411  28.690  1.00  0.00     0.031 C 
ATOM     18  C   UNL A   1      37.292  33.007  32.938  1.00  0.00     0.029 A 
ATOM     19  N   UNL A   1      39.040  31.614  32.893  1.00  0.00    -0.354 N 
ATOM     20  C   UNL A   1      39.869  29.205  29.405  1.00  0.00     0.074 A 
ATOM     21  C   UNL A   1      38.909  29.451  28.351  1.00  0.00     0.031 C 
ATOM     22  C   UNL A   1      37.908  33.103  34.122  1.00  0.00     0.029 A 
ATOM     23  C   UNL A   1      39.029  32.171  34.150  1.00  0.00     0.049 A 
ATOM     24  H   UNL A   1      39.716  30.962  32.596  1.00  0.00     0.167 HD
ATOM     25  C   UNL A   1      40.892  28.321  29.322  1.00  0.00     0.034 A 
ATOM     26  C   UNL A   1      39.812  31.943  35.221  1.00  0.00     0.034 A 
ATOM     27  C   UNL A   1      41.856  28.103  30.370  1.00  0.00     0.049 A 
ATOM     28  C   UNL A   1      40.934  30.956  35.102  1.00  0.00     0.074 A 
ATOM     29  C   UNL A   1      42.963  27.272  30.355  1.00  0.00     0.029 A 
ATOM     30  N   UNL A   1      41.823  28.699  31.621  1.00  0.00    -0.354 N 
ATOM     31  N   UNL A   1      41.303  30.254  34.057  1.00  0.00    -0.248 NA
ATOM     32  C   UNL A   1      41.764  30.744  36.294  1.00  0.00     0.031 C 
ATOM     33  C   UNL A   1      43.576  27.336  31.609  1.00  0.00     0.029 A 
ATOM     34  C   UNL A   1      42.879  28.242  32.392  1.00  0.00     0.049 A 
ATOM     35  H   UNL A   1      41.148  29.351  31.918  1.00  0.00     0.167 HD
ATOM     36  C   UNL A   1      42.422  29.537  34.457  1.00  0.00     0.074 A 
ATOM     37  C   UNL A   1      42.683  29.904  35.835  1.00  0.00     0.031 C 
ATOM     38  C   UNL A   1      43.156  28.643  33.749  1.00  0.00     0.034 A 
BRANCH  25  39
ATOM     39  C   UNL A   1      41.057  27.536  28.045  1.00  0.00     0.023 A 
ATOM     40  C   UNL A   1      41.635  28.150  26.916  1.00  0.00     0.012 A 
ATOM     41  C   UNL A   1      40.745  26.161  27.998  1.00  0.00     0.148 A 
ATOM     42  C   UNL A   1      41.878  27.417  25.753  1.00  0.00     0.002 A 
ATOM     43  C   UNL A   1      41.033  25.427  26.853  1.00  0.00     0.091 A 
ATOM     44  F   UNL A   1      40.183  25.596  29.075  1.00  0.00    -0.205 F 
ATOM     45  C   UNL A   1      41.590  26.055  25.727  1.00  0.00     0.022 A 
BRANCH  43  46
ATOM     46  S   UNL A   1      40.785  23.651  26.748  1.00  0.00     0.127 S 
ATOM     47  O   UNL A   1      41.713  23.287  25.677  1.00  0.00    -0.237 OA
ATOM     48  O   UNL A   1      41.191  23.205  28.081  1.00  0.00    -0.237 OA
ATOM     49  O   UNL A   1      39.376  23.456  26.442  1.00  0.00    -0.744 OA
ENDBRANCH  43  46
ENDBRANCH  25  39
BRANCH  26  50
ATOM     50  C   UNL A   1      39.567  32.706  36.476  1.00  0.00     0.023 A 
ATOM     51  C   UNL A   1      40.172  33.965  36.651  1.00  0.00     0.012 A 
ATOM     52  C   UNL A   1      38.668  32.230  37.452  1.00  0.00     0.148 A 
ATOM     53  C   UNL A   1      39.895  34.732  37.783  1.00  0.00     0.002 A 
ATOM     54  C   UNL A   1      38.348  33.027  38.543  1.00  0.00     0.091 A 
ATOM     55  F   UNL A   1      38.111  31.025  37.266  1.00  0.00    -0.205 F 
ATOM     56  C   UNL A   1      38.972  34.272  38.720  1.00  0.00     0.022 A 
BRANCH  54  57
ATOM     57  S   UNL A   1      37.061  32.586  39.716  1.00  0.00     0.127 S 
ATOM     58  O   UNL A   1      37.169  33.663  40.696  1.00  0.00    -0.237 OA
ATOM     59  O   UNL A   1      35.864  32.634  38.875  1.00  0.00    -0.237 OA
ATOM     60  O   UNL A   1      37.403  31.257  40.200  1.00  0.00    -0.744 OA
ENDBRANCH  54  57
ENDBRANCH  26  50
BRANCH  38  61
ATOM     61  C   UNL A   1      44.341  28.009  34.429  1.00  0.00     0.023 A 
ATOM     62  C   UNL A   1      45.580  28.678  34.448  1.00  0.00     0.012 A 
ATOM     63  C   UNL A   1      44.193  26.803  35.144  1.00  0.00     0.148 A 
ATOM     64  C   UNL A   1      46.660  28.146  35.152  1.00  0.00     0.002 A 
ATOM     65  C   UNL A   1      45.256  26.309  35.888  1.00  0.00     0.091 A 
ATOM     66  F   UNL A   1      43.009  26.175  35.096  1.00  0.00    -0.205 F 
ATOM     67  C   UNL A   1      46.494  26.972  35.884  1.00  0.00     0.022 A 
BRANCH  65  68
ATOM     68  S   UNL A   1      45.106  24.864  36.946  1.00  0.00     0.127 S 
ATOM     69  O   UNL A   1      43.935  25.207  37.753  1.00  0.00    -0.237 OA
ATOM     70  O   UNL A   1      44.886  23.793  35.974  1.00  0.00    -0.237 OA
ATOM     71  O   UNL A   1      46.360  24.771  37.681  1.00  0.00    -0.744 OA
ENDBRANCH  65  68
ENDBRANCH  38  61
ENDBRANCH  12  13
ENDBRANCH   5   7
ENDBRANCH   2   3
ENDBRANCH   1   2
BRANCH   1  72
ATOM     72  C   UNL A   1      31.410  30.508  26.047  1.00  0.00     0.002 C 
BRANCH  72  73
ATOM     73  C   UNL A   1      32.136  29.497  26.938  1.00  0.00     0.002 C 
BRANCH  73  74
ATOM     74  C   UNL A   1      33.338  28.795  26.300  1.00  0.00     0.021 C 
BRANCH  74  75
ATOM     75  C   UNL A   1      33.124  27.325  25.956  1.00  0.00     0.116 C 
BRANCH  75  76
ATOM     76  N   UNL A   1      33.634  26.984  24.638  1.00  0.00    -0.352 N 
ATOM     77  C   UNL A   1      32.992  26.991  23.423  1.00  0.00     0.253 C 
ATOM     78  H   UNL A   1      34.578  26.707  24.613  1.00  0.00     0.163 HD
ATOM     79  O   UNL A   1      33.604  26.648  22.416  1.00  0.00    -0.269 OA
BRANCH  77  80
ATOM     80  C   UNL A   1      31.579  27.436  23.352  1.00  0.00     0.066 A 
ATOM     81  C   UNL A   1      31.351  28.729  22.837  1.00  0.00     0.016 A 
ATOM     82  C   UNL A   1      30.509  26.583  23.700  1.00  0.00     0.086 A 
ATOM     83  C   UNL A   1      30.061  29.240  22.753  1.00  0.00     0.004 A 
ATOM     84  C   UNL A   1      29.219  27.142  23.592  1.00  0.00     0.147 A 
ATOM     85  C   UNL A   1      28.993  28.448  23.149  1.00  0.00     0.041 A 
ATOM     86  F   UNL A   1      28.145  26.417  23.947  1.00  0.00    -0.205 F 
BRANCH  82  87
ATOM     87  N   UNL A   1      30.687  25.264  24.090  1.00  0.00    -0.365 N 
ATOM     88  C   UNL A   1      30.552  24.175  23.099  1.00  0.00     0.138 C 
ATOM     89  C   UNL A   1      30.640  24.866  25.507  1.00  0.00     0.143 C 
ATOM     90  C   UNL A   1      31.540  23.018  23.385  1.00  0.00     0.143 C 
ATOM     91  C   UNL A   1      31.727  23.818  25.756  1.00  0.00     0.125 C 
ATOM     92  N   UNL A   1      31.655  22.723  24.801  1.00  0.00    -0.317 N 
ATOM     93  C   UNL A   1      31.676  23.084  27.091  1.00  0.00     0.144 C 
ATOM     94  C   UNL A   1      32.093  21.547  25.378  1.00  0.00     0.317 C 
ATOM     95  N   UNL A   1      32.171  21.770  26.748  1.00  0.00    -0.336 N 
ATOM     96  O   UNL A   1      32.368  20.498  24.820  1.00  0.00    -0.249 OA
ATOM     97  H   UNL A   1      32.517  21.118  27.400  1.00  0.00     0.165 HD
ENDBRANCH  82  87
ENDBRANCH  77  80
ENDBRANCH  75  76
ENDBRANCH  74  75
ENDBRANCH  73  74
ENDBRANCH  72  73
ENDBRANCH   1  72
TORSDOF 17
ENDMDL
MODEL 3
REMARK VINA RESULT:     -12.1      1.477      8.104
REMARK SMILES O=C(NCCCCCCNC(=O)c1cccc(F)c1N1CCN2C(=O)NC[C@@H]2C1)c1ccc(-c2c3nc(c(-c4cccc(S(=O)(=O)[O-])c4F)c4ccc([nH]4)c(-c4cccc(S(=O)(=O)[O-])c4F)c4nc(c(-c5cccc(S(=O)(=O)[O-])c5F)c5ccc2[nH]5)C=C4)C=C3)cc1
REMARK SMILES IDX 5 1 4 2 3 3 1 4 2 5 30 7 31 8 92 9 32 10 91 11 33 12 34 13
REMARK SMILES IDX 35 14 85 15 36 16 90 17 84 18 86 19 37 20 89 21 83 22 82 23
REMARK SMILES IDX 38 25 70 26 50 27 69 28 51 29 54 30 68 31 87 32 52 33 53 34
REMARK SMILES IDX 67 36 88 37 55 38 39 39 40 40 48 41 41 42 43 43 49 44 42 45
REMARK SMILES IDX 44 46 45 47 46 48 47 49 71 50 72 51 80 52 73 53 75 54 81 55
REMARK SMILES IDX 74 56 76 57 77 58 78 59 79 60 56 61 57 62 65 63 58 64 60 65
REMARK SMILES IDX 66 66 59 67 61 68 62 69 63 70 64 71 6 72 7 73 8 74 9 75
REMARK SMILES IDX 10 76 11 77 12 79 13 80 14 81 19 82 15 83 17 84 16 85 18 86
REMARK SMILES IDX 20 87 21 88 29 89 22 90 28 91 23 92 27 93 24 94 26 95 25 96
REMARK H PARENT 3 6 86 24 54 35 10 78 26 97
REMARK Flexibility Score: inf
ROOT
ATOM      1  C   UNL A   1      31.491  32.275  26.677  1.00  0.00     0.021 C 
ENDROOT
BRANCH   1   2
ATOM      2  C   UNL A   1      32.731  32.833  27.362  1.00  0.00     0.116 C 
BRANCH   2   3
ATOM      3  N   UNL A   1      32.550  34.205  27.805  1.00  0.00    -0.352 N 
ATOM      4  O   UNL A   1      32.765  35.971  29.188  1.00  0.00    -0.269 OA
ATOM      5  C   UNL A   1      33.172  34.869  28.836  1.00  0.00     0.251 C 
ATOM      6  H   UNL A   1      31.893  34.732  27.296  1.00  0.00     0.163 HD
BRANCH   5   7
ATOM      7  C   UNL A   1      34.310  34.229  29.529  1.00  0.00     0.039 A 
ATOM      8  C   UNL A   1      35.621  34.513  29.141  1.00  0.00     0.014 A 
ATOM      9  C   UNL A   1      34.066  33.326  30.567  1.00  0.00     0.014 A 
ATOM     10  C   UNL A   1      36.674  33.785  29.679  1.00  0.00     0.010 A 
ATOM     11  C   UNL A   1      35.136  32.668  31.179  1.00  0.00     0.010 A 
ATOM     12  C   UNL A   1      36.448  32.871  30.721  1.00  0.00    -0.014 A 
BRANCH  12  13
ATOM     13  C   UNL A   1      37.609  32.218  31.377  1.00  0.00     0.031 A 
ATOM     14  C   UNL A   1      38.349  31.084  30.726  1.00  0.00     0.074 A 
ATOM     15  C   UNL A   1      37.993  32.669  32.588  1.00  0.00     0.049 A 
ATOM     16  N   UNL A   1      39.386  30.423  31.170  1.00  0.00    -0.248 NA
ATOM     17  C   UNL A   1      37.865  30.626  29.413  1.00  0.00     0.031 C 
ATOM     18  C   UNL A   1      37.327  33.743  33.332  1.00  0.00     0.029 A 
ATOM     19  N   UNL A   1      39.026  32.292  33.407  1.00  0.00    -0.354 N 
ATOM     20  C   UNL A   1      39.659  29.449  30.217  1.00  0.00     0.074 A 
ATOM     21  C   UNL A   1      38.672  29.601  29.169  1.00  0.00     0.031 C 
ATOM     22  C   UNL A   1      37.985  33.959  34.478  1.00  0.00     0.029 A 
ATOM     23  C   UNL A   1      39.075  32.997  34.587  1.00  0.00     0.049 A 
ATOM     24  H   UNL A   1      39.670  31.585  33.173  1.00  0.00     0.167 HD
ATOM     25  C   UNL A   1      40.649  28.525  30.213  1.00  0.00     0.034 A 
ATOM     26  C   UNL A   1      39.885  32.872  35.654  1.00  0.00     0.034 A 
ATOM     27  C   UNL A   1      41.639  28.400  31.251  1.00  0.00     0.049 A 
ATOM     28  C   UNL A   1      40.970  31.838  35.624  1.00  0.00     0.074 A 
ATOM     29  C   UNL A   1      42.718  27.534  31.305  1.00  0.00     0.029 A 
ATOM     30  N   UNL A   1      41.668  29.144  32.421  1.00  0.00    -0.354 N 
ATOM     31  N   UNL A   1      41.280  31.001  34.662  1.00  0.00    -0.248 NA
ATOM     32  C   UNL A   1      41.832  31.741  36.809  1.00  0.00     0.031 C 
ATOM     33  C   UNL A   1      43.374  27.727  32.524  1.00  0.00     0.029 A 
ATOM     34  C   UNL A   1      42.733  28.746  33.210  1.00  0.00     0.049 A 
ATOM     35  H   UNL A   1      41.025  29.852  32.655  1.00  0.00     0.167 HD
ATOM     36  C   UNL A   1      42.388  30.297  35.114  1.00  0.00     0.074 A 
ATOM     37  C   UNL A   1      42.707  30.819  36.428  1.00  0.00     0.031 C 
ATOM     38  C   UNL A   1      43.069  29.298  34.499  1.00  0.00     0.034 A 
BRANCH  25  39
ATOM     39  C   UNL A   1      40.746  27.586  29.037  1.00  0.00     0.023 A 
ATOM     40  C   UNL A   1      39.817  26.533  28.905  1.00  0.00     0.012 A 
ATOM     41  C   UNL A   1      41.682  27.812  28.007  1.00  0.00     0.148 A 
ATOM     42  C   UNL A   1      39.834  25.707  27.781  1.00  0.00     0.002 A 
ATOM     43  C   UNL A   1      41.662  27.014  26.869  1.00  0.00     0.091 A 
ATOM     44  F   UNL A   1      42.567  28.807  28.156  1.00  0.00    -0.205 F 
ATOM     45  C   UNL A   1      40.746  25.956  26.758  1.00  0.00     0.022 A 
BRANCH  43  46
ATOM     46  S   UNL A   1      42.733  27.307  25.456  1.00  0.00     0.127 S 
ATOM     47  O   UNL A   1      42.581  26.059  24.708  1.00  0.00    -0.237 OA
ATOM     48  O   UNL A   1      42.105  28.472  24.832  1.00  0.00    -0.237 OA
ATOM     49  O   UNL A   1      44.062  27.549  25.999  1.00  0.00    -0.744 OA
ENDBRANCH  43  46
ENDBRANCH  25  39
BRANCH  26  50
ATOM     50  C   UNL A   1      39.708  33.790  36.813  1.00  0.00     0.023 A 
ATOM     51  C   UNL A   1      40.014  35.156  36.669  1.00  0.00     0.012 A 
ATOM     52  C   UNL A   1      39.151  33.331  38.024  1.00  0.00     0.148 A 
ATOM     53  C   UNL A   1      39.782  36.048  37.716  1.00  0.00     0.002 A 
ATOM     54  C   UNL A   1      38.863  34.235  39.038  1.00  0.00     0.091 A 
ATOM     55  F   UNL A   1      38.874  32.024  38.139  1.00  0.00    -0.205 F 
ATOM     56  C   UNL A   1      39.192  35.591  38.893  1.00  0.00     0.022 A 
BRANCH  54  57
ATOM     57  S   UNL A   1      37.966  33.767  40.522  1.00  0.00     0.127 S 
ATOM     58  O   UNL A   1      38.886  32.815  41.139  1.00  0.00    -0.237 OA
ATOM     59  O   UNL A   1      37.848  35.050  41.216  1.00  0.00    -0.237 OA
ATOM     60  O   UNL A   1      36.700  33.212  40.063  1.00  0.00    -0.744 OA
ENDBRANCH  54  57
ENDBRANCH  26  50
BRANCH  38  61
ATOM     61  C   UNL A   1      44.254  28.708  35.217  1.00  0.00     0.023 A 
ATOM     62  C   UNL A   1      45.539  29.247  35.011  1.00  0.00     0.012 A 
ATOM     63  C   UNL A   1      44.074  27.694  36.180  1.00  0.00     0.148 A 
ATOM     64  C   UNL A   1      46.630  28.771  35.737  1.00  0.00     0.002 A 
ATOM     65  C   UNL A   1      45.155  27.265  36.938  1.00  0.00     0.091 A 
ATOM     66  F   UNL A   1      42.845  27.184  36.346  1.00  0.00    -0.205 F 
ATOM     67  C   UNL A   1      46.436  27.793  36.711  1.00  0.00     0.022 A 
BRANCH  65  68
ATOM     68  S   UNL A   1      44.983  26.089  38.286  1.00  0.00     0.127 S 
ATOM     69  O   UNL A   1      44.438  24.921  37.593  1.00  0.00    -0.237 OA
ATOM     70  O   UNL A   1      46.365  25.939  38.741  1.00  0.00    -0.237 OA
ATOM     71  O   UNL A   1      44.088  26.710  39.252  1.00  0.00    -0.744 OA
ENDBRANCH  65  68
ENDBRANCH  38  61
ENDBRANCH  12  13
ENDBRANCH   5   7
ENDBRANCH   2   3
ENDBRANCH   1   2
BRANCH   1  72
ATOM     72  C   UNL A   1      31.544  30.778  26.380  1.00  0.00     0.002 C 
BRANCH  72  73
ATOM     73  C   UNL A   1      32.659  30.007  27.091  1.00  0.00     0.002 C 
BRANCH  73  74
ATOM     74  C   UNL A   1      33.815  29.543  26.200  1.00  0.00     0.021 C 
BRANCH  74  75
ATOM     75  C   UNL A   1      34.002  28.033  26.112  1.00  0.00     0.116 C 
BRANCH  75  76
ATOM     76  N   UNL A   1      32.872  27.301  26.659  1.00  0.00    -0.352 N 
ATOM     77  C   UNL A   1      32.380  26.065  26.315  1.00  0.00     0.253 C 
ATOM     78  H   UNL A   1      32.387  27.759  27.383  1.00  0.00     0.163 HD
ATOM     79  O   UNL A   1      31.392  25.626  26.895  1.00  0.00    -0.269 OA
BRANCH  77  80
ATOM     80  C   UNL A   1      33.070  25.278  25.265  1.00  0.00     0.066 A 
ATOM     81  C   UNL A   1      34.131  24.452  25.691  1.00  0.00     0.016 A 
ATOM     82  C   UNL A   1      32.637  25.285  23.921  1.00  0.00     0.086 A 
ATOM     83  C   UNL A   1      34.851  23.694  24.774  1.00  0.00     0.004 A 
ATOM     84  C   UNL A   1      33.393  24.496  23.029  1.00  0.00     0.147 A 
ATOM     85  C   UNL A   1      34.489  23.731  23.436  1.00  0.00     0.041 A 
ATOM     86  F   UNL A   1      33.080  24.480  21.722  1.00  0.00    -0.205 F 
BRANCH  82  87
ATOM     87  N   UNL A   1      31.521  25.985  23.487  1.00  0.00    -0.365 N 
ATOM     88  C   UNL A   1      30.186  25.351  23.534  1.00  0.00     0.138 C 
ATOM     89  C   UNL A   1      31.645  27.185  22.643  1.00  0.00     0.143 C 
ATOM     90  C   UNL A   1      29.079  26.381  23.865  1.00  0.00     0.143 C 
ATOM     91  C   UNL A   1      30.612  28.216  23.106  1.00  0.00     0.125 C 
ATOM     92  N   UNL A   1      29.275  27.648  23.185  1.00  0.00    -0.317 N 
ATOM     93  C   UNL A   1      30.395  29.421  22.199  1.00  0.00     0.144 C 
ATOM     94  C   UNL A   1      28.322  28.610  22.917  1.00  0.00     0.317 C 
ATOM     95  N   UNL A   1      28.990  29.706  22.382  1.00  0.00    -0.336 N 
ATOM     96  O   UNL A   1      27.119  28.543  23.104  1.00  0.00    -0.249 OA
ATOM     97  H   UNL A   1      28.562  30.565  22.158  1.00  0.00     0.165 HD
ENDBRANCH  82  87
ENDBRANCH  77  80
ENDBRANCH  75  76
ENDBRANCH  74  75
ENDBRANCH  73  74
ENDBRANCH  72  73
ENDBRANCH   1  72
TORSDOF 17
ENDMDL
