MODEL 1
REMARK VINA RESULT:      -7.6      0.000      0.000
REMARK SMILES CC(C)[C@H](NC(=O)[C@H](C)NC(=O)CNC(=O)OCc1ccccc1)C(=O)NCCCCCCNC(=O)c1ccc(-c2c3nc(c(-c4cccc(S(=O)(=O)[O-])c4F)c4ccc([nH]4)c(-c4cccc(S(=O)(=O)[O-])c4F)c4nc(c(-c5cccc(S(=O)(=O)[O-])c5F)c5ccc2[nH]5)C=C4)C=C3)cc1
REMARK SMILES IDX 28 1 27 2 25 3 26 4 4 6 2 7 1 8 3 9 5 10 6 11 7 13 8 14 9 15
REMARK SMILES IDX 10 16 11 17 12 19 13 20 14 21 15 22 16 24 17 25 18 26 19 27
REMARK SMILES IDX 20 28 24 29 21 30 23 31 22 32 29 33 30 34 31 35 32 36 33 37
REMARK SMILES IDX 34 38 35 39 36 41 37 42 38 43 99 44 39 45 98 46 40 47 41 48
REMARK SMILES IDX 42 49 92 50 43 51 97 52 91 53 93 54 44 55 96 56 90 57 89 58
REMARK SMILES IDX 45 60 77 61 57 62 76 63 58 64 61 65 75 66 94 67 59 68 60 69
REMARK SMILES IDX 74 71 95 72 62 73 46 74 47 75 55 76 48 77 50 78 56 79 49 80
REMARK SMILES IDX 51 81 52 82 53 83 54 84 78 85 79 86 87 87 80 88 82 89 88 90
REMARK SMILES IDX 81 91 83 92 84 93 85 94 86 95 63 96 64 97 72 98 65 99 67 100
REMARK SMILES IDX 73 101 66 102 68 103 69 104 70 105 71 106
REMARK H PARENT 27 5 5 12 10 18 14 23 34 40 93 59 61 70
REMARK Flexibility Score: inf
ROOT
ATOM      1  C   UNL A   1      46.070  29.749  27.081  1.00  0.00     0.116 C 
ENDROOT
BRANCH   1   2
ATOM      2  N   UNL A   1      46.345  29.520  25.683  1.00  0.00    -0.354 N 
ATOM      3  C   UNL A   1      46.486  28.358  24.999  1.00  0.00     0.242 C 
ATOM      4  O   UNL A   1      46.464  28.426  23.765  1.00  0.00    -0.273 OA
ATOM      5  H   UNL A   1      46.445  30.336  25.140  1.00  0.00     0.163 HD
BRANCH   3   6
ATOM      6  C   UNL A   1      46.560  26.980  25.705  1.00  0.00     0.173 C 
BRANCH   6   7
ATOM      7  C   UNL A   1      48.047  26.527  25.939  1.00  0.00     0.015 C 
ATOM      8  C   UNL A   1      48.301  25.631  27.159  1.00  0.00     0.010 C 
ATOM      9  C   UNL A   1      48.698  25.861  24.715  1.00  0.00     0.010 C 
ENDBRANCH   6   7
BRANCH   6  10
ATOM     10  N   UNL A   1      45.713  25.954  25.075  1.00  0.00    -0.342 N 
ATOM     11  C   UNL A   1      44.857  25.019  25.558  1.00  0.00     0.242 C 
ATOM     12  H   UNL A   1      45.780  25.945  24.093  1.00  0.00     0.164 HD
ATOM     13  O   UNL A   1      44.341  24.279  24.709  1.00  0.00    -0.273 OA
BRANCH  11  14
ATOM     14  C   UNL A   1      44.599  24.733  27.051  1.00  0.00     0.168 C 
ATOM     15  C   UNL A   1      45.334  23.567  27.675  1.00  0.00     0.041 C 
BRANCH  14  16
ATOM     16  N   UNL A   1      43.163  24.640  27.287  1.00  0.00    -0.343 N 
ATOM     17  C   UNL A   1      42.307  25.607  27.732  1.00  0.00     0.240 C 
ATOM     18  H   UNL A   1      42.755  23.764  27.098  1.00  0.00     0.164 HD
ATOM     19  O   UNL A   1      41.115  25.319  27.867  1.00  0.00    -0.273 OA
BRANCH  17  20
ATOM     20  C   UNL A   1      42.822  27.016  28.056  1.00  0.00     0.219 C 
BRANCH  20  21
ATOM     21  N   UNL A   1      42.506  27.367  29.429  1.00  0.00    -0.312 N 
ATOM     22  C   UNL A   1      41.627  28.316  29.842  1.00  0.00     0.407 C 
ATOM     23  H   UNL A   1      42.978  26.865  30.133  1.00  0.00     0.167 HD
ATOM     24  O   UNL A   1      41.634  28.712  31.005  1.00  0.00    -0.225 OA
BRANCH  22  25
ATOM     25  O   UNL A   1      40.815  28.770  28.862  1.00  0.00    -0.445 OA
BRANCH  25  26
ATOM     26  C   UNL A   1      39.405  28.606  29.089  1.00  0.00     0.270 C 
BRANCH  26  27
ATOM     27  C   UNL A   1      38.608  29.891  29.026  1.00  0.00    -0.011 A 
ATOM     28  C   UNL A   1      39.120  31.111  29.491  1.00  0.00     0.007 A 
ATOM     29  C   UNL A   1      37.356  29.899  28.389  1.00  0.00     0.007 A 
ATOM     30  C   UNL A   1      38.406  32.299  29.336  1.00  0.00     0.000 A 
ATOM     31  C   UNL A   1      36.639  31.089  28.238  1.00  0.00     0.000 A 
ATOM     32  C   UNL A   1      37.166  32.289  28.709  1.00  0.00     0.000 A 
ENDBRANCH  26  27
ENDBRANCH  25  26
ENDBRANCH  22  25
ENDBRANCH  20  21
ENDBRANCH  17  20
ENDBRANCH  14  16
ENDBRANCH  11  14
ENDBRANCH   6  10
ENDBRANCH   3   6
ENDBRANCH   1   2
BRANCH   1  33
ATOM     33  C   UNL A   1      45.083  30.889  27.295  1.00  0.00     0.021 C 
BRANCH  33  34
ATOM     34  C   UNL A   1      45.549  32.257  26.785  1.00  0.00     0.002 C 
BRANCH  34  35
ATOM     35  C   UNL A   1      44.587  32.981  25.839  1.00  0.00     0.002 C 
BRANCH  35  36
ATOM     36  C   UNL A   1      43.454  33.762  26.508  1.00  0.00     0.021 C 
BRANCH  36  37
ATOM     37  C   UNL A   1      43.370  35.233  26.127  1.00  0.00     0.116 C 
BRANCH  37  38
ATOM     38  N   UNL A   1      44.682  35.850  26.032  1.00  0.00    -0.352 N 
ATOM     39  C   UNL A   1      45.430  36.443  27.020  1.00  0.00     0.251 C 
ATOM     40  H   UNL A   1      45.091  35.841  25.137  1.00  0.00     0.163 HD
ATOM     41  O   UNL A   1      46.439  37.078  26.730  1.00  0.00    -0.269 OA
BRANCH  39  42
ATOM     42  C   UNL A   1      44.998  36.332  28.430  1.00  0.00     0.039 A 
ATOM     43  C   UNL A   1      44.127  37.293  28.947  1.00  0.00     0.014 A 
ATOM     44  C   UNL A   1      45.437  35.274  29.231  1.00  0.00     0.014 A 
ATOM     45  C   UNL A   1      43.645  37.159  30.251  1.00  0.00     0.010 A 
ATOM     46  C   UNL A   1      44.901  35.103  30.504  1.00  0.00     0.010 A 
ATOM     47  C   UNL A   1      44.001  36.043  31.028  1.00  0.00    -0.014 A 
BRANCH  47  48
ATOM     48  C   UNL A   1      43.424  35.825  32.378  1.00  0.00     0.031 A 
ATOM     49  C   UNL A   1      42.158  35.030  32.542  1.00  0.00     0.074 A 
ATOM     50  C   UNL A   1      43.984  36.429  33.446  1.00  0.00     0.049 A 
ATOM     51  N   UNL A   1      41.463  34.802  33.626  1.00  0.00    -0.248 NA
ATOM     52  C   UNL A   1      41.583  34.434  31.324  1.00  0.00     0.031 C 
ATOM     53  C   UNL A   1      45.170  37.289  33.405  1.00  0.00     0.029 A 
ATOM     54  N   UNL A   1      43.613  36.440  34.767  1.00  0.00    -0.354 N 
ATOM     55  C   UNL A   1      40.354  34.071  33.220  1.00  0.00     0.074 A 
ATOM     56  C   UNL A   1      40.452  33.917  31.784  1.00  0.00     0.031 C 
ATOM     57  C   UNL A   1      45.425  37.746  34.641  1.00  0.00     0.029 A 
ATOM     58  C   UNL A   1      44.406  37.240  35.557  1.00  0.00     0.049 A 
ATOM     59  H   UNL A   1      42.851  35.924  35.117  1.00  0.00     0.167 HD
ATOM     60  C   UNL A   1      39.357  33.550  33.975  1.00  0.00     0.034 A 
ATOM     61  C   UNL A   1      44.318  37.543  36.866  1.00  0.00     0.034 A 
ATOM     62  C   UNL A   1      39.287  33.666  35.407  1.00  0.00     0.049 A 
ATOM     63  C   UNL A   1      43.220  36.926  37.688  1.00  0.00     0.074 A 
ATOM     64  C   UNL A   1      38.371  33.092  36.272  1.00  0.00     0.029 A 
ATOM     65  N   UNL A   1      40.158  34.413  36.184  1.00  0.00    -0.354 N 
ATOM     66  N   UNL A   1      42.273  36.101  37.312  1.00  0.00    -0.248 NA
ATOM     67  C   UNL A   1      43.195  37.254  39.121  1.00  0.00     0.031 C 
ATOM     68  C   UNL A   1      38.675  33.512  37.571  1.00  0.00     0.029 A 
ATOM     69  C   UNL A   1      39.794  34.327  37.517  1.00  0.00     0.049 A 
ATOM     70  H   UNL A   1      40.922  34.929  35.839  1.00  0.00     0.167 HD
ATOM     71  C   UNL A   1      41.561  35.785  38.463  1.00  0.00     0.074 A 
ATOM     72  C   UNL A   1      42.199  36.491  39.555  1.00  0.00     0.031 C 
ATOM     73  C   UNL A   1      40.469  34.995  38.602  1.00  0.00     0.034 A 
BRANCH  60  74
ATOM     74  C   UNL A   1      38.288  32.755  33.273  1.00  0.00     0.023 A 
ATOM     75  C   UNL A   1      38.409  31.353  33.183  1.00  0.00     0.012 A 
ATOM     76  C   UNL A   1      37.135  33.383  32.760  1.00  0.00     0.148 A 
ATOM     77  C   UNL A   1      37.418  30.592  32.566  1.00  0.00     0.002 A 
ATOM     78  C   UNL A   1      36.131  32.612  32.184  1.00  0.00     0.091 A 
ATOM     79  F   UNL A   1      37.047  34.718  32.835  1.00  0.00    -0.205 F 
ATOM     80  C   UNL A   1      36.277  31.220  32.076  1.00  0.00     0.022 A 
BRANCH  78  81
ATOM     81  S   UNL A   1      34.587  33.316  31.594  1.00  0.00     0.127 S 
ATOM     82  O   UNL A   1      35.028  34.619  31.099  1.00  0.00    -0.237 OA
ATOM     83  O   UNL A   1      34.195  32.369  30.550  1.00  0.00    -0.237 OA
ATOM     84  O   UNL A   1      33.698  33.353  32.746  1.00  0.00    -0.744 OA
ENDBRANCH  78  81
ENDBRANCH  60  74
BRANCH  61  85
ATOM     85  C   UNL A   1      45.335  38.435  37.493  1.00  0.00     0.023 A 
ATOM     86  C   UNL A   1      46.490  37.867  38.066  1.00  0.00     0.012 A 
ATOM     87  C   UNL A   1      45.185  39.834  37.493  1.00  0.00     0.148 A 
ATOM     88  C   UNL A   1      47.462  38.675  38.656  1.00  0.00     0.002 A 
ATOM     89  C   UNL A   1      46.185  40.637  38.031  1.00  0.00     0.091 A 
ATOM     90  F   UNL A   1      44.075  40.355  36.953  1.00  0.00    -0.205 F 
ATOM     91  C   UNL A   1      47.315  40.060  38.630  1.00  0.00     0.022 A 
BRANCH  89  92
ATOM     92  S   UNL A   1      46.142  42.430  37.918  1.00  0.00     0.127 S 
ATOM     93  O   UNL A   1      47.403  42.801  38.552  1.00  0.00    -0.237 OA
ATOM     94  O   UNL A   1      46.094  42.642  36.471  1.00  0.00    -0.237 OA
ATOM     95  O   UNL A   1      44.933  42.839  38.621  1.00  0.00    -0.744 OA
ENDBRANCH  89  92
ENDBRANCH  61  85
BRANCH  73  96
ATOM     96  C   UNL A   1      39.900  34.823  39.985  1.00  0.00     0.023 A 
ATOM     97  C   UNL A   1      39.047  35.810  40.518  1.00  0.00     0.012 A 
ATOM     98  C   UNL A   1      40.140  33.646  40.721  1.00  0.00     0.148 A 
ATOM     99  C   UNL A   1      38.464  35.642  41.773  1.00  0.00     0.002 A 
ATOM    100  C   UNL A   1      39.517  33.462  41.950  1.00  0.00     0.091 A 
ATOM    101  F   UNL A   1      40.967  32.726  40.204  1.00  0.00    -0.205 F 
ATOM    102  C   UNL A   1      38.689  34.463  42.482  1.00  0.00     0.022 A 
BRANCH 100 103
ATOM    103  S   UNL A   1      39.670  31.941  42.892  1.00  0.00     0.127 S 
ATOM    104  O   UNL A   1      41.099  31.924  43.200  1.00  0.00    -0.237 OA
ATOM    105  O   UNL A   1      38.800  32.198  44.040  1.00  0.00    -0.237 OA
ATOM    106  O   UNL A   1      39.210  30.875  42.011  1.00  0.00    -0.744 OA
ENDBRANCH 100 103
ENDBRANCH  73  96
ENDBRANCH  47  48
ENDBRANCH  39  42
ENDBRANCH  37  38
ENDBRANCH  36  37
ENDBRANCH  35  36
ENDBRANCH  34  35
ENDBRANCH  33  34
ENDBRANCH   1  33
TORSDOF 25
ENDMDL
MODEL 2
REMARK VINA RESULT:      -7.4      6.608     13.380
REMARK SMILES CC(C)[C@H](NC(=O)[C@H](C)NC(=O)CNC(=O)OCc1ccccc1)C(=O)NCCCCCCNC(=O)c1ccc(-c2c3nc(c(-c4cccc(S(=O)(=O)[O-])c4F)c4ccc([nH]4)c(-c4cccc(S(=O)(=O)[O-])c4F)c4nc(c(-c5cccc(S(=O)(=O)[O-])c5F)c5ccc2[nH]5)C=C4)C=C3)cc1
REMARK SMILES IDX 28 1 27 2 25 3 26 4 4 6 2 7 1 8 3 9 5 10 6 11 7 13 8 14 9 15
REMARK SMILES IDX 10 16 11 17 12 19 13 20 14 21 15 22 16 24 17 25 18 26 19 27
REMARK SMILES IDX 20 28 24 29 21 30 23 31 22 32 29 33 30 34 31 35 32 36 33 37
REMARK SMILES IDX 34 38 35 39 36 41 37 42 38 43 99 44 39 45 98 46 40 47 41 48
REMARK SMILES IDX 42 49 92 50 43 51 97 52 91 53 93 54 44 55 96 56 90 57 89 58
REMARK SMILES IDX 45 60 77 61 57 62 76 63 58 64 61 65 75 66 94 67 59 68 60 69
REMARK SMILES IDX 74 71 95 72 62 73 46 74 47 75 55 76 48 77 50 78 56 79 49 80
REMARK SMILES IDX 51 81 52 82 53 83 54 84 78 85 79 86 87 87 80 88 82 89 88 90
REMARK SMILES IDX 81 91 83 92 84 93 85 94 86 95 63 96 64 97 72 98 65 99 67 100
REMARK SMILES IDX 73 101 66 102 68 103 69 104 70 105 71 106
REMARK H PARENT 27 5 5 12 10 18 14 23 34 40 93 59 61 70
REMARK Flexibility Score: inf
ROOT
ATOM      1  C   UNL A   1      36.022  30.086  27.429  1.00  0.00     0.116 C 
ENDROOT
BRANCH   1   2
ATOM      2  N   UNL A   1      35.346  31.169  28.102  1.00  0.00    -0.354 N 
ATOM      3  C   UNL A   1      34.030  31.495  28.131  1.00  0.00     0.242 C 
ATOM      4  O   UNL A   1      33.673  32.314  28.984  1.00  0.00    -0.273 OA
ATOM      5  H   UNL A   1      35.933  31.765  28.623  1.00  0.00     0.163 HD
BRANCH   3   6
ATOM      6  C   UNL A   1      32.982  30.804  27.222  1.00  0.00     0.173 C 
BRANCH   6   7
ATOM      7  C   UNL A   1      31.750  31.739  26.941  1.00  0.00     0.015 C 
ATOM      8  C   UNL A   1      32.035  33.247  26.909  1.00  0.00     0.010 C 
ATOM      9  C   UNL A   1      30.965  31.375  25.669  1.00  0.00     0.010 C 
ENDBRANCH   6   7
BRANCH   6  10
ATOM     10  N   UNL A   1      32.617  29.451  27.674  1.00  0.00    -0.342 N 
ATOM     11  C   UNL A   1      32.509  28.252  27.050  1.00  0.00     0.242 C 
ATOM     12  H   UNL A   1      32.409  29.407  28.635  1.00  0.00     0.164 HD
ATOM     13  O   UNL A   1      32.123  27.314  27.761  1.00  0.00    -0.273 OA
BRANCH  11  14
ATOM     14  C   UNL A   1      32.693  28.014  25.538  1.00  0.00     0.168 C 
ATOM     15  C   UNL A   1      33.952  28.555  24.895  1.00  0.00     0.041 C 
BRANCH  14  16
ATOM     16  N   UNL A   1      31.501  28.463  24.827  1.00  0.00    -0.343 N 
ATOM     17  C   UNL A   1      30.655  27.737  24.036  1.00  0.00     0.240 C 
ATOM     18  H   UNL A   1      31.274  29.415  24.932  1.00  0.00     0.164 HD
ATOM     19  O   UNL A   1      29.695  28.314  23.520  1.00  0.00    -0.273 OA
BRANCH  17  20
ATOM     20  C   UNL A   1      30.901  26.241  23.799  1.00  0.00     0.219 C 
BRANCH  20  21
ATOM     21  N   UNL A   1      31.708  26.044  22.608  1.00  0.00    -0.312 N 
ATOM     22  C   UNL A   1      32.908  25.410  22.537  1.00  0.00     0.407 C 
ATOM     23  H   UNL A   1      31.349  26.407  21.766  1.00  0.00     0.167 HD
ATOM     24  O   UNL A   1      33.622  25.534  21.545  1.00  0.00    -0.225 OA
BRANCH  22  25
ATOM     25  O   UNL A   1      33.215  24.699  23.643  1.00  0.00    -0.445 OA
BRANCH  25  26
ATOM     26  C   UNL A   1      34.555  24.853  24.138  1.00  0.00     0.270 C 
BRANCH  26  27
ATOM     27  C   UNL A   1      35.244  23.555  24.497  1.00  0.00    -0.011 A 
ATOM     28  C   UNL A   1      34.563  22.329  24.513  1.00  0.00     0.007 A 
ATOM     29  C   UNL A   1      36.631  23.545  24.721  1.00  0.00     0.007 A 
ATOM     30  C   UNL A   1      35.239  21.132  24.752  1.00  0.00     0.000 A 
ATOM     31  C   UNL A   1      37.306  22.346  24.965  1.00  0.00     0.000 A 
ATOM     32  C   UNL A   1      36.610  21.140  24.978  1.00  0.00     0.000 A 
ENDBRANCH  26  27
ENDBRANCH  25  26
ENDBRANCH  22  25
ENDBRANCH  20  21
ENDBRANCH  17  20
ENDBRANCH  14  16
ENDBRANCH  11  14
ENDBRANCH   6  10
ENDBRANCH   3   6
ENDBRANCH   1   2
BRANCH   1  33
ATOM     33  C   UNL A   1      37.007  29.365  28.340  1.00  0.00     0.021 C 
BRANCH  33  34
ATOM     34  C   UNL A   1      36.596  29.297  29.816  1.00  0.00     0.002 C 
BRANCH  34  35
ATOM     35  C   UNL A   1      37.746  29.263  30.828  1.00  0.00     0.002 C 
BRANCH  35  36
ATOM     36  C   UNL A   1      37.680  30.302  31.949  1.00  0.00     0.021 C 
BRANCH  36  37
ATOM     37  C   UNL A   1      37.364  31.721  31.497  1.00  0.00     0.116 C 
BRANCH  37  38
ATOM     38  N   UNL A   1      37.927  32.718  32.390  1.00  0.00    -0.352 N 
ATOM     39  C   UNL A   1      39.244  32.957  32.697  1.00  0.00     0.251 C 
ATOM     40  H   UNL A   1      37.274  33.305  32.836  1.00  0.00     0.163 HD
ATOM     41  O   UNL A   1      39.534  33.719  33.613  1.00  0.00    -0.269 OA
BRANCH  39  42
ATOM     42  C   UNL A   1      40.308  32.269  31.934  1.00  0.00     0.039 A 
ATOM     43  C   UNL A   1      40.374  32.454  30.551  1.00  0.00     0.014 A 
ATOM     44  C   UNL A   1      41.245  31.460  32.583  1.00  0.00     0.014 A 
ATOM     45  C   UNL A   1      41.420  31.878  29.826  1.00  0.00     0.010 A 
ATOM     46  C   UNL A   1      42.325  30.946  31.871  1.00  0.00     0.010 A 
ATOM     47  C   UNL A   1      42.424  31.148  30.486  1.00  0.00    -0.014 A 
BRANCH  47  48
ATOM     48  C   UNL A   1      43.598  30.612  29.753  1.00  0.00     0.031 A 
ATOM     49  C   UNL A   1      43.690  29.143  29.440  1.00  0.00     0.074 A 
ATOM     50  C   UNL A   1      44.629  31.430  29.460  1.00  0.00     0.049 A 
ATOM     51  N   UNL A   1      44.670  28.480  28.883  1.00  0.00    -0.248 NA
ATOM     52  C   UNL A   1      42.542  28.306  29.827  1.00  0.00     0.031 C 
ATOM     53  C   UNL A   1      44.692  32.858  29.782  1.00  0.00     0.029 A 
ATOM     54  N   UNL A   1      45.835  31.173  28.858  1.00  0.00    -0.354 N 
ATOM     55  C   UNL A   1      44.276  27.148  28.884  1.00  0.00     0.074 A 
ATOM     56  C   UNL A   1      42.979  27.092  29.524  1.00  0.00     0.031 C 
ATOM     57  C   UNL A   1      45.874  33.349  29.377  1.00  0.00     0.029 A 
ATOM     58  C   UNL A   1      46.666  32.267  28.797  1.00  0.00     0.049 A 
ATOM     59  H   UNL A   1      46.081  30.289  28.502  1.00  0.00     0.167 HD
ATOM     60  C   UNL A   1      44.921  26.071  28.375  1.00  0.00     0.034 A 
ATOM     61  C   UNL A   1      47.927  32.386  28.340  1.00  0.00     0.034 A 
ATOM     62  C   UNL A   1      46.189  26.138  27.699  1.00  0.00     0.049 A 
ATOM     63  C   UNL A   1      48.609  31.182  27.750  1.00  0.00     0.074 A 
ATOM     64  C   UNL A   1      46.879  25.120  27.064  1.00  0.00     0.029 A 
ATOM     65  N   UNL A   1      46.964  27.281  27.580  1.00  0.00    -0.354 N 
ATOM     66  N   UNL A   1      48.151  29.961  27.611  1.00  0.00    -0.248 NA
ATOM     67  C   UNL A   1      49.968  31.376  27.225  1.00  0.00     0.031 C 
ATOM     68  C   UNL A   1      48.083  25.643  26.581  1.00  0.00     0.029 A 
ATOM     69  C   UNL A   1      48.131  26.992  26.894  1.00  0.00     0.049 A 
ATOM     70  H   UNL A   1      46.720  28.168  27.932  1.00  0.00     0.167 HD
ATOM     71  C   UNL A   1      49.149  29.251  26.955  1.00  0.00     0.074 A 
ATOM     72  C   UNL A   1      50.228  30.183  26.704  1.00  0.00     0.031 C 
ATOM     73  C   UNL A   1      49.176  27.942  26.606  1.00  0.00     0.034 A 
BRANCH  60  74
ATOM     74  C   UNL A   1      44.240  24.732  28.477  1.00  0.00     0.023 A 
ATOM     75  C   UNL A   1      44.415  23.950  29.637  1.00  0.00     0.012 A 
ATOM     76  C   UNL A   1      43.376  24.277  27.462  1.00  0.00     0.148 A 
ATOM     77  C   UNL A   1      43.771  22.721  29.770  1.00  0.00     0.002 A 
ATOM     78  C   UNL A   1      42.704  23.071  27.620  1.00  0.00     0.091 A 
ATOM     79  F   UNL A   1      43.238  25.024  26.357  1.00  0.00    -0.205 F 
ATOM     80  C   UNL A   1      42.908  22.287  28.768  1.00  0.00     0.022 A 
BRANCH  78  81
ATOM     81  S   UNL A   1      41.511  22.461  26.423  1.00  0.00     0.127 S 
ATOM     82  O   UNL A   1      42.350  22.279  25.239  1.00  0.00    -0.237 OA
ATOM     83  O   UNL A   1      41.057  21.217  27.045  1.00  0.00    -0.237 OA
ATOM     84  O   UNL A   1      40.490  23.493  26.314  1.00  0.00    -0.744 OA
ENDBRANCH  78  81
ENDBRANCH  60  74
BRANCH  61  85
ATOM     85  C   UNL A   1      48.607  33.713  28.370  1.00  0.00     0.023 A 
ATOM     86  C   UNL A   1      49.441  34.036  29.458  1.00  0.00     0.012 A 
ATOM     87  C   UNL A   1      48.461  34.637  27.318  1.00  0.00     0.148 A 
ATOM     88  C   UNL A   1      50.094  35.268  29.513  1.00  0.00     0.002 A 
ATOM     89  C   UNL A   1      49.159  35.839  27.351  1.00  0.00     0.091 A 
ATOM     90  F   UNL A   1      47.654  34.317  26.298  1.00  0.00    -0.205 F 
ATOM     91  C   UNL A   1      49.962  36.165  28.455  1.00  0.00     0.022 A 
BRANCH  89  92
ATOM     92  S   UNL A   1      49.155  36.991  25.972  1.00  0.00     0.127 S 
ATOM     93  O   UNL A   1      47.729  37.257  25.807  1.00  0.00    -0.237 OA
ATOM     94  O   UNL A   1      49.933  38.108  26.508  1.00  0.00    -0.237 OA
ATOM     95  O   UNL A   1      49.801  36.287  24.871  1.00  0.00    -0.744 OA
ENDBRANCH  89  92
ENDBRANCH  61  85
BRANCH  73  96
ATOM     96  C   UNL A   1      50.399  27.433  25.888  1.00  0.00     0.023 A 
ATOM     97  C   UNL A   1      51.379  26.715  26.602  1.00  0.00     0.012 A 
ATOM     98  C   UNL A   1      50.533  27.591  24.495  1.00  0.00     0.148 A 
ATOM     99  C   UNL A   1      52.489  26.187  25.945  1.00  0.00     0.002 A 
ATOM    100  C   UNL A   1      51.617  27.020  23.838  1.00  0.00     0.091 A 
ATOM    101  F   UNL A   1      49.598  28.291  23.838  1.00  0.00    -0.205 F 
ATOM    102  C   UNL A   1      52.601  26.328  24.563  1.00  0.00     0.022 A 
BRANCH 100 103
ATOM    103  S   UNL A   1      51.798  27.067  22.052  1.00  0.00     0.127 S 
ATOM    104  O   UNL A   1      52.233  28.446  21.833  1.00  0.00    -0.237 OA
ATOM    105  O   UNL A   1      52.829  26.056  21.818  1.00  0.00    -0.237 OA
ATOM    106  O   UNL A   1      50.488  26.732  21.507  1.00  0.00    -0.744 OA
ENDBRANCH 100 103
ENDBRANCH  73  96
ENDBRANCH  47  48
ENDBRANCH  39  42
ENDBRANCH  37  38
ENDBRANCH  36  37
ENDBRANCH  35  36
ENDBRANCH  34  35
ENDBRANCH  33  34
ENDBRANCH   1  33
TORSDOF 25
ENDMDL
MODEL 3
REMARK VINA RESULT:      -7.4      4.376      8.507
REMARK SMILES CC(C)[C@H](NC(=O)[C@H](C)NC(=O)CNC(=O)OCc1ccccc1)C(=O)NCCCCCCNC(=O)c1ccc(-c2c3nc(c(-c4cccc(S(=O)(=O)[O-])c4F)c4ccc([nH]4)c(-c4cccc(S(=O)(=O)[O-])c4F)c4nc(c(-c5cccc(S(=O)(=O)[O-])c5F)c5ccc2[nH]5)C=C4)C=C3)cc1
REMARK SMILES IDX 28 1 27 2 25 3 26 4 4 6 2 7 1 8 3 9 5 10 6 11 7 13 8 14 9 15
REMARK SMILES IDX 10 16 11 17 12 19 13 20 14 21 15 22 16 24 17 25 18 26 19 27
REMARK SMILES IDX 20 28 24 29 21 30 23 31 22 32 29 33 30 34 31 35 32 36 33 37
REMARK SMILES IDX 34 38 35 39 36 41 37 42 38 43 99 44 39 45 98 46 40 47 41 48
REMARK SMILES IDX 42 49 92 50 43 51 97 52 91 53 93 54 44 55 96 56 90 57 89 58
REMARK SMILES IDX 45 60 77 61 57 62 76 63 58 64 61 65 75 66 94 67 59 68 60 69
REMARK SMILES IDX 74 71 95 72 62 73 46 74 47 75 55 76 48 77 50 78 56 79 49 80
REMARK SMILES IDX 51 81 52 82 53 83 54 84 78 85 79 86 87 87 80 88 82 89 88 90
REMARK SMILES IDX 81 91 83 92 84 93 85 94 86 95 63 96 64 97 72 98 65 99 67 100
REMARK SMILES IDX 73 101 66 102 68 103 69 104 70 105 71 106
REMARK H PARENT 27 5 5 12 10 18 14 23 34 40 93 59 61 70
REMARK Flexibility Score: inf
ROOT
ATOM      1  C   UNL A   1      46.723  26.205  28.100  1.00  0.00     0.116 C 
ENDROOT
BRANCH   1   2
ATOM      2  N   UNL A   1      45.678  25.232  28.314  1.00  0.00    -0.354 N 
ATOM      3  C   UNL A   1      44.353  25.297  28.033  1.00  0.00     0.242 C 
ATOM      4  O   UNL A   1      43.718  24.237  28.079  1.00  0.00    -0.273 OA
ATOM      5  H   UNL A   1      45.974  24.389  28.729  1.00  0.00     0.163 HD
BRANCH   3   6
ATOM      6  C   UNL A   1      43.664  26.604  27.566  1.00  0.00     0.173 C 
BRANCH   6   7
ATOM      7  C   UNL A   1      43.152  27.458  28.783  1.00  0.00     0.015 C 
ATOM      8  C   UNL A   1      43.576  26.977  30.176  1.00  0.00     0.010 C 
ATOM      9  C   UNL A   1      43.480  28.957  28.675  1.00  0.00     0.010 C 
ENDBRANCH   6   7
BRANCH   6  10
ATOM     10  N   UNL A   1      42.654  26.389  26.517  1.00  0.00    -0.342 N 
ATOM     11  C   UNL A   1      41.301  26.300  26.523  1.00  0.00     0.242 C 
ATOM     12  H   UNL A   1      43.044  26.291  25.618  1.00  0.00     0.164 HD
ATOM     13  O   UNL A   1      40.778  26.062  25.425  1.00  0.00    -0.273 OA
BRANCH  11  14
ATOM     14  C   UNL A   1      40.411  26.334  27.781  1.00  0.00     0.168 C 
ATOM     15  C   UNL A   1      39.660  25.069  28.138  1.00  0.00     0.041 C 
BRANCH  14  16
ATOM     16  N   UNL A   1      39.511  27.480  27.709  1.00  0.00    -0.343 N 
ATOM     17  C   UNL A   1      39.220  28.398  28.677  1.00  0.00     0.240 C 
ATOM     18  H   UNL A   1      39.054  27.610  26.847  1.00  0.00     0.164 HD
ATOM     19  O   UNL A   1      38.422  29.299  28.411  1.00  0.00    -0.273 OA
BRANCH  17  20
ATOM     20  C   UNL A   1      39.873  28.303  30.063  1.00  0.00     0.219 C 
BRANCH  20  21
ATOM     21  N   UNL A   1      38.966  27.676  31.008  1.00  0.00    -0.312 N 
ATOM     22  C   UNL A   1      38.325  28.281  32.041  1.00  0.00     0.407 C 
ATOM     23  H   UNL A   1      38.800  26.713  30.887  1.00  0.00     0.167 HD
ATOM     24  O   UNL A   1      37.800  27.613  32.928  1.00  0.00    -0.225 OA
BRANCH  22  25
ATOM     25  O   UNL A   1      38.365  29.630  31.992  1.00  0.00    -0.445 OA
BRANCH  25  26
ATOM     26  C   UNL A   1      37.173  30.277  31.516  1.00  0.00     0.270 C 
BRANCH  26  27
ATOM     27  C   UNL A   1      37.065  31.740  31.884  1.00  0.00    -0.011 A 
ATOM     28  C   UNL A   1      37.687  32.747  31.131  1.00  0.00     0.007 A 
ATOM     29  C   UNL A   1      36.233  32.128  32.948  1.00  0.00     0.007 A 
ATOM     30  C   UNL A   1      37.495  34.096  31.433  1.00  0.00     0.000 A 
ATOM     31  C   UNL A   1      36.045  33.479  33.252  1.00  0.00     0.000 A 
ATOM     32  C   UNL A   1      36.674  34.462  32.493  1.00  0.00     0.000 A 
ENDBRANCH  26  27
ENDBRANCH  25  26
ENDBRANCH  22  25
ENDBRANCH  20  21
ENDBRANCH  17  20
ENDBRANCH  14  16
ENDBRANCH  11  14
ENDBRANCH   6  10
ENDBRANCH   3   6
ENDBRANCH   1   2
BRANCH   1  33
ATOM     33  C   UNL A   1      48.070  25.731  28.631  1.00  0.00     0.021 C 
BRANCH  33  34
ATOM     34  C   UNL A   1      48.841  24.789  27.699  1.00  0.00     0.002 C 
BRANCH  34  35
ATOM     35  C   UNL A   1      50.348  25.043  27.591  1.00  0.00     0.002 C 
BRANCH  35  36
ATOM     36  C   UNL A   1      50.765  26.221  26.709  1.00  0.00     0.021 C 
BRANCH  36  37
ATOM     37  C   UNL A   1      51.507  27.337  27.429  1.00  0.00     0.116 C 
BRANCH  37  38
ATOM     38  N   UNL A   1      51.846  28.434  26.539  1.00  0.00    -0.352 N 
ATOM     39  C   UNL A   1      51.147  29.588  26.286  1.00  0.00     0.251 C 
ATOM     40  H   UNL A   1      52.696  28.335  26.050  1.00  0.00     0.163 HD
ATOM     41  O   UNL A   1      51.487  30.325  25.366  1.00  0.00    -0.269 OA
BRANCH  39  42
ATOM     42  C   UNL A   1      49.968  29.924  27.113  1.00  0.00     0.039 A 
ATOM     43  C   UNL A   1      48.726  29.384  26.770  1.00  0.00     0.014 A 
ATOM     44  C   UNL A   1      50.091  30.753  28.232  1.00  0.00     0.014 A 
ATOM     45  C   UNL A   1      47.619  29.625  27.586  1.00  0.00     0.010 A 
ATOM     46  C   UNL A   1      49.004  30.933  29.081  1.00  0.00     0.010 A 
ATOM     47  C   UNL A   1      47.757  30.373  28.768  1.00  0.00    -0.014 A 
BRANCH  47  48
ATOM     48  C   UNL A   1      46.619  30.558  29.703  1.00  0.00     0.031 A 
ATOM     49  C   UNL A   1      45.738  31.773  29.594  1.00  0.00     0.074 A 
ATOM     50  C   UNL A   1      46.442  29.684  30.715  1.00  0.00     0.049 A 
ATOM     51  N   UNL A   1      44.752  32.146  30.367  1.00  0.00    -0.248 NA
ATOM     52  C   UNL A   1      46.018  32.702  28.487  1.00  0.00     0.031 C 
ATOM     53  C   UNL A   1      47.278  28.510  30.973  1.00  0.00     0.029 A 
ATOM     54  N   UNL A   1      45.523  29.668  31.734  1.00  0.00    -0.354 N 
ATOM     55  C   UNL A   1      44.317  33.367  29.866  1.00  0.00     0.074 A 
ATOM     56  C   UNL A   1      45.167  33.686  28.738  1.00  0.00     0.031 C 
ATOM     57  C   UNL A   1      46.836  27.889  32.078  1.00  0.00     0.029 A 
ATOM     58  C   UNL A   1      45.708  28.637  32.627  1.00  0.00     0.049 A 
ATOM     59  H   UNL A   1      44.799  30.329  31.818  1.00  0.00     0.167 HD
ATOM     60  C   UNL A   1      43.288  34.140  30.287  1.00  0.00     0.034 A 
ATOM     61  C   UNL A   1      45.054  28.335  33.765  1.00  0.00     0.034 A 
ATOM     62  C   UNL A   1      42.418  33.796  31.379  1.00  0.00     0.049 A 
ATOM     63  C   UNL A   1      43.894  29.192  34.193  1.00  0.00     0.074 A 
ATOM     64  C   UNL A   1      41.289  34.464  31.821  1.00  0.00     0.029 A 
ATOM     65  N   UNL A   1      42.583  32.699  32.209  1.00  0.00    -0.354 N 
ATOM     66  N   UNL A   1      43.395  30.254  33.608  1.00  0.00    -0.248 NA
ATOM     67  C   UNL A   1      43.187  28.792  35.417  1.00  0.00     0.031 C 
ATOM     68  C   UNL A   1      40.786  33.782  32.934  1.00  0.00     0.029 A 
ATOM     69  C   UNL A   1      41.587  32.676  33.169  1.00  0.00     0.049 A 
ATOM     70  H   UNL A   1      43.304  32.033  32.127  1.00  0.00     0.167 HD
ATOM     71  C   UNL A   1      42.297  30.630  34.373  1.00  0.00     0.074 A 
ATOM     72  C   UNL A   1      42.191  29.669  35.452  1.00  0.00     0.031 C 
ATOM     73  C   UNL A   1      41.462  31.685  34.207  1.00  0.00     0.034 A 
BRANCH  60  74
ATOM     74  C   UNL A   1      43.008  35.410  29.527  1.00  0.00     0.023 A 
ATOM     75  C   UNL A   1      42.130  35.381  28.424  1.00  0.00     0.012 A 
ATOM     76  C   UNL A   1      43.559  36.639  29.939  1.00  0.00     0.148 A 
ATOM     77  C   UNL A   1      41.831  36.547  27.723  1.00  0.00     0.002 A 
ATOM     78  C   UNL A   1      43.221  37.805  29.261  1.00  0.00     0.091 A 
ATOM     79  F   UNL A   1      44.408  36.644  30.976  1.00  0.00    -0.205 F 
ATOM     80  C   UNL A   1      42.367  37.759  28.147  1.00  0.00     0.022 A 
BRANCH  78  81
ATOM     81  S   UNL A   1      43.798  39.427  29.776  1.00  0.00     0.127 S 
ATOM     82  O   UNL A   1      42.884  40.308  29.052  1.00  0.00    -0.237 OA
ATOM     83  O   UNL A   1      43.585  39.385  31.223  1.00  0.00    -0.237 OA
ATOM     84  O   UNL A   1      45.194  39.503  29.370  1.00  0.00    -0.744 OA
ENDBRANCH  78  81
ENDBRANCH  60  74
BRANCH  61  85
ATOM     85  C   UNL A   1      45.447  27.130  34.550  1.00  0.00     0.023 A 
ATOM     86  C   UNL A   1      46.410  27.256  35.570  1.00  0.00     0.012 A 
ATOM     87  C   UNL A   1      44.852  25.876  34.318  1.00  0.00     0.148 A 
ATOM     88  C   UNL A   1      46.796  26.148  36.325  1.00  0.00     0.002 A 
ATOM     89  C   UNL A   1      45.198  24.788  35.112  1.00  0.00     0.091 A 
ATOM     90  F   UNL A   1      43.947  25.773  33.336  1.00  0.00    -0.205 F 
ATOM     91  C   UNL A   1      46.183  24.917  36.104  1.00  0.00     0.022 A 
BRANCH  89  92
ATOM     92  S   UNL A   1      44.362  23.202  34.987  1.00  0.00     0.127 S 
ATOM     93  O   UNL A   1      44.905  22.485  36.137  1.00  0.00    -0.237 OA
ATOM     94  O   UNL A   1      42.957  23.590  35.109  1.00  0.00    -0.237 OA
ATOM     95  O   UNL A   1      44.724  22.670  33.679  1.00  0.00    -0.744 OA
ENDBRANCH  89  92
ENDBRANCH  61  85
BRANCH  73  96
ATOM     96  C   UNL A   1      40.338  31.851  35.195  1.00  0.00     0.023 A 
ATOM     97  C   UNL A   1      39.115  31.184  34.979  1.00  0.00     0.012 A 
ATOM     98  C   UNL A   1      40.521  32.594  36.377  1.00  0.00     0.148 A 
ATOM     99  C   UNL A   1      38.082  31.279  35.911  1.00  0.00     0.002 A 
ATOM    100  C   UNL A   1      39.506  32.645  37.325  1.00  0.00     0.091 A 
ATOM    101  F   UNL A   1      41.686  33.234  36.555  1.00  0.00    -0.205 F 
ATOM    102  C   UNL A   1      38.282  31.997  37.088  1.00  0.00     0.022 A 
BRANCH 100 103
ATOM    103  S   UNL A   1      39.704  33.464  38.910  1.00  0.00     0.127 S 
ATOM    104  O   UNL A   1      39.091  32.500  39.822  1.00  0.00    -0.237 OA
ATOM    105  O   UNL A   1      41.159  33.573  39.023  1.00  0.00    -0.237 OA
ATOM    106  O   UNL A   1      39.010  34.740  38.793  1.00  0.00    -0.744 OA
ENDBRANCH 100 103
ENDBRANCH  73  96
ENDBRANCH  47  48
ENDBRANCH  39  42
ENDBRANCH  37  38
ENDBRANCH  36  37
ENDBRANCH  35  36
ENDBRANCH  34  35
ENDBRANCH  33  34
ENDBRANCH   1  33
TORSDOF 25
ENDMDL
