MODEL 1
REMARK VINA RESULT:     -12.1      0.000      0.000
REMARK SMILES CSc1ccc(/C=C2\C(C)=C(CC(=O)NCCCCCCNC(=O)c3ccc(-c4c5nc(c(-c6cccc(S(=O)(=O)[O-])c6F)c6ccc([nH]6)c(-c6cccc(S(=O)(=O)[O-])c6F)c6nc(c(-c7cccc(S(=O)(=O)[O-])c7F)c7ccc4[nH]7)C=C6)C=C5)cc3)c3cc(F)ccc32)cc1
REMARK SMILES IDX 18 1 17 2 16 3 15 4 13 5 14 6 12 8 11 9 7 10 8 11 9 12 94 13
REMARK SMILES IDX 10 14 88 15 93 16 89 17 92 18 90 19 91 20 6 21 3 22 4 23
REMARK SMILES IDX 96 24 5 25 95 26 2 27 1 28 19 29 20 30 21 31 22 32 23 33
REMARK SMILES IDX 24 35 25 36 26 37 87 38 27 39 86 40 28 41 29 42 30 43 80 44
REMARK SMILES IDX 31 45 85 46 79 47 81 48 32 49 84 50 78 51 77 52 33 54 65 55
REMARK SMILES IDX 45 56 64 57 46 58 49 59 63 60 82 61 47 62 48 63 62 65 83 66
REMARK SMILES IDX 50 67 34 68 35 69 43 70 36 71 38 72 44 73 37 74 39 75 40 76
REMARK SMILES IDX 41 77 42 78 66 79 67 80 75 81 68 82 70 83 76 84 69 85 71 86
REMARK SMILES IDX 72 87 73 88 74 89 51 90 52 91 60 92 53 93 55 94 61 95 54 96
REMARK SMILES IDX 56 97 57 98 58 99 59 100
REMARK H PARENT 15 7 22 34 81 53 49 64
REMARK Flexibility Score: inf
ROOT
ATOM      1  C   UNL A   1      31.801  29.496  27.017  1.00  0.00     0.002 C 
ENDROOT
BRANCH   1   2
ATOM      2  C   UNL A   1      32.881  28.528  26.534  1.00  0.00     0.021 C 
BRANCH   2   3
ATOM      3  C   UNL A   1      34.204  29.179  26.135  1.00  0.00     0.116 C 
BRANCH   3   4
ATOM      4  N   UNL A   1      34.694  28.641  24.883  1.00  0.00    -0.356 N 
ATOM      5  C   UNL A   1      34.046  28.597  23.681  1.00  0.00     0.224 C 
ATOM      6  O   UNL A   1      34.557  27.976  22.748  1.00  0.00    -0.275 OA
ATOM      7  H   UNL A   1      35.602  28.261  24.899  1.00  0.00     0.163 HD
BRANCH   5   8
ATOM      8  C   UNL A   1      32.725  29.326  23.527  1.00  0.00     0.136 C 
BRANCH   8   9
ATOM      9  C   UNL A   1      31.758  28.517  22.683  1.00  0.00    -0.027 C 
ATOM     10  C   UNL A   1      30.328  26.385  25.023  1.00  0.00     0.017 C 
ATOM     11  C   UNL A   1      30.478  27.194  23.965  1.00  0.00    -0.014 C 
ATOM     12  C   UNL A   1      31.534  27.193  22.931  1.00  0.00    -0.039 C 
ATOM     13  C   UNL A   1      29.591  28.305  23.574  1.00  0.00    -0.010 A 
ATOM     14  C   UNL A   1      31.095  26.321  21.740  1.00  0.00     0.045 C 
ATOM     15  C   UNL A   1      30.381  29.068  22.691  1.00  0.00    -0.011 A 
ATOM     16  C   UNL A   1      28.209  28.365  23.535  1.00  0.00     0.012 A 
ATOM     17  C   UNL A   1      29.818  29.892  21.734  1.00  0.00     0.048 A 
ATOM     18  C   UNL A   1      27.629  29.182  22.557  1.00  0.00     0.040 A 
ATOM     19  C   UNL A   1      28.430  29.920  21.668  1.00  0.00     0.123 A 
ATOM     20  F   UNL A   1      27.841  30.587  20.665  1.00  0.00    -0.207 F 
BRANCH  10  21
ATOM     21  C   UNL A   1      30.967  25.075  25.316  1.00  0.00    -0.025 A 
ATOM     22  C   UNL A   1      33.008  23.231  24.885  1.00  0.00     0.007 A 
ATOM     23  C   UNL A   1      33.062  24.062  25.996  1.00  0.00     0.015 A 
ATOM     24  C   UNL A   1      31.824  23.128  24.158  1.00  0.00     0.015 A 
ATOM     25  C   UNL A   1      32.021  24.955  26.228  1.00  0.00     0.009 A 
ATOM     26  C   UNL A   1      30.799  24.052  24.375  1.00  0.00     0.009 A 
BRANCH  22  27
ATOM     27  S   UNL A   1      34.527  22.597  24.206  1.00  0.00    -0.130 SA
ATOM     28  C   UNL A   1      34.286  20.868  24.739  1.00  0.00     0.091 C 
ENDBRANCH  22  27
ENDBRANCH  10  21
ENDBRANCH   8   9
ENDBRANCH   5   8
ENDBRANCH   3   4
ENDBRANCH   2   3
ENDBRANCH   1   2
BRANCH   1  29
ATOM     29  C   UNL A   1      31.399  30.572  26.010  1.00  0.00     0.002 C 
BRANCH  29  30
ATOM     30  C   UNL A   1      31.293  31.987  26.583  1.00  0.00     0.021 C 
BRANCH  30  31
ATOM     31  C   UNL A   1      32.559  32.497  27.257  1.00  0.00     0.116 C 
BRANCH  31  32
ATOM     32  N   UNL A   1      32.448  33.902  27.608  1.00  0.00    -0.352 N 
ATOM     33  C   UNL A   1      33.102  34.593  28.598  1.00  0.00     0.251 C 
ATOM     34  H   UNL A   1      31.821  34.430  27.064  1.00  0.00     0.163 HD
ATOM     35  O   UNL A   1      32.722  35.711  28.923  1.00  0.00    -0.269 OA
BRANCH  33  36
ATOM     36  C   UNL A   1      34.266  33.975  29.269  1.00  0.00     0.039 A 
ATOM     37  C   UNL A   1      35.551  34.281  28.820  1.00  0.00     0.014 A 
ATOM     38  C   UNL A   1      34.081  33.085  30.332  1.00  0.00     0.014 A 
ATOM     39  C   UNL A   1      36.658  33.719  29.460  1.00  0.00     0.010 A 
ATOM     40  C   UNL A   1      35.185  32.581  31.011  1.00  0.00     0.010 A 
ATOM     41  C   UNL A   1      36.483  32.878  30.571  1.00  0.00    -0.014 A 
BRANCH  41  42
ATOM     42  C   UNL A   1      37.645  32.278  31.274  1.00  0.00     0.031 A 
ATOM     43  C   UNL A   1      38.388  31.127  30.651  1.00  0.00     0.074 A 
ATOM     44  C   UNL A   1      37.977  32.714  32.505  1.00  0.00     0.049 A 
ATOM     45  N   UNL A   1      39.388  30.435  31.131  1.00  0.00    -0.248 NA
ATOM     46  C   UNL A   1      37.928  30.674  29.326  1.00  0.00     0.031 C 
ATOM     47  C   UNL A   1      37.280  33.768  33.247  1.00  0.00     0.029 A 
ATOM     48  N   UNL A   1      38.967  32.304  33.362  1.00  0.00    -0.354 N 
ATOM     49  C   UNL A   1      39.652  29.446  30.191  1.00  0.00     0.074 A 
ATOM     50  C   UNL A   1      38.686  29.606  29.126  1.00  0.00     0.031 C 
ATOM     51  C   UNL A   1      37.864  33.920  34.446  1.00  0.00     0.029 A 
ATOM     52  C   UNL A   1      38.961  32.964  34.568  1.00  0.00     0.049 A 
ATOM     53  H   UNL A   1      39.620  31.603  33.134  1.00  0.00     0.167 HD
ATOM     54  C   UNL A   1      40.631  28.512  30.195  1.00  0.00     0.034 A 
ATOM     55  C   UNL A   1      39.751  32.816  35.649  1.00  0.00     0.034 A 
ATOM     56  C   UNL A   1      41.625  28.396  31.226  1.00  0.00     0.049 A 
ATOM     57  C   UNL A   1      40.871  31.810  35.601  1.00  0.00     0.074 A 
ATOM     58  C   UNL A   1      42.716  27.547  31.277  1.00  0.00     0.029 A 
ATOM     59  N   UNL A   1      41.652  29.154  32.386  1.00  0.00    -0.354 N 
ATOM     60  N   UNL A   1      41.209  30.998  34.629  1.00  0.00    -0.248 NA
ATOM     61  C   UNL A   1      41.742  31.727  36.782  1.00  0.00     0.031 C 
ATOM     62  C   UNL A   1      43.398  27.786  32.475  1.00  0.00     0.029 A 
ATOM     63  C   UNL A   1      42.738  28.793  33.162  1.00  0.00     0.049 A 
ATOM     64  H   UNL A   1      40.994  29.848  32.623  1.00  0.00     0.167 HD
ATOM     65  C   UNL A   1      42.350  30.334  35.065  1.00  0.00     0.074 A 
ATOM     66  C   UNL A   1      42.658  30.856  36.381  1.00  0.00     0.031 C 
ATOM     67  C   UNL A   1      43.067  29.367  34.442  1.00  0.00     0.034 A 
BRANCH  54  68
ATOM     68  C   UNL A   1      40.718  27.585  29.012  1.00  0.00     0.023 A 
ATOM     69  C   UNL A   1      39.816  26.506  28.912  1.00  0.00     0.012 A 
ATOM     70  C   UNL A   1      41.643  27.809  27.973  1.00  0.00     0.148 A 
ATOM     71  C   UNL A   1      39.853  25.646  27.815  1.00  0.00     0.002 A 
ATOM     72  C   UNL A   1      41.647  26.972  26.863  1.00  0.00     0.091 A 
ATOM     73  F   UNL A   1      42.508  28.827  28.096  1.00  0.00    -0.205 F 
ATOM     74  C   UNL A   1      40.760  25.885  26.788  1.00  0.00     0.022 A 
BRANCH  72  75
ATOM     75  S   UNL A   1      42.728  27.238  25.453  1.00  0.00     0.127 S 
ATOM     76  O   UNL A   1      44.021  27.439  26.106  1.00  0.00    -0.237 OA
ATOM     77  O   UNL A   1      42.603  25.975  24.725  1.00  0.00    -0.237 OA
ATOM     78  O   UNL A   1      42.193  28.396  24.751  1.00  0.00    -0.744 OA
ENDBRANCH  72  75
ENDBRANCH  54  68
BRANCH  55  79
ATOM     79  C   UNL A   1      39.565  33.699  36.835  1.00  0.00     0.023 A 
ATOM     80  C   UNL A   1      39.990  35.040  36.766  1.00  0.00     0.012 A 
ATOM     81  C   UNL A   1      38.945  33.234  38.011  1.00  0.00     0.148 A 
ATOM     82  C   UNL A   1      39.829  35.894  37.857  1.00  0.00     0.002 A 
ATOM     83  C   UNL A   1      38.741  34.106  39.076  1.00  0.00     0.091 A 
ATOM     84  F   UNL A   1      38.560  31.952  38.065  1.00  0.00    -0.205 F 
ATOM     85  C   UNL A   1      39.197  35.431  39.008  1.00  0.00     0.022 A 
BRANCH  83  86
ATOM     86  S   UNL A   1      37.818  33.626  40.541  1.00  0.00     0.127 S 
ATOM     87  O   UNL A   1      38.786  32.789  41.245  1.00  0.00    -0.237 OA
ATOM     88  O   UNL A   1      37.549  34.919  41.171  1.00  0.00    -0.237 OA
ATOM     89  O   UNL A   1      36.629  32.948  40.044  1.00  0.00    -0.744 OA
ENDBRANCH  83  86
ENDBRANCH  55  79
BRANCH  67  90
ATOM     90  C   UNL A   1      44.276  28.824  35.156  1.00  0.00     0.023 A 
ATOM     91  C   UNL A   1      45.544  29.378  34.894  1.00  0.00     0.012 A 
ATOM     92  C   UNL A   1      44.144  27.828  36.143  1.00  0.00     0.148 A 
ATOM     93  C   UNL A   1      46.669  28.929  35.586  1.00  0.00     0.002 A 
ATOM     94  C   UNL A   1      45.261  27.418  36.860  1.00  0.00     0.091 A 
ATOM     95  F   UNL A   1      42.931  27.300  36.363  1.00  0.00    -0.205 F 
ATOM     96  C   UNL A   1      46.525  27.960  36.577  1.00  0.00     0.022 A 
BRANCH  94  97
ATOM     97  S   UNL A   1      45.153  26.244  38.216  1.00  0.00     0.127 S 
ATOM     98  O   UNL A   1      44.183  26.892  39.096  1.00  0.00    -0.237 OA
ATOM     99  O   UNL A   1      44.662  25.038  37.548  1.00  0.00    -0.237 OA
ATOM    100  O   UNL A   1      46.504  26.127  38.750  1.00  0.00    -0.744 OA
ENDBRANCH  94  97
ENDBRANCH  67  90
ENDBRANCH  41  42
ENDBRANCH  33  36
ENDBRANCH  31  32
ENDBRANCH  30  31
ENDBRANCH  29  30
ENDBRANCH   1  29
TORSDOF 19
ENDMDL
MODEL 2
REMARK VINA RESULT:     -11.8      6.318     10.660
REMARK SMILES CSc1ccc(/C=C2\C(C)=C(CC(=O)NCCCCCCNC(=O)c3ccc(-c4c5nc(c(-c6cccc(S(=O)(=O)[O-])c6F)c6ccc([nH]6)c(-c6cccc(S(=O)(=O)[O-])c6F)c6nc(c(-c7cccc(S(=O)(=O)[O-])c7F)c7ccc4[nH]7)C=C6)C=C5)cc3)c3cc(F)ccc32)cc1
REMARK SMILES IDX 18 1 17 2 16 3 15 4 13 5 14 6 12 8 11 9 7 10 8 11 9 12 94 13
REMARK SMILES IDX 10 14 88 15 93 16 89 17 92 18 90 19 91 20 6 21 3 22 4 23
REMARK SMILES IDX 96 24 5 25 95 26 2 27 1 28 19 29 20 30 21 31 22 32 23 33
REMARK SMILES IDX 24 35 25 36 26 37 87 38 27 39 86 40 28 41 29 42 30 43 80 44
REMARK SMILES IDX 31 45 85 46 79 47 81 48 32 49 84 50 78 51 77 52 33 54 65 55
REMARK SMILES IDX 45 56 64 57 46 58 49 59 63 60 82 61 47 62 48 63 62 65 83 66
REMARK SMILES IDX 50 67 34 68 35 69 43 70 36 71 38 72 44 73 37 74 39 75 40 76
REMARK SMILES IDX 41 77 42 78 66 79 67 80 75 81 68 82 70 83 76 84 69 85 71 86
REMARK SMILES IDX 72 87 73 88 74 89 51 90 52 91 60 92 53 93 55 94 61 95 54 96
REMARK SMILES IDX 56 97 57 98 58 99 59 100
REMARK H PARENT 15 7 22 34 81 53 49 64
REMARK Flexibility Score: inf
ROOT
ATOM      1  C   UNL A   1      41.017  22.504  26.907  1.00  0.00     0.002 C 
ENDROOT
BRANCH   1   2
ATOM      2  C   UNL A   1      39.789  23.372  27.172  1.00  0.00     0.021 C 
BRANCH   2   3
ATOM      3  C   UNL A   1      38.574  23.060  26.300  1.00  0.00     0.116 C 
BRANCH   3   4
ATOM      4  N   UNL A   1      38.700  21.760  25.676  1.00  0.00    -0.356 N 
ATOM      5  C   UNL A   1      37.749  21.073  24.977  1.00  0.00     0.224 C 
ATOM      6  O   UNL A   1      37.981  19.913  24.631  1.00  0.00    -0.275 OA
ATOM      7  H   UNL A   1      39.575  21.318  25.766  1.00  0.00     0.163 HD
BRANCH   5   8
ATOM      8  C   UNL A   1      36.441  21.761  24.635  1.00  0.00     0.136 C 
BRANCH   8   9
ATOM      9  C   UNL A   1      35.294  21.166  25.430  1.00  0.00    -0.027 C 
ATOM     10  C   UNL A   1      32.654  23.275  24.625  1.00  0.00     0.017 C 
ATOM     11  C   UNL A   1      33.354  22.172  24.926  1.00  0.00    -0.014 C 
ATOM     12  C   UNL A   1      34.342  21.958  26.005  1.00  0.00    -0.039 C 
ATOM     13  C   UNL A   1      33.292  20.874  24.230  1.00  0.00    -0.010 A 
ATOM     14  C   UNL A   1      33.634  21.408  27.257  1.00  0.00     0.045 C 
ATOM     15  C   UNL A   1      34.471  20.218  24.640  1.00  0.00    -0.011 A 
ATOM     16  C   UNL A   1      32.196  20.161  23.777  1.00  0.00     0.012 A 
ATOM     17  C   UNL A   1      34.582  18.841  24.631  1.00  0.00     0.048 A 
ATOM     18  C   UNL A   1      32.291  18.764  23.782  1.00  0.00     0.040 A 
ATOM     19  C   UNL A   1      33.466  18.124  24.215  1.00  0.00     0.123 A 
ATOM     20  F   UNL A   1      33.473  16.788  24.328  1.00  0.00    -0.207 F 
BRANCH  10  21
ATOM     21  C   UNL A   1      32.412  24.497  25.435  1.00  0.00    -0.025 A 
ATOM     22  C   UNL A   1      31.827  27.216  25.593  1.00  0.00     0.007 A 
ATOM     23  C   UNL A   1      30.815  26.286  25.793  1.00  0.00     0.015 A 
ATOM     24  C   UNL A   1      33.157  26.797  25.593  1.00  0.00     0.015 A 
ATOM     25  C   UNL A   1      31.119  24.930  25.751  1.00  0.00     0.009 A 
ATOM     26  C   UNL A   1      33.450  25.434  25.514  1.00  0.00     0.009 A 
BRANCH  22  27
ATOM     27  S   UNL A   1      31.405  28.838  24.995  1.00  0.00    -0.130 SA
ATOM     28  C   UNL A   1      33.012  29.620  25.364  1.00  0.00     0.091 C 
ENDBRANCH  22  27
ENDBRANCH  10  21
ENDBRANCH   8   9
ENDBRANCH   5   8
ENDBRANCH   3   4
ENDBRANCH   2   3
ENDBRANCH   1   2
BRANCH   1  29
ATOM     29  C   UNL A   1      41.301  21.442  27.968  1.00  0.00     0.002 C 
BRANCH  29  30
ATOM     30  C   UNL A   1      41.557  20.035  27.423  1.00  0.00     0.021 C 
BRANCH  30  31
ATOM     31  C   UNL A   1      41.508  19.923  25.905  1.00  0.00     0.116 C 
BRANCH  31  32
ATOM     32  N   UNL A   1      42.716  19.314  25.375  1.00  0.00    -0.352 N 
ATOM     33  C   UNL A   1      43.890  19.921  25.002  1.00  0.00     0.251 C 
ATOM     34  H   UNL A   1      42.690  18.336  25.270  1.00  0.00     0.163 HD
ATOM     35  O   UNL A   1      44.723  19.303  24.350  1.00  0.00    -0.269 OA
BRANCH  33  36
ATOM     36  C   UNL A   1      44.138  21.326  25.390  1.00  0.00     0.039 A 
ATOM     37  C   UNL A   1      43.786  22.347  24.506  1.00  0.00     0.014 A 
ATOM     38  C   UNL A   1      44.730  21.628  26.621  1.00  0.00     0.014 A 
ATOM     39  C   UNL A   1      43.996  23.678  24.871  1.00  0.00     0.010 A 
ATOM     40  C   UNL A   1      44.875  22.955  27.010  1.00  0.00     0.010 A 
ATOM     41  C   UNL A   1      44.527  23.993  26.132  1.00  0.00    -0.014 A 
BRANCH  41  42
ATOM     42  C   UNL A   1      44.749  25.401  26.547  1.00  0.00     0.031 A 
ATOM     43  C   UNL A   1      46.124  26.005  26.448  1.00  0.00     0.074 A 
ATOM     44  C   UNL A   1      43.735  26.105  27.086  1.00  0.00     0.049 A 
ATOM     45  N   UNL A   1      46.530  27.194  26.810  1.00  0.00    -0.248 NA
ATOM     46  C   UNL A   1      47.190  25.151  25.896  1.00  0.00     0.031 C 
ATOM     47  C   UNL A   1      42.378  25.600  27.309  1.00  0.00     0.029 A 
ATOM     48  N   UNL A   1      43.697  27.387  27.573  1.00  0.00    -0.354 N 
ATOM     49  C   UNL A   1      47.898  27.219  26.567  1.00  0.00     0.074 A 
ATOM     50  C   UNL A   1      48.261  25.915  26.057  1.00  0.00     0.031 C 
ATOM     51  C   UNL A   1      41.641  26.562  27.890  1.00  0.00     0.029 A 
ATOM     52  C   UNL A   1      42.476  27.741  28.098  1.00  0.00     0.049 A 
ATOM     53  H   UNL A   1      44.470  27.996  27.549  1.00  0.00     0.167 HD
ATOM     54  C   UNL A   1      48.768  28.244  26.721  1.00  0.00     0.034 A 
ATOM     55  C   UNL A   1      42.075  28.889  28.680  1.00  0.00     0.034 A 
ATOM     56  C   UNL A   1      48.391  29.556  27.171  1.00  0.00     0.049 A 
ATOM     57  C   UNL A   1      43.048  30.034  28.782  1.00  0.00     0.074 A 
ATOM     58  C   UNL A   1      49.177  30.691  27.270  1.00  0.00     0.029 A 
ATOM     59  N   UNL A   1      47.120  29.911  27.594  1.00  0.00    -0.354 N 
ATOM     60  N   UNL A   1      44.298  30.091  28.389  1.00  0.00    -0.248 NA
ATOM     61  C   UNL A   1      42.546  31.283  29.370  1.00  0.00     0.031 C 
ATOM     62  C   UNL A   1      48.380  31.730  27.762  1.00  0.00     0.029 A 
ATOM     63  C   UNL A   1      47.096  31.245  27.958  1.00  0.00     0.049 A 
ATOM     64  H   UNL A   1      46.346  29.302  27.631  1.00  0.00     0.167 HD
ATOM     65  C   UNL A   1      44.721  31.389  28.650  1.00  0.00     0.074 A 
ATOM     66  C   UNL A   1      43.586  32.092  29.213  1.00  0.00     0.031 C 
ATOM     67  C   UNL A   1      45.942  31.946  28.458  1.00  0.00     0.034 A 
BRANCH  54  68
ATOM     68  C   UNL A   1      50.203  28.009  26.331  1.00  0.00     0.023 A 
ATOM     69  C   UNL A   1      51.163  27.784  27.339  1.00  0.00     0.012 A 
ATOM     70  C   UNL A   1      50.593  27.949  24.979  1.00  0.00     0.148 A 
ATOM     71  C   UNL A   1      52.495  27.535  27.010  1.00  0.00     0.002 A 
ATOM     72  C   UNL A   1      51.916  27.660  24.658  1.00  0.00     0.091 A 
ATOM     73  F   UNL A   1      49.671  28.187  24.036  1.00  0.00    -0.205 F 
ATOM     74  C   UNL A   1      52.868  27.463  25.671  1.00  0.00     0.022 A 
BRANCH  72  75
ATOM     75  S   UNL A   1      52.481  27.474  22.963  1.00  0.00     0.127 S 
ATOM     76  O   UNL A   1      52.881  28.841  22.633  1.00  0.00    -0.237 OA
ATOM     77  O   UNL A   1      53.592  26.533  23.110  1.00  0.00    -0.237 OA
ATOM     78  O   UNL A   1      51.344  26.955  22.216  1.00  0.00    -0.744 OA
ENDBRANCH  72  75
ENDBRANCH  54  68
BRANCH  55  79
ATOM     79  C   UNL A   1      40.664  29.040  29.133  1.00  0.00     0.023 A 
ATOM     80  C   UNL A   1      39.668  29.351  28.187  1.00  0.00     0.012 A 
ATOM     81  C   UNL A   1      40.296  28.849  30.479  1.00  0.00     0.148 A 
ATOM     82  C   UNL A   1      38.337  29.499  28.577  1.00  0.00     0.002 A 
ATOM     83  C   UNL A   1      38.959  28.946  30.852  1.00  0.00     0.091 A 
ATOM     84  F   UNL A   1      41.258  28.568  31.369  1.00  0.00    -0.205 F 
ATOM     85  C   UNL A   1      37.980  29.287  29.906  1.00  0.00     0.022 A 
BRANCH  83  86
ATOM     86  S   UNL A   1      38.399  28.558  32.514  1.00  0.00     0.127 S 
ATOM     87  O   UNL A   1      37.026  29.056  32.492  1.00  0.00    -0.237 OA
ATOM     88  O   UNL A   1      38.524  27.101  32.548  1.00  0.00    -0.237 OA
ATOM     89  O   UNL A   1      39.317  29.255  33.405  1.00  0.00    -0.744 OA
ENDBRANCH  83  86
ENDBRANCH  55  79
BRANCH  67  90
ATOM     90  C   UNL A   1      46.117  33.394  28.830  1.00  0.00     0.023 A 
ATOM     91  C   UNL A   1      46.637  33.728  30.095  1.00  0.00     0.012 A 
ATOM     92  C   UNL A   1      45.847  34.416  27.898  1.00  0.00     0.148 A 
ATOM     93  C   UNL A   1      46.862  35.061  30.439  1.00  0.00     0.002 A 
ATOM     94  C   UNL A   1      46.116  35.738  28.231  1.00  0.00     0.091 A 
ATOM     95  F   UNL A   1      45.334  34.077  26.707  1.00  0.00    -0.205 F 
ATOM     96  C   UNL A   1      46.614  36.063  29.503  1.00  0.00     0.022 A 
BRANCH  94  97
ATOM     97  S   UNL A   1      45.914  37.082  27.056  1.00  0.00     0.127 S 
ATOM     98  O   UNL A   1      44.465  37.102  26.870  1.00  0.00    -0.237 OA
ATOM     99  O   UNL A   1      46.451  38.227  27.794  1.00  0.00    -0.237 OA
ATOM    100  O   UNL A   1      46.692  36.706  25.883  1.00  0.00    -0.744 OA
ENDBRANCH  94  97
ENDBRANCH  67  90
ENDBRANCH  41  42
ENDBRANCH  33  36
ENDBRANCH  31  32
ENDBRANCH  30  31
ENDBRANCH  29  30
ENDBRANCH   1  29
TORSDOF 19
ENDMDL
MODEL 3
REMARK VINA RESULT:     -11.7      3.716      8.876
REMARK SMILES CSc1ccc(/C=C2\C(C)=C(CC(=O)NCCCCCCNC(=O)c3ccc(-c4c5nc(c(-c6cccc(S(=O)(=O)[O-])c6F)c6ccc([nH]6)c(-c6cccc(S(=O)(=O)[O-])c6F)c6nc(c(-c7cccc(S(=O)(=O)[O-])c7F)c7ccc4[nH]7)C=C6)C=C5)cc3)c3cc(F)ccc32)cc1
REMARK SMILES IDX 18 1 17 2 16 3 15 4 13 5 14 6 12 8 11 9 7 10 8 11 9 12 94 13
REMARK SMILES IDX 10 14 88 15 93 16 89 17 92 18 90 19 91 20 6 21 3 22 4 23
REMARK SMILES IDX 96 24 5 25 95 26 2 27 1 28 19 29 20 30 21 31 22 32 23 33
REMARK SMILES IDX 24 35 25 36 26 37 87 38 27 39 86 40 28 41 29 42 30 43 80 44
REMARK SMILES IDX 31 45 85 46 79 47 81 48 32 49 84 50 78 51 77 52 33 54 65 55
REMARK SMILES IDX 45 56 64 57 46 58 49 59 63 60 82 61 47 62 48 63 62 65 83 66
REMARK SMILES IDX 50 67 34 68 35 69 43 70 36 71 38 72 44 73 37 74 39 75 40 76
REMARK SMILES IDX 41 77 42 78 66 79 67 80 75 81 68 82 70 83 76 84 69 85 71 86
REMARK SMILES IDX 72 87 73 88 74 89 51 90 52 91 60 92 53 93 55 94 61 95 54 96
REMARK SMILES IDX 56 97 57 98 58 99 59 100
REMARK H PARENT 15 7 22 34 81 53 49 64
REMARK Flexibility Score: inf
ROOT
ATOM      1  C   UNL A   1      31.094  27.426  26.388  1.00  0.00     0.002 C 
ENDROOT
BRANCH   1   2
ATOM      2  C   UNL A   1      31.959  26.246  26.827  1.00  0.00     0.021 C 
BRANCH   2   3
ATOM      3  C   UNL A   1      31.397  24.867  26.484  1.00  0.00     0.116 C 
BRANCH   3   4
ATOM      4  N   UNL A   1      32.254  23.814  26.988  1.00  0.00    -0.356 N 
ATOM      5  C   UNL A   1      32.443  22.568  26.463  1.00  0.00     0.224 C 
ATOM      6  O   UNL A   1      33.104  21.744  27.098  1.00  0.00    -0.275 OA
ATOM      7  H   UNL A   1      32.760  24.021  27.807  1.00  0.00     0.163 HD
BRANCH   5   8
ATOM      8  C   UNL A   1      31.849  22.238  25.107  1.00  0.00     0.136 C 
BRANCH   8   9
ATOM      9  C   UNL A   1      32.908  22.303  24.023  1.00  0.00    -0.027 C 
ATOM     10  C   UNL A   1      33.725  25.679  23.977  1.00  0.00     0.017 C 
ATOM     11  C   UNL A   1      33.832  24.344  23.917  1.00  0.00    -0.014 C 
ATOM     12  C   UNL A   1      32.997  23.372  23.179  1.00  0.00    -0.039 C 
ATOM     13  C   UNL A   1      34.846  23.511  24.590  1.00  0.00    -0.010 A 
ATOM     14  C   UNL A   1      33.602  23.119  21.786  1.00  0.00     0.045 C 
ATOM     15  C   UNL A   1      34.289  22.216  24.557  1.00  0.00    -0.011 A 
ATOM     16  C   UNL A   1      36.210  23.703  24.717  1.00  0.00     0.012 A 
ATOM     17  C   UNL A   1      35.076  21.082  24.626  1.00  0.00     0.048 A 
ATOM     18  C   UNL A   1      37.017  22.559  24.768  1.00  0.00     0.040 A 
ATOM     19  C   UNL A   1      36.450  21.275  24.711  1.00  0.00     0.123 A 
ATOM     20  F   UNL A   1      37.261  20.210  24.633  1.00  0.00    -0.207 F 
BRANCH  10  21
ATOM     21  C   UNL A   1      32.962  26.611  23.107  1.00  0.00    -0.025 A 
ATOM     22  C   UNL A   1      31.008  28.571  22.791  1.00  0.00     0.007 A 
ATOM     23  C   UNL A   1      32.345  28.942  22.856  1.00  0.00     0.015 A 
ATOM     24  C   UNL A   1      30.675  27.231  22.605  1.00  0.00     0.015 A 
ATOM     25  C   UNL A   1      33.320  27.958  22.975  1.00  0.00     0.009 A 
ATOM     26  C   UNL A   1      31.655  26.248  22.763  1.00  0.00     0.009 A 
BRANCH  22  27
ATOM     27  S   UNL A   1      29.761  29.737  23.294  1.00  0.00    -0.130 SA
ATOM     28  C   UNL A   1      29.393  30.380  21.627  1.00  0.00     0.091 C 
ENDBRANCH  22  27
ENDBRANCH  10  21
ENDBRANCH   8   9
ENDBRANCH   5   8
ENDBRANCH   3   4
ENDBRANCH   2   3
ENDBRANCH   1   2
BRANCH   1  29
ATOM     29  C   UNL A   1      31.780  28.789  26.447  1.00  0.00     0.002 C 
BRANCH  29  30
ATOM     30  C   UNL A   1      33.139  28.800  27.151  1.00  0.00     0.021 C 
BRANCH  30  31
ATOM     31  C   UNL A   1      34.128  29.822  26.608  1.00  0.00     0.116 C 
BRANCH  31  32
ATOM     32  N   UNL A   1      33.965  31.116  27.248  1.00  0.00    -0.352 N 
ATOM     33  C   UNL A   1      34.656  31.640  28.312  1.00  0.00     0.251 C 
ATOM     34  H   UNL A   1      33.265  31.694  26.868  1.00  0.00     0.163 HD
ATOM     35  O   UNL A   1      34.239  32.638  28.887  1.00  0.00    -0.269 OA
BRANCH  33  36
ATOM     36  C   UNL A   1      35.905  30.986  28.761  1.00  0.00     0.039 A 
ATOM     37  C   UNL A   1      37.131  31.499  28.335  1.00  0.00     0.014 A 
ATOM     38  C   UNL A   1      35.858  29.860  29.589  1.00  0.00     0.014 A 
ATOM     39  C   UNL A   1      38.317  30.903  28.770  1.00  0.00     0.010 A 
ATOM     40  C   UNL A   1      37.039  29.311  30.076  1.00  0.00     0.010 A 
ATOM     41  C   UNL A   1      38.280  29.814  29.656  1.00  0.00    -0.014 A 
BRANCH  41  42
ATOM     42  C   UNL A   1      39.527  29.171  30.141  1.00  0.00     0.031 A 
ATOM     43  C   UNL A   1      40.215  29.700  31.370  1.00  0.00     0.074 A 
ATOM     44  C   UNL A   1      40.081  28.170  29.431  1.00  0.00     0.049 A 
ATOM     45  N   UNL A   1      41.338  29.313  31.917  1.00  0.00    -0.248 NA
ATOM     46  C   UNL A   1      39.573  30.833  32.060  1.00  0.00     0.031 C 
ATOM     47  C   UNL A   1      39.550  27.625  28.178  1.00  0.00     0.029 A 
ATOM     48  N   UNL A   1      41.230  27.450  29.645  1.00  0.00    -0.354 N 
ATOM     49  C   UNL A   1      41.556  30.173  32.987  1.00  0.00     0.074 A 
ATOM     50  C   UNL A   1      40.467  31.125  32.994  1.00  0.00     0.031 C 
ATOM     51  C   UNL A   1      40.372  26.659  27.736  1.00  0.00     0.029 A 
ATOM     52  C   UNL A   1      41.495  26.529  28.659  1.00  0.00     0.049 A 
ATOM     53  H   UNL A   1      41.808  27.581  30.430  1.00  0.00     0.167 HD
ATOM     54  C   UNL A   1      42.553  30.153  33.902  1.00  0.00     0.034 A 
ATOM     55  C   UNL A   1      42.528  25.675  28.517  1.00  0.00     0.034 A 
ATOM     56  C   UNL A   1      43.599  29.168  33.927  1.00  0.00     0.049 A 
ATOM     57  C   UNL A   1      43.591  25.632  29.583  1.00  0.00     0.074 A 
ATOM     58  C   UNL A   1      44.601  29.001  34.866  1.00  0.00     0.029 A 
ATOM     59  N   UNL A   1      43.778  28.181  32.970  1.00  0.00    -0.354 N 
ATOM     60  N   UNL A   1      43.687  26.344  30.681  1.00  0.00    -0.248 NA
ATOM     61  C   UNL A   1      44.664  24.643  29.413  1.00  0.00     0.031 C 
ATOM     62  C   UNL A   1      45.392  27.916  34.471  1.00  0.00     0.029 A 
ATOM     63  C   UNL A   1      44.874  27.401  33.293  1.00  0.00     0.049 A 
ATOM     64  H   UNL A   1      43.208  28.053  32.177  1.00  0.00     0.167 HD
ATOM     65  C   UNL A   1      44.809  25.866  31.348  1.00  0.00     0.074 A 
ATOM     66  C   UNL A   1      45.346  24.788  30.542  1.00  0.00     0.031 C 
ATOM     67  C   UNL A   1      45.358  26.292  32.512  1.00  0.00     0.034 A 
BRANCH  54  68
ATOM     68  C   UNL A   1      42.519  31.185  34.997  1.00  0.00     0.023 A 
ATOM     69  C   UNL A   1      41.910  30.865  36.228  1.00  0.00     0.012 A 
ATOM     70  C   UNL A   1      43.134  32.442  34.837  1.00  0.00     0.148 A 
ATOM     71  C   UNL A   1      41.886  31.789  37.272  1.00  0.00     0.002 A 
ATOM     72  C   UNL A   1      43.141  33.344  35.896  1.00  0.00     0.091 A 
ATOM     73  F   UNL A   1      43.687  32.738  33.652  1.00  0.00    -0.205 F 
ATOM     74  C   UNL A   1      42.510  33.023  37.109  1.00  0.00     0.022 A 
BRANCH  72  75
ATOM     75  S   UNL A   1      43.981  34.930  35.812  1.00  0.00     0.127 S 
ATOM     76  O   UNL A   1      44.002  35.329  37.218  1.00  0.00    -0.237 OA
ATOM     77  O   UNL A   1      45.286  34.559  35.264  1.00  0.00    -0.237 OA
ATOM     78  O   UNL A   1      43.172  35.765  34.935  1.00  0.00    -0.744 OA
ENDBRANCH  72  75
ENDBRANCH  54  68
BRANCH  55  79
ATOM     79  C   UNL A   1      42.562  24.733  27.364  1.00  0.00     0.023 A 
ATOM     80  C   UNL A   1      43.211  25.124  26.176  1.00  0.00     0.012 A 
ATOM     81  C   UNL A   1      41.989  23.448  27.442  1.00  0.00     0.148 A 
ATOM     82  C   UNL A   1      43.262  24.266  25.077  1.00  0.00     0.002 A 
ATOM     83  C   UNL A   1      42.090  22.579  26.361  1.00  0.00     0.091 A 
ATOM     84  F   UNL A   1      41.363  23.098  28.574  1.00  0.00    -0.205 F 
ATOM     85  C   UNL A   1      42.711  22.990  25.172  1.00  0.00     0.022 A 
BRANCH  83  86
ATOM     86  S   UNL A   1      41.525  20.875  26.448  1.00  0.00     0.127 S 
ATOM     87  O   UNL A   1      40.096  21.020  26.184  1.00  0.00    -0.237 OA
ATOM     88  O   UNL A   1      42.289  20.243  25.372  1.00  0.00    -0.237 OA
ATOM     89  O   UNL A   1      41.885  20.416  27.782  1.00  0.00    -0.744 OA
ENDBRANCH  83  86
ENDBRANCH  55  79
BRANCH  67  90
ATOM     90  C   UNL A   1      46.586  25.578  33.009  1.00  0.00     0.023 A 
ATOM     91  C   UNL A   1      47.861  26.093  32.702  1.00  0.00     0.012 A 
ATOM     92  C   UNL A   1      46.476  24.451  33.848  1.00  0.00     0.148 A 
ATOM     93  C   UNL A   1      49.010  25.480  33.200  1.00  0.00     0.002 A 
ATOM     94  C   UNL A   1      47.624  23.874  34.377  1.00  0.00     0.091 A 
ATOM     95  F   UNL A   1      45.254  23.966  34.112  1.00  0.00    -0.205 F 
ATOM     96  C   UNL A   1      48.891  24.381  34.047  1.00  0.00     0.022 A 
BRANCH  94  97
ATOM     97  S   UNL A   1      47.559  22.514  35.549  1.00  0.00     0.127 S 
ATOM     98  O   UNL A   1      48.976  22.305  35.842  1.00  0.00    -0.237 OA
ATOM     99  O   UNL A   1      46.787  23.087  36.653  1.00  0.00    -0.237 OA
ATOM    100  O   UNL A   1      46.894  21.420  34.855  1.00  0.00    -0.744 OA
ENDBRANCH  94  97
ENDBRANCH  67  90
ENDBRANCH  41  42
ENDBRANCH  33  36
ENDBRANCH  31  32
ENDBRANCH  30  31
ENDBRANCH  29  30
ENDBRANCH   1  29
TORSDOF 19
ENDMDL
