MODEL 1
REMARK VINA RESULT:     -12.3      0.000      0.000
REMARK SMILES [NH3+][C@H]1CN(C(=O)OCC2c3ccccc3-c3ccccc32)C[C@@H]1C(=O)NCCCCCCNC(=O)c1ccc(-c2c3nc(c(-c4cccc(S(=O)(=O)[O-])c4F)c4ccc([nH]4)c(-c4cccc(S(=O)(=O)[O-])c4F)c4nc(c(-c5cccc(S(=O)(=O)[O-])c5F)c5ccc2[nH]5)C=C4)C=C3)cc1
REMARK SMILES IDX 29 1 28 2 27 3 26 4 24 5 25 6 23 8 2 9 3 10 4 11 22 12 1 13
REMARK SMILES IDX 5 17 6 18 7 19 8 20 9 21 10 22 21 23 11 24 15 25 16 26 20 27
REMARK SMILES IDX 12 28 14 29 17 30 19 31 13 32 18 33 30 34 31 35 32 36 33 37
REMARK SMILES IDX 34 38 35 40 36 41 37 42 98 43 38 44 97 45 39 46 40 47 41 48
REMARK SMILES IDX 91 49 42 50 96 51 90 52 92 53 43 54 95 55 89 56 88 57 44 59
REMARK SMILES IDX 76 60 56 61 75 62 57 63 60 64 74 65 93 66 58 67 59 68 73 70
REMARK SMILES IDX 94 71 61 72 45 73 46 74 54 75 47 76 49 77 55 78 48 79 50 80
REMARK SMILES IDX 51 81 52 82 53 83 77 84 78 85 86 86 79 87 81 88 87 89 80 90
REMARK SMILES IDX 82 91 83 92 84 93 85 94 62 95 63 96 71 97 64 98 66 99 72 100
REMARK SMILES IDX 65 101 67 102 68 103 69 104 70 105
REMARK H PARENT 26 7 1 14 1 15 1 16 33 39 92 58 60 69
REMARK Flexibility Score: inf
ROOT
ATOM      1  C   UNL A   1      32.292  29.883  26.928  1.00  0.00     0.002 C 
ENDROOT
BRANCH   1   2
ATOM      2  C   UNL A   1      31.590  28.720  27.632  1.00  0.00     0.021 C 
BRANCH   2   3
ATOM      3  C   UNL A   1      31.422  27.428  26.841  1.00  0.00     0.116 C 
BRANCH   3   4
ATOM      4  N   UNL A   1      32.525  27.107  25.958  1.00  0.00    -0.356 N 
ATOM      5  C   UNL A   1      32.680  27.282  24.618  1.00  0.00     0.231 C 
ATOM      6  O   UNL A   1      33.833  27.113  24.195  1.00  0.00    -0.274 OA
ATOM      7  H   UNL A   1      33.296  26.688  26.406  1.00  0.00     0.163 HD
BRANCH   5   8
ATOM      8  C   UNL A   1      31.530  27.499  23.621  1.00  0.00     0.158 C 
ATOM      9  C   UNL A   1      30.326  26.582  24.009  1.00  0.00     0.215 C 
ATOM     10  C   UNL A   1      30.644  25.252  23.255  1.00  0.00     0.188 C 
ATOM     11  N   UNL A   1      31.570  25.642  22.209  1.00  0.00    -0.301 N 
ATOM     12  C   UNL A   1      31.715  27.076  22.177  1.00  0.00     0.143 C 
BRANCH   9  13
ATOM     13  N   UNL A   1      29.048  27.173  23.556  1.00  0.00    -0.353 N 
ATOM     14  H   UNL A   1      28.275  26.747  24.070  1.00  0.00     0.344 HD
ATOM     15  H   UNL A   1      28.929  27.001  22.558  1.00  0.00     0.344 HD
ATOM     16  H   UNL A   1      29.058  28.178  23.731  1.00  0.00     0.344 HD
ENDBRANCH   9  13
BRANCH  11  17
ATOM     17  C   UNL A   1      32.549  24.839  21.688  1.00  0.00     0.410 C 
ATOM     18  O   UNL A   1      33.250  25.190  20.750  1.00  0.00    -0.224 OA
BRANCH  17  19
ATOM     19  O   UNL A   1      32.619  23.621  22.274  1.00  0.00    -0.448 OA
BRANCH  19  20
ATOM     20  C   UNL A   1      33.967  23.225  22.642  1.00  0.00     0.248 C 
BRANCH  20  21
ATOM     21  C   UNL A   1      34.018  22.629  24.069  1.00  0.00     0.088 C 
ATOM     22  C   UNL A   1      33.754  21.120  24.160  1.00  0.00    -0.029 A 
ATOM     23  C   UNL A   1      35.435  22.715  24.646  1.00  0.00    -0.029 A 
ATOM     24  C   UNL A   1      32.588  20.405  23.916  1.00  0.00     0.005 A 
ATOM     25  C   UNL A   1      34.891  20.453  24.659  1.00  0.00    -0.014 A 
ATOM     26  C   UNL A   1      35.912  21.427  24.968  1.00  0.00    -0.014 A 
ATOM     27  C   UNL A   1      36.203  23.844  24.892  1.00  0.00     0.005 A 
ATOM     28  C   UNL A   1      32.591  19.017  24.089  1.00  0.00     0.000 A 
ATOM     29  C   UNL A   1      34.895  19.079  24.845  1.00  0.00     0.009 A 
ATOM     30  C   UNL A   1      37.161  21.256  25.540  1.00  0.00     0.009 A 
ATOM     31  C   UNL A   1      37.469  23.670  25.460  1.00  0.00     0.000 A 
ATOM     32  C   UNL A   1      33.739  18.356  24.543  1.00  0.00     0.001 A 
ATOM     33  C   UNL A   1      37.941  22.388  25.783  1.00  0.00     0.001 A 
ENDBRANCH  20  21
ENDBRANCH  19  20
ENDBRANCH  17  19
ENDBRANCH  11  17
ENDBRANCH   5   8
ENDBRANCH   3   4
ENDBRANCH   2   3
ENDBRANCH   1   2
BRANCH   1  34
ATOM     34  C   UNL A   1      31.430  30.815  26.074  1.00  0.00     0.002 C 
BRANCH  34  35
ATOM     35  C   UNL A   1      31.385  32.294  26.473  1.00  0.00     0.021 C 
BRANCH  35  36
ATOM     36  C   UNL A   1      32.638  32.866  27.130  1.00  0.00     0.116 C 
BRANCH  36  37
ATOM     37  N   UNL A   1      32.444  34.194  27.686  1.00  0.00    -0.352 N 
ATOM     38  C   UNL A   1      33.106  34.815  28.719  1.00  0.00     0.251 C 
ATOM     39  H   UNL A   1      31.735  34.729  27.260  1.00  0.00     0.163 HD
ATOM     40  O   UNL A   1      32.723  35.914  29.110  1.00  0.00    -0.269 OA
BRANCH  38  41
ATOM     41  C   UNL A   1      34.258  34.159  29.382  1.00  0.00     0.039 A 
ATOM     42  C   UNL A   1      35.544  34.406  28.889  1.00  0.00     0.014 A 
ATOM     43  C   UNL A   1      34.082  33.285  30.458  1.00  0.00     0.014 A 
ATOM     44  C   UNL A   1      36.655  33.824  29.508  1.00  0.00     0.010 A 
ATOM     45  C   UNL A   1      35.195  32.747  31.109  1.00  0.00     0.010 A 
ATOM     46  C   UNL A   1      36.491  33.009  30.639  1.00  0.00    -0.014 A 
BRANCH  46  47
ATOM     47  C   UNL A   1      37.661  32.419  31.341  1.00  0.00     0.031 A 
ATOM     48  C   UNL A   1      38.396  31.252  30.737  1.00  0.00     0.074 A 
ATOM     49  C   UNL A   1      38.019  32.888  32.553  1.00  0.00     0.049 A 
ATOM     50  N   UNL A   1      39.393  30.561  31.228  1.00  0.00    -0.248 NA
ATOM     51  C   UNL A   1      37.939  30.787  29.417  1.00  0.00     0.031 C 
ATOM     52  C   UNL A   1      37.352  33.976  33.272  1.00  0.00     0.029 A 
ATOM     53  N   UNL A   1      39.020  32.493  33.405  1.00  0.00    -0.354 N 
ATOM     54  C   UNL A   1      39.664  29.566  30.295  1.00  0.00     0.074 A 
ATOM     55  C   UNL A   1      38.708  29.724  29.221  1.00  0.00     0.031 C 
ATOM     56  C   UNL A   1      37.965  34.166  34.451  1.00  0.00     0.029 A 
ATOM     57  C   UNL A   1      39.052  33.201  34.585  1.00  0.00     0.049 A 
ATOM     58  H   UNL A   1      39.655  31.773  33.193  1.00  0.00     0.167 HD
ATOM     59  C   UNL A   1      40.641  28.628  30.312  1.00  0.00     0.034 A 
ATOM     60  C   UNL A   1      39.870  33.087  35.650  1.00  0.00     0.034 A 
ATOM     61  C   UNL A   1      41.621  28.501  31.355  1.00  0.00     0.049 A 
ATOM     62  C   UNL A   1      40.971  32.059  35.623  1.00  0.00     0.074 A 
ATOM     63  C   UNL A   1      42.674  27.607  31.445  1.00  0.00     0.029 A 
ATOM     64  N   UNL A   1      41.681  29.300  32.485  1.00  0.00    -0.354 N 
ATOM     65  N   UNL A   1      41.286  31.212  34.674  1.00  0.00    -0.248 NA
ATOM     66  C   UNL A   1      41.854  31.999  36.798  1.00  0.00     0.031 C 
ATOM     67  C   UNL A   1      43.376  27.871  32.626  1.00  0.00     0.029 A 
ATOM     68  C   UNL A   1      42.759  28.932  33.271  1.00  0.00     0.049 A 
ATOM     69  H   UNL A   1      41.047  30.024  32.699  1.00  0.00     0.167 HD
ATOM     70  C   UNL A   1      42.424  30.547  35.118  1.00  0.00     0.074 A 
ATOM     71  C   UNL A   1      42.754  31.104  36.413  1.00  0.00     0.031 C 
ATOM     72  C   UNL A   1      43.120  29.551  34.518  1.00  0.00     0.034 A 
BRANCH  59  73
ATOM     73  C   UNL A   1      40.749  27.712  29.122  1.00  0.00     0.023 A 
ATOM     74  C   UNL A   1      39.870  26.614  29.024  1.00  0.00     0.012 A 
ATOM     75  C   UNL A   1      41.661  27.963  28.078  1.00  0.00     0.148 A 
ATOM     76  C   UNL A   1      39.911  25.766  27.918  1.00  0.00     0.002 A 
ATOM     77  C   UNL A   1      41.673  27.133  26.962  1.00  0.00     0.091 A 
ATOM     78  F   UNL A   1      42.503  28.999  28.200  1.00  0.00    -0.205 F 
ATOM     79  C   UNL A   1      40.805  26.031  26.884  1.00  0.00     0.022 A 
BRANCH  77  80
ATOM     80  S   UNL A   1      42.740  27.428  25.546  1.00  0.00     0.127 S 
ATOM     81  O   UNL A   1      44.052  27.529  26.182  1.00  0.00    -0.237 OA
ATOM     82  O   UNL A   1      42.540  26.218  24.749  1.00  0.00    -0.237 OA
ATOM     83  O   UNL A   1      42.249  28.650  24.924  1.00  0.00    -0.744 OA
ENDBRANCH  77  80
ENDBRANCH  59  73
BRANCH  60  84
ATOM     84  C   UNL A   1      39.739  34.022  36.804  1.00  0.00     0.023 A 
ATOM     85  C   UNL A   1      40.173  35.354  36.656  1.00  0.00     0.012 A 
ATOM     86  C   UNL A   1      39.199  33.609  38.037  1.00  0.00     0.148 A 
ATOM     87  C   UNL A   1      40.106  36.249  37.723  1.00  0.00     0.002 A 
ATOM     88  C   UNL A   1      39.096  34.518  39.085  1.00  0.00     0.091 A 
ATOM     89  F   UNL A   1      38.792  32.337  38.156  1.00  0.00    -0.205 F 
ATOM     90  C   UNL A   1      39.564  35.832  38.936  1.00  0.00     0.022 A 
BRANCH  88  91
ATOM     91  S   UNL A   1      38.329  34.105  40.654  1.00  0.00     0.127 S 
ATOM     92  O   UNL A   1      38.175  35.420  41.271  1.00  0.00    -0.237 OA
ATOM     93  O   UNL A   1      37.081  33.473  40.225  1.00  0.00    -0.237 OA
ATOM     94  O   UNL A   1      39.258  33.201  41.318  1.00  0.00    -0.744 OA
ENDBRANCH  88  91
ENDBRANCH  60  84
BRANCH  72  95
ATOM     95  C   UNL A   1      44.337  29.024  35.230  1.00  0.00     0.023 A 
ATOM     96  C   UNL A   1      45.584  29.644  35.024  1.00  0.00     0.012 A 
ATOM     97  C   UNL A   1      44.230  27.970  36.157  1.00  0.00     0.148 A 
ATOM     98  C   UNL A   1      46.715  29.205  35.712  1.00  0.00     0.002 A 
ATOM     99  C   UNL A   1      45.354  27.564  36.869  1.00  0.00     0.091 A 
ATOM    100  F   UNL A   1      43.038  27.378  36.322  1.00  0.00    -0.205 F 
ATOM    101  C   UNL A   1      46.597  28.174  36.643  1.00  0.00     0.022 A 
BRANCH  99 102
ATOM    102  S   UNL A   1      45.268  26.302  38.146  1.00  0.00     0.127 S 
ATOM    103  O   UNL A   1      44.809  25.140  37.388  1.00  0.00    -0.237 OA
ATOM    104  O   UNL A   1      46.655  26.221  38.604  1.00  0.00    -0.237 OA
ATOM    105  O   UNL A   1      44.337  26.813  39.143  1.00  0.00    -0.744 OA
ENDBRANCH  99 102
ENDBRANCH  72  95
ENDBRANCH  46  47
ENDBRANCH  38  41
ENDBRANCH  36  37
ENDBRANCH  35  36
ENDBRANCH  34  35
ENDBRANCH   1  34
TORSDOF 21
ENDMDL
MODEL 2
REMARK VINA RESULT:     -12.1      1.121      2.307
REMARK SMILES [NH3+][C@H]1CN(C(=O)OCC2c3ccccc3-c3ccccc32)C[C@@H]1C(=O)NCCCCCCNC(=O)c1ccc(-c2c3nc(c(-c4cccc(S(=O)(=O)[O-])c4F)c4ccc([nH]4)c(-c4cccc(S(=O)(=O)[O-])c4F)c4nc(c(-c5cccc(S(=O)(=O)[O-])c5F)c5ccc2[nH]5)C=C4)C=C3)cc1
REMARK SMILES IDX 29 1 28 2 27 3 26 4 24 5 25 6 23 8 2 9 3 10 4 11 22 12 1 13
REMARK SMILES IDX 5 17 6 18 7 19 8 20 9 21 10 22 21 23 11 24 15 25 16 26 20 27
REMARK SMILES IDX 12 28 14 29 17 30 19 31 13 32 18 33 30 34 31 35 32 36 33 37
REMARK SMILES IDX 34 38 35 40 36 41 37 42 98 43 38 44 97 45 39 46 40 47 41 48
REMARK SMILES IDX 91 49 42 50 96 51 90 52 92 53 43 54 95 55 89 56 88 57 44 59
REMARK SMILES IDX 76 60 56 61 75 62 57 63 60 64 74 65 93 66 58 67 59 68 73 70
REMARK SMILES IDX 94 71 61 72 45 73 46 74 54 75 47 76 49 77 55 78 48 79 50 80
REMARK SMILES IDX 51 81 52 82 53 83 77 84 78 85 86 86 79 87 81 88 87 89 80 90
REMARK SMILES IDX 82 91 83 92 84 93 85 94 62 95 63 96 71 97 64 98 66 99 72 100
REMARK SMILES IDX 65 101 67 102 68 103 69 104 70 105
REMARK H PARENT 26 7 1 14 1 15 1 16 33 39 92 58 60 69
REMARK Flexibility Score: inf
ROOT
ATOM      1  C   UNL A   1      30.135  31.467  24.527  1.00  0.00     0.002 C 
ENDROOT
BRANCH   1   2
ATOM      2  C   UNL A   1      29.311  30.413  23.785  1.00  0.00     0.021 C 
BRANCH   2   3
ATOM      3  C   UNL A   1      29.817  29.969  22.417  1.00  0.00     0.116 C 
BRANCH   3   4
ATOM      4  N   UNL A   1      31.248  29.755  22.338  1.00  0.00    -0.356 N 
ATOM      5  C   UNL A   1      32.014  28.687  22.690  1.00  0.00     0.231 C 
ATOM      6  O   UNL A   1      33.185  28.724  22.286  1.00  0.00    -0.274 OA
ATOM      7  H   UNL A   1      31.752  30.514  21.967  1.00  0.00     0.163 HD
BRANCH   5   8
ATOM      8  C   UNL A   1      31.581  27.575  23.659  1.00  0.00     0.158 C 
ATOM      9  C   UNL A   1      32.678  27.383  24.754  1.00  0.00     0.215 C 
ATOM     10  C   UNL A   1      33.646  26.346  24.099  1.00  0.00     0.188 C 
ATOM     11  N   UNL A   1      32.847  25.706  23.071  1.00  0.00    -0.301 N 
ATOM     12  C   UNL A   1      31.479  26.151  23.151  1.00  0.00     0.143 C 
BRANCH   9  13
ATOM     13  N   UNL A   1      32.087  26.861  26.006  1.00  0.00    -0.353 N 
ATOM     14  H   UNL A   1      31.416  27.537  26.373  1.00  0.00     0.344 HD
ATOM     15  H   UNL A   1      32.825  26.707  26.692  1.00  0.00     0.344 HD
ATOM     16  H   UNL A   1      31.610  25.980  25.814  1.00  0.00     0.344 HD
ENDBRANCH   9  13
BRANCH  11  17
ATOM     17  C   UNL A   1      33.340  25.195  21.901  1.00  0.00     0.410 C 
ATOM     18  O   UNL A   1      33.082  25.692  20.813  1.00  0.00    -0.224 OA
BRANCH  17  19
ATOM     19  O   UNL A   1      34.082  24.075  22.068  1.00  0.00    -0.448 OA
BRANCH  19  20
ATOM     20  C   UNL A   1      33.290  22.880  22.305  1.00  0.00     0.248 C 
BRANCH  20  21
ATOM     21  C   UNL A   1      33.691  22.184  23.628  1.00  0.00     0.088 C 
ATOM     22  C   UNL A   1      35.032  22.632  24.226  1.00  0.00    -0.029 A 
ATOM     23  C   UNL A   1      32.726  22.558  24.757  1.00  0.00    -0.029 A 
ATOM     24  C   UNL A   1      36.324  22.447  23.751  1.00  0.00     0.005 A 
ATOM     25  C   UNL A   1      34.829  23.232  25.486  1.00  0.00    -0.014 A 
ATOM     26  C   UNL A   1      33.424  23.174  25.816  1.00  0.00    -0.014 A 
ATOM     27  C   UNL A   1      31.359  22.332  24.838  1.00  0.00     0.005 A 
ATOM     28  C   UNL A   1      37.401  22.939  24.496  1.00  0.00     0.000 A 
ATOM     29  C   UNL A   1      35.895  23.708  26.235  1.00  0.00     0.009 A 
ATOM     30  C   UNL A   1      32.764  23.569  26.967  1.00  0.00     0.009 A 
ATOM     31  C   UNL A   1      30.690  22.741  25.996  1.00  0.00     0.000 A 
ATOM     32  C   UNL A   1      37.188  23.573  25.727  1.00  0.00     0.001 A 
ATOM     33  C   UNL A   1      31.387  23.351  27.051  1.00  0.00     0.001 A 
ENDBRANCH  20  21
ENDBRANCH  19  20
ENDBRANCH  17  19
ENDBRANCH  11  17
ENDBRANCH   5   8
ENDBRANCH   3   4
ENDBRANCH   2   3
ENDBRANCH   1   2
BRANCH   1  34
ATOM     34  C   UNL A   1      31.226  30.968  25.479  1.00  0.00     0.002 C 
BRANCH  34  35
ATOM     35  C   UNL A   1      31.340  31.659  26.841  1.00  0.00     0.021 C 
BRANCH  35  36
ATOM     36  C   UNL A   1      32.632  32.424  27.117  1.00  0.00     0.116 C 
BRANCH  36  37
ATOM     37  N   UNL A   1      32.414  33.814  27.478  1.00  0.00    -0.352 N 
ATOM     38  C   UNL A   1      33.063  34.586  28.413  1.00  0.00     0.251 C 
ATOM     39  H   UNL A   1      31.698  34.271  26.980  1.00  0.00     0.163 HD
ATOM     40  O   UNL A   1      32.662  35.723  28.644  1.00  0.00    -0.269 OA
BRANCH  38  41
ATOM     41  C   UNL A   1      34.225  34.050  29.162  1.00  0.00     0.039 A 
ATOM     42  C   UNL A   1      33.988  33.178  30.231  1.00  0.00     0.014 A 
ATOM     43  C   UNL A   1      35.535  34.418  28.842  1.00  0.00     0.014 A 
ATOM     44  C   UNL A   1      35.063  32.634  30.941  1.00  0.00     0.010 A 
ATOM     45  C   UNL A   1      36.608  33.833  29.517  1.00  0.00     0.010 A 
ATOM     46  C   UNL A   1      36.383  32.938  30.574  1.00  0.00    -0.014 A 
BRANCH  46  47
ATOM     47  C   UNL A   1      37.540  32.332  31.284  1.00  0.00     0.031 A 
ATOM     48  C   UNL A   1      38.284  31.175  30.669  1.00  0.00     0.074 A 
ATOM     49  C   UNL A   1      37.877  32.775  32.511  1.00  0.00     0.049 A 
ATOM     50  N   UNL A   1      39.271  30.473  31.163  1.00  0.00    -0.248 NA
ATOM     51  C   UNL A   1      37.849  30.739  29.332  1.00  0.00     0.031 C 
ATOM     52  C   UNL A   1      37.199  33.849  33.241  1.00  0.00     0.029 A 
ATOM     53  N   UNL A   1      38.863  32.361  33.373  1.00  0.00    -0.354 N 
ATOM     54  C   UNL A   1      39.557  29.497  30.215  1.00  0.00     0.074 A 
ATOM     55  C   UNL A   1      38.620  29.679  29.127  1.00  0.00     0.031 C 
ATOM     56  C   UNL A   1      37.792  34.013  34.435  1.00  0.00     0.029 A 
ATOM     57  C   UNL A   1      38.876  33.044  34.567  1.00  0.00     0.049 A 
ATOM     58  H   UNL A   1      39.501  31.643  33.157  1.00  0.00     0.167 HD
ATOM     59  C   UNL A   1      40.532  28.557  30.229  1.00  0.00     0.034 A 
ATOM     60  C   UNL A   1      39.674  32.906  35.644  1.00  0.00     0.034 A 
ATOM     61  C   UNL A   1      41.494  28.407  31.287  1.00  0.00     0.049 A 
ATOM     62  C   UNL A   1      40.775  31.877  35.614  1.00  0.00     0.074 A 
ATOM     63  C   UNL A   1      42.544  27.509  31.376  1.00  0.00     0.029 A 
ATOM     64  N   UNL A   1      41.535  29.183  32.434  1.00  0.00    -0.354 N 
ATOM     65  N   UNL A   1      41.104  31.049  34.654  1.00  0.00    -0.248 NA
ATOM     66  C   UNL A   1      41.637  31.791  36.803  1.00  0.00     0.031 C 
ATOM     67  C   UNL A   1      43.224  27.748  32.574  1.00  0.00     0.029 A 
ATOM     68  C   UNL A   1      42.598  28.796  33.230  1.00  0.00     0.049 A 
ATOM     69  H   UNL A   1      40.899  29.903  32.651  1.00  0.00     0.167 HD
ATOM     70  C   UNL A   1      42.233  30.373  35.104  1.00  0.00     0.074 A 
ATOM     71  C   UNL A   1      42.542  30.903  36.416  1.00  0.00     0.031 C 
ATOM     72  C   UNL A   1      42.939  29.388  34.496  1.00  0.00     0.034 A 
BRANCH  59  73
ATOM     73  C   UNL A   1      40.660  27.665  29.023  1.00  0.00     0.023 A 
ATOM     74  C   UNL A   1      39.796  26.558  28.898  1.00  0.00     0.012 A 
ATOM     75  C   UNL A   1      41.574  27.949  27.990  1.00  0.00     0.148 A 
ATOM     76  C   UNL A   1      39.855  25.732  27.777  1.00  0.00     0.002 A 
ATOM     77  C   UNL A   1      41.604  27.140  26.857  1.00  0.00     0.091 A 
ATOM     78  F   UNL A   1      42.401  28.993  28.135  1.00  0.00    -0.205 F 
ATOM     79  C   UNL A   1      40.752  26.029  26.753  1.00  0.00     0.022 A 
BRANCH  77  80
ATOM     80  S   UNL A   1      42.675  27.477  25.454  1.00  0.00     0.127 S 
ATOM     81  O   UNL A   1      42.002  28.619  24.838  1.00  0.00    -0.237 OA
ATOM     82  O   UNL A   1      43.946  27.795  26.103  1.00  0.00    -0.237 OA
ATOM     83  O   UNL A   1      42.688  26.255  24.661  1.00  0.00    -0.744 OA
ENDBRANCH  77  80
ENDBRANCH  59  73
BRANCH  60  84
ATOM     84  C   UNL A   1      39.525  33.818  36.814  1.00  0.00     0.023 A 
ATOM     85  C   UNL A   1      39.981  35.146  36.708  1.00  0.00     0.012 A 
ATOM     86  C   UNL A   1      38.945  33.385  38.022  1.00  0.00     0.148 A 
ATOM     87  C   UNL A   1      39.897  36.018  37.792  1.00  0.00     0.002 A 
ATOM     88  C   UNL A   1      38.827  34.273  39.087  1.00  0.00     0.091 A 
ATOM     89  F   UNL A   1      38.518  32.117  38.102  1.00  0.00    -0.205 F 
ATOM     90  C   UNL A   1      39.316  35.583  38.980  1.00  0.00     0.022 A 
BRANCH  88  91
ATOM     91  S   UNL A   1      38.011  33.837  40.626  1.00  0.00     0.127 S 
ATOM     92  O   UNL A   1      39.034  33.037  41.294  1.00  0.00    -0.237 OA
ATOM     93  O   UNL A   1      37.764  35.150  41.222  1.00  0.00    -0.237 OA
ATOM     94  O   UNL A   1      36.803  33.121  40.238  1.00  0.00    -0.744 OA
ENDBRANCH  88  91
ENDBRANCH  60  84
BRANCH  72  95
ATOM     95  C   UNL A   1      44.142  28.845  35.218  1.00  0.00     0.023 A 
ATOM     96  C   UNL A   1      45.401  29.441  35.014  1.00  0.00     0.012 A 
ATOM     97  C   UNL A   1      44.011  27.799  36.152  1.00  0.00     0.148 A 
ATOM     98  C   UNL A   1      46.520  28.986  35.712  1.00  0.00     0.002 A 
ATOM     99  C   UNL A   1      45.124  27.378  36.872  1.00  0.00     0.091 A 
ATOM    100  F   UNL A   1      42.808  27.230  36.314  1.00  0.00    -0.205 F 
ATOM    101  C   UNL A   1      46.379  27.964  36.648  1.00  0.00     0.022 A 
BRANCH  99 102
ATOM    102  S   UNL A   1      45.008  26.127  38.158  1.00  0.00     0.127 S 
ATOM    103  O   UNL A   1      46.370  26.117  38.688  1.00  0.00    -0.237 OA
ATOM    104  O   UNL A   1      44.007  26.694  39.061  1.00  0.00    -0.237 OA
ATOM    105  O   UNL A   1      44.585  24.907  37.484  1.00  0.00    -0.744 OA
ENDBRANCH  99 102
ENDBRANCH  72  95
ENDBRANCH  46  47
ENDBRANCH  38  41
ENDBRANCH  36  37
ENDBRANCH  35  36
ENDBRANCH  34  35
ENDBRANCH   1  34
TORSDOF 21
ENDMDL
MODEL 3
REMARK VINA RESULT:     -12.0      1.180      2.343
REMARK SMILES [NH3+][C@H]1CN(C(=O)OCC2c3ccccc3-c3ccccc32)C[C@@H]1C(=O)NCCCCCCNC(=O)c1ccc(-c2c3nc(c(-c4cccc(S(=O)(=O)[O-])c4F)c4ccc([nH]4)c(-c4cccc(S(=O)(=O)[O-])c4F)c4nc(c(-c5cccc(S(=O)(=O)[O-])c5F)c5ccc2[nH]5)C=C4)C=C3)cc1
REMARK SMILES IDX 29 1 28 2 27 3 26 4 24 5 25 6 23 8 2 9 3 10 4 11 22 12 1 13
REMARK SMILES IDX 5 17 6 18 7 19 8 20 9 21 10 22 21 23 11 24 15 25 16 26 20 27
REMARK SMILES IDX 12 28 14 29 17 30 19 31 13 32 18 33 30 34 31 35 32 36 33 37
REMARK SMILES IDX 34 38 35 40 36 41 37 42 98 43 38 44 97 45 39 46 40 47 41 48
REMARK SMILES IDX 91 49 42 50 96 51 90 52 92 53 43 54 95 55 89 56 88 57 44 59
REMARK SMILES IDX 76 60 56 61 75 62 57 63 60 64 74 65 93 66 58 67 59 68 73 70
REMARK SMILES IDX 94 71 61 72 45 73 46 74 54 75 47 76 49 77 55 78 48 79 50 80
REMARK SMILES IDX 51 81 52 82 53 83 77 84 78 85 86 86 79 87 81 88 87 89 80 90
REMARK SMILES IDX 82 91 83 92 84 93 85 94 62 95 63 96 71 97 64 98 66 99 72 100
REMARK SMILES IDX 65 101 67 102 68 103 69 104 70 105
REMARK H PARENT 26 7 1 14 1 15 1 16 33 39 92 58 60 69
REMARK Flexibility Score: inf
ROOT
ATOM      1  C   UNL A   1      31.752  30.004  25.273  1.00  0.00     0.002 C 
ENDROOT
BRANCH   1   2
ATOM      2  C   UNL A   1      32.775  28.895  25.022  1.00  0.00     0.021 C 
BRANCH   2   3
ATOM      3  C   UNL A   1      32.433  27.503  25.543  1.00  0.00     0.116 C 
BRANCH   3   4
ATOM      4  N   UNL A   1      33.126  26.418  24.878  1.00  0.00    -0.356 N 
ATOM      5  C   UNL A   1      32.686  25.485  23.991  1.00  0.00     0.231 C 
ATOM      6  O   UNL A   1      33.577  24.832  23.429  1.00  0.00    -0.274 OA
ATOM      7  H   UNL A   1      34.080  26.343  25.108  1.00  0.00     0.163 HD
BRANCH   5   8
ATOM      8  C   UNL A   1      31.213  25.094  23.785  1.00  0.00     0.158 C 
ATOM      9  C   UNL A   1      30.293  26.161  24.460  1.00  0.00     0.215 C 
ATOM     10  C   UNL A   1      30.161  25.631  25.923  1.00  0.00     0.188 C 
ATOM     11  N   UNL A   1      30.505  24.225  25.831  1.00  0.00    -0.301 N 
ATOM     12  C   UNL A   1      30.681  23.842  24.453  1.00  0.00     0.143 C 
BRANCH   9  13
ATOM     13  N   UNL A   1      28.979  26.224  23.783  1.00  0.00    -0.353 N 
ATOM     14  H   UNL A   1      28.655  25.278  23.579  1.00  0.00     0.344 HD
ATOM     15  H   UNL A   1      29.070  26.747  22.913  1.00  0.00     0.344 HD
ATOM     16  H   UNL A   1      28.306  26.689  24.392  1.00  0.00     0.344 HD
ENDBRANCH   9  13
BRANCH  11  17
ATOM     17  C   UNL A   1      31.089  23.493  26.830  1.00  0.00     0.410 C 
ATOM     18  O   UNL A   1      30.430  22.880  27.659  1.00  0.00    -0.224 OA
BRANCH  17  19
ATOM     19  O   UNL A   1      32.441  23.564  26.835  1.00  0.00    -0.448 OA
BRANCH  19  20
ATOM     20  C   UNL A   1      33.094  22.267  26.799  1.00  0.00     0.248 C 
BRANCH  20  21
ATOM     21  C   UNL A   1      33.879  22.059  25.482  1.00  0.00     0.088 C 
ATOM     22  C   UNL A   1      35.381  22.364  25.558  1.00  0.00    -0.029 A 
ATOM     23  C   UNL A   1      33.898  20.580  25.085  1.00  0.00    -0.029 A 
ATOM     24  C   UNL A   1      36.035  23.575  25.743  1.00  0.00     0.005 A 
ATOM     25  C   UNL A   1      36.131  21.197  25.302  1.00  0.00    -0.014 A 
ATOM     26  C   UNL A   1      35.226  20.112  25.000  1.00  0.00    -0.014 A 
ATOM     27  C   UNL A   1      32.827  19.748  24.792  1.00  0.00     0.005 A 
ATOM     28  C   UNL A   1      37.434  23.600  25.757  1.00  0.00     0.000 A 
ATOM     29  C   UNL A   1      37.517  21.219  25.301  1.00  0.00     0.009 A 
ATOM     30  C   UNL A   1      35.497  18.809  24.620  1.00  0.00     0.009 A 
ATOM     31  C   UNL A   1      33.099  18.428  24.419  1.00  0.00     0.000 A 
ATOM     32  C   UNL A   1      38.171  22.428  25.545  1.00  0.00     0.001 A 
ATOM     33  C   UNL A   1      34.422  17.965  24.331  1.00  0.00     0.001 A 
ENDBRANCH  20  21
ENDBRANCH  19  20
ENDBRANCH  17  19
ENDBRANCH  11  17
ENDBRANCH   5   8
ENDBRANCH   3   4
ENDBRANCH   2   3
ENDBRANCH   1   2
BRANCH   1  34
ATOM     34  C   UNL A   1      31.674  30.587  26.686  1.00  0.00     0.002 C 
BRANCH  34  35
ATOM     35  C   UNL A   1      31.510  32.105  26.814  1.00  0.00     0.021 C 
BRANCH  35  36
ATOM     36  C   UNL A   1      32.767  32.907  27.137  1.00  0.00     0.116 C 
BRANCH  36  37
ATOM     37  N   UNL A   1      32.488  34.248  27.621  1.00  0.00    -0.352 N 
ATOM     38  C   UNL A   1      33.074  34.944  28.652  1.00  0.00     0.251 C 
ATOM     39  H   UNL A   1      31.776  34.729  27.140  1.00  0.00     0.163 HD
ATOM     40  O   UNL A   1      32.625  36.041  28.975  1.00  0.00    -0.269 OA
BRANCH  38  41
ATOM     41  C   UNL A   1      34.223  34.373  29.394  1.00  0.00     0.039 A 
ATOM     42  C   UNL A   1      33.970  33.623  30.547  1.00  0.00     0.014 A 
ATOM     43  C   UNL A   1      35.541  34.594  28.983  1.00  0.00     0.014 A 
ATOM     44  C   UNL A   1      35.031  33.048  31.255  1.00  0.00     0.010 A 
ATOM     45  C   UNL A   1      36.595  33.976  29.659  1.00  0.00     0.010 A 
ATOM     46  C   UNL A   1      36.351  33.199  30.802  1.00  0.00    -0.014 A 
BRANCH  46  47
ATOM     47  C   UNL A   1      37.488  32.557  31.512  1.00  0.00     0.031 A 
ATOM     48  C   UNL A   1      38.211  31.394  30.883  1.00  0.00     0.074 A 
ATOM     49  C   UNL A   1      37.824  32.971  32.749  1.00  0.00     0.049 A 
ATOM     50  N   UNL A   1      39.179  30.662  31.374  1.00  0.00    -0.248 NA
ATOM     51  C   UNL A   1      37.779  30.990  29.535  1.00  0.00     0.031 C 
ATOM     52  C   UNL A   1      37.164  34.049  33.491  1.00  0.00     0.029 A 
ATOM     53  N   UNL A   1      38.793  32.522  33.611  1.00  0.00    -0.354 N 
ATOM     54  C   UNL A   1      39.451  29.696  30.411  1.00  0.00     0.074 A 
ATOM     55  C   UNL A   1      38.528  29.917  29.320  1.00  0.00     0.031 C 
ATOM     56  C   UNL A   1      37.750  34.179  34.692  1.00  0.00     0.029 A 
ATOM     57  C   UNL A   1      38.811  33.184  34.817  1.00  0.00     0.049 A 
ATOM     58  H   UNL A   1      39.417  31.794  33.389  1.00  0.00     0.167 HD
ATOM     59  C   UNL A   1      40.405  28.734  30.419  1.00  0.00     0.034 A 
ATOM     60  C   UNL A   1      39.597  33.011  35.898  1.00  0.00     0.034 A 
ATOM     61  C   UNL A   1      41.354  28.545  31.481  1.00  0.00     0.049 A 
ATOM     62  C   UNL A   1      40.674  31.959  35.860  1.00  0.00     0.074 A 
ATOM     63  C   UNL A   1      42.384  27.623  31.564  1.00  0.00     0.029 A 
ATOM     64  N   UNL A   1      41.402  29.301  32.641  1.00  0.00    -0.354 N 
ATOM     65  N   UNL A   1      40.994  31.139  34.889  1.00  0.00    -0.248 NA
ATOM     66  C   UNL A   1      41.524  31.834  37.054  1.00  0.00     0.031 C 
ATOM     67  C   UNL A   1      43.059  27.827  32.772  1.00  0.00     0.029 A 
ATOM     68  C   UNL A   1      42.450  28.877  33.440  1.00  0.00     0.049 A 
ATOM     69  H   UNL A   1      40.780  30.032  32.866  1.00  0.00     0.167 HD
ATOM     70  C   UNL A   1      42.104  30.431  35.337  1.00  0.00     0.074 A 
ATOM     71  C   UNL A   1      42.412  30.933  36.660  1.00  0.00     0.031 C 
ATOM     72  C   UNL A   1      42.792  29.441  34.719  1.00  0.00     0.034 A 
BRANCH  59  73
ATOM     73  C   UNL A   1      40.524  27.860  29.198  1.00  0.00     0.023 A 
ATOM     74  C   UNL A   1      39.672  26.743  29.073  1.00  0.00     0.012 A 
ATOM     75  C   UNL A   1      41.416  28.169  28.153  1.00  0.00     0.148 A 
ATOM     76  C   UNL A   1      39.724  25.933  27.941  1.00  0.00     0.002 A 
ATOM     77  C   UNL A   1      41.437  27.376  27.010  1.00  0.00     0.091 A 
ATOM     78  F   UNL A   1      42.232  29.223  28.299  1.00  0.00    -0.205 F 
ATOM     79  C   UNL A   1      40.598  26.255  26.906  1.00  0.00     0.022 A 
BRANCH  77  80
ATOM     80  S   UNL A   1      42.479  27.745  25.593  1.00  0.00     0.127 S 
ATOM     81  O   UNL A   1      43.800  27.830  26.213  1.00  0.00    -0.237 OA
ATOM     82  O   UNL A   1      42.277  26.570  24.746  1.00  0.00    -0.237 OA
ATOM     83  O   UNL A   1      41.967  28.989  25.035  1.00  0.00    -0.744 OA
ENDBRANCH  77  80
ENDBRANCH  59  73
BRANCH  60  84
ATOM     84  C   UNL A   1      39.457  33.906  37.082  1.00  0.00     0.023 A 
ATOM     85  C   UNL A   1      39.960  35.220  37.008  1.00  0.00     0.012 A 
ATOM     86  C   UNL A   1      38.841  33.472  38.272  1.00  0.00     0.148 A 
ATOM     87  C   UNL A   1      39.886  36.074  38.107  1.00  0.00     0.002 A 
ATOM     88  C   UNL A   1      38.733  34.344  39.351  1.00  0.00     0.091 A 
ATOM     89  F   UNL A   1      38.369  32.219  38.321  1.00  0.00    -0.205 F 
ATOM     90  C   UNL A   1      39.269  35.639  39.277  1.00  0.00     0.022 A 
BRANCH  88  91
ATOM     91  S   UNL A   1      37.875  33.909  40.866  1.00  0.00     0.127 S 
ATOM     92  O   UNL A   1      36.670  33.261  40.355  1.00  0.00    -0.237 OA
ATOM     93  O   UNL A   1      38.834  33.010  41.511  1.00  0.00    -0.237 OA
ATOM     94  O   UNL A   1      37.666  35.165  41.572  1.00  0.00    -0.744 OA
ENDBRANCH  88  91
ENDBRANCH  60  84
BRANCH  72  95
ATOM     95  C   UNL A   1      43.977  28.859  35.441  1.00  0.00     0.023 A 
ATOM     96  C   UNL A   1      45.250  29.435  35.263  1.00  0.00     0.012 A 
ATOM     97  C   UNL A   1      43.816  27.797  36.351  1.00  0.00     0.148 A 
ATOM     98  C   UNL A   1      46.352  28.944  35.962  1.00  0.00     0.002 A 
ATOM     99  C   UNL A   1      44.913  27.340  37.074  1.00  0.00     0.091 A 
ATOM    100  F   UNL A   1      42.601  27.248  36.489  1.00  0.00    -0.205 F 
ATOM    101  C   UNL A   1      46.182  27.905  36.876  1.00  0.00     0.022 A 
BRANCH  99 102
ATOM    102  S   UNL A   1      44.760  26.064  38.331  1.00  0.00     0.127 S 
ATOM    103  O   UNL A   1      43.943  26.736  39.340  1.00  0.00    -0.237 OA
ATOM    104  O   UNL A   1      44.076  24.991  37.611  1.00  0.00    -0.237 OA
ATOM    105  O   UNL A   1      46.122  25.743  38.734  1.00  0.00    -0.744 OA
ENDBRANCH  99 102
ENDBRANCH  72  95
ENDBRANCH  46  47
ENDBRANCH  38  41
ENDBRANCH  36  37
ENDBRANCH  35  36
ENDBRANCH  34  35
ENDBRANCH   1  34
TORSDOF 21
ENDMDL
