MODEL 1
REMARK VINA RESULT:     -12.0      0.000      0.000
REMARK SMILES CC(C)Cc1cc2c(cc1Cl)C=C(C(=O)NCCCCCCNC(=O)c1ccc(-c3c4nc(c(-c5cccc(S(=O)(=O)[O-])c5F)c5ccc([nH]5)c(-c5cccc(S(=O)(=O)[O-])c5F)c5nc(c(-c6cccc(S(=O)(=O)[O-])c6F)c6ccc3[nH]6)C=C5)C=C4)cc1)[C@H](C(F)(F)F)O2
REMARK SMILES IDX 20 1 19 2 18 3 17 4 16 5 14 6 15 7 13 9 5 10 6 11 10 12 7 13
REMARK SMILES IDX 9 14 11 15 8 16 94 17 12 18 89 19 4 20 2 21 1 22 3 23 90 24
REMARK SMILES IDX 91 25 92 26 93 27 21 28 22 29 23 30 24 31 25 33 26 34 27 35
REMARK SMILES IDX 88 36 28 37 87 38 29 39 30 40 31 41 81 42 32 43 86 44 80 45
REMARK SMILES IDX 82 46 33 47 85 48 79 49 78 50 34 52 66 53 46 54 65 55 47 56
REMARK SMILES IDX 50 57 64 58 83 59 48 60 49 61 63 63 84 64 51 65 35 66 36 67
REMARK SMILES IDX 44 68 37 69 39 70 45 71 38 72 40 73 41 74 42 75 43 76 67 77
REMARK SMILES IDX 68 78 76 79 69 80 71 81 77 82 70 83 72 84 73 85 74 86 75 87
REMARK SMILES IDX 52 88 53 89 61 90 54 91 56 92 62 93 55 94 57 95 58 96 59 97
REMARK SMILES IDX 60 98
REMARK H PARENT 16 8 23 32 82 51 50 62
REMARK Flexibility Score: inf
ROOT
ATOM      1  C   UNL A   1      36.955  20.613  25.146  1.00  0.00     0.002 C 
ENDROOT
BRANCH   1   2
ATOM      2  C   UNL A   1      36.929  21.984  24.461  1.00  0.00     0.002 C 
BRANCH   2   3
ATOM      3  C   UNL A   1      37.117  23.178  25.397  1.00  0.00     0.021 C 
BRANCH   3   4
ATOM      4  C   UNL A   1      35.892  24.082  25.495  1.00  0.00     0.116 C 
BRANCH   4   5
ATOM      5  N   UNL A   1      34.698  23.325  25.827  1.00  0.00    -0.352 N 
ATOM      6  C   UNL A   1      33.368  23.411  25.597  1.00  0.00     0.251 C 
ATOM      7  O   UNL A   1      32.690  22.505  26.091  1.00  0.00    -0.270 OA
ATOM      8  H   UNL A   1      34.917  22.533  26.369  1.00  0.00     0.163 HD
BRANCH   6   9
ATOM      9  C   UNL A   1      32.696  24.485  24.803  1.00  0.00     0.067 C 
ATOM     10  C   UNL A   1      30.514  28.812  23.384  1.00  0.00    -0.025 A 
ATOM     11  C   UNL A   1      30.585  27.518  22.851  1.00  0.00     0.052 A 
ATOM     12  C   UNL A   1      31.203  29.081  24.578  1.00  0.00     0.045 A 
ATOM     13  C   UNL A   1      31.283  26.515  23.513  1.00  0.00     0.128 A 
ATOM     14  C   UNL A   1      31.912  28.066  25.237  1.00  0.00     0.032 A 
ATOM     15  Cl  UNL A   1      31.180  30.640  25.322  1.00  0.00    -0.084 Cl
ATOM     16  C   UNL A   1      31.939  26.773  24.711  1.00  0.00     0.019 A 
ATOM     17  O   UNL A   1      31.211  25.279  22.952  1.00  0.00    -0.475 OA
ATOM     18  C   UNL A   1      32.584  25.676  25.418  1.00  0.00     0.025 C 
ATOM     19  C   UNL A   1      32.188  24.307  23.398  1.00  0.00     0.314 C 
BRANCH  10  20
ATOM     20  C   UNL A   1      29.616  29.804  22.682  1.00  0.00     0.040 C 
BRANCH  20  21
ATOM     21  C   UNL A   1      28.308  30.062  23.463  1.00  0.00    -0.013 C 
ATOM     22  C   UNL A   1      27.730  31.453  23.186  1.00  0.00     0.008 C 
ATOM     23  C   UNL A   1      27.275  28.988  23.123  1.00  0.00     0.008 C 
ENDBRANCH  20  21
ENDBRANCH  10  20
BRANCH  19  24
ATOM     24  C   UNL A   1      33.315  24.207  22.354  1.00  0.00     0.429 C 
ATOM     25  F   UNL A   1      33.656  22.926  22.079  1.00  0.00    -0.167 F 
ATOM     26  F   UNL A   1      32.989  24.781  21.174  1.00  0.00    -0.167 F 
ATOM     27  F   UNL A   1      34.432  24.835  22.799  1.00  0.00    -0.167 F 
ENDBRANCH  19  24
ENDBRANCH   6   9
ENDBRANCH   4   5
ENDBRANCH   3   4
ENDBRANCH   2   3
ENDBRANCH   1   2
BRANCH   1  28
ATOM     28  C   UNL A   1      38.256  19.827  24.974  1.00  0.00     0.021 C 
BRANCH  28  29
ATOM     29  C   UNL A   1      39.406  20.319  25.845  1.00  0.00     0.116 C 
BRANCH  29  30
ATOM     30  N   UNL A   1      40.428  19.299  26.021  1.00  0.00    -0.352 N 
ATOM     31  C   UNL A   1      41.790  19.434  26.129  1.00  0.00     0.251 C 
ATOM     32  H   UNL A   1      40.094  18.374  26.070  1.00  0.00     0.163 HD
ATOM     33  O   UNL A   1      42.509  18.442  26.038  1.00  0.00    -0.269 OA
BRANCH  31  34
ATOM     34  C   UNL A   1      42.382  20.774  26.335  1.00  0.00     0.039 A 
ATOM     35  C   UNL A   1      42.436  21.332  27.614  1.00  0.00     0.014 A 
ATOM     36  C   UNL A   1      42.886  21.481  25.241  1.00  0.00     0.014 A 
ATOM     37  C   UNL A   1      42.827  22.653  27.771  1.00  0.00     0.010 A 
ATOM     38  C   UNL A   1      43.383  22.777  25.421  1.00  0.00     0.010 A 
ATOM     39  C   UNL A   1      43.316  23.391  26.680  1.00  0.00    -0.014 A 
BRANCH  39  40
ATOM     40  C   UNL A   1      43.774  24.787  26.908  1.00  0.00     0.031 A 
ATOM     41  C   UNL A   1      42.858  25.825  27.500  1.00  0.00     0.074 A 
ATOM     42  C   UNL A   1      45.055  25.102  26.627  1.00  0.00     0.049 A 
ATOM     43  N   UNL A   1      43.136  27.058  27.840  1.00  0.00    -0.248 NA
ATOM     44  C   UNL A   1      41.456  25.443  27.739  1.00  0.00     0.031 C 
ATOM     45  C   UNL A   1      46.029  24.191  26.018  1.00  0.00     0.029 A 
ATOM     46  N   UNL A   1      45.769  26.254  26.836  1.00  0.00    -0.354 N 
ATOM     47  C   UNL A   1      41.945  27.607  28.298  1.00  0.00     0.074 A 
ATOM     48  C   UNL A   1      40.934  26.579  28.185  1.00  0.00     0.031 C 
ATOM     49  C   UNL A   1      47.223  24.796  25.958  1.00  0.00     0.029 A 
ATOM     50  C   UNL A   1      47.089  26.157  26.468  1.00  0.00     0.049 A 
ATOM     51  H   UNL A   1      45.372  27.073  27.213  1.00  0.00     0.167 HD
ATOM     52  C   UNL A   1      41.719  28.847  28.789  1.00  0.00     0.034 A 
ATOM     53  C   UNL A   1      48.090  27.058  26.527  1.00  0.00     0.034 A 
ATOM     54  C   UNL A   1      42.736  29.851  28.947  1.00  0.00     0.049 A 
ATOM     55  C   UNL A   1      47.816  28.421  27.087  1.00  0.00     0.074 A 
ATOM     56  C   UNL A   1      42.609  31.115  29.494  1.00  0.00     0.029 A 
ATOM     57  N   UNL A   1      44.059  29.709  28.561  1.00  0.00    -0.354 N 
ATOM     58  N   UNL A   1      46.703  28.884  27.601  1.00  0.00    -0.248 NA
ATOM     59  C   UNL A   1      48.928  29.381  27.090  1.00  0.00     0.031 C 
ATOM     60  C   UNL A   1      43.852  31.748  29.421  1.00  0.00     0.029 A 
ATOM     61  C   UNL A   1      44.756  30.868  28.848  1.00  0.00     0.049 A 
ATOM     62  H   UNL A   1      44.443  28.905  28.143  1.00  0.00     0.167 HD
ATOM     63  C   UNL A   1      46.983  30.183  28.003  1.00  0.00     0.074 A 
ATOM     64  C   UNL A   1      48.374  30.432  27.685  1.00  0.00     0.031 C 
ATOM     65  C   UNL A   1      46.152  31.088  28.572  1.00  0.00     0.034 A 
BRANCH  52  66
ATOM     66  C   UNL A   1      40.332  29.193  29.252  1.00  0.00     0.023 A 
ATOM     67  C   UNL A   1      39.378  29.623  28.308  1.00  0.00     0.012 A 
ATOM     68  C   UNL A   1      39.938  28.969  30.586  1.00  0.00     0.148 A 
ATOM     69  C   UNL A   1      38.053  29.831  28.686  1.00  0.00     0.002 A 
ATOM     70  C   UNL A   1      38.609  29.151  30.948  1.00  0.00     0.091 A 
ATOM     71  F   UNL A   1      40.866  28.566  31.465  1.00  0.00    -0.205 F 
ATOM     72  C   UNL A   1      37.666  29.584  30.001  1.00  0.00     0.022 A 
BRANCH  70  73
ATOM     73  S   UNL A   1      37.994  28.808  32.601  1.00  0.00     0.127 S 
ATOM     74  O   UNL A   1      38.943  29.555  33.427  1.00  0.00    -0.237 OA
ATOM     75  O   UNL A   1      36.648  29.379  32.552  1.00  0.00    -0.237 OA
ATOM     76  O   UNL A   1      38.043  27.362  32.761  1.00  0.00    -0.744 OA
ENDBRANCH  70  73
ENDBRANCH  52  66
BRANCH  53  77
ATOM     77  C   UNL A   1      49.450  26.658  26.077  1.00  0.00     0.023 A 
ATOM     78  C   UNL A   1      50.189  25.738  26.844  1.00  0.00     0.012 A 
ATOM     79  C   UNL A   1      49.968  27.108  24.848  1.00  0.00     0.148 A 
ATOM     80  C   UNL A   1      51.425  25.274  26.394  1.00  0.00     0.002 A 
ATOM     81  C   UNL A   1      51.180  26.612  24.386  1.00  0.00     0.091 A 
ATOM     82  F   UNL A   1      49.240  27.982  24.138  1.00  0.00    -0.205 F 
ATOM     83  C   UNL A   1      51.914  25.700  25.161  1.00  0.00     0.022 A 
BRANCH  81  84
ATOM     84  S   UNL A   1      51.840  27.019  22.766  1.00  0.00     0.127 S 
ATOM     85  O   UNL A   1      52.200  28.424  22.937  1.00  0.00    -0.237 OA
ATOM     86  O   UNL A   1      52.973  26.099  22.667  1.00  0.00    -0.237 OA
ATOM     87  O   UNL A   1      50.763  26.760  21.821  1.00  0.00    -0.744 OA
ENDBRANCH  81  84
ENDBRANCH  53  77
BRANCH  65  88
ATOM     88  C   UNL A   1      46.698  32.443  28.918  1.00  0.00     0.023 A 
ATOM     89  C   UNL A   1      47.327  32.634  30.162  1.00  0.00     0.012 A 
ATOM     90  C   UNL A   1      46.747  33.459  27.945  1.00  0.00     0.148 A 
ATOM     91  C   UNL A   1      48.008  33.820  30.431  1.00  0.00     0.002 A 
ATOM     92  C   UNL A   1      47.456  34.624  28.207  1.00  0.00     0.091 A 
ATOM     93  F   UNL A   1      46.137  33.246  26.770  1.00  0.00    -0.205 F 
ATOM     94  C   UNL A   1      48.085  34.807  29.449  1.00  0.00     0.022 A 
BRANCH  92  95
ATOM     95  S   UNL A   1      47.679  35.919  26.982  1.00  0.00     0.127 S 
ATOM     96  O   UNL A   1      46.315  36.427  26.833  1.00  0.00    -0.237 OA
ATOM     97  O   UNL A   1      48.599  36.829  27.662  1.00  0.00    -0.237 OA
ATOM     98  O   UNL A   1      48.223  35.269  25.798  1.00  0.00    -0.744 OA
ENDBRANCH  92  95
ENDBRANCH  65  88
ENDBRANCH  39  40
ENDBRANCH  31  34
ENDBRANCH  29  30
ENDBRANCH  28  29
ENDBRANCH   1  28
TORSDOF 19
ENDMDL
MODEL 2
REMARK VINA RESULT:     -11.9      1.754      7.562
REMARK SMILES CC(C)Cc1cc2c(cc1Cl)C=C(C(=O)NCCCCCCNC(=O)c1ccc(-c3c4nc(c(-c5cccc(S(=O)(=O)[O-])c5F)c5ccc([nH]5)c(-c5cccc(S(=O)(=O)[O-])c5F)c5nc(c(-c6cccc(S(=O)(=O)[O-])c6F)c6ccc3[nH]6)C=C5)C=C4)cc1)[C@H](C(F)(F)F)O2
REMARK SMILES IDX 20 1 19 2 18 3 17 4 16 5 14 6 15 7 13 9 5 10 6 11 10 12 7 13
REMARK SMILES IDX 9 14 11 15 8 16 94 17 12 18 89 19 4 20 2 21 1 22 3 23 90 24
REMARK SMILES IDX 91 25 92 26 93 27 21 28 22 29 23 30 24 31 25 33 26 34 27 35
REMARK SMILES IDX 88 36 28 37 87 38 29 39 30 40 31 41 81 42 32 43 86 44 80 45
REMARK SMILES IDX 82 46 33 47 85 48 79 49 78 50 34 52 66 53 46 54 65 55 47 56
REMARK SMILES IDX 50 57 64 58 83 59 48 60 49 61 63 63 84 64 51 65 35 66 36 67
REMARK SMILES IDX 44 68 37 69 39 70 45 71 38 72 40 73 41 74 42 75 43 76 67 77
REMARK SMILES IDX 68 78 76 79 69 80 71 81 77 82 70 83 72 84 73 85 74 86 75 87
REMARK SMILES IDX 52 88 53 89 61 90 54 91 56 92 62 93 55 94 57 95 58 96 59 97
REMARK SMILES IDX 60 98
REMARK H PARENT 16 8 23 32 82 51 50 62
REMARK Flexibility Score: inf
ROOT
ATOM      1  C   UNL A   1      36.861  20.466  24.981  1.00  0.00     0.002 C 
ENDROOT
BRANCH   1   2
ATOM      2  C   UNL A   1      37.024  21.891  24.439  1.00  0.00     0.002 C 
BRANCH   2   3
ATOM      3  C   UNL A   1      37.777  22.851  25.360  1.00  0.00     0.021 C 
BRANCH   3   4
ATOM      4  C   UNL A   1      36.865  23.750  26.190  1.00  0.00     0.116 C 
BRANCH   4   5
ATOM      5  N   UNL A   1      35.831  22.983  26.862  1.00  0.00    -0.352 N 
ATOM      6  C   UNL A   1      34.487  22.856  26.800  1.00  0.00     0.251 C 
ATOM      7  O   UNL A   1      33.998  22.047  27.596  1.00  0.00    -0.270 OA
ATOM      8  H   UNL A   1      36.215  22.395  27.552  1.00  0.00     0.163 HD
BRANCH   6   9
ATOM      9  C   UNL A   1      33.592  23.595  25.858  1.00  0.00     0.067 C 
ATOM     10  C   UNL A   1      31.373  27.211  23.119  1.00  0.00    -0.025 A 
ATOM     11  C   UNL A   1      31.038  25.900  23.485  1.00  0.00     0.052 A 
ATOM     12  C   UNL A   1      32.611  27.725  23.537  1.00  0.00     0.045 A 
ATOM     13  C   UNL A   1      31.891  25.146  24.282  1.00  0.00     0.128 A 
ATOM     14  C   UNL A   1      33.470  26.956  24.334  1.00  0.00     0.032 A 
ATOM     15  Cl  UNL A   1      33.121  29.328  23.144  1.00  0.00    -0.084 Cl
ATOM     16  C   UNL A   1      33.103  25.666  24.722  1.00  0.00     0.019 A 
ATOM     17  O   UNL A   1      31.425  23.922  24.649  1.00  0.00    -0.475 OA
ATOM     18  C   UNL A   1      33.927  24.878  25.627  1.00  0.00     0.025 C 
ATOM     19  C   UNL A   1      32.402  22.987  25.166  1.00  0.00     0.314 C 
BRANCH  10  20
ATOM     20  C   UNL A   1      30.328  28.013  22.377  1.00  0.00     0.040 C 
BRANCH  20  21
ATOM     21  C   UNL A   1      29.342  28.715  23.337  1.00  0.00    -0.013 C 
ATOM     22  C   UNL A   1      29.665  30.202  23.516  1.00  0.00     0.008 C 
ATOM     23  C   UNL A   1      27.910  28.548  22.831  1.00  0.00     0.008 C 
ENDBRANCH  20  21
ENDBRANCH  10  20
BRANCH  19  24
ATOM     24  C   UNL A   1      32.790  21.993  24.057  1.00  0.00     0.429 C 
ATOM     25  F   UNL A   1      33.130  20.777  24.544  1.00  0.00    -0.167 F 
ATOM     26  F   UNL A   1      31.792  21.786  23.168  1.00  0.00    -0.167 F 
ATOM     27  F   UNL A   1      33.851  22.457  23.353  1.00  0.00    -0.167 F 
ENDBRANCH  19  24
ENDBRANCH   6   9
ENDBRANCH   4   5
ENDBRANCH   3   4
ENDBRANCH   2   3
ENDBRANCH   1   2
BRANCH   1  28
ATOM     28  C   UNL A   1      38.124  19.605  24.933  1.00  0.00     0.021 C 
BRANCH  28  29
ATOM     29  C   UNL A   1      39.217  20.041  25.902  1.00  0.00     0.116 C 
BRANCH  29  30
ATOM     30  N   UNL A   1      40.311  19.083  25.953  1.00  0.00    -0.352 N 
ATOM     31  C   UNL A   1      41.661  19.302  26.055  1.00  0.00     0.251 C 
ATOM     32  H   UNL A   1      40.042  18.137  25.906  1.00  0.00     0.163 HD
ATOM     33  O   UNL A   1      42.446  18.378  25.847  1.00  0.00    -0.269 OA
BRANCH  31  34
ATOM     34  C   UNL A   1      42.164  20.650  26.397  1.00  0.00     0.039 A 
ATOM     35  C   UNL A   1      42.387  21.003  27.729  1.00  0.00     0.014 A 
ATOM     36  C   UNL A   1      42.413  21.573  25.377  1.00  0.00     0.014 A 
ATOM     37  C   UNL A   1      42.686  22.320  28.051  1.00  0.00     0.010 A 
ATOM     38  C   UNL A   1      42.821  22.872  25.700  1.00  0.00     0.010 A 
ATOM     39  C   UNL A   1      42.917  23.270  27.041  1.00  0.00    -0.014 A 
BRANCH  39  40
ATOM     40  C   UNL A   1      43.287  24.655  27.434  1.00  0.00     0.031 A 
ATOM     41  C   UNL A   1      44.668  25.199  27.177  1.00  0.00     0.074 A 
ATOM     42  C   UNL A   1      42.342  25.448  27.977  1.00  0.00     0.049 A 
ATOM     43  N   UNL A   1      45.117  26.411  27.380  1.00  0.00    -0.248 NA
ATOM     44  C   UNL A   1      45.676  24.275  26.630  1.00  0.00     0.031 C 
ATOM     45  C   UNL A   1      40.978  25.025  28.306  1.00  0.00     0.029 A 
ATOM     46  N   UNL A   1      42.367  26.775  28.325  1.00  0.00    -0.354 N 
ATOM     47  C   UNL A   1      46.459  26.388  27.021  1.00  0.00     0.074 A 
ATOM     48  C   UNL A   1      46.761  25.040  26.596  1.00  0.00     0.031 C 
ATOM     49  C   UNL A   1      40.282  26.080  28.749  1.00  0.00     0.029 A 
ATOM     50  C   UNL A   1      41.163  27.242  28.794  1.00  0.00     0.049 A 
ATOM     51  H   UNL A   1      43.171  27.337  28.247  1.00  0.00     0.167 HD
ATOM     52  C   UNL A   1      47.352  27.404  27.025  1.00  0.00     0.034 A 
ATOM     53  C   UNL A   1      40.798  28.468  29.218  1.00  0.00     0.034 A 
ATOM     54  C   UNL A   1      47.038  28.755  27.401  1.00  0.00     0.049 A 
ATOM     55  C   UNL A   1      41.804  29.579  29.200  1.00  0.00     0.074 A 
ATOM     56  C   UNL A   1      47.866  29.863  27.375  1.00  0.00     0.029 A 
ATOM     57  N   UNL A   1      45.806  29.184  27.870  1.00  0.00    -0.354 N 
ATOM     58  N   UNL A   1      43.040  29.554  28.767  1.00  0.00    -0.248 NA
ATOM     59  C   UNL A   1      41.370  30.886  29.713  1.00  0.00     0.031 C 
ATOM     60  C   UNL A   1      47.142  30.959  27.848  1.00  0.00     0.029 A 
ATOM     61  C   UNL A   1      45.857  30.537  28.146  1.00  0.00     0.049 A 
ATOM     62  H   UNL A   1      45.015  28.610  27.988  1.00  0.00     0.167 HD
ATOM     63  C   UNL A   1      43.528  30.842  28.940  1.00  0.00     0.074 A 
ATOM     64  C   UNL A   1      42.451  31.628  29.506  1.00  0.00     0.031 C 
ATOM     65  C   UNL A   1      44.765  31.320  28.664  1.00  0.00     0.034 A 
BRANCH  52  66
ATOM     66  C   UNL A   1      48.754  27.128  26.558  1.00  0.00     0.023 A 
ATOM     67  C   UNL A   1      49.635  26.424  27.403  1.00  0.00     0.012 A 
ATOM     68  C   UNL A   1      49.153  27.444  25.244  1.00  0.00     0.148 A 
ATOM     69  C   UNL A   1      50.898  26.045  26.949  1.00  0.00     0.002 A 
ATOM     70  C   UNL A   1      50.402  27.037  24.790  1.00  0.00     0.091 A 
ATOM     71  F   UNL A   1      48.298  28.119  24.463  1.00  0.00    -0.205 F 
ATOM     72  C   UNL A   1      51.276  26.340  25.642  1.00  0.00     0.022 A 
BRANCH  70  73
ATOM     73  S   UNL A   1      50.966  27.317  23.108  1.00  0.00     0.127 S 
ATOM     74  O   UNL A   1      51.023  28.778  23.058  1.00  0.00    -0.237 OA
ATOM     75  O   UNL A   1      52.271  26.656  23.108  1.00  0.00    -0.237 OA
ATOM     76  O   UNL A   1      49.969  26.710  22.238  1.00  0.00    -0.744 OA
ENDBRANCH  70  73
ENDBRANCH  52  66
BRANCH  53  77
ATOM     77  C   UNL A   1      39.392  28.695  29.649  1.00  0.00     0.023 A 
ATOM     78  C   UNL A   1      39.017  28.394  30.971  1.00  0.00     0.012 A 
ATOM     79  C   UNL A   1      38.458  29.297  28.784  1.00  0.00     0.148 A 
ATOM     80  C   UNL A   1      37.732  28.688  31.426  1.00  0.00     0.002 A 
ATOM     81  C   UNL A   1      37.193  29.625  29.254  1.00  0.00     0.091 A 
ATOM     82  F   UNL A   1      38.845  29.575  27.531  1.00  0.00    -0.205 F 
ATOM     83  C   UNL A   1      36.825  29.314  30.573  1.00  0.00     0.022 A 
BRANCH  81  84
ATOM     84  S   UNL A   1      35.995  30.525  28.265  1.00  0.00     0.127 S 
ATOM     85  O   UNL A   1      34.871  30.640  29.192  1.00  0.00    -0.237 OA
ATOM     86  O   UNL A   1      36.707  31.776  28.000  1.00  0.00    -0.237 OA
ATOM     87  O   UNL A   1      35.753  29.704  27.088  1.00  0.00    -0.744 OA
ENDBRANCH  81  84
ENDBRANCH  53  77
BRANCH  65  88
ATOM     88  C   UNL A   1      45.052  32.767  28.943  1.00  0.00     0.023 A 
ATOM     89  C   UNL A   1      45.713  33.120  30.134  1.00  0.00     0.012 A 
ATOM     90  C   UNL A   1      44.831  33.740  27.950  1.00  0.00     0.148 A 
ATOM     91  C   UNL A   1      46.160  34.426  30.330  1.00  0.00     0.002 A 
ATOM     92  C   UNL A   1      45.309  35.031  28.137  1.00  0.00     0.091 A 
ATOM     93  F   UNL A   1      44.197  33.371  26.827  1.00  0.00    -0.205 F 
ATOM     94  C   UNL A   1      45.972  35.375  29.326  1.00  0.00     0.022 A 
BRANCH  92  95
ATOM     95  S   UNL A   1      45.186  36.302  26.875  1.00  0.00     0.127 S 
ATOM     96  O   UNL A   1      45.748  37.463  27.566  1.00  0.00    -0.237 OA
ATOM     97  O   UNL A   1      46.026  35.760  25.809  1.00  0.00    -0.237 OA
ATOM     98  O   UNL A   1      43.771  36.412  26.545  1.00  0.00    -0.744 OA
ENDBRANCH  92  95
ENDBRANCH  65  88
ENDBRANCH  39  40
ENDBRANCH  31  34
ENDBRANCH  29  30
ENDBRANCH  28  29
ENDBRANCH   1  28
TORSDOF 19
ENDMDL
MODEL 3
REMARK VINA RESULT:     -11.8      5.664      8.709
REMARK SMILES CC(C)Cc1cc2c(cc1Cl)C=C(C(=O)NCCCCCCNC(=O)c1ccc(-c3c4nc(c(-c5cccc(S(=O)(=O)[O-])c5F)c5ccc([nH]5)c(-c5cccc(S(=O)(=O)[O-])c5F)c5nc(c(-c6cccc(S(=O)(=O)[O-])c6F)c6ccc3[nH]6)C=C5)C=C4)cc1)[C@H](C(F)(F)F)O2
REMARK SMILES IDX 20 1 19 2 18 3 17 4 16 5 14 6 15 7 13 9 5 10 6 11 10 12 7 13
REMARK SMILES IDX 9 14 11 15 8 16 94 17 12 18 89 19 4 20 2 21 1 22 3 23 90 24
REMARK SMILES IDX 91 25 92 26 93 27 21 28 22 29 23 30 24 31 25 33 26 34 27 35
REMARK SMILES IDX 88 36 28 37 87 38 29 39 30 40 31 41 81 42 32 43 86 44 80 45
REMARK SMILES IDX 82 46 33 47 85 48 79 49 78 50 34 52 66 53 46 54 65 55 47 56
REMARK SMILES IDX 50 57 64 58 83 59 48 60 49 61 63 63 84 64 51 65 35 66 36 67
REMARK SMILES IDX 44 68 37 69 39 70 45 71 38 72 40 73 41 74 42 75 43 76 67 77
REMARK SMILES IDX 68 78 76 79 69 80 71 81 77 82 70 83 72 84 73 85 74 86 75 87
REMARK SMILES IDX 52 88 53 89 61 90 54 91 56 92 62 93 55 94 57 95 58 96 59 97
REMARK SMILES IDX 60 98
REMARK H PARENT 16 8 23 32 82 51 50 62
REMARK Flexibility Score: inf
ROOT
ATOM      1  C   UNL A   1      32.002  28.339  27.288  1.00  0.00     0.002 C 
ENDROOT
BRANCH   1   2
ATOM      2  C   UNL A   1      31.287  28.023  25.969  1.00  0.00     0.002 C 
BRANCH   2   3
ATOM      3  C   UNL A   1      31.007  29.235  25.080  1.00  0.00     0.021 C 
BRANCH   3   4
ATOM      4  C   UNL A   1      31.202  28.962  23.591  1.00  0.00     0.116 C 
BRANCH   4   5
ATOM      5  N   UNL A   1      32.591  29.121  23.200  1.00  0.00    -0.352 N 
ATOM      6  C   UNL A   1      33.660  28.324  22.975  1.00  0.00     0.251 C 
ATOM      7  O   UNL A   1      34.694  28.913  22.642  1.00  0.00    -0.270 OA
ATOM      8  H   UNL A   1      32.816  30.069  23.059  1.00  0.00     0.163 HD
BRANCH   6   9
ATOM      9  C   UNL A   1      33.665  26.834  23.089  1.00  0.00     0.067 C 
ATOM     10  C   UNL A   1      34.103  22.111  24.824  1.00  0.00    -0.025 A 
ATOM     11  C   UNL A   1      34.004  22.694  23.553  1.00  0.00     0.052 A 
ATOM     12  C   UNL A   1      34.048  22.950  25.949  1.00  0.00     0.045 A 
ATOM     13  C   UNL A   1      33.901  24.072  23.411  1.00  0.00     0.128 A 
ATOM     14  C   UNL A   1      33.935  24.340  25.799  1.00  0.00     0.032 A 
ATOM     15  Cl  UNL A   1      34.162  22.337  27.560  1.00  0.00    -0.084 Cl
ATOM     16  C   UNL A   1      33.877  24.906  24.523  1.00  0.00     0.019 A 
ATOM     17  O   UNL A   1      33.901  24.533  22.131  1.00  0.00    -0.475 OA
ATOM     18  C   UNL A   1      33.857  26.348  24.329  1.00  0.00     0.025 C 
ATOM     19  C   UNL A   1      33.447  25.894  21.934  1.00  0.00     0.314 C 
BRANCH  10  20
ATOM     20  C   UNL A   1      34.360  20.623  24.888  1.00  0.00     0.040 C 
BRANCH  20  21
ATOM     21  C   UNL A   1      33.051  19.804  24.883  1.00  0.00    -0.013 C 
ATOM     22  C   UNL A   1      32.283  19.943  23.564  1.00  0.00     0.008 C 
ATOM     23  C   UNL A   1      33.353  18.332  25.161  1.00  0.00     0.008 C 
ENDBRANCH  20  21
ENDBRANCH  10  20
BRANCH  19  24
ATOM     24  C   UNL A   1      31.991  25.876  21.435  1.00  0.00     0.429 C 
ATOM     25  F   UNL A   1      31.314  27.001  21.764  1.00  0.00    -0.167 F 
ATOM     26  F   UNL A   1      31.899  25.750  20.092  1.00  0.00    -0.167 F 
ATOM     27  F   UNL A   1      31.318  24.829  21.973  1.00  0.00    -0.167 F 
ENDBRANCH  19  24
ENDBRANCH   6   9
ENDBRANCH   4   5
ENDBRANCH   3   4
ENDBRANCH   2   3
ENDBRANCH   1   2
BRANCH   1  28
ATOM     28  C   UNL A   1      33.526  28.432  27.195  1.00  0.00     0.021 C 
BRANCH  28  29
ATOM     29  C   UNL A   1      34.038  29.727  26.576  1.00  0.00     0.116 C 
BRANCH  29  30
ATOM     30  N   UNL A   1      33.804  30.873  27.442  1.00  0.00    -0.352 N 
ATOM     31  C   UNL A   1      34.541  31.333  28.503  1.00  0.00     0.251 C 
ATOM     32  H   UNL A   1      32.995  31.395  27.235  1.00  0.00     0.163 HD
ATOM     33  O   UNL A   1      34.061  32.175  29.259  1.00  0.00    -0.269 OA
BRANCH  31  34
ATOM     34  C   UNL A   1      35.900  30.799  28.741  1.00  0.00     0.039 A 
ATOM     35  C   UNL A   1      36.083  29.666  29.536  1.00  0.00     0.014 A 
ATOM     36  C   UNL A   1      37.003  31.437  28.167  1.00  0.00     0.014 A 
ATOM     37  C   UNL A   1      37.366  29.280  29.898  1.00  0.00     0.010 A 
ATOM     38  C   UNL A   1      38.294  30.978  28.447  1.00  0.00     0.010 A 
ATOM     39  C   UNL A   1      38.489  29.923  29.351  1.00  0.00    -0.014 A 
BRANCH  39  40
ATOM     40  C   UNL A   1      39.844  29.440  29.726  1.00  0.00     0.031 A 
ATOM     41  C   UNL A   1      40.599  30.045  30.880  1.00  0.00     0.074 A 
ATOM     42  C   UNL A   1      40.372  28.400  29.048  1.00  0.00     0.049 A 
ATOM     43  N   UNL A   1      41.748  29.676  31.385  1.00  0.00    -0.248 NA
ATOM     44  C   UNL A   1      40.000  31.210  31.553  1.00  0.00     0.031 C 
ATOM     45  C   UNL A   1      39.751  27.753  27.889  1.00  0.00     0.029 A 
ATOM     46  N   UNL A   1      41.528  27.689  29.243  1.00  0.00    -0.354 N 
ATOM     47  C   UNL A   1      42.026  30.577  32.405  1.00  0.00     0.074 A 
ATOM     48  C   UNL A   1      40.932  31.521  32.446  1.00  0.00     0.031 C 
ATOM     49  C   UNL A   1      40.499  26.706  27.514  1.00  0.00     0.029 A 
ATOM     50  C   UNL A   1      41.682  26.642  28.366  1.00  0.00     0.049 A 
ATOM     51  H   UNL A   1      42.184  27.907  29.944  1.00  0.00     0.167 HD
ATOM     52  C   UNL A   1      43.086  30.600  33.246  1.00  0.00     0.034 A 
ATOM     53  C   UNL A   1      42.664  25.727  28.249  1.00  0.00     0.034 A 
ATOM     54  C   UNL A   1      44.147  29.632  33.237  1.00  0.00     0.049 A 
ATOM     55  C   UNL A   1      43.822  25.769  29.202  1.00  0.00     0.074 A 
ATOM     56  C   UNL A   1      45.230  29.544  34.094  1.00  0.00     0.029 A 
ATOM     57  N   UNL A   1      44.264  28.589  32.331  1.00  0.00    -0.354 N 
ATOM     58  N   UNL A   1      44.013  26.573  30.218  1.00  0.00    -0.248 NA
ATOM     59  C   UNL A   1      44.888  24.777  29.006  1.00  0.00     0.031 C 
ATOM     60  C   UNL A   1      46.013  28.459  33.695  1.00  0.00     0.029 A 
ATOM     61  C   UNL A   1      45.406  27.860  32.603  1.00  0.00     0.049 A 
ATOM     62  H   UNL A   1      43.628  28.398  31.604  1.00  0.00     0.167 HD
ATOM     63  C   UNL A   1      45.213  26.177  30.793  1.00  0.00     0.074 A 
ATOM     64  C   UNL A   1      45.699  25.052  30.021  1.00  0.00     0.031 C 
ATOM     65  C   UNL A   1      45.855  26.712  31.859  1.00  0.00     0.034 A 
BRANCH  52  66
ATOM     66  C   UNL A   1      43.142  31.674  34.297  1.00  0.00     0.023 A 
ATOM     67  C   UNL A   1      43.774  32.898  33.998  1.00  0.00     0.012 A 
ATOM     68  C   UNL A   1      42.462  31.523  35.522  1.00  0.00     0.148 A 
ATOM     69  C   UNL A   1      43.733  33.954  34.906  1.00  0.00     0.002 A 
ATOM     70  C   UNL A   1      42.401  32.591  36.409  1.00  0.00     0.091 A 
ATOM     71  F   UNL A   1      41.875  30.347  35.783  1.00  0.00    -0.205 F 
ATOM     72  C   UNL A   1      43.038  33.805  36.104  1.00  0.00     0.022 A 
BRANCH  70  73
ATOM     73  S   UNL A   1      41.486  32.524  37.953  1.00  0.00     0.127 S 
ATOM     74  O   UNL A   1      42.287  31.574  38.726  1.00  0.00    -0.237 OA
ATOM     75  O   UNL A   1      41.566  33.908  38.417  1.00  0.00    -0.237 OA
ATOM     76  O   UNL A   1      40.147  32.066  37.613  1.00  0.00    -0.744 OA
ENDBRANCH  70  73
ENDBRANCH  52  66
BRANCH  53  77
ATOM     77  C   UNL A   1      42.549  24.671  27.207  1.00  0.00     0.023 A 
ATOM     78  C   UNL A   1      43.342  24.756  26.048  1.00  0.00     0.012 A 
ATOM     79  C   UNL A   1      41.734  23.541  27.408  1.00  0.00     0.148 A 
ATOM     80  C   UNL A   1      43.324  23.730  25.103  1.00  0.00     0.002 A 
ATOM     81  C   UNL A   1      41.751  22.505  26.484  1.00  0.00     0.091 A 
ATOM     82  F   UNL A   1      40.992  23.487  28.524  1.00  0.00    -0.205 F 
ATOM     83  C   UNL A   1      42.538  22.600  25.326  1.00  0.00     0.022 A 
BRANCH  81  84
ATOM     84  S   UNL A   1      40.857  20.967  26.736  1.00  0.00     0.127 S 
ATOM     85  O   UNL A   1      39.553  21.284  26.159  1.00  0.00    -0.237 OA
ATOM     86  O   UNL A   1      41.663  20.025  25.960  1.00  0.00    -0.237 OA
ATOM     87  O   UNL A   1      40.866  20.733  28.173  1.00  0.00    -0.744 OA
ENDBRANCH  81  84
ENDBRANCH  53  77
BRANCH  65  88
ATOM     88  C   UNL A   1      47.155  26.099  32.293  1.00  0.00     0.023 A 
ATOM     89  C   UNL A   1      48.365  26.669  31.858  1.00  0.00     0.012 A 
ATOM     90  C   UNL A   1      47.170  25.083  33.268  1.00  0.00     0.148 A 
ATOM     91  C   UNL A   1      49.578  26.241  32.395  1.00  0.00     0.002 A 
ATOM     92  C   UNL A   1      48.379  24.685  33.824  1.00  0.00     0.091 A 
ATOM     93  F   UNL A   1      45.999  24.559  33.661  1.00  0.00    -0.205 F 
ATOM     94  C   UNL A   1      49.583  25.262  33.388  1.00  0.00     0.022 A 
BRANCH  92  95
ATOM     95  S   UNL A   1      48.486  23.490  35.160  1.00  0.00     0.127 S 
ATOM     96  O   UNL A   1      49.931  23.409  35.373  1.00  0.00    -0.237 OA
ATOM     97  O   UNL A   1      47.748  24.159  36.230  1.00  0.00    -0.237 OA
ATOM     98  O   UNL A   1      47.870  22.268  34.662  1.00  0.00    -0.744 OA
ENDBRANCH  92  95
ENDBRANCH  65  88
ENDBRANCH  39  40
ENDBRANCH  31  34
ENDBRANCH  29  30
ENDBRANCH  28  29
ENDBRANCH   1  28
TORSDOF 19
ENDMDL
