MODEL 1
REMARK VINA RESULT:     -12.6      0.000      0.000
REMARK SMILES O=C(NCCCCCCNC(=O)[C@H]1C[C@](O)(c2ccccc2Cl)[C@@H](c2ccccc2Cl)O1)c1ccc(-c2c3nc(c(-c4cccc(S(=O)(=O)[O-])c4F)c4ccc([nH]4)c(-c4cccc(S(=O)(=O)[O-])c4F)c4nc(c(-c5cccc(S(=O)(=O)[O-])c5F)c5ccc2[nH]5)C=C4)C=C3)cc1
REMARK SMILES IDX 5 1 4 2 3 3 1 4 2 5 33 7 34 8 95 9 35 10 94 11 36 12 37 13
REMARK SMILES IDX 38 14 88 15 39 16 93 17 87 18 89 19 40 20 92 21 86 22 85 23
REMARK SMILES IDX 41 25 73 26 53 27 72 28 54 29 57 30 71 31 90 32 55 33 56 34
REMARK SMILES IDX 70 36 91 37 58 38 42 39 43 40 51 41 44 42 46 43 52 44 45 45
REMARK SMILES IDX 47 46 48 47 49 48 50 49 74 50 75 51 83 52 76 53 78 54 84 55
REMARK SMILES IDX 77 56 79 57 80 58 81 59 82 60 59 61 60 62 68 63 61 64 63 65
REMARK SMILES IDX 69 66 62 67 64 68 65 69 66 70 67 71 6 72 7 73 8 74 9 75
REMARK SMILES IDX 10 76 11 77 12 79 13 80 14 81 32 82 15 83 24 84 17 85 18 86
REMARK SMILES IDX 22 87 19 88 21 89 23 90 20 91 16 92 25 94 26 95 30 96 27 97
REMARK SMILES IDX 29 98 31 99 28 100
REMARK H PARENT 3 6 89 24 57 35 10 78 16 93
REMARK Flexibility Score: inf
ROOT
ATOM      1  C   UNL A   1      37.006  20.006  24.815  1.00  0.00     0.021 C 
ENDROOT
BRANCH   1   2
ATOM      2  C   UNL A   1      38.225  20.556  25.540  1.00  0.00     0.116 C 
BRANCH   2   3
ATOM      3  N   UNL A   1      39.254  19.550  25.741  1.00  0.00    -0.352 N 
ATOM      4  O   UNL A   1      41.351  18.775  26.021  1.00  0.00    -0.269 OA
ATOM      5  C   UNL A   1      40.578  19.729  26.060  1.00  0.00     0.251 C 
ATOM      6  H   UNL A   1      38.963  18.617  25.634  1.00  0.00     0.163 HD
BRANCH   5   7
ATOM      7  C   UNL A   1      41.067  21.077  26.427  1.00  0.00     0.039 A 
ATOM      8  C   UNL A   1      41.696  21.888  25.477  1.00  0.00     0.014 A 
ATOM      9  C   UNL A   1      40.888  21.537  27.733  1.00  0.00     0.014 A 
ATOM     10  C   UNL A   1      42.248  23.105  25.861  1.00  0.00     0.010 A 
ATOM     11  C   UNL A   1      41.372  22.797  28.098  1.00  0.00     0.010 A 
ATOM     12  C   UNL A   1      42.070  23.584  27.168  1.00  0.00    -0.014 A 
BRANCH  12  13
ATOM     13  C   UNL A   1      42.512  24.959  27.511  1.00  0.00     0.031 A 
ATOM     14  C   UNL A   1      41.579  25.950  28.146  1.00  0.00     0.074 A 
ATOM     15  C   UNL A   1      43.771  25.319  27.192  1.00  0.00     0.049 A 
ATOM     16  N   UNL A   1      41.809  27.194  28.479  1.00  0.00    -0.248 NA
ATOM     17  C   UNL A   1      40.211  25.495  28.443  1.00  0.00     0.031 C 
ATOM     18  C   UNL A   1      44.747  24.455  26.522  1.00  0.00     0.029 A 
ATOM     19  N   UNL A   1      44.442  26.503  27.363  1.00  0.00    -0.354 N 
ATOM     20  C   UNL A   1      40.610  27.686  28.980  1.00  0.00     0.074 A 
ATOM     21  C   UNL A   1      39.652  26.603  28.915  1.00  0.00     0.031 C 
ATOM     22  C   UNL A   1      45.888  25.135  26.338  1.00  0.00     0.029 A 
ATOM     23  C   UNL A   1      45.708  26.496  26.826  1.00  0.00     0.049 A 
ATOM     24  H   UNL A   1      44.055  27.281  27.826  1.00  0.00     0.167 HD
ATOM     25  C   UNL A   1      40.340  28.926  29.455  1.00  0.00     0.034 A 
ATOM     26  C   UNL A   1      46.615  27.484  26.702  1.00  0.00     0.034 A 
ATOM     27  C   UNL A   1      41.312  29.983  29.550  1.00  0.00     0.049 A 
ATOM     28  C   UNL A   1      46.287  28.841  27.252  1.00  0.00     0.074 A 
ATOM     29  C   UNL A   1      41.164  31.236  30.119  1.00  0.00     0.029 A 
ATOM     30  N   UNL A   1      42.602  29.924  29.045  1.00  0.00    -0.354 N 
ATOM     31  N   UNL A   1      45.206  29.235  27.880  1.00  0.00    -0.248 NA
ATOM     32  C   UNL A   1      47.310  29.884  27.098  1.00  0.00     0.031 C 
ATOM     33  C   UNL A   1      42.352  31.948  29.927  1.00  0.00     0.029 A 
ATOM     34  C   UNL A   1      43.250  31.129  29.262  1.00  0.00     0.049 A 
ATOM     35  H   UNL A   1      42.998  29.142  28.599  1.00  0.00     0.167 HD
ATOM     36  C   UNL A   1      45.423  30.564  28.212  1.00  0.00     0.074 A 
ATOM     37  C   UNL A   1      46.753  30.901  27.744  1.00  0.00     0.031 C 
ATOM     38  C   UNL A   1      44.589  31.437  28.829  1.00  0.00     0.034 A 
BRANCH  25  39
ATOM     39  C   UNL A   1      38.945  29.216  29.945  1.00  0.00     0.023 A 
ATOM     40  C   UNL A   1      38.556  28.798  31.232  1.00  0.00     0.012 A 
ATOM     41  C   UNL A   1      38.059  29.993  29.172  1.00  0.00     0.148 A 
ATOM     42  C   UNL A   1      37.300  29.134  31.738  1.00  0.00     0.002 A 
ATOM     43  C   UNL A   1      36.824  30.356  29.697  1.00  0.00     0.091 A 
ATOM     44  F   UNL A   1      38.441  30.366  27.942  1.00  0.00    -0.205 F 
ATOM     45  C   UNL A   1      36.440  29.922  30.976  1.00  0.00     0.022 A 
BRANCH  43  46
ATOM     46  S   UNL A   1      35.676  31.430  28.827  1.00  0.00     0.127 S 
ATOM     47  O   UNL A   1      35.055  30.498  27.887  1.00  0.00    -0.237 OA
ATOM     48  O   UNL A   1      34.797  31.881  29.906  1.00  0.00    -0.237 OA
ATOM     49  O   UNL A   1      36.485  32.479  28.223  1.00  0.00    -0.744 OA
ENDBRANCH  43  46
ENDBRANCH  25  39
BRANCH  26  50
ATOM     50  C   UNL A   1      47.920  27.208  26.041  1.00  0.00     0.023 A 
ATOM     51  C   UNL A   1      48.975  26.651  26.788  1.00  0.00     0.012 A 
ATOM     52  C   UNL A   1      48.107  27.454  24.666  1.00  0.00     0.148 A 
ATOM     53  C   UNL A   1      50.200  26.369  26.185  1.00  0.00     0.002 A 
ATOM     54  C   UNL A   1      49.308  27.114  24.059  1.00  0.00     0.091 A 
ATOM     55  F   UNL A   1      47.097  28.003  23.975  1.00  0.00    -0.205 F 
ATOM     56  C   UNL A   1      50.363  26.588  24.818  1.00  0.00     0.022 A 
BRANCH  54  57
ATOM     57  S   UNL A   1      49.541  27.228  22.281  1.00  0.00     0.127 S 
ATOM     58  O   UNL A   1      50.976  26.988  22.151  1.00  0.00    -0.237 OA
ATOM     59  O   UNL A   1      48.688  26.143  21.791  1.00  0.00    -0.237 OA
ATOM     60  O   UNL A   1      49.079  28.560  21.915  1.00  0.00    -0.744 OA
ENDBRANCH  54  57
ENDBRANCH  26  50
BRANCH  38  61
ATOM     61  C   UNL A   1      45.089  32.839  29.048  1.00  0.00     0.023 A 
ATOM     62  C   UNL A   1      45.835  33.138  30.204  1.00  0.00     0.012 A 
ATOM     63  C   UNL A   1      44.888  33.837  28.074  1.00  0.00     0.148 A 
ATOM     64  C   UNL A   1      46.351  34.417  30.404  1.00  0.00     0.002 A 
ATOM     65  C   UNL A   1      45.445  35.097  28.257  1.00  0.00     0.091 A 
ATOM     66  F   UNL A   1      44.160  33.535  26.990  1.00  0.00    -0.205 F 
ATOM     67  C   UNL A   1      46.167  35.391  29.426  1.00  0.00     0.022 A 
BRANCH  65  68
ATOM     68  S   UNL A   1      45.341  36.388  27.013  1.00  0.00     0.127 S 
ATOM     69  O   UNL A   1      46.057  35.780  25.893  1.00  0.00    -0.237 OA
ATOM     70  O   UNL A   1      43.896  36.515  26.818  1.00  0.00    -0.237 OA
ATOM     71  O   UNL A   1      45.980  37.562  27.595  1.00  0.00    -0.744 OA
ENDBRANCH  65  68
ENDBRANCH  38  61
ENDBRANCH  12  13
ENDBRANCH   5   7
ENDBRANCH   2   3
ENDBRANCH   1   2
BRANCH   1  72
ATOM     72  C   UNL A   1      35.660  20.422  25.403  1.00  0.00     0.002 C 
BRANCH  72  73
ATOM     73  C   UNL A   1      34.431  20.158  24.528  1.00  0.00     0.002 C 
BRANCH  73  74
ATOM     74  C   UNL A   1      33.074  20.077  25.239  1.00  0.00     0.021 C 
BRANCH  74  75
ATOM     75  C   UNL A   1      32.136  21.270  25.065  1.00  0.00     0.116 C 
BRANCH  75  76
ATOM     76  N   UNL A   1      31.722  21.869  26.314  1.00  0.00    -0.354 N 
ATOM     77  C   UNL A   1      30.827  22.874  26.527  1.00  0.00     0.249 C 
ATOM     78  H   UNL A   1      32.145  21.500  27.123  1.00  0.00     0.163 HD
ATOM     79  O   UNL A   1      30.406  23.016  27.678  1.00  0.00    -0.272 OA
BRANCH  77  80
ATOM     80  C   UNL A   1      30.404  23.786  25.357  1.00  0.00     0.211 C 
ATOM     81  C   UNL A   1      30.526  25.263  25.696  1.00  0.00     0.085 C 
ATOM     82  O   UNL A   1      31.208  23.515  24.211  1.00  0.00    -0.357 OA
ATOM     83  C   UNL A   1      31.320  25.921  24.560  1.00  0.00     0.124 C 
ATOM     84  C   UNL A   1      31.957  24.695  23.837  1.00  0.00     0.187 C 
BRANCH  83  85
ATOM     85  C   UNL A   1      30.420  26.961  23.859  1.00  0.00     0.005 A 
ATOM     86  C   UNL A   1      29.018  26.735  24.004  1.00  0.00     0.008 A 
ATOM     87  C   UNL A   1      30.777  28.093  23.104  1.00  0.00     0.047 A 
ATOM     88  C   UNL A   1      28.044  27.575  23.459  1.00  0.00     0.001 A 
ATOM     89  C   UNL A   1      29.789  28.954  22.583  1.00  0.00     0.021 A 
ATOM     90  Cl  UNL A   1      32.380  28.557  22.677  1.00  0.00    -0.084 Cl
ATOM     91  C   UNL A   1      28.432  28.699  22.757  1.00  0.00     0.002 A 
ENDBRANCH  83  85
BRANCH  83  92
ATOM     92  O   UNL A   1      32.362  26.717  25.172  1.00  0.00    -0.382 OA
ATOM     93  H   UNL A   1      32.755  27.302  24.506  1.00  0.00     0.212 HD
ENDBRANCH  83  92
BRANCH  84  94
ATOM     94  C   UNL A   1      33.444  24.411  24.053  1.00  0.00     0.003 A 
ATOM     95  C   UNL A   1      34.086  24.813  25.238  1.00  0.00     0.008 A 
ATOM     96  C   UNL A   1      34.223  23.706  23.112  1.00  0.00     0.046 A 
ATOM     97  C   UNL A   1      35.410  24.464  25.515  1.00  0.00     0.000 A 
ATOM     98  C   UNL A   1      35.552  23.356  23.391  1.00  0.00     0.021 A 
ATOM     99  Cl  UNL A   1      33.621  23.254  21.554  1.00  0.00    -0.084 Cl
ATOM    100  C   UNL A   1      36.140  23.720  24.599  1.00  0.00     0.002 A 
ENDBRANCH  84  94
ENDBRANCH  77  80
ENDBRANCH  75  76
ENDBRANCH  74  75
ENDBRANCH  73  74
ENDBRANCH  72  73
ENDBRANCH   1  72
TORSDOF 19
ENDMDL
MODEL 2
REMARK VINA RESULT:     -12.2      1.319      2.347
REMARK SMILES O=C(NCCCCCCNC(=O)[C@H]1C[C@](O)(c2ccccc2Cl)[C@@H](c2ccccc2Cl)O1)c1ccc(-c2c3nc(c(-c4cccc(S(=O)(=O)[O-])c4F)c4ccc([nH]4)c(-c4cccc(S(=O)(=O)[O-])c4F)c4nc(c(-c5cccc(S(=O)(=O)[O-])c5F)c5ccc2[nH]5)C=C4)C=C3)cc1
REMARK SMILES IDX 5 1 4 2 3 3 1 4 2 5 33 7 34 8 95 9 35 10 94 11 36 12 37 13
REMARK SMILES IDX 38 14 88 15 39 16 93 17 87 18 89 19 40 20 92 21 86 22 85 23
REMARK SMILES IDX 41 25 73 26 53 27 72 28 54 29 57 30 71 31 90 32 55 33 56 34
REMARK SMILES IDX 70 36 91 37 58 38 42 39 43 40 51 41 44 42 46 43 52 44 45 45
REMARK SMILES IDX 47 46 48 47 49 48 50 49 74 50 75 51 83 52 76 53 78 54 84 55
REMARK SMILES IDX 77 56 79 57 80 58 81 59 82 60 59 61 60 62 68 63 61 64 63 65
REMARK SMILES IDX 69 66 62 67 64 68 65 69 66 70 67 71 6 72 7 73 8 74 9 75
REMARK SMILES IDX 10 76 11 77 12 79 13 80 14 81 32 82 15 83 24 84 17 85 18 86
REMARK SMILES IDX 22 87 19 88 21 89 23 90 20 91 16 92 25 94 26 95 30 96 27 97
REMARK SMILES IDX 29 98 31 99 28 100
REMARK H PARENT 3 6 89 24 57 35 10 78 16 93
REMARK Flexibility Score: inf
ROOT
ATOM      1  C   UNL A   1      36.879  20.232  25.022  1.00  0.00     0.021 C 
ENDROOT
BRANCH   1   2
ATOM      2  C   UNL A   1      38.262  20.794  25.313  1.00  0.00     0.116 C 
BRANCH   2   3
ATOM      3  N   UNL A   1      39.221  19.760  25.663  1.00  0.00    -0.352 N 
ATOM      4  O   UNL A   1      41.243  18.919  26.193  1.00  0.00    -0.269 OA
ATOM      5  C   UNL A   1      40.511  19.903  26.112  1.00  0.00     0.251 C 
ATOM      6  H   UNL A   1      38.903  18.835  25.563  1.00  0.00     0.163 HD
BRANCH   5   7
ATOM      7  C   UNL A   1      41.017  21.246  26.473  1.00  0.00     0.039 A 
ATOM      8  C   UNL A   1      41.561  22.087  25.497  1.00  0.00     0.014 A 
ATOM      9  C   UNL A   1      40.938  21.672  27.801  1.00  0.00     0.014 A 
ATOM     10  C   UNL A   1      42.131  23.301  25.867  1.00  0.00     0.010 A 
ATOM     11  C   UNL A   1      41.439  22.928  28.158  1.00  0.00     0.010 A 
ATOM     12  C   UNL A   1      42.054  23.744  27.196  1.00  0.00    -0.014 A 
BRANCH  12  13
ATOM     13  C   UNL A   1      42.510  25.115  27.538  1.00  0.00     0.031 A 
ATOM     14  C   UNL A   1      41.589  26.114  28.178  1.00  0.00     0.074 A 
ATOM     15  C   UNL A   1      43.771  25.464  27.213  1.00  0.00     0.049 A 
ATOM     16  N   UNL A   1      41.832  27.356  28.511  1.00  0.00    -0.248 NA
ATOM     17  C   UNL A   1      40.219  25.671  28.481  1.00  0.00     0.031 C 
ATOM     18  C   UNL A   1      44.736  24.591  26.538  1.00  0.00     0.029 A 
ATOM     19  N   UNL A   1      44.454  26.641  27.382  1.00  0.00    -0.354 N 
ATOM     20  C   UNL A   1      40.639  27.858  29.017  1.00  0.00     0.074 A 
ATOM     21  C   UNL A   1      39.672  26.784  28.956  1.00  0.00     0.031 C 
ATOM     22  C   UNL A   1      45.882  25.261  26.350  1.00  0.00     0.029 A 
ATOM     23  C   UNL A   1      45.717  26.624  26.839  1.00  0.00     0.049 A 
ATOM     24  H   UNL A   1      44.076  27.423  27.848  1.00  0.00     0.167 HD
ATOM     25  C   UNL A   1      40.383  29.100  29.495  1.00  0.00     0.034 A 
ATOM     26  C   UNL A   1      46.633  27.603  26.713  1.00  0.00     0.034 A 
ATOM     27  C   UNL A   1      41.365  30.148  29.587  1.00  0.00     0.049 A 
ATOM     28  C   UNL A   1      46.319  28.963  27.265  1.00  0.00     0.074 A 
ATOM     29  C   UNL A   1      41.231  31.403  30.157  1.00  0.00     0.029 A 
ATOM     30  N   UNL A   1      42.652  30.078  29.076  1.00  0.00    -0.354 N 
ATOM     31  N   UNL A   1      45.245  29.366  27.898  1.00  0.00    -0.248 NA
ATOM     32  C   UNL A   1      47.350  29.997  27.107  1.00  0.00     0.031 C 
ATOM     33  C   UNL A   1      42.425  32.103  29.960  1.00  0.00     0.029 A 
ATOM     34  C   UNL A   1      43.312  31.276  29.290  1.00  0.00     0.049 A 
ATOM     35  H   UNL A   1      43.039  29.293  28.627  1.00  0.00     0.167 HD
ATOM     36  C   UNL A   1      45.475  30.693  28.230  1.00  0.00     0.074 A 
ATOM     37  C   UNL A   1      46.806  31.018  27.756  1.00  0.00     0.031 C 
ATOM     38  C   UNL A   1      44.652  31.573  28.851  1.00  0.00     0.034 A 
BRANCH  25  39
ATOM     39  C   UNL A   1      38.993  29.402  29.991  1.00  0.00     0.023 A 
ATOM     40  C   UNL A   1      38.642  29.090  31.319  1.00  0.00     0.012 A 
ATOM     41  C   UNL A   1      38.072  30.091  29.175  1.00  0.00     0.148 A 
ATOM     42  C   UNL A   1      37.391  29.443  31.824  1.00  0.00     0.002 A 
ATOM     43  C   UNL A   1      36.841  30.472  29.697  1.00  0.00     0.091 A 
ATOM     44  F   UNL A   1      38.419  30.362  27.910  1.00  0.00    -0.205 F 
ATOM     45  C   UNL A   1      36.496  30.143  31.018  1.00  0.00     0.022 A 
BRANCH  43  46
ATOM     46  S   UNL A   1      35.650  31.441  28.765  1.00  0.00     0.127 S 
ATOM     47  O   UNL A   1      35.115  30.442  27.841  1.00  0.00    -0.237 OA
ATOM     48  O   UNL A   1      34.716  31.867  29.808  1.00  0.00    -0.237 OA
ATOM     49  O   UNL A   1      36.405  32.522  28.147  1.00  0.00    -0.744 OA
ENDBRANCH  43  46
ENDBRANCH  25  39
BRANCH  26  50
ATOM     50  C   UNL A   1      47.932  27.317  26.045  1.00  0.00     0.023 A 
ATOM     51  C   UNL A   1      48.999  26.788  26.797  1.00  0.00     0.012 A 
ATOM     52  C   UNL A   1      48.102  27.523  24.662  1.00  0.00     0.148 A 
ATOM     53  C   UNL A   1      50.219  26.496  26.188  1.00  0.00     0.002 A 
ATOM     54  C   UNL A   1      49.298  27.172  24.051  1.00  0.00     0.091 A 
ATOM     55  F   UNL A   1      47.081  28.044  23.966  1.00  0.00    -0.205 F 
ATOM     56  C   UNL A   1      50.365  26.675  24.814  1.00  0.00     0.022 A 
BRANCH  54  57
ATOM     57  S   UNL A   1      49.511  27.234  22.268  1.00  0.00     0.127 S 
ATOM     58  O   UNL A   1      50.930  26.919  22.125  1.00  0.00    -0.237 OA
ATOM     59  O   UNL A   1      48.597  26.185  21.814  1.00  0.00    -0.237 OA
ATOM     60  O   UNL A   1      49.111  28.580  21.879  1.00  0.00    -0.744 OA
ENDBRANCH  54  57
ENDBRANCH  26  50
BRANCH  38  61
ATOM     61  C   UNL A   1      45.166  32.970  29.069  1.00  0.00     0.023 A 
ATOM     62  C   UNL A   1      45.849  33.281  30.261  1.00  0.00     0.012 A 
ATOM     63  C   UNL A   1      45.042  33.950  28.064  1.00  0.00     0.148 A 
ATOM     64  C   UNL A   1      46.377  34.555  30.462  1.00  0.00     0.002 A 
ATOM     65  C   UNL A   1      45.612  35.203  28.252  1.00  0.00     0.091 A 
ATOM     66  F   UNL A   1      44.372  33.636  26.945  1.00  0.00    -0.205 F 
ATOM     67  C   UNL A   1      46.270  35.510  29.455  1.00  0.00     0.022 A 
BRANCH  65  68
ATOM     68  S   UNL A   1      45.606  36.467  26.977  1.00  0.00     0.127 S 
ATOM     69  O   UNL A   1      44.183  36.791  26.885  1.00  0.00    -0.237 OA
ATOM     70  O   UNL A   1      46.433  37.515  27.575  1.00  0.00    -0.237 OA
ATOM     71  O   UNL A   1      46.180  35.845  25.790  1.00  0.00    -0.744 OA
ENDBRANCH  65  68
ENDBRANCH  38  61
ENDBRANCH  12  13
ENDBRANCH   5   7
ENDBRANCH   2   3
ENDBRANCH   1   2
BRANCH   1  72
ATOM     72  C   UNL A   1      35.723  21.197  25.269  1.00  0.00     0.002 C 
BRANCH  72  73
ATOM     73  C   UNL A   1      34.334  20.566  25.407  1.00  0.00     0.002 C 
BRANCH  73  74
ATOM     74  C   UNL A   1      33.626  20.726  26.758  1.00  0.00     0.021 C 
BRANCH  74  75
ATOM     75  C   UNL A   1      34.029  21.929  27.606  1.00  0.00     0.116 C 
BRANCH  75  76
ATOM     76  N   UNL A   1      32.940  22.844  27.870  1.00  0.00    -0.354 N 
ATOM     77  C   UNL A   1      32.251  23.628  26.995  1.00  0.00     0.249 C 
ATOM     78  H   UNL A   1      32.659  22.909  28.810  1.00  0.00     0.163 HD
ATOM     79  O   UNL A   1      31.177  24.093  27.386  1.00  0.00    -0.272 OA
BRANCH  77  80
ATOM     80  C   UNL A   1      32.834  23.917  25.597  1.00  0.00     0.211 C 
ATOM     81  C   UNL A   1      31.756  24.068  24.535  1.00  0.00     0.085 C 
ATOM     82  O   UNL A   1      33.611  25.113  25.629  1.00  0.00    -0.357 OA
ATOM     83  C   UNL A   1      32.043  25.376  23.787  1.00  0.00     0.124 C 
ATOM     84  C   UNL A   1      33.041  26.101  24.741  1.00  0.00     0.187 C 
BRANCH  83  85
ATOM     85  C   UNL A   1      32.349  25.049  22.309  1.00  0.00     0.005 A 
ATOM     86  C   UNL A   1      31.904  26.032  21.374  1.00  0.00     0.008 A 
ATOM     87  C   UNL A   1      33.000  23.932  21.753  1.00  0.00     0.047 A 
ATOM     88  C   UNL A   1      32.102  25.926  19.995  1.00  0.00     0.001 A 
ATOM     89  C   UNL A   1      33.225  23.847  20.363  1.00  0.00     0.021 A 
ATOM     90  Cl  UNL A   1      33.549  22.550  22.620  1.00  0.00    -0.084 Cl
ATOM     91  C   UNL A   1      32.780  24.833  19.489  1.00  0.00     0.002 A 
ENDBRANCH  83  85
BRANCH  83  92
ATOM     92  O   UNL A   1      30.802  26.119  23.730  1.00  0.00    -0.382 OA
ATOM     93  H   UNL A   1      30.781  26.651  22.920  1.00  0.00     0.212 HD
ENDBRANCH  83  92
BRANCH  84  94
ATOM     94  C   UNL A   1      32.528  27.270  25.584  1.00  0.00     0.003 A 
ATOM     95  C   UNL A   1      31.989  27.048  26.864  1.00  0.00     0.008 A 
ATOM     96  C   UNL A   1      32.609  28.608  25.148  1.00  0.00     0.046 A 
ATOM     97  C   UNL A   1      31.624  28.103  27.704  1.00  0.00     0.000 A 
ATOM     98  C   UNL A   1      32.243  29.667  25.992  1.00  0.00     0.021 A 
ATOM     99  Cl  UNL A   1      33.127  29.041  23.555  1.00  0.00    -0.084 Cl
ATOM    100  C   UNL A   1      31.766  29.416  27.275  1.00  0.00     0.002 A 
ENDBRANCH  84  94
ENDBRANCH  77  80
ENDBRANCH  75  76
ENDBRANCH  74  75
ENDBRANCH  73  74
ENDBRANCH  72  73
ENDBRANCH   1  72
TORSDOF 19
ENDMDL
MODEL 3
REMARK VINA RESULT:     -12.1      2.157      7.954
REMARK SMILES O=C(NCCCCCCNC(=O)[C@H]1C[C@](O)(c2ccccc2Cl)[C@@H](c2ccccc2Cl)O1)c1ccc(-c2c3nc(c(-c4cccc(S(=O)(=O)[O-])c4F)c4ccc([nH]4)c(-c4cccc(S(=O)(=O)[O-])c4F)c4nc(c(-c5cccc(S(=O)(=O)[O-])c5F)c5ccc2[nH]5)C=C4)C=C3)cc1
REMARK SMILES IDX 5 1 4 2 3 3 1 4 2 5 33 7 34 8 95 9 35 10 94 11 36 12 37 13
REMARK SMILES IDX 38 14 88 15 39 16 93 17 87 18 89 19 40 20 92 21 86 22 85 23
REMARK SMILES IDX 41 25 73 26 53 27 72 28 54 29 57 30 71 31 90 32 55 33 56 34
REMARK SMILES IDX 70 36 91 37 58 38 42 39 43 40 51 41 44 42 46 43 52 44 45 45
REMARK SMILES IDX 47 46 48 47 49 48 50 49 74 50 75 51 83 52 76 53 78 54 84 55
REMARK SMILES IDX 77 56 79 57 80 58 81 59 82 60 59 61 60 62 68 63 61 64 63 65
REMARK SMILES IDX 69 66 62 67 64 68 65 69 66 70 67 71 6 72 7 73 8 74 9 75
REMARK SMILES IDX 10 76 11 77 12 79 13 80 14 81 32 82 15 83 24 84 17 85 18 86
REMARK SMILES IDX 22 87 19 88 21 89 23 90 20 91 16 92 25 94 26 95 30 96 27 97
REMARK SMILES IDX 29 98 31 99 28 100
REMARK H PARENT 3 6 89 24 57 35 10 78 16 93
REMARK Flexibility Score: inf
ROOT
ATOM      1  C   UNL A   1      41.119  20.536  27.443  1.00  0.00     0.021 C 
ENDROOT
BRANCH   1   2
ATOM      2  C   UNL A   1      40.972  19.909  26.065  1.00  0.00     0.116 C 
BRANCH   2   3
ATOM      3  N   UNL A   1      42.195  19.269  25.611  1.00  0.00    -0.352 N 
ATOM      4  O   UNL A   1      44.295  19.179  24.801  1.00  0.00    -0.269 OA
ATOM      5  C   UNL A   1      43.415  19.841  25.345  1.00  0.00     0.251 C 
ATOM      6  H   UNL A   1      42.141  18.296  25.476  1.00  0.00     0.163 HD
BRANCH   5   7
ATOM      7  C   UNL A   1      43.651  21.259  25.697  1.00  0.00     0.039 A 
ATOM      8  C   UNL A   1      44.144  21.607  26.959  1.00  0.00     0.014 A 
ATOM      9  C   UNL A   1      43.386  22.252  24.751  1.00  0.00     0.014 A 
ATOM     10  C   UNL A   1      44.258  22.946  27.314  1.00  0.00     0.010 A 
ATOM     11  C   UNL A   1      43.579  23.596  25.082  1.00  0.00     0.010 A 
ATOM     12  C   UNL A   1      44.001  23.954  26.372  1.00  0.00    -0.014 A 
BRANCH  12  13
ATOM     13  C   UNL A   1      44.297  25.368  26.714  1.00  0.00     0.031 A 
ATOM     14  C   UNL A   1      45.684  25.932  26.596  1.00  0.00     0.074 A 
ATOM     15  C   UNL A   1      43.290  26.132  27.184  1.00  0.00     0.049 A 
ATOM     16  N   UNL A   1      46.105  27.137  26.881  1.00  0.00    -0.248 NA
ATOM     17  C   UNL A   1      46.738  25.033  26.099  1.00  0.00     0.031 C 
ATOM     18  C   UNL A   1      41.915  25.672  27.392  1.00  0.00     0.029 A 
ATOM     19  N   UNL A   1      43.266  27.441  27.592  1.00  0.00    -0.354 N 
ATOM     20  C   UNL A   1      47.475  27.132  26.647  1.00  0.00     0.074 A 
ATOM     21  C   UNL A   1      47.816  25.803  26.187  1.00  0.00     0.031 C 
ATOM     22  C   UNL A   1      41.182  26.679  27.889  1.00  0.00     0.029 A 
ATOM     23  C   UNL A   1      42.045  27.836  28.085  1.00  0.00     0.049 A 
ATOM     24  H   UNL A   1      44.046  28.039  27.537  1.00  0.00     0.167 HD
ATOM     25  C   UNL A   1      48.359  28.147  26.797  1.00  0.00     0.034 A 
ATOM     26  C   UNL A   1      41.664  28.990  28.667  1.00  0.00     0.034 A 
ATOM     27  C   UNL A   1      48.000  29.475  27.218  1.00  0.00     0.049 A 
ATOM     28  C   UNL A   1      42.668  30.097  28.805  1.00  0.00     0.074 A 
ATOM     29  C   UNL A   1      48.805  30.599  27.293  1.00  0.00     0.029 A 
ATOM     30  N   UNL A   1      46.742  29.856  27.659  1.00  0.00    -0.354 N 
ATOM     31  N   UNL A   1      43.919  30.126  28.414  1.00  0.00    -0.248 NA
ATOM     32  C   UNL A   1      42.205  31.337  29.441  1.00  0.00     0.031 C 
ATOM     33  C   UNL A   1      48.044  31.650  27.813  1.00  0.00     0.029 A 
ATOM     34  C   UNL A   1      46.756  31.188  28.037  1.00  0.00     0.049 A 
ATOM     35  H   UNL A   1      45.956  29.266  27.699  1.00  0.00     0.167 HD
ATOM     36  C   UNL A   1      44.388  31.391  28.740  1.00  0.00     0.074 A 
ATOM     37  C   UNL A   1      43.278  32.110  29.332  1.00  0.00     0.031 C 
ATOM     38  C   UNL A   1      45.633  31.904  28.585  1.00  0.00     0.034 A 
BRANCH  25  39
ATOM     39  C   UNL A   1      49.808  27.886  26.475  1.00  0.00     0.023 A 
ATOM     40  C   UNL A   1      50.689  27.484  27.498  1.00  0.00     0.012 A 
ATOM     41  C   UNL A   1      50.269  27.934  25.143  1.00  0.00     0.148 A 
ATOM     42  C   UNL A   1      52.011  27.151  27.205  1.00  0.00     0.002 A 
ATOM     43  C   UNL A   1      51.577  27.565  24.854  1.00  0.00     0.091 A 
ATOM     44  F   UNL A   1      49.420  28.335  24.187  1.00  0.00    -0.205 F 
ATOM     45  C   UNL A   1      52.452  27.180  25.884  1.00  0.00     0.022 A 
BRANCH  43  46
ATOM     46  S   UNL A   1      52.219  27.496  23.177  1.00  0.00     0.127 S 
ATOM     47  O   UNL A   1      52.406  28.913  22.875  1.00  0.00    -0.237 OA
ATOM     48  O   UNL A   1      53.461  26.742  23.353  1.00  0.00    -0.237 OA
ATOM     49  O   UNL A   1      51.203  26.817  22.385  1.00  0.00    -0.744 OA
ENDBRANCH  43  46
ENDBRANCH  25  39
BRANCH  26  50
ATOM     50  C   UNL A   1      40.264  29.147  29.147  1.00  0.00     0.023 A 
ATOM     51  C   UNL A   1      39.237  29.411  28.220  1.00  0.00     0.012 A 
ATOM     52  C   UNL A   1      39.938  28.993  30.509  1.00  0.00     0.148 A 
ATOM     53  C   UNL A   1      37.915  29.544  28.645  1.00  0.00     0.002 A 
ATOM     54  C   UNL A   1      38.612  29.067  30.916  1.00  0.00     0.091 A 
ATOM     55  F   UNL A   1      40.931  28.762  31.379  1.00  0.00    -0.205 F 
ATOM     56  C   UNL A   1      37.601  29.360  29.990  1.00  0.00     0.022 A 
BRANCH  54  57
ATOM     57  S   UNL A   1      38.113  28.695  32.601  1.00  0.00     0.127 S 
ATOM     58  O   UNL A   1      36.738  29.186  32.621  1.00  0.00    -0.237 OA
ATOM     59  O   UNL A   1      38.248  27.238  32.646  1.00  0.00    -0.237 OA
ATOM     60  O   UNL A   1      39.059  29.406  33.451  1.00  0.00    -0.744 OA
ENDBRANCH  54  57
ENDBRANCH  26  50
BRANCH  38  61
ATOM     61  C   UNL A   1      45.863  33.317  29.049  1.00  0.00     0.023 A 
ATOM     62  C   UNL A   1      46.391  33.549  30.334  1.00  0.00     0.012 A 
ATOM     63  C   UNL A   1      45.631  34.407  28.188  1.00  0.00     0.148 A 
ATOM     64  C   UNL A   1      46.659  34.846  30.767  1.00  0.00     0.002 A 
ATOM     65  C   UNL A   1      45.944  35.694  28.608  1.00  0.00     0.091 A 
ATOM     66  F   UNL A   1      45.111  34.164  26.976  1.00  0.00    -0.205 F 
ATOM     67  C   UNL A   1      46.448  35.916  29.901  1.00  0.00     0.022 A 
BRANCH  65  68
ATOM     68  S   UNL A   1      45.794  37.124  27.532  1.00  0.00     0.127 S 
ATOM     69  O   UNL A   1      46.738  36.795  26.466  1.00  0.00    -0.237 OA
ATOM     70  O   UNL A   1      44.386  37.070  27.139  1.00  0.00    -0.237 OA
ATOM     71  O   UNL A   1      46.152  38.279  28.345  1.00  0.00    -0.744 OA
ENDBRANCH  65  68
ENDBRANCH  38  61
ENDBRANCH  12  13
ENDBRANCH   5   7
ENDBRANCH   2   3
ENDBRANCH   1   2
BRANCH   1  72
ATOM     72  C   UNL A   1      40.484  21.916  27.597  1.00  0.00     0.002 C 
BRANCH  72  73
ATOM     73  C   UNL A   1      39.584  22.378  26.448  1.00  0.00     0.002 C 
BRANCH  73  74
ATOM     74  C   UNL A   1      38.931  23.759  26.586  1.00  0.00     0.021 C 
BRANCH  74  75
ATOM     75  C   UNL A   1      37.506  23.901  26.056  1.00  0.00     0.116 C 
BRANCH  75  76
ATOM     76  N   UNL A   1      37.270  23.180  24.825  1.00  0.00    -0.354 N 
ATOM     77  C   UNL A   1      36.301  23.380  23.889  1.00  0.00     0.249 C 
ATOM     78  H   UNL A   1      37.895  22.444  24.638  1.00  0.00     0.163 HD
ATOM     79  O   UNL A   1      36.470  22.853  22.786  1.00  0.00    -0.272 OA
BRANCH  77  80
ATOM     80  C   UNL A   1      35.051  24.214  24.241  1.00  0.00     0.211 C 
ATOM     81  C   UNL A   1      34.158  24.461  23.036  1.00  0.00     0.085 C 
ATOM     82  O   UNL A   1      34.287  23.548  25.244  1.00  0.00    -0.357 OA
ATOM     83  C   UNL A   1      32.733  24.064  23.444  1.00  0.00     0.124 C 
ATOM     84  C   UNL A   1      32.972  23.226  24.737  1.00  0.00     0.187 C 
BRANCH  83  85
ATOM     85  C   UNL A   1      31.830  25.315  23.385  1.00  0.00     0.005 A 
ATOM     86  C   UNL A   1      31.205  25.662  24.621  1.00  0.00     0.008 A 
ATOM     87  C   UNL A   1      31.535  26.158  22.298  1.00  0.00     0.047 A 
ATOM     88  C   UNL A   1      30.367  26.769  24.774  1.00  0.00     0.001 A 
ATOM     89  C   UNL A   1      30.714  27.292  22.467  1.00  0.00     0.021 A 
ATOM     90  Cl  UNL A   1      32.058  25.930  20.673  1.00  0.00    -0.084 Cl
ATOM     91  C   UNL A   1      30.132  27.597  23.693  1.00  0.00     0.002 A 
ENDBRANCH  83  85
BRANCH  83  92
ATOM     92  O   UNL A   1      32.212  23.207  22.401  1.00  0.00    -0.382 OA
ATOM     93  H   UNL A   1      32.634  23.432  21.557  1.00  0.00     0.212 HD
ENDBRANCH  83  92
BRANCH  84  94
ATOM     94  C   UNL A   1      32.846  21.703  24.655  1.00  0.00     0.003 A 
ATOM     95  C   UNL A   1      32.414  21.084  23.468  1.00  0.00     0.008 A 
ATOM     96  C   UNL A   1      33.192  20.857  25.727  1.00  0.00     0.046 A 
ATOM     97  C   UNL A   1      32.403  19.694  23.322  1.00  0.00     0.000 A 
ATOM     98  C   UNL A   1      33.181  19.463  25.581  1.00  0.00     0.021 A 
ATOM     99  Cl  UNL A   1      33.619  21.461  27.292  1.00  0.00    -0.084 Cl
ATOM    100  C   UNL A   1      32.803  18.881  24.374  1.00  0.00     0.002 A 
ENDBRANCH  84  94
ENDBRANCH  77  80
ENDBRANCH  75  76
ENDBRANCH  74  75
ENDBRANCH  73  74
ENDBRANCH  72  73
ENDBRANCH   1  72
TORSDOF 19
ENDMDL
