MODEL 1
REMARK VINA RESULT:      -9.7      0.000      0.000
REMARK SMILES C=C(C)COc1ccc2nc(C)n(-c3cccc(C(=O)NCCCCCCNC(=O)c4ccc(-c5c6nc(c(-c7cccc(S(=O)(=O)[O-])c7F)c7ccc([nH]7)c(-c7cccc(S(=O)(=O)[O-])c7F)c7nc(c(-c8cccc(S(=O)(=O)[O-])c8F)c8ccc5[nH]8)C=C7)C=C6)cc4)c3)c(=O)c2c1
REMARK SMILES IDX 24 1 23 2 22 3 21 4 19 5 20 6 18 8 14 9 15 10 94 11 16 12
REMARK SMILES IDX 17 13 13 14 6 15 7 16 98 17 8 18 97 19 9 20 95 21 10 22
REMARK SMILES IDX 96 23 11 24 12 25 5 26 4 27 2 28 1 29 3 30 25 31 26 32 27 33
REMARK SMILES IDX 28 34 29 35 30 37 31 38 32 39 93 40 33 41 92 42 34 43 35 44
REMARK SMILES IDX 36 45 86 46 37 47 91 48 85 49 87 50 38 51 90 52 84 53 83 54
REMARK SMILES IDX 39 56 71 57 51 58 70 59 52 60 55 61 69 62 88 63 53 64 54 65
REMARK SMILES IDX 68 67 89 68 56 69 40 70 41 71 49 72 42 73 44 74 50 75 43 76
REMARK SMILES IDX 45 77 46 78 47 79 48 80 72 81 73 82 81 83 74 84 76 85 82 86
REMARK SMILES IDX 75 87 77 88 78 89 79 90 80 91 57 92 58 93 66 94 59 95 61 96
REMARK SMILES IDX 67 97 60 98 62 99 63 100 64 101 65 102
REMARK H PARENT 21 7 28 36 87 55 55 66
REMARK Flexibility Score: inf
ROOT
ATOM      1  C   UNL A   1      37.029  33.707  29.777  1.00  0.00     0.002 C 
ENDROOT
BRANCH   1   2
ATOM      2  C   UNL A   1      38.403  33.774  30.442  1.00  0.00     0.021 C 
BRANCH   2   3
ATOM      3  C   UNL A   1      38.469  34.335  31.858  1.00  0.00     0.116 C 
BRANCH   3   4
ATOM      4  N   UNL A   1      37.227  34.902  32.354  1.00  0.00    -0.352 N 
ATOM      5  C   UNL A   1      36.509  34.646  33.503  1.00  0.00     0.251 C 
ATOM      6  O   UNL A   1      35.471  35.275  33.701  1.00  0.00    -0.269 OA
ATOM      7  H   UNL A   1      36.830  35.588  31.770  1.00  0.00     0.163 HD
BRANCH   5   8
ATOM      8  C   UNL A   1      36.900  33.577  34.465  1.00  0.00     0.041 A 
ATOM      9  C   UNL A   1      37.528  32.860  36.698  1.00  0.00     0.051 A 
ATOM     10  C   UNL A   1      38.001  31.651  36.174  1.00  0.00     0.027 A 
ATOM     11  C   UNL A   1      36.862  33.752  35.848  1.00  0.00     0.040 A 
ATOM     12  C   UNL A   1      37.901  31.391  34.807  1.00  0.00     0.003 A 
ATOM     13  C   UNL A   1      37.388  32.368  33.950  1.00  0.00     0.014 A 
BRANCH   9  14
ATOM     14  N   UNL A   1      37.873  33.302  38.017  1.00  0.00    -0.264 N 
ATOM     15  C   UNL A   1      36.949  33.697  42.777  1.00  0.00     0.120 A 
ATOM     16  C   UNL A   1      37.982  34.630  42.853  1.00  0.00     0.049 A 
ATOM     17  C   UNL A   1      36.654  33.085  41.559  1.00  0.00     0.062 A 
ATOM     18  C   UNL A   1      38.700  34.977  41.709  1.00  0.00     0.033 A 
ATOM     19  C   UNL A   1      37.380  33.444  40.414  1.00  0.00     0.070 A 
ATOM     20  C   UNL A   1      38.405  34.382  40.485  1.00  0.00     0.078 A 
ATOM     21  C   UNL A   1      37.080  32.863  39.091  1.00  0.00     0.266 A 
ATOM     22  N   UNL A   1      39.137  34.778  39.369  1.00  0.00    -0.234 NA
ATOM     23  O   UNL A   1      36.160  32.051  39.002  1.00  0.00    -0.268 OA
ATOM     24  C   UNL A   1      38.850  34.269  38.215  1.00  0.00     0.113 A 
ATOM     25  C   UNL A   1      39.621  34.861  37.049  1.00  0.00     0.088 C 
BRANCH  15  26
ATOM     26  O   UNL A   1      36.261  33.274  43.883  1.00  0.00    -0.489 OA
BRANCH  26  27
ATOM     27  C   UNL A   1      35.514  32.060  43.678  1.00  0.00     0.260 C 
BRANCH  27  28
ATOM     28  C   UNL A   1      35.291  31.267  44.947  1.00  0.00    -0.043 C 
ATOM     29  C   UNL A   1      34.389  30.276  45.053  1.00  0.00     0.011 C 
ATOM     30  C   UNL A   1      36.173  31.647  46.105  1.00  0.00     0.042 C 
ENDBRANCH  27  28
ENDBRANCH  26  27
ENDBRANCH  15  26
ENDBRANCH   9  14
ENDBRANCH   5   8
ENDBRANCH   3   4
ENDBRANCH   2   3
ENDBRANCH   1   2
BRANCH   1  31
ATOM     31  C   UNL A   1      35.975  32.816  30.436  1.00  0.00     0.002 C 
BRANCH  31  32
ATOM     32  C   UNL A   1      34.585  32.798  29.801  1.00  0.00     0.021 C 
BRANCH  32  33
ATOM     33  C   UNL A   1      34.531  32.860  28.279  1.00  0.00     0.116 C 
BRANCH  33  34
ATOM     34  N   UNL A   1      33.986  31.665  27.661  1.00  0.00    -0.352 N 
ATOM     35  C   UNL A   1      34.541  30.407  27.545  1.00  0.00     0.251 C 
ATOM     36  H   UNL A   1      33.088  31.767  27.268  1.00  0.00     0.163 HD
ATOM     37  O   UNL A   1      33.958  29.540  26.912  1.00  0.00    -0.269 OA
BRANCH  35  38
ATOM     38  C   UNL A   1      35.867  30.131  28.150  1.00  0.00     0.039 A 
ATOM     39  C   UNL A   1      37.046  30.506  27.504  1.00  0.00     0.014 A 
ATOM     40  C   UNL A   1      35.927  29.454  29.372  1.00  0.00     0.014 A 
ATOM     41  C   UNL A   1      38.270  30.048  27.981  1.00  0.00     0.010 A 
ATOM     42  C   UNL A   1      37.166  29.067  29.894  1.00  0.00     0.010 A 
ATOM     43  C   UNL A   1      38.346  29.312  29.175  1.00  0.00    -0.014 A 
BRANCH  43  44
ATOM     44  C   UNL A   1      39.667  28.814  29.645  1.00  0.00     0.031 A 
ATOM     45  C   UNL A   1      40.308  29.365  30.893  1.00  0.00     0.074 A 
ATOM     46  C   UNL A   1      40.273  27.820  28.966  1.00  0.00     0.049 A 
ATOM     47  N   UNL A   1      41.423  28.997  31.470  1.00  0.00    -0.248 NA
ATOM     48  C   UNL A   1      39.615  30.465  31.584  1.00  0.00     0.031 C 
ATOM     49  C   UNL A   1      39.770  27.219  27.730  1.00  0.00     0.029 A 
ATOM     50  N   UNL A   1      41.432  27.131  29.223  1.00  0.00    -0.354 N 
ATOM     51  C   UNL A   1      41.590  29.846  32.559  1.00  0.00     0.074 A 
ATOM     52  C   UNL A   1      40.459  30.746  32.569  1.00  0.00     0.031 C 
ATOM     53  C   UNL A   1      40.587  26.222  27.361  1.00  0.00     0.029 A 
ATOM     54  C   UNL A   1      41.698  26.143  28.305  1.00  0.00     0.049 A 
ATOM     55  H   UNL A   1      42.017  27.325  29.991  1.00  0.00     0.167 HD
ATOM     56  C   UNL A   1      42.586  29.863  33.476  1.00  0.00     0.034 A 
ATOM     57  C   UNL A   1      42.720  25.269  28.222  1.00  0.00     0.034 A 
ATOM     58  C   UNL A   1      43.685  28.938  33.498  1.00  0.00     0.049 A 
ATOM     59  C   UNL A   1      43.796  25.292  29.267  1.00  0.00     0.074 A 
ATOM     60  C   UNL A   1      44.707  28.846  34.428  1.00  0.00     0.029 A 
ATOM     61  N   UNL A   1      43.909  27.946  32.558  1.00  0.00    -0.354 N 
ATOM     62  N   UNL A   1      43.878  26.039  30.340  1.00  0.00    -0.248 NA
ATOM     63  C   UNL A   1      44.910  24.346  29.101  1.00  0.00     0.031 C 
ATOM     64  C   UNL A   1      45.552  27.801  34.047  1.00  0.00     0.029 A 
ATOM     65  C   UNL A   1      45.052  27.239  32.883  1.00  0.00     0.049 A 
ATOM     66  H   UNL A   1      43.339  27.772  31.775  1.00  0.00     0.167 HD
ATOM     67  C   UNL A   1      45.048  25.651  30.983  1.00  0.00     0.074 A 
ATOM     68  C   UNL A   1      45.629  24.586  30.191  1.00  0.00     0.031 C 
ATOM     69  C   UNL A   1      45.596  26.150  32.115  1.00  0.00     0.034 A 
BRANCH  56  70
ATOM     70  C   UNL A   1      42.518  30.881  34.581  1.00  0.00     0.023 A 
ATOM     71  C   UNL A   1      41.882  30.537  35.790  1.00  0.00     0.012 A 
ATOM     72  C   UNL A   1      43.180  32.120  34.469  1.00  0.00     0.148 A 
ATOM     73  C   UNL A   1      41.899  31.416  36.872  1.00  0.00     0.002 A 
ATOM     74  C   UNL A   1      43.216  32.979  35.562  1.00  0.00     0.091 A 
ATOM     75  F   UNL A   1      43.768  32.425  33.305  1.00  0.00    -0.205 F 
ATOM     76  C   UNL A   1      42.573  32.629  36.761  1.00  0.00     0.022 A 
BRANCH  74  77
ATOM     77  S   UNL A   1      44.104  34.540  35.546  1.00  0.00     0.127 S 
ATOM     78  O   UNL A   1      43.392  35.273  34.500  1.00  0.00    -0.237 OA
ATOM     79  O   UNL A   1      43.875  35.037  36.903  1.00  0.00    -0.237 OA
ATOM     80  O   UNL A   1      45.490  34.213  35.240  1.00  0.00    -0.744 OA
ENDBRANCH  74  77
ENDBRANCH  56  70
BRANCH  57  81
ATOM     81  C   UNL A   1      42.723  24.261  27.129  1.00  0.00     0.023 A 
ATOM     82  C   UNL A   1      43.471  24.512  25.964  1.00  0.00     0.012 A 
ATOM     83  C   UNL A   1      42.070  23.022  27.280  1.00  0.00     0.148 A 
ATOM     84  C   UNL A   1      43.570  23.545  24.965  1.00  0.00     0.002 A 
ATOM     85  C   UNL A   1      42.209  22.047  26.300  1.00  0.00     0.091 A 
ATOM     86  F   UNL A   1      41.359  22.813  28.397  1.00  0.00    -0.205 F 
ATOM     87  C   UNL A   1      42.951  22.309  25.138  1.00  0.00     0.022 A 
BRANCH  85  88
ATOM     88  S   UNL A   1      41.553  20.386  26.489  1.00  0.00     0.127 S 
ATOM     89  O   UNL A   1      42.072  20.008  27.801  1.00  0.00    -0.237 OA
ATOM     90  O   UNL A   1      40.110  20.629  26.442  1.00  0.00    -0.237 OA
ATOM     91  O   UNL A   1      42.075  19.623  25.363  1.00  0.00    -0.744 OA
ENDBRANCH  85  88
ENDBRANCH  57  81
BRANCH  69  92
ATOM     92  C   UNL A   1      46.892  25.560  32.593  1.00  0.00     0.023 A 
ATOM     93  C   UNL A   1      48.105  26.068  32.089  1.00  0.00     0.012 A 
ATOM     94  C   UNL A   1      46.910  24.609  33.630  1.00  0.00     0.148 A 
ATOM     95  C   UNL A   1      49.322  25.633  32.612  1.00  0.00     0.002 A 
ATOM     96  C   UNL A   1      48.126  24.203  34.167  1.00  0.00     0.091 A 
ATOM     97  F   UNL A   1      45.739  24.138  34.084  1.00  0.00    -0.205 F 
ATOM     98  C   UNL A   1      49.332  24.712  33.657  1.00  0.00     0.022 A 
BRANCH  96  99
ATOM     99  S   UNL A   1      48.243  23.077  35.561  1.00  0.00     0.127 S 
ATOM    100  O   UNL A   1      49.681  22.815  35.611  1.00  0.00    -0.237 OA
ATOM    101  O   UNL A   1      47.732  23.894  36.661  1.00  0.00    -0.237 OA
ATOM    102  O   UNL A   1      47.417  21.925  35.222  1.00  0.00    -0.744 OA
ENDBRANCH  96  99
ENDBRANCH  69  92
ENDBRANCH  43  44
ENDBRANCH  35  38
ENDBRANCH  33  34
ENDBRANCH  32  33
ENDBRANCH  31  32
ENDBRANCH   1  31
TORSDOF 20
ENDMDL
MODEL 2
REMARK VINA RESULT:      -9.7      1.509      7.585
REMARK SMILES C=C(C)COc1ccc2nc(C)n(-c3cccc(C(=O)NCCCCCCNC(=O)c4ccc(-c5c6nc(c(-c7cccc(S(=O)(=O)[O-])c7F)c7ccc([nH]7)c(-c7cccc(S(=O)(=O)[O-])c7F)c7nc(c(-c8cccc(S(=O)(=O)[O-])c8F)c8ccc5[nH]8)C=C7)C=C6)cc4)c3)c(=O)c2c1
REMARK SMILES IDX 24 1 23 2 22 3 21 4 19 5 20 6 18 8 14 9 15 10 94 11 16 12
REMARK SMILES IDX 17 13 13 14 6 15 7 16 98 17 8 18 97 19 9 20 95 21 10 22
REMARK SMILES IDX 96 23 11 24 12 25 5 26 4 27 2 28 1 29 3 30 25 31 26 32 27 33
REMARK SMILES IDX 28 34 29 35 30 37 31 38 32 39 93 40 33 41 92 42 34 43 35 44
REMARK SMILES IDX 36 45 86 46 37 47 91 48 85 49 87 50 38 51 90 52 84 53 83 54
REMARK SMILES IDX 39 56 71 57 51 58 70 59 52 60 55 61 69 62 88 63 53 64 54 65
REMARK SMILES IDX 68 67 89 68 56 69 40 70 41 71 49 72 42 73 44 74 50 75 43 76
REMARK SMILES IDX 45 77 46 78 47 79 48 80 72 81 73 82 81 83 74 84 76 85 82 86
REMARK SMILES IDX 75 87 77 88 78 89 79 90 80 91 57 92 58 93 66 94 59 95 61 96
REMARK SMILES IDX 67 97 60 98 62 99 63 100 64 101 65 102
REMARK H PARENT 21 7 28 36 87 55 55 66
REMARK Flexibility Score: inf
ROOT
ATOM      1  C   UNL A   1      38.293  33.982  30.386  1.00  0.00     0.002 C 
ENDROOT
BRANCH   1   2
ATOM      2  C   UNL A   1      39.357  33.851  31.473  1.00  0.00     0.021 C 
BRANCH   2   3
ATOM      3  C   UNL A   1      39.094  34.553  32.800  1.00  0.00     0.116 C 
BRANCH   3   4
ATOM      4  N   UNL A   1      37.708  34.918  33.039  1.00  0.00    -0.352 N 
ATOM      5  C   UNL A   1      36.808  34.486  33.990  1.00  0.00     0.251 C 
ATOM      6  O   UNL A   1      35.673  34.962  33.985  1.00  0.00    -0.269 OA
ATOM      7  H   UNL A   1      37.350  35.590  32.414  1.00  0.00     0.163 HD
BRANCH   5   8
ATOM      8  C   UNL A   1      37.134  33.406  34.964  1.00  0.00     0.041 A 
ATOM      9  C   UNL A   1      37.488  32.640  37.240  1.00  0.00     0.051 A 
ATOM     10  C   UNL A   1      38.117  31.488  36.751  1.00  0.00     0.027 A 
ATOM     11  C   UNL A   1      36.887  33.520  36.331  1.00  0.00     0.040 A 
ATOM     12  C   UNL A   1      38.232  31.280  35.376  1.00  0.00     0.003 A 
ATOM     13  C   UNL A   1      37.777  32.256  34.486  1.00  0.00     0.014 A 
BRANCH   9  14
ATOM     14  N   UNL A   1      37.609  33.047  38.608  1.00  0.00    -0.264 N 
ATOM     15  C   UNL A   1      35.929  33.284  43.168  1.00  0.00     0.120 A 
ATOM     16  C   UNL A   1      36.917  34.232  43.433  1.00  0.00     0.049 A 
ATOM     17  C   UNL A   1      35.845  32.704  41.902  1.00  0.00     0.062 A 
ATOM     18  C   UNL A   1      37.800  34.624  42.429  1.00  0.00     0.033 A 
ATOM     19  C   UNL A   1      36.737  33.109  40.899  1.00  0.00     0.070 A 
ATOM     20  C   UNL A   1      37.717  34.061  41.158  1.00  0.00     0.078 A 
ATOM     21  C   UNL A   1      36.664  32.563  39.529  1.00  0.00     0.266 A 
ATOM     22  N   UNL A   1      38.610  34.502  40.185  1.00  0.00    -0.234 NA
ATOM     23  O   UNL A   1      35.787  31.739  39.272  1.00  0.00    -0.268 OA
ATOM     24  C   UNL A   1      38.521  34.024  38.986  1.00  0.00     0.113 A 
ATOM     25  C   UNL A   1      39.456  34.663  37.975  1.00  0.00     0.088 C 
BRANCH  15  26
ATOM     26  O   UNL A   1      35.082  32.817  44.138  1.00  0.00    -0.489 OA
BRANCH  26  27
ATOM     27  C   UNL A   1      33.837  32.303  43.628  1.00  0.00     0.260 C 
BRANCH  27  28
ATOM     28  C   UNL A   1      32.671  33.248  43.820  1.00  0.00    -0.043 C 
ATOM     29  C   UNL A   1      32.270  34.129  42.888  1.00  0.00     0.011 C 
ATOM     30  C   UNL A   1      31.958  33.129  45.140  1.00  0.00     0.042 C 
ENDBRANCH  27  28
ENDBRANCH  26  27
ENDBRANCH  15  26
ENDBRANCH   9  14
ENDBRANCH   5   8
ENDBRANCH   3   4
ENDBRANCH   2   3
ENDBRANCH   1   2
BRANCH   1  31
ATOM     31  C   UNL A   1      37.210  32.902  30.332  1.00  0.00     0.002 C 
BRANCH  31  32
ATOM     32  C   UNL A   1      35.841  33.316  29.794  1.00  0.00     0.021 C 
BRANCH  32  33
ATOM     33  C   UNL A   1      35.672  33.304  28.280  1.00  0.00     0.116 C 
BRANCH  33  34
ATOM     34  N   UNL A   1      34.631  32.407  27.812  1.00  0.00    -0.352 N 
ATOM     35  C   UNL A   1      34.645  31.032  27.699  1.00  0.00     0.251 C 
ATOM     36  H   UNL A   1      33.793  32.843  27.535  1.00  0.00     0.163 HD
ATOM     37  O   UNL A   1      33.693  30.452  27.202  1.00  0.00    -0.269 OA
BRANCH  35  38
ATOM     38  C   UNL A   1      35.841  30.271  28.139  1.00  0.00     0.039 A 
ATOM     39  C   UNL A   1      35.847  29.577  29.350  1.00  0.00     0.014 A 
ATOM     40  C   UNL A   1      36.985  30.282  27.336  1.00  0.00     0.014 A 
ATOM     41  C   UNL A   1      37.041  29.054  29.840  1.00  0.00     0.010 A 
ATOM     42  C   UNL A   1      38.164  29.682  27.794  1.00  0.00     0.010 A 
ATOM     43  C   UNL A   1      38.217  29.112  29.075  1.00  0.00    -0.014 A 
BRANCH  43  44
ATOM     44  C   UNL A   1      39.483  28.569  29.637  1.00  0.00     0.031 A 
ATOM     45  C   UNL A   1      40.231  27.459  28.943  1.00  0.00     0.074 A 
ATOM     46  C   UNL A   1      39.989  29.113  30.762  1.00  0.00     0.049 A 
ATOM     47  N   UNL A   1      41.376  26.917  29.268  1.00  0.00    -0.248 NA
ATOM     48  C   UNL A   1      39.623  26.884  27.732  1.00  0.00     0.031 C 
ATOM     49  C   UNL A   1      39.349  30.173  31.542  1.00  0.00     0.029 A 
ATOM     50  N   UNL A   1      41.159  28.864  31.435  1.00  0.00    -0.354 N 
ATOM     51  C   UNL A   1      41.603  25.911  28.336  1.00  0.00     0.074 A 
ATOM     52  C   UNL A   1      40.481  25.919  27.425  1.00  0.00     0.031 C 
ATOM     53  C   UNL A   1      40.153  30.517  32.560  1.00  0.00     0.029 A 
ATOM     54  C   UNL A   1      41.342  29.670  32.533  1.00  0.00     0.049 A 
ATOM     55  H   UNL A   1      41.805  28.175  31.158  1.00  0.00     0.167 HD
ATOM     56  C   UNL A   1      42.659  25.068  28.237  1.00  0.00     0.034 A 
ATOM     57  C   UNL A   1      42.349  29.727  33.426  1.00  0.00     0.034 A 
ATOM     58  C   UNL A   1      43.801  25.091  29.110  1.00  0.00     0.049 A 
ATOM     59  C   UNL A   1      43.519  28.800  33.277  1.00  0.00     0.074 A 
ATOM     60  C   UNL A   1      44.943  24.312  29.044  1.00  0.00     0.029 A 
ATOM     61  N   UNL A   1      43.950  25.931  30.200  1.00  0.00    -0.354 N 
ATOM     62  N   UNL A   1      43.755  27.926  32.331  1.00  0.00    -0.248 NA
ATOM     63  C   UNL A   1      44.567  28.875  34.307  1.00  0.00     0.031 C 
ATOM     64  C   UNL A   1      45.783  24.678  30.098  1.00  0.00     0.029 A 
ATOM     65  C   UNL A   1      45.165  25.689  30.817  1.00  0.00     0.049 A 
ATOM     66  H   UNL A   1      43.291  26.599  30.493  1.00  0.00     0.167 HD
ATOM     67  C   UNL A   1      44.980  27.351  32.644  1.00  0.00     0.074 A 
ATOM     68  C   UNL A   1      45.449  27.991  33.855  1.00  0.00     0.031 C 
ATOM     69  C   UNL A   1      45.643  26.365  31.994  1.00  0.00     0.034 A 
BRANCH  56  70
ATOM     70  C   UNL A   1      42.673  24.074  27.109  1.00  0.00     0.023 A 
ATOM     71  C   UNL A   1      43.386  24.382  25.934  1.00  0.00     0.012 A 
ATOM     72  C   UNL A   1      42.088  22.801  27.256  1.00  0.00     0.148 A 
ATOM     73  C   UNL A   1      43.510  23.438  24.915  1.00  0.00     0.002 A 
ATOM     74  C   UNL A   1      42.240  21.856  26.248  1.00  0.00     0.091 A 
ATOM     75  F   UNL A   1      41.407  22.538  28.380  1.00  0.00    -0.205 F 
ATOM     76  C   UNL A   1      42.948  22.175  25.076  1.00  0.00     0.022 A 
BRANCH  74  77
ATOM     77  S   UNL A   1      41.605  20.180  26.377  1.00  0.00     0.127 S 
ATOM     78  O   UNL A   1      42.102  19.778  27.692  1.00  0.00    -0.237 OA
ATOM     79  O   UNL A   1      40.160  20.394  26.309  1.00  0.00    -0.237 OA
ATOM     80  O   UNL A   1      42.169  19.447  25.252  1.00  0.00    -0.744 OA
ENDBRANCH  74  77
ENDBRANCH  56  70
BRANCH  57  81
ATOM     81  C   UNL A   1      42.304  30.751  34.504  1.00  0.00     0.023 A 
ATOM     82  C   UNL A   1      41.800  30.395  35.769  1.00  0.00     0.012 A 
ATOM     83  C   UNL A   1      42.842  32.037  34.308  1.00  0.00     0.148 A 
ATOM     84  C   UNL A   1      41.834  31.306  36.825  1.00  0.00     0.002 A 
ATOM     85  C   UNL A   1      42.913  32.923  35.376  1.00  0.00     0.091 A 
ATOM     86  F   UNL A   1      43.308  32.349  33.091  1.00  0.00    -0.205 F 
ATOM     87  C   UNL A   1      42.401  32.563  36.632  1.00  0.00     0.022 A 
BRANCH  85  88
ATOM     88  S   UNL A   1      43.734  34.516  35.258  1.00  0.00     0.127 S 
ATOM     89  O   UNL A   1      44.953  34.169  34.531  1.00  0.00    -0.237 OA
ATOM     90  O   UNL A   1      42.761  35.297  34.494  1.00  0.00    -0.237 OA
ATOM     91  O   UNL A   1      43.927  34.965  36.630  1.00  0.00    -0.744 OA
ENDBRANCH  85  88
ENDBRANCH  57  81
BRANCH  69  92
ATOM     92  C   UNL A   1      46.956  25.904  32.558  1.00  0.00     0.023 A 
ATOM     93  C   UNL A   1      46.962  24.965  33.607  1.00  0.00     0.012 A 
ATOM     94  C   UNL A   1      48.171  26.294  31.963  1.00  0.00     0.148 A 
ATOM     95  C   UNL A   1      48.163  24.421  34.059  1.00  0.00     0.002 A 
ATOM     96  C   UNL A   1      49.361  25.724  32.398  1.00  0.00     0.091 A 
ATOM     97  F   UNL A   1      48.134  27.196  30.971  1.00  0.00    -0.205 F 
ATOM     98  C   UNL A   1      49.359  24.790  33.447  1.00  0.00     0.022 A 
BRANCH  96  99
ATOM     99  S   UNL A   1      50.945  26.079  31.628  1.00  0.00     0.127 S 
ATOM    100  O   UNL A   1      51.852  25.247  32.418  1.00  0.00    -0.237 OA
ATOM    101  O   UNL A   1      50.731  25.619  30.257  1.00  0.00    -0.237 OA
ATOM    102  O   UNL A   1      51.148  27.515  31.765  1.00  0.00    -0.744 OA
ENDBRANCH  96  99
ENDBRANCH  69  92
ENDBRANCH  43  44
ENDBRANCH  35  38
ENDBRANCH  33  34
ENDBRANCH  32  33
ENDBRANCH  31  32
ENDBRANCH   1  31
TORSDOF 20
ENDMDL
MODEL 3
REMARK VINA RESULT:      -9.3      4.074     10.634
REMARK SMILES C=C(C)COc1ccc2nc(C)n(-c3cccc(C(=O)NCCCCCCNC(=O)c4ccc(-c5c6nc(c(-c7cccc(S(=O)(=O)[O-])c7F)c7ccc([nH]7)c(-c7cccc(S(=O)(=O)[O-])c7F)c7nc(c(-c8cccc(S(=O)(=O)[O-])c8F)c8ccc5[nH]8)C=C7)C=C6)cc4)c3)c(=O)c2c1
REMARK SMILES IDX 24 1 23 2 22 3 21 4 19 5 20 6 18 8 14 9 15 10 94 11 16 12
REMARK SMILES IDX 17 13 13 14 6 15 7 16 98 17 8 18 97 19 9 20 95 21 10 22
REMARK SMILES IDX 96 23 11 24 12 25 5 26 4 27 2 28 1 29 3 30 25 31 26 32 27 33
REMARK SMILES IDX 28 34 29 35 30 37 31 38 32 39 93 40 33 41 92 42 34 43 35 44
REMARK SMILES IDX 36 45 86 46 37 47 91 48 85 49 87 50 38 51 90 52 84 53 83 54
REMARK SMILES IDX 39 56 71 57 51 58 70 59 52 60 55 61 69 62 88 63 53 64 54 65
REMARK SMILES IDX 68 67 89 68 56 69 40 70 41 71 49 72 42 73 44 74 50 75 43 76
REMARK SMILES IDX 45 77 46 78 47 79 48 80 72 81 73 82 81 83 74 84 76 85 82 86
REMARK SMILES IDX 75 87 77 88 78 89 79 90 80 91 57 92 58 93 66 94 59 95 61 96
REMARK SMILES IDX 67 97 60 98 62 99 63 100 64 101 65 102
REMARK H PARENT 21 7 28 36 87 55 55 66
REMARK Flexibility Score: inf
ROOT
ATOM      1  C   UNL A   1      38.985  33.045  39.085  1.00  0.00     0.002 C 
ENDROOT
BRANCH   1   2
ATOM      2  C   UNL A   1      38.366  32.323  37.890  1.00  0.00     0.021 C 
BRANCH   2   3
ATOM      3  C   UNL A   1      37.365  33.100  37.043  1.00  0.00     0.116 C 
BRANCH   3   4
ATOM      4  N   UNL A   1      37.951  34.066  36.130  1.00  0.00    -0.352 N 
ATOM      5  C   UNL A   1      37.723  34.299  34.790  1.00  0.00     0.251 C 
ATOM      6  O   UNL A   1      38.355  35.197  34.234  1.00  0.00    -0.269 OA
ATOM      7  H   UNL A   1      38.625  34.656  36.538  1.00  0.00     0.163 HD
BRANCH   5   8
ATOM      8  C   UNL A   1      36.808  33.450  33.976  1.00  0.00     0.041 A 
ATOM      9  C   UNL A   1      36.425  31.868  32.176  1.00  0.00     0.051 A 
ATOM     10  C   UNL A   1      35.057  32.164  32.211  1.00  0.00     0.027 A 
ATOM     11  C   UNL A   1      37.262  32.421  33.153  1.00  0.00     0.040 A 
ATOM     12  C   UNL A   1      34.559  33.078  33.139  1.00  0.00     0.003 A 
ATOM     13  C   UNL A   1      35.438  33.749  33.993  1.00  0.00     0.014 A 
BRANCH   9  14
ATOM     14  N   UNL A   1      37.025  31.185  31.069  1.00  0.00    -0.264 N 
ATOM     15  C   UNL A   1      39.179  27.292  29.099  1.00  0.00     0.120 A 
ATOM     16  C   UNL A   1      39.512  28.088  28.004  1.00  0.00     0.049 A 
ATOM     17  C   UNL A   1      38.442  27.833  30.153  1.00  0.00     0.062 A 
ATOM     18  C   UNL A   1      39.137  29.431  27.973  1.00  0.00     0.033 A 
ATOM     19  C   UNL A   1      38.075  29.186  30.113  1.00  0.00     0.070 A 
ATOM     20  C   UNL A   1      38.413  29.985  29.025  1.00  0.00     0.078 A 
ATOM     21  C   UNL A   1      37.336  29.822  31.220  1.00  0.00     0.266 A 
ATOM     22  N   UNL A   1      38.082  31.335  28.955  1.00  0.00    -0.234 NA
ATOM     23  O   UNL A   1      37.049  29.140  32.203  1.00  0.00    -0.268 OA
ATOM     24  C   UNL A   1      37.447  31.880  29.943  1.00  0.00     0.113 A 
ATOM     25  C   UNL A   1      37.249  33.379  29.821  1.00  0.00     0.088 C 
BRANCH  15  26
ATOM     26  O   UNL A   1      39.464  25.954  29.146  1.00  0.00    -0.489 OA
BRANCH  26  27
ATOM     27  C   UNL A   1      39.441  25.306  27.859  1.00  0.00     0.260 C 
BRANCH  27  28
ATOM     28  C   UNL A   1      40.579  24.329  27.655  1.00  0.00    -0.043 C 
ATOM     29  C   UNL A   1      40.402  23.062  27.244  1.00  0.00     0.011 C 
ATOM     30  C   UNL A   1      41.953  24.879  27.927  1.00  0.00     0.042 C 
ENDBRANCH  27  28
ENDBRANCH  26  27
ENDBRANCH  15  26
ENDBRANCH   9  14
ENDBRANCH   5   8
ENDBRANCH   3   4
ENDBRANCH   2   3
ENDBRANCH   1   2
BRANCH   1  31
ATOM     31  C   UNL A   1      38.291  34.320  39.569  1.00  0.00     0.002 C 
BRANCH  31  32
ATOM     32  C   UNL A   1      39.019  35.149  40.626  1.00  0.00     0.021 C 
BRANCH  32  33
ATOM     33  C   UNL A   1      40.541  35.173  40.543  1.00  0.00     0.116 C 
BRANCH  33  34
ATOM     34  N   UNL A   1      41.087  36.457  40.143  1.00  0.00    -0.352 N 
ATOM     35  C   UNL A   1      41.772  36.798  38.995  1.00  0.00     0.251 C 
ATOM     36  H   UNL A   1      40.949  37.191  40.784  1.00  0.00     0.163 HD
ATOM     37  O   UNL A   1      42.231  37.923  38.870  1.00  0.00    -0.269 OA
BRANCH  35  38
ATOM     38  C   UNL A   1      41.988  35.779  37.938  1.00  0.00     0.039 A 
ATOM     39  C   UNL A   1      43.210  35.116  37.816  1.00  0.00     0.014 A 
ATOM     40  C   UNL A   1      40.955  35.508  37.035  1.00  0.00     0.014 A 
ATOM     41  C   UNL A   1      43.460  34.330  36.695  1.00  0.00     0.010 A 
ATOM     42  C   UNL A   1      41.182  34.650  35.954  1.00  0.00     0.010 A 
ATOM     43  C   UNL A   1      42.454  34.097  35.742  1.00  0.00    -0.014 A 
BRANCH  43  44
ATOM     44  C   UNL A   1      42.760  33.274  34.541  1.00  0.00     0.031 A 
ATOM     45  C   UNL A   1      42.804  31.769  34.619  1.00  0.00     0.074 A 
ATOM     46  C   UNL A   1      42.953  33.888  33.357  1.00  0.00     0.049 A 
ATOM     47  N   UNL A   1      42.995  30.906  33.654  1.00  0.00    -0.248 NA
ATOM     48  C   UNL A   1      42.609  31.151  35.940  1.00  0.00     0.031 C 
ATOM     49  C   UNL A   1      42.962  35.337  33.154  1.00  0.00     0.029 A 
ATOM     50  N   UNL A   1      43.165  33.375  32.101  1.00  0.00    -0.354 N 
ATOM     51  C   UNL A   1      42.991  29.652  34.255  1.00  0.00     0.074 A 
ATOM     52  C   UNL A   1      42.771  29.862  35.668  1.00  0.00     0.031 C 
ATOM     53  C   UNL A   1      43.121  35.598  31.848  1.00  0.00     0.029 A 
ATOM     54  C   UNL A   1      43.274  34.338  31.126  1.00  0.00     0.049 A 
ATOM     55  H   UNL A   1      43.232  32.410  31.916  1.00  0.00     0.167 HD
ATOM     56  C   UNL A   1      43.139  28.436  33.679  1.00  0.00     0.034 A 
ATOM     57  C   UNL A   1      43.478  34.229  29.799  1.00  0.00     0.034 A 
ATOM     58  C   UNL A   1      43.306  28.220  32.268  1.00  0.00     0.049 A 
ATOM     59  C   UNL A   1      43.611  32.867  29.183  1.00  0.00     0.074 A 
ATOM     60  C   UNL A   1      43.403  27.015  31.593  1.00  0.00     0.029 A 
ATOM     61  N   UNL A   1      43.399  29.221  31.316  1.00  0.00    -0.354 N 
ATOM     62  N   UNL A   1      43.505  31.695  29.758  1.00  0.00    -0.248 NA
ATOM     63  C   UNL A   1      43.877  32.810  27.738  1.00  0.00     0.031 C 
ATOM     64  C   UNL A   1      43.559  27.288  30.231  1.00  0.00     0.029 A 
ATOM     65  C   UNL A   1      43.553  28.664  30.060  1.00  0.00     0.049 A 
ATOM     66  H   UNL A   1      43.361  30.186  31.506  1.00  0.00     0.167 HD
ATOM     67  C   UNL A   1      43.683  30.759  28.747  1.00  0.00     0.074 A 
ATOM     68  C   UNL A   1      43.881  31.500  27.518  1.00  0.00     0.031 C 
ATOM     69  C   UNL A   1      43.702  29.408  28.838  1.00  0.00     0.034 A 
BRANCH  56  70
ATOM     70  C   UNL A   1      43.071  27.219  34.560  1.00  0.00     0.023 A 
ATOM     71  C   UNL A   1      41.824  26.605  34.784  1.00  0.00     0.012 A 
ATOM     72  C   UNL A   1      44.243  26.620  35.063  1.00  0.00     0.148 A 
ATOM     73  C   UNL A   1      41.741  25.413  35.503  1.00  0.00     0.002 A 
ATOM     74  C   UNL A   1      44.156  25.417  35.755  1.00  0.00     0.091 A 
ATOM     75  F   UNL A   1      45.416  27.230  34.843  1.00  0.00    -0.205 F 
ATOM     76  C   UNL A   1      42.906  24.816  35.979  1.00  0.00     0.022 A 
BRANCH  74  77
ATOM     77  S   UNL A   1      45.598  24.533  36.360  1.00  0.00     0.127 S 
ATOM     78  O   UNL A   1      44.980  23.430  37.095  1.00  0.00    -0.237 OA
ATOM     79  O   UNL A   1      46.262  24.142  35.117  1.00  0.00    -0.237 OA
ATOM     80  O   UNL A   1      46.339  25.483  37.179  1.00  0.00    -0.744 OA
ENDBRANCH  74  77
ENDBRANCH  56  70
BRANCH  57  81
ATOM     81  C   UNL A   1      43.503  35.461  28.967  1.00  0.00     0.023 A 
ATOM     82  C   UNL A   1      42.298  35.957  28.436  1.00  0.00     0.012 A 
ATOM     83  C   UNL A   1      44.694  36.190  28.783  1.00  0.00     0.148 A 
ATOM     84  C   UNL A   1      42.277  37.161  27.733  1.00  0.00     0.002 A 
ATOM     85  C   UNL A   1      44.658  37.410  28.120  1.00  0.00     0.091 A 
ATOM     86  F   UNL A   1      45.827  35.690  29.294  1.00  0.00    -0.205 F 
ATOM     87  C   UNL A   1      43.452  37.893  27.586  1.00  0.00     0.022 A 
BRANCH  85  88
ATOM     88  S   UNL A   1      46.092  38.482  27.987  1.00  0.00     0.127 S 
ATOM     89  O   UNL A   1      46.981  37.686  27.144  1.00  0.00    -0.237 OA
ATOM     90  O   UNL A   1      45.522  39.665  27.341  1.00  0.00    -0.237 OA
ATOM     91  O   UNL A   1      46.552  38.701  29.352  1.00  0.00    -0.744 OA
ENDBRANCH  85  88
ENDBRANCH  57  81
BRANCH  69  92
ATOM     92  C   UNL A   1      43.936  28.619  27.583  1.00  0.00     0.023 A 
ATOM     93  C   UNL A   1      42.852  28.361  26.722  1.00  0.00     0.012 A 
ATOM     94  C   UNL A   1      45.239  28.255  27.193  1.00  0.00     0.148 A 
ATOM     95  C   UNL A   1      43.063  27.747  25.487  1.00  0.00     0.002 A 
ATOM     96  C   UNL A   1      45.446  27.673  25.949  1.00  0.00     0.091 A 
ATOM     97  F   UNL A   1      46.250  28.507  28.038  1.00  0.00    -0.205 F 
ATOM     98  C   UNL A   1      44.359  27.416  25.097  1.00  0.00     0.022 A 
BRANCH  96  99
ATOM     99  S   UNL A   1      47.082  27.275  25.324  1.00  0.00     0.127 S 
ATOM    100  O   UNL A   1      46.772  26.741  23.998  1.00  0.00    -0.237 OA
ATOM    101  O   UNL A   1      47.736  28.583  25.318  1.00  0.00    -0.237 OA
ATOM    102  O   UNL A   1      47.650  26.313  26.259  1.00  0.00    -0.744 OA
ENDBRANCH  96  99
ENDBRANCH  69  92
ENDBRANCH  43  44
ENDBRANCH  35  38
ENDBRANCH  33  34
ENDBRANCH  32  33
ENDBRANCH  31  32
ENDBRANCH   1  31
TORSDOF 20
ENDMDL
