MODEL 1
REMARK VINA RESULT:     -11.7      0.000      0.000
REMARK SMILES C[C@@H]1CN(C(=O)Nc2ccc(O)c(C(=O)NCCCCCCNC(=O)c3ccc(-c4c5nc(c(-c6cccc(S(=O)(=O)[O-])c6F)c6ccc([nH]6)c(-c6cccc(S(=O)(=O)[O-])c6F)c6nc(c(-c7cccc(S(=O)(=O)[O-])c7F)c7ccc4[nH]7)C=C6)C=C5)cc3)c2)C[C@@H]1C
REMARK SMILES IDX 20 1 19 2 18 3 17 4 16 5 14 6 15 7 13 9 8 10 9 11 89 12
REMARK SMILES IDX 10 13 11 14 7 15 5 16 6 17 4 19 1 20 2 21 3 22 91 23 90 24
REMARK SMILES IDX 92 25 12 26 21 28 22 29 23 30 24 31 25 33 26 34 27 35 88 36
REMARK SMILES IDX 28 37 87 38 29 39 30 40 31 41 81 42 32 43 86 44 80 45 82 46
REMARK SMILES IDX 33 47 85 48 79 49 78 50 34 52 66 53 46 54 65 55 47 56 50 57
REMARK SMILES IDX 64 58 83 59 48 60 49 61 63 63 84 64 51 65 35 66 36 67 44 68
REMARK SMILES IDX 37 69 39 70 45 71 38 72 40 73 41 74 42 75 43 76 67 77 68 78
REMARK SMILES IDX 76 79 69 80 71 81 77 82 70 83 72 84 73 85 74 86 75 87 52 88
REMARK SMILES IDX 53 89 61 90 54 91 56 92 62 93 55 94 57 95 58 96 59 97 60 98
REMARK H PARENT 16 8 7 18 12 27 23 32 82 51 50 62
REMARK Flexibility Score: inf
ROOT
ATOM      1  C   UNL A   1      31.577  29.137  25.650  1.00  0.00     0.002 C 
ENDROOT
BRANCH   1   2
ATOM      2  C   UNL A   1      30.804  28.952  24.341  1.00  0.00     0.002 C 
BRANCH   2   3
ATOM      3  C   UNL A   1      30.541  27.497  23.947  1.00  0.00     0.021 C 
BRANCH   3   4
ATOM      4  C   UNL A   1      30.633  27.224  22.441  1.00  0.00     0.116 C 
BRANCH   4   5
ATOM      5  N   UNL A   1      32.006  27.344  21.998  1.00  0.00    -0.352 N 
ATOM      6  C   UNL A   1      33.070  26.487  22.060  1.00  0.00     0.255 C 
ATOM      7  O   UNL A   1      34.146  26.914  21.625  1.00  0.00    -0.269 OA
ATOM      8  H   UNL A   1      32.212  28.206  21.568  1.00  0.00     0.163 HD
BRANCH   6   9
ATOM      9  C   UNL A   1      33.015  25.066  22.515  1.00  0.00     0.083 A 
ATOM     10  C   UNL A   1      32.861  23.663  24.515  1.00  0.00     0.043 A 
ATOM     11  C   UNL A   1      32.781  22.525  23.722  1.00  0.00     0.030 A 
ATOM     12  C   UNL A   1      32.903  24.921  23.913  1.00  0.00     0.044 A 
ATOM     13  C   UNL A   1      32.883  22.639  22.339  1.00  0.00     0.049 A 
ATOM     14  C   UNL A   1      33.019  23.899  21.740  1.00  0.00     0.128 A 
BRANCH  10  15
ATOM     15  N   UNL A   1      32.880  23.598  25.910  1.00  0.00    -0.308 N 
ATOM     16  C   UNL A   1      33.661  22.880  26.765  1.00  0.00     0.321 C 
ATOM     17  O   UNL A   1      33.204  22.634  27.885  1.00  0.00    -0.248 OA
ATOM     18  H   UNL A   1      32.212  24.171  26.353  1.00  0.00     0.171 HD
BRANCH  16  19
ATOM     19  N   UNL A   1      34.963  22.593  26.437  1.00  0.00    -0.324 N 
ATOM     20  C   UNL A   1      37.589  20.653  24.639  1.00  0.00     0.010 C 
ATOM     21  C   UNL A   1      36.971  21.660  25.591  1.00  0.00     0.010 C 
ATOM     22  C   UNL A   1      35.526  21.334  25.948  1.00  0.00     0.125 C 
ATOM     23  C   UNL A   1      36.880  23.122  25.135  1.00  0.00     0.010 C 
ATOM     24  C   UNL A   1      35.903  23.683  26.182  1.00  0.00     0.125 C 
ATOM     25  C   UNL A   1      36.334  23.320  23.716  1.00  0.00     0.010 C 
ENDBRANCH  16  19
ENDBRANCH  10  15
BRANCH  14  26
ATOM     26  O   UNL A   1      33.108  23.915  20.382  1.00  0.00    -0.507 OA
ATOM     27  H   UNL A   1      32.334  24.022  19.864  1.00  0.00     0.293 HD
ENDBRANCH  14  26
ENDBRANCH   6   9
ENDBRANCH   4   5
ENDBRANCH   3   4
ENDBRANCH   2   3
ENDBRANCH   1   2
BRANCH   1  28
ATOM     28  C   UNL A   1      32.703  28.128  25.892  1.00  0.00     0.021 C 
BRANCH  28  29
ATOM     29  C   UNL A   1      34.057  28.750  26.224  1.00  0.00     0.116 C 
BRANCH  29  30
ATOM     30  N   UNL A   1      33.916  30.112  26.715  1.00  0.00    -0.352 N 
ATOM     31  C   UNL A   1      34.654  30.773  27.665  1.00  0.00     0.251 C 
ATOM     32  H   UNL A   1      33.188  30.634  26.308  1.00  0.00     0.163 HD
ATOM     33  O   UNL A   1      34.246  31.832  28.131  1.00  0.00    -0.269 OA
BRANCH  31  34
ATOM     34  C   UNL A   1      35.938  30.205  28.130  1.00  0.00     0.039 A 
ATOM     35  C   UNL A   1      37.070  30.329  27.319  1.00  0.00     0.014 A 
ATOM     36  C   UNL A   1      36.019  29.526  29.349  1.00  0.00     0.014 A 
ATOM     37  C   UNL A   1      38.294  29.814  27.754  1.00  0.00     0.010 A 
ATOM     38  C   UNL A   1      37.251  29.071  29.809  1.00  0.00     0.010 A 
ATOM     39  C   UNL A   1      38.400  29.201  29.013  1.00  0.00    -0.014 A 
BRANCH  39  40
ATOM     40  C   UNL A   1      39.701  28.690  29.517  1.00  0.00     0.031 A 
ATOM     41  C   UNL A   1      40.425  29.419  30.619  1.00  0.00     0.074 A 
ATOM     42  C   UNL A   1      40.270  27.621  28.928  1.00  0.00     0.049 A 
ATOM     43  N   UNL A   1      41.598  29.171  31.139  1.00  0.00    -0.248 NA
ATOM     44  C   UNL A   1      39.752  30.597  31.195  1.00  0.00     0.031 C 
ATOM     45  C   UNL A   1      39.702  26.872  27.803  1.00  0.00     0.029 A 
ATOM     46  N   UNL A   1      41.466  26.992  29.171  1.00  0.00    -0.354 N 
ATOM     47  C   UNL A   1      41.818  30.172  32.078  1.00  0.00     0.074 A 
ATOM     48  C   UNL A   1      40.673  31.053  32.032  1.00  0.00     0.031 C 
ATOM     49  C   UNL A   1      40.549  25.890  27.455  1.00  0.00     0.029 A 
ATOM     50  C   UNL A   1      41.730  25.952  28.310  1.00  0.00     0.049 A 
ATOM     51  H   UNL A   1      42.076  27.261  29.895  1.00  0.00     0.167 HD
ATOM     52  C   UNL A   1      42.864  30.326  32.925  1.00  0.00     0.034 A 
ATOM     53  C   UNL A   1      42.805  25.145  28.216  1.00  0.00     0.034 A 
ATOM     54  C   UNL A   1      43.979  29.421  33.002  1.00  0.00     0.049 A 
ATOM     55  C   UNL A   1      43.933  25.316  29.198  1.00  0.00     0.074 A 
ATOM     56  C   UNL A   1      45.053  29.451  33.874  1.00  0.00     0.029 A 
ATOM     57  N   UNL A   1      44.162  28.321  32.179  1.00  0.00    -0.354 N 
ATOM     58  N   UNL A   1      44.052  26.181  30.176  1.00  0.00    -0.248 NA
ATOM     59  C   UNL A   1      45.059  24.377  29.088  1.00  0.00     0.031 C 
ATOM     60  C   UNL A   1      45.892  28.373  33.572  1.00  0.00     0.029 A 
ATOM     61  C   UNL A   1      45.331  27.663  32.523  1.00  0.00     0.049 A 
ATOM     62  H   UNL A   1      43.551  28.047  31.457  1.00  0.00     0.167 HD
ATOM     63  C   UNL A   1      45.242  25.864  30.822  1.00  0.00     0.074 A 
ATOM     64  C   UNL A   1      45.796  24.714  30.138  1.00  0.00     0.031 C 
ATOM     65  C   UNL A   1      45.834  26.480  31.875  1.00  0.00     0.034 A 
BRANCH  52  66
ATOM     66  C   UNL A   1      42.822  31.480  33.893  1.00  0.00     0.023 A 
ATOM     67  C   UNL A   1      43.350  32.726  33.502  1.00  0.00     0.012 A 
ATOM     68  C   UNL A   1      42.195  31.357  35.148  1.00  0.00     0.148 A 
ATOM     69  C   UNL A   1      43.279  33.828  34.354  1.00  0.00     0.002 A 
ATOM     70  C   UNL A   1      42.090  32.471  35.975  1.00  0.00     0.091 A 
ATOM     71  F   UNL A   1      41.715  30.158  35.509  1.00  0.00    -0.205 F 
ATOM     72  C   UNL A   1      42.640  33.703  35.583  1.00  0.00     0.022 A 
BRANCH  70  73
ATOM     73  S   UNL A   1      41.222  32.438  37.547  1.00  0.00     0.127 S 
ATOM     74  O   UNL A   1      42.081  31.561  38.341  1.00  0.00    -0.237 OA
ATOM     75  O   UNL A   1      41.252  33.845  37.944  1.00  0.00    -0.237 OA
ATOM     76  O   UNL A   1      39.892  31.913  37.261  1.00  0.00    -0.744 OA
ENDBRANCH  70  73
ENDBRANCH  52  66
BRANCH  53  77
ATOM     77  C   UNL A   1      42.841  24.057  27.198  1.00  0.00     0.023 A 
ATOM     78  C   UNL A   1      43.513  24.274  25.979  1.00  0.00     0.012 A 
ATOM     79  C   UNL A   1      42.222  22.813  27.426  1.00  0.00     0.148 A 
ATOM     80  C   UNL A   1      43.533  23.290  24.990  1.00  0.00     0.002 A 
ATOM     81  C   UNL A   1      42.294  21.815  26.460  1.00  0.00     0.091 A 
ATOM     82  F   UNL A   1      41.573  22.626  28.584  1.00  0.00    -0.205 F 
ATOM     83  C   UNL A   1      42.932  22.058  25.234  1.00  0.00     0.022 A 
BRANCH  81  84
ATOM     84  S   UNL A   1      41.662  20.160  26.752  1.00  0.00     0.127 S 
ATOM     85  O   UNL A   1      40.265  20.425  27.084  1.00  0.00    -0.237 OA
ATOM     86  O   UNL A   1      41.876  19.513  25.457  1.00  0.00    -0.237 OA
ATOM     87  O   UNL A   1      42.483  19.618  27.829  1.00  0.00    -0.744 OA
ENDBRANCH  81  84
ENDBRANCH  53  77
BRANCH  65  88
ATOM     88  C   UNL A   1      47.128  25.904  32.384  1.00  0.00     0.023 A 
ATOM     89  C   UNL A   1      47.118  25.039  33.495  1.00  0.00     0.012 A 
ATOM     90  C   UNL A   1      48.340  26.159  31.713  1.00  0.00     0.148 A 
ATOM     91  C   UNL A   1      48.302  24.461  33.952  1.00  0.00     0.002 A 
ATOM     92  C   UNL A   1      49.509  25.542  32.145  1.00  0.00     0.091 A 
ATOM     93  F   UNL A   1      48.330  26.999  30.669  1.00  0.00    -0.205 F 
ATOM     94  C   UNL A   1      49.492  24.702  33.271  1.00  0.00     0.022 A 
BRANCH  92  95
ATOM     95  S   UNL A   1      51.068  25.718  31.274  1.00  0.00     0.127 S 
ATOM     96  O   UNL A   1      51.904  24.732  31.955  1.00  0.00    -0.237 OA
ATOM     97  O   UNL A   1      50.701  25.364  29.902  1.00  0.00    -0.237 OA
ATOM     98  O   UNL A   1      51.470  27.108  31.450  1.00  0.00    -0.744 OA
ENDBRANCH  92  95
ENDBRANCH  65  88
ENDBRANCH  39  40
ENDBRANCH  31  34
ENDBRANCH  29  30
ENDBRANCH  28  29
ENDBRANCH   1  28
TORSDOF 19
ENDMDL
MODEL 2
REMARK VINA RESULT:     -11.6      3.853      8.869
REMARK SMILES C[C@@H]1CN(C(=O)Nc2ccc(O)c(C(=O)NCCCCCCNC(=O)c3ccc(-c4c5nc(c(-c6cccc(S(=O)(=O)[O-])c6F)c6ccc([nH]6)c(-c6cccc(S(=O)(=O)[O-])c6F)c6nc(c(-c7cccc(S(=O)(=O)[O-])c7F)c7ccc4[nH]7)C=C6)C=C5)cc3)c2)C[C@@H]1C
REMARK SMILES IDX 20 1 19 2 18 3 17 4 16 5 14 6 15 7 13 9 8 10 9 11 89 12
REMARK SMILES IDX 10 13 11 14 7 15 5 16 6 17 4 19 1 20 2 21 3 22 91 23 90 24
REMARK SMILES IDX 92 25 12 26 21 28 22 29 23 30 24 31 25 33 26 34 27 35 88 36
REMARK SMILES IDX 28 37 87 38 29 39 30 40 31 41 81 42 32 43 86 44 80 45 82 46
REMARK SMILES IDX 33 47 85 48 79 49 78 50 34 52 66 53 46 54 65 55 47 56 50 57
REMARK SMILES IDX 64 58 83 59 48 60 49 61 63 63 84 64 51 65 35 66 36 67 44 68
REMARK SMILES IDX 37 69 39 70 45 71 38 72 40 73 41 74 42 75 43 76 67 77 68 78
REMARK SMILES IDX 76 79 69 80 71 81 77 82 70 83 72 84 73 85 74 86 75 87 52 88
REMARK SMILES IDX 53 89 61 90 54 91 56 92 62 93 55 94 57 95 58 96 59 97 60 98
REMARK H PARENT 16 8 7 18 12 27 23 32 82 51 50 62
REMARK Flexibility Score: inf
ROOT
ATOM      1  C   UNL A   1      31.600  30.654  26.844  1.00  0.00     0.002 C 
ENDROOT
BRANCH   1   2
ATOM      2  C   UNL A   1      31.723  29.970  25.479  1.00  0.00     0.002 C 
BRANCH   2   3
ATOM      3  C   UNL A   1      33.141  29.533  25.102  1.00  0.00     0.021 C 
BRANCH   3   4
ATOM      4  C   UNL A   1      33.278  29.001  23.671  1.00  0.00     0.116 C 
BRANCH   4   5
ATOM      5  N   UNL A   1      31.976  28.923  23.043  1.00  0.00    -0.352 N 
ATOM      6  C   UNL A   1      31.280  27.878  22.497  1.00  0.00     0.255 C 
ATOM      7  O   UNL A   1      30.188  28.153  21.987  1.00  0.00    -0.269 OA
ATOM      8  H   UNL A   1      31.500  29.784  23.003  1.00  0.00     0.163 HD
BRANCH   6   9
ATOM      9  C   UNL A   1      31.684  26.442  22.554  1.00  0.00     0.083 A 
ATOM     10  C   UNL A   1      31.216  24.328  23.696  1.00  0.00     0.043 A 
ATOM     11  C   UNL A   1      32.105  23.668  22.858  1.00  0.00     0.030 A 
ATOM     12  C   UNL A   1      30.955  25.683  23.494  1.00  0.00     0.044 A 
ATOM     13  C   UNL A   1      32.833  24.390  21.917  1.00  0.00     0.049 A 
ATOM     14  C   UNL A   1      32.638  25.771  21.779  1.00  0.00     0.128 A 
BRANCH  10  15
ATOM     15  N   UNL A   1      30.544  23.675  24.732  1.00  0.00    -0.308 N 
ATOM     16  C   UNL A   1      30.949  22.692  25.584  1.00  0.00     0.321 C 
ATOM     17  O   UNL A   1      30.077  21.974  26.082  1.00  0.00    -0.248 OA
ATOM     18  H   UNL A   1      29.618  23.978  24.871  1.00  0.00     0.171 HD
BRANCH  16  19
ATOM     19  N   UNL A   1      32.260  22.623  25.989  1.00  0.00    -0.324 N 
ATOM     20  C   UNL A   1      35.902  22.110  25.390  1.00  0.00     0.010 C 
ATOM     21  C   UNL A   1      34.607  22.339  26.147  1.00  0.00     0.010 C 
ATOM     22  C   UNL A   1      33.374  21.912  25.360  1.00  0.00     0.125 C 
ATOM     23  C   UNL A   1      34.258  23.774  26.561  1.00  0.00     0.010 C 
ATOM     24  C   UNL A   1      32.777  23.606  26.939  1.00  0.00     0.125 C 
ATOM     25  C   UNL A   1      34.424  24.822  25.454  1.00  0.00     0.010 C 
ENDBRANCH  16  19
ENDBRANCH  10  15
BRANCH  14  26
ATOM     26  O   UNL A   1      33.390  26.394  20.831  1.00  0.00    -0.507 OA
ATOM     27  H   UNL A   1      34.316  26.476  20.947  1.00  0.00     0.293 HD
ENDBRANCH  14  26
ENDBRANCH   6   9
ENDBRANCH   4   5
ENDBRANCH   3   4
ENDBRANCH   2   3
ENDBRANCH   1   2
BRANCH   1  28
ATOM     28  C   UNL A   1      31.561  32.184  26.807  1.00  0.00     0.021 C 
BRANCH  28  29
ATOM     29  C   UNL A   1      32.857  32.865  27.243  1.00  0.00     0.116 C 
BRANCH  29  30
ATOM     30  N   UNL A   1      32.629  34.243  27.648  1.00  0.00    -0.352 N 
ATOM     31  C   UNL A   1      33.153  34.934  28.713  1.00  0.00     0.251 C 
ATOM     32  H   UNL A   1      32.011  34.754  27.077  1.00  0.00     0.163 HD
ATOM     33  O   UNL A   1      32.666  36.010  29.046  1.00  0.00    -0.269 OA
BRANCH  31  34
ATOM     34  C   UNL A   1      34.301  34.378  29.460  1.00  0.00     0.039 A 
ATOM     35  C   UNL A   1      34.069  33.700  30.660  1.00  0.00     0.014 A 
ATOM     36  C   UNL A   1      35.608  34.550  28.992  1.00  0.00     0.014 A 
ATOM     37  C   UNL A   1      35.143  33.153  31.367  1.00  0.00     0.010 A 
ATOM     38  C   UNL A   1      36.669  33.949  29.664  1.00  0.00     0.010 A 
ATOM     39  C   UNL A   1      36.450  33.252  30.862  1.00  0.00    -0.014 A 
BRANCH  39  40
ATOM     40  C   UNL A   1      37.601  32.636  31.571  1.00  0.00     0.031 A 
ATOM     41  C   UNL A   1      38.331  31.471  30.957  1.00  0.00     0.074 A 
ATOM     42  C   UNL A   1      37.935  33.070  32.802  1.00  0.00     0.049 A 
ATOM     43  N   UNL A   1      39.308  30.756  31.453  1.00  0.00    -0.248 NA
ATOM     44  C   UNL A   1      37.891  31.035  29.621  1.00  0.00     0.031 C 
ATOM     45  C   UNL A   1      37.257  34.143  33.534  1.00  0.00     0.029 A 
ATOM     46  N   UNL A   1      38.910  32.645  33.670  1.00  0.00    -0.354 N 
ATOM     47  C   UNL A   1      39.578  29.773  30.509  1.00  0.00     0.074 A 
ATOM     48  C   UNL A   1      38.640  29.959  29.425  1.00  0.00     0.031 C 
ATOM     49  C   UNL A   1      37.835  34.290  34.737  1.00  0.00     0.029 A 
ATOM     50  C   UNL A   1      38.905  33.307  34.875  1.00  0.00     0.049 A 
ATOM     51  H   UNL A   1      39.552  31.932  33.449  1.00  0.00     0.167 HD
ATOM     52  C   UNL A   1      40.542  28.821  30.526  1.00  0.00     0.034 A 
ATOM     53  C   UNL A   1      39.672  33.137  35.971  1.00  0.00     0.034 A 
ATOM     54  C   UNL A   1      41.505  28.669  31.584  1.00  0.00     0.049 A 
ATOM     55  C   UNL A   1      40.760  32.097  35.945  1.00  0.00     0.074 A 
ATOM     56  C   UNL A   1      42.563  27.781  31.662  1.00  0.00     0.029 A 
ATOM     57  N   UNL A   1      41.529  29.424  32.745  1.00  0.00    -0.354 N 
ATOM     58  N   UNL A   1      41.093  31.275  34.979  1.00  0.00    -0.248 NA
ATOM     59  C   UNL A   1      41.603  31.986  37.144  1.00  0.00     0.031 C 
ATOM     60  C   UNL A   1      43.224  27.994  32.877  1.00  0.00     0.029 A 
ATOM     61  C   UNL A   1      42.585  29.025  33.546  1.00  0.00     0.049 A 
ATOM     62  H   UNL A   1      40.891  30.140  32.968  1.00  0.00     0.167 HD
ATOM     63  C   UNL A   1      42.207  30.580  35.437  1.00  0.00     0.074 A 
ATOM     64  C   UNL A   1      42.505  31.094  36.758  1.00  0.00     0.031 C 
ATOM     65  C   UNL A   1      42.909  29.593  34.829  1.00  0.00     0.034 A 
BRANCH  52  66
ATOM     66  C   UNL A   1      40.654  27.909  29.332  1.00  0.00     0.023 A 
ATOM     67  C   UNL A   1      39.813  26.781  29.246  1.00  0.00     0.012 A 
ATOM     68  C   UNL A   1      41.523  28.207  28.266  1.00  0.00     0.148 A 
ATOM     69  C   UNL A   1      39.854  25.947  28.129  1.00  0.00     0.002 A 
ATOM     70  C   UNL A   1      41.529  27.395  27.136  1.00  0.00     0.091 A 
ATOM     71  F   UNL A   1      42.328  29.275  28.374  1.00  0.00    -0.205 F 
ATOM     72  C   UNL A   1      40.702  26.260  27.072  1.00  0.00     0.022 A 
BRANCH  70  73
ATOM     73  S   UNL A   1      42.528  27.749  25.686  1.00  0.00     0.127 S 
ATOM     74  O   UNL A   1      42.117  26.680  24.777  1.00  0.00    -0.237 OA
ATOM     75  O   UNL A   1      42.061  29.083  25.310  1.00  0.00    -0.237 OA
ATOM     76  O   UNL A   1      43.915  27.690  26.129  1.00  0.00    -0.744 OA
ENDBRANCH  70  73
ENDBRANCH  52  66
BRANCH  53  77
ATOM     77  C   UNL A   1      39.485  34.013  37.162  1.00  0.00     0.023 A 
ATOM     78  C   UNL A   1      39.899  35.358  37.101  1.00  0.00     0.012 A 
ATOM     79  C   UNL A   1      38.899  33.530  38.348  1.00  0.00     0.148 A 
ATOM     80  C   UNL A   1      39.773  36.194  38.211  1.00  0.00     0.002 A 
ATOM     81  C   UNL A   1      38.724  34.383  39.432  1.00  0.00     0.091 A 
ATOM     82  F   UNL A   1      38.525  32.244  38.396  1.00  0.00    -0.205 F 
ATOM     83  C   UNL A   1      39.177  35.710  39.373  1.00  0.00     0.022 A 
BRANCH  81  84
ATOM     84  S   UNL A   1      37.846  33.872  40.913  1.00  0.00     0.127 S 
ATOM     85  O   UNL A   1      38.835  33.025  41.573  1.00  0.00    -0.237 OA
ATOM     86  O   UNL A   1      37.587  35.150  41.577  1.00  0.00    -0.237 OA
ATOM     87  O   UNL A   1      36.644  33.198  40.435  1.00  0.00    -0.744 OA
ENDBRANCH  81  84
ENDBRANCH  53  77
BRANCH  65  88
ATOM     88  C   UNL A   1      44.096  29.026  35.562  1.00  0.00     0.023 A 
ATOM     89  C   UNL A   1      45.356  29.641  35.432  1.00  0.00     0.012 A 
ATOM     90  C   UNL A   1      43.944  27.934  36.438  1.00  0.00     0.148 A 
ATOM     91  C   UNL A   1      46.456  29.157  36.138  1.00  0.00     0.002 A 
ATOM     92  C   UNL A   1      45.034  27.486  37.175  1.00  0.00     0.091 A 
ATOM     93  F   UNL A   1      42.740  27.352  36.533  1.00  0.00    -0.205 F 
ATOM     94  C   UNL A   1      46.293  28.090  37.017  1.00  0.00     0.022 A 
BRANCH  92  95
ATOM     95  S   UNL A   1      44.896  26.181  38.400  1.00  0.00     0.127 S 
ATOM     96  O   UNL A   1      46.291  25.992  38.793  1.00  0.00    -0.237 OA
ATOM     97  O   UNL A   1      44.053  26.801  39.423  1.00  0.00    -0.237 OA
ATOM     98  O   UNL A   1      44.280  25.053  37.715  1.00  0.00    -0.744 OA
ENDBRANCH  92  95
ENDBRANCH  65  88
ENDBRANCH  39  40
ENDBRANCH  31  34
ENDBRANCH  29  30
ENDBRANCH  28  29
ENDBRANCH   1  28
TORSDOF 19
ENDMDL
MODEL 3
REMARK VINA RESULT:     -11.6      2.606      7.859
REMARK SMILES C[C@@H]1CN(C(=O)Nc2ccc(O)c(C(=O)NCCCCCCNC(=O)c3ccc(-c4c5nc(c(-c6cccc(S(=O)(=O)[O-])c6F)c6ccc([nH]6)c(-c6cccc(S(=O)(=O)[O-])c6F)c6nc(c(-c7cccc(S(=O)(=O)[O-])c7F)c7ccc4[nH]7)C=C6)C=C5)cc3)c2)C[C@@H]1C
REMARK SMILES IDX 20 1 19 2 18 3 17 4 16 5 14 6 15 7 13 9 8 10 9 11 89 12
REMARK SMILES IDX 10 13 11 14 7 15 5 16 6 17 4 19 1 20 2 21 3 22 91 23 90 24
REMARK SMILES IDX 92 25 12 26 21 28 22 29 23 30 24 31 25 33 26 34 27 35 88 36
REMARK SMILES IDX 28 37 87 38 29 39 30 40 31 41 81 42 32 43 86 44 80 45 82 46
REMARK SMILES IDX 33 47 85 48 79 49 78 50 34 52 66 53 46 54 65 55 47 56 50 57
REMARK SMILES IDX 64 58 83 59 48 60 49 61 63 63 84 64 51 65 35 66 36 67 44 68
REMARK SMILES IDX 37 69 39 70 45 71 38 72 40 73 41 74 42 75 43 76 67 77 68 78
REMARK SMILES IDX 76 79 69 80 71 81 77 82 70 83 72 84 73 85 74 86 75 87 52 88
REMARK SMILES IDX 53 89 61 90 54 91 56 92 62 93 55 94 57 95 58 96 59 97 60 98
REMARK H PARENT 16 8 7 18 12 27 23 32 82 51 50 62
REMARK Flexibility Score: inf
ROOT
ATOM      1  C   UNL A   1      31.428  27.960  25.951  1.00  0.00     0.002 C 
ENDROOT
BRANCH   1   2
ATOM      2  C   UNL A   1      30.490  27.239  24.979  1.00  0.00     0.002 C 
BRANCH   2   3
ATOM      3  C   UNL A   1      30.281  27.949  23.638  1.00  0.00     0.021 C 
BRANCH   3   4
ATOM      4  C   UNL A   1      30.566  27.075  22.411  1.00  0.00     0.116 C 
BRANCH   4   5
ATOM      5  N   UNL A   1      31.947  27.222  22.006  1.00  0.00    -0.352 N 
ATOM      6  C   UNL A   1      33.024  26.383  22.093  1.00  0.00     0.255 C 
ATOM      7  O   UNL A   1      34.104  26.831  21.690  1.00  0.00    -0.269 OA
ATOM      8  H   UNL A   1      32.150  28.090  21.587  1.00  0.00     0.163 HD
BRANCH   6   9
ATOM      9  C   UNL A   1      32.982  24.959  22.538  1.00  0.00     0.083 A 
ATOM     10  C   UNL A   1      32.830  23.541  24.529  1.00  0.00     0.043 A 
ATOM     11  C   UNL A   1      32.768  22.408  23.728  1.00  0.00     0.030 A 
ATOM     12  C   UNL A   1      32.862  24.803  23.935  1.00  0.00     0.044 A 
ATOM     13  C   UNL A   1      32.878  22.531  22.346  1.00  0.00     0.049 A 
ATOM     14  C   UNL A   1      33.004  23.797  21.757  1.00  0.00     0.128 A 
BRANCH  10  15
ATOM     15  N   UNL A   1      32.840  23.468  25.924  1.00  0.00    -0.308 N 
ATOM     16  C   UNL A   1      33.629  22.761  26.779  1.00  0.00     0.321 C 
ATOM     17  O   UNL A   1      33.170  22.499  27.894  1.00  0.00    -0.248 OA
ATOM     18  H   UNL A   1      32.157  24.024  26.365  1.00  0.00     0.171 HD
BRANCH  16  19
ATOM     19  N   UNL A   1      34.940  22.504  26.459  1.00  0.00    -0.324 N 
ATOM     20  C   UNL A   1      37.620  20.634  24.667  1.00  0.00     0.010 C 
ATOM     21  C   UNL A   1      36.974  21.620  25.623  1.00  0.00     0.010 C 
ATOM     22  C   UNL A   1      35.533  21.261  25.965  1.00  0.00     0.125 C 
ATOM     23  C   UNL A   1      36.855  23.083  25.177  1.00  0.00     0.010 C 
ATOM     24  C   UNL A   1      35.859  23.616  26.220  1.00  0.00     0.125 C 
ATOM     25  C   UNL A   1      36.316  23.282  23.756  1.00  0.00     0.010 C 
ENDBRANCH  16  19
ENDBRANCH  10  15
BRANCH  14  26
ATOM     26  O   UNL A   1      33.102  23.823  20.399  1.00  0.00    -0.507 OA
ATOM     27  H   UNL A   1      33.945  23.811  19.990  1.00  0.00     0.293 HD
ENDBRANCH  14  26
ENDBRANCH   6   9
ENDBRANCH   4   5
ENDBRANCH   3   4
ENDBRANCH   2   3
ENDBRANCH   1   2
BRANCH   1  28
ATOM     28  C   UNL A   1      32.901  27.994  25.534  1.00  0.00     0.021 C 
BRANCH  28  29
ATOM     29  C   UNL A   1      33.371  29.329  24.959  1.00  0.00     0.116 C 
BRANCH  29  30
ATOM     30  N   UNL A   1      32.686  30.452  25.580  1.00  0.00    -0.352 N 
ATOM     31  C   UNL A   1      32.945  31.073  26.777  1.00  0.00     0.251 C 
ATOM     32  H   UNL A   1      31.930  30.819  25.069  1.00  0.00     0.163 HD
ATOM     33  O   UNL A   1      32.121  31.842  27.260  1.00  0.00    -0.269 OA
BRANCH  31  34
ATOM     34  C   UNL A   1      34.216  30.809  27.485  1.00  0.00     0.039 A 
ATOM     35  C   UNL A   1      35.157  31.836  27.602  1.00  0.00     0.014 A 
ATOM     36  C   UNL A   1      34.492  29.542  28.008  1.00  0.00     0.014 A 
ATOM     37  C   UNL A   1      36.353  31.606  28.285  1.00  0.00     0.010 A 
ATOM     38  C   UNL A   1      35.656  29.333  28.744  1.00  0.00     0.010 A 
ATOM     39  C   UNL A   1      36.603  30.360  28.883  1.00  0.00    -0.014 A 
BRANCH  39  40
ATOM     40  C   UNL A   1      37.846  30.108  29.656  1.00  0.00     0.031 A 
ATOM     41  C   UNL A   1      38.899  29.179  29.112  1.00  0.00     0.074 A 
ATOM     42  C   UNL A   1      37.990  30.649  30.881  1.00  0.00     0.049 A 
ATOM     43  N   UNL A   1      40.013  28.778  29.669  1.00  0.00    -0.248 NA
ATOM     44  C   UNL A   1      38.659  28.604  27.777  1.00  0.00     0.031 C 
ATOM     45  C   UNL A   1      37.007  31.507  31.548  1.00  0.00     0.029 A 
ATOM     46  N   UNL A   1      39.004  30.535  31.799  1.00  0.00    -0.354 N 
ATOM     47  C   UNL A   1      40.589  27.887  28.772  1.00  0.00     0.074 A 
ATOM     48  C   UNL A   1      39.686  27.776  27.648  1.00  0.00     0.031 C 
ATOM     49  C   UNL A   1      37.466  31.839  32.766  1.00  0.00     0.029 A 
ATOM     50  C   UNL A   1      38.760  31.198  32.979  1.00  0.00     0.049 A 
ATOM     51  H   UNL A   1      39.828  30.025  31.629  1.00  0.00     0.167 HD
ATOM     52  C   UNL A   1      41.777  27.243  28.860  1.00  0.00     0.034 A 
ATOM     53  C   UNL A   1      39.492  31.277  34.107  1.00  0.00     0.034 A 
ATOM     54  C   UNL A   1      42.695  27.392  29.957  1.00  0.00     0.049 A 
ATOM     55  C   UNL A   1      40.827  30.582  34.159  1.00  0.00     0.074 A 
ATOM     56  C   UNL A   1      43.954  26.839  30.107  1.00  0.00     0.029 A 
ATOM     57  N   UNL A   1      42.456  28.153  31.090  1.00  0.00    -0.354 N 
ATOM     58  N   UNL A   1      41.420  29.863  33.237  1.00  0.00    -0.248 NA
ATOM     59  C   UNL A   1      41.612  30.742  35.392  1.00  0.00     0.031 C 
ATOM     60  C   UNL A   1      44.473  27.257  31.337  1.00  0.00     0.029 A 
ATOM     61  C   UNL A   1      43.543  28.085  31.944  1.00  0.00     0.049 A 
ATOM     62  H   UNL A   1      41.633  28.667  31.263  1.00  0.00     0.167 HD
ATOM     63  C   UNL A   1      42.661  29.519  33.762  1.00  0.00     0.074 A 
ATOM     64  C   UNL A   1      42.744  30.128  35.073  1.00  0.00     0.031 C 
ATOM     65  C   UNL A   1      43.637  28.752  33.216  1.00  0.00     0.034 A 
BRANCH  52  66
ATOM     66  C   UNL A   1      42.193  26.369  27.705  1.00  0.00     0.023 A 
ATOM     67  C   UNL A   1      43.051  26.896  26.719  1.00  0.00     0.012 A 
ATOM     68  C   UNL A   1      41.805  25.018  27.636  1.00  0.00     0.148 A 
ATOM     69  C   UNL A   1      43.497  26.098  25.665  1.00  0.00     0.002 A 
ATOM     70  C   UNL A   1      42.288  24.217  26.605  1.00  0.00     0.091 A 
ATOM     71  F   UNL A   1      40.974  24.541  28.574  1.00  0.00    -0.205 F 
ATOM     72  C   UNL A   1      43.125  24.759  25.615  1.00  0.00     0.022 A 
BRANCH  70  73
ATOM     73  S   UNL A   1      41.931  22.460  26.488  1.00  0.00     0.127 S 
ATOM     74  O   UNL A   1      40.480  22.465  26.314  1.00  0.00    -0.237 OA
ATOM     75  O   UNL A   1      42.688  22.072  25.299  1.00  0.00    -0.237 OA
ATOM     76  O   UNL A   1      42.406  21.870  27.734  1.00  0.00    -0.744 OA
ENDBRANCH  70  73
ENDBRANCH  52  66
BRANCH  53  77
ATOM     77  C   UNL A   1      39.015  32.095  35.258  1.00  0.00     0.023 A 
ATOM     78  C   UNL A   1      39.134  33.498  35.204  1.00  0.00     0.012 A 
ATOM     79  C   UNL A   1      38.442  31.500  36.398  1.00  0.00     0.148 A 
ATOM     80  C   UNL A   1      38.732  34.290  36.280  1.00  0.00     0.002 A 
ATOM     81  C   UNL A   1      37.990  32.299  37.444  1.00  0.00     0.091 A 
ATOM     82  F   UNL A   1      38.350  30.164  36.442  1.00  0.00    -0.205 F 
ATOM     83  C   UNL A   1      38.151  33.692  37.395  1.00  0.00     0.022 A 
BRANCH  81  84
ATOM     84  S   UNL A   1      37.112  31.614  38.853  1.00  0.00     0.127 S 
ATOM     85  O   UNL A   1      36.876  30.239  38.421  1.00  0.00    -0.237 OA
ATOM     86  O   UNL A   1      38.090  31.763  39.930  1.00  0.00    -0.237 OA
ATOM     87  O   UNL A   1      35.925  32.447  39.009  1.00  0.00    -0.744 OA
ENDBRANCH  81  84
ENDBRANCH  53  77
BRANCH  65  88
ATOM     88  C   UNL A   1      44.900  28.559  34.013  1.00  0.00     0.023 A 
ATOM     89  C   UNL A   1      45.966  29.467  33.864  1.00  0.00     0.012 A 
ATOM     90  C   UNL A   1      44.998  27.523  34.963  1.00  0.00     0.148 A 
ATOM     91  C   UNL A   1      47.125  29.329  34.626  1.00  0.00     0.002 A 
ATOM     92  C   UNL A   1      46.137  27.420  35.753  1.00  0.00     0.091 A 
ATOM     93  F   UNL A   1      43.979  26.659  35.075  1.00  0.00    -0.205 F 
ATOM     94  C   UNL A   1      47.205  28.315  35.577  1.00  0.00     0.022 A 
BRANCH  92  95
ATOM     95  S   UNL A   1      46.289  26.205  37.066  1.00  0.00     0.127 S 
ATOM     96  O   UNL A   1      47.707  26.309  37.405  1.00  0.00    -0.237 OA
ATOM     97  O   UNL A   1      45.378  26.730  38.084  1.00  0.00    -0.237 OA
ATOM     98  O   UNL A   1      45.876  24.934  36.485  1.00  0.00    -0.744 OA
ENDBRANCH  92  95
ENDBRANCH  65  88
ENDBRANCH  39  40
ENDBRANCH  31  34
ENDBRANCH  29  30
ENDBRANCH  28  29
ENDBRANCH   1  28
TORSDOF 19
ENDMDL
