MODEL 1
REMARK VINA RESULT:     -11.0      0.000      0.000
REMARK SMILES CC[C@H]1CC(=O)N(CCn2cc(C(=O)NCCCCCCNC(=O)c3ccc(-c4c5nc(c(-c6cccc(S(=O)(=O)[O-])c6F)c6ccc([nH]6)c(-c6cccc(S(=O)(=O)[O-])c6F)c6nc(c(-c7cccc(S(=O)(=O)[O-])c7F)c7ccc4[nH]7)C=C6)C=C5)cc3)nn2)C1
REMARK SMILES IDX 18 1 17 2 16 3 15 4 13 5 14 6 12 8 10 9 11 10 89 11 88 12
REMARK SMILES IDX 9 13 8 14 7 15 3 16 4 17 90 18 5 19 6 20 2 21 1 22 19 23
REMARK SMILES IDX 20 24 21 25 22 26 23 27 24 29 25 30 26 31 87 32 27 33 86 34
REMARK SMILES IDX 28 35 29 36 30 37 80 38 31 39 85 40 79 41 81 42 32 43 84 44
REMARK SMILES IDX 78 45 77 46 33 48 65 49 45 50 64 51 46 52 49 53 63 54 82 55
REMARK SMILES IDX 47 56 48 57 62 59 83 60 50 61 34 62 35 63 43 64 36 65 38 66
REMARK SMILES IDX 44 67 37 68 39 69 40 70 41 71 42 72 66 73 67 74 75 75 68 76
REMARK SMILES IDX 70 77 76 78 69 79 71 80 72 81 73 82 74 83 51 84 52 85 60 86
REMARK SMILES IDX 53 87 55 88 61 89 54 90 56 91 57 92 58 93 59 94
REMARK H PARENT 15 7 22 28 81 47 49 58
REMARK Flexibility Score: inf
ROOT
ATOM      1  C   UNL A   1      36.872  22.348  25.960  1.00  0.00     0.002 C 
ENDROOT
BRANCH   1   2
ATOM      2  C   UNL A   1      36.327  23.757  25.692  1.00  0.00     0.021 C 
BRANCH   2   3
ATOM      3  C   UNL A   1      35.824  23.949  24.265  1.00  0.00     0.116 C 
BRANCH   3   4
ATOM      4  N   UNL A   1      34.638  23.150  24.027  1.00  0.00    -0.351 N 
ATOM      5  C   UNL A   1      33.464  23.494  23.398  1.00  0.00     0.273 C 
ATOM      6  O   UNL A   1      32.634  22.606  23.194  1.00  0.00    -0.267 OA
ATOM      7  H   UNL A   1      34.679  22.226  24.363  1.00  0.00     0.163 HD
BRANCH   5   8
ATOM      8  C   UNL A   1      33.281  24.860  22.935  1.00  0.00     0.170 A 
ATOM      9  N   UNL A   1      32.923  26.987  22.721  1.00  0.00    -0.250 N 
ATOM     10  C   UNL A   1      32.748  25.953  23.592  1.00  0.00     0.145 A 
ATOM     11  N   UNL A   1      33.524  26.570  21.591  1.00  0.00    -0.067 NA
ATOM     12  N   UNL A   1      33.681  25.257  21.680  1.00  0.00    -0.125 NA
BRANCH   9  13
ATOM     13  C   UNL A   1      32.576  28.381  22.919  1.00  0.00     0.167 C 
BRANCH  13  14
ATOM     14  C   UNL A   1      31.635  28.650  24.100  1.00  0.00     0.143 C 
BRANCH  14  15
ATOM     15  N   UNL A   1      30.282  29.025  23.709  1.00  0.00    -0.341 N 
ATOM     16  C   UNL A   1      28.337  30.303  23.489  1.00  0.00     0.017 C 
ATOM     17  C   UNL A   1      28.150  28.974  22.749  1.00  0.00     0.105 C 
ATOM     18  C   UNL A   1      29.850  30.395  23.628  1.00  0.00     0.123 C 
ATOM     19  C   UNL A   1      29.314  28.142  23.252  1.00  0.00     0.222 C 
ATOM     20  O   UNL A   1      29.394  26.934  23.222  1.00  0.00    -0.275 OA
BRANCH  16  21
ATOM     21  C   UNL A   1      27.768  31.593  22.881  1.00  0.00     0.002 C 
ATOM     22  C   UNL A   1      28.546  32.197  21.729  1.00  0.00     0.004 C 
ENDBRANCH  16  21
ENDBRANCH  14  15
ENDBRANCH  13  14
ENDBRANCH   9  13
ENDBRANCH   5   8
ENDBRANCH   3   4
ENDBRANCH   2   3
ENDBRANCH   1   2
BRANCH   1  23
ATOM     23  C   UNL A   1      38.402  22.214  25.901  1.00  0.00     0.002 C 
BRANCH  23  24
ATOM     24  C   UNL A   1      38.937  20.898  25.317  1.00  0.00     0.021 C 
BRANCH  24  25
ATOM     25  C   UNL A   1      39.406  19.912  26.376  1.00  0.00     0.116 C 
BRANCH  25  26
ATOM     26  N   UNL A   1      40.607  19.198  25.952  1.00  0.00    -0.352 N 
ATOM     27  C   UNL A   1      41.873  19.706  25.764  1.00  0.00     0.251 C 
ATOM     28  H   UNL A   1      40.498  18.235  25.779  1.00  0.00     0.163 HD
ATOM     29  O   UNL A   1      42.679  19.120  25.047  1.00  0.00    -0.269 OA
BRANCH  27  30
ATOM     30  C   UNL A   1      42.244  20.961  26.438  1.00  0.00     0.039 A 
ATOM     31  C   UNL A   1      42.549  22.100  25.691  1.00  0.00     0.014 A 
ATOM     32  C   UNL A   1      42.265  20.992  27.834  1.00  0.00     0.014 A 
ATOM     33  C   UNL A   1      42.797  23.290  26.366  1.00  0.00     0.010 A 
ATOM     34  C   UNL A   1      42.385  22.195  28.493  1.00  0.00     0.010 A 
ATOM     35  C   UNL A   1      42.679  23.342  27.768  1.00  0.00    -0.014 A 
BRANCH  35  36
ATOM     36  C   UNL A   1      42.638  24.644  28.437  1.00  0.00     0.031 A 
ATOM     37  C   UNL A   1      41.390  25.385  28.112  1.00  0.00     0.074 A 
ATOM     38  C   UNL A   1      43.511  25.057  29.386  1.00  0.00     0.049 A 
ATOM     39  N   UNL A   1      41.264  26.368  27.283  1.00  0.00    -0.248 NA
ATOM     40  C   UNL A   1      40.099  24.834  28.568  1.00  0.00     0.031 C 
ATOM     41  C   UNL A   1      44.564  24.250  30.016  1.00  0.00     0.029 A 
ATOM     42  N   UNL A   1      43.576  26.228  30.092  1.00  0.00    -0.354 N 
ATOM     43  C   UNL A   1      39.940  26.778  27.425  1.00  0.00     0.074 A 
ATOM     44  C   UNL A   1      39.231  25.652  27.964  1.00  0.00     0.031 C 
ATOM     45  C   UNL A   1      44.962  24.840  31.164  1.00  0.00     0.029 A 
ATOM     46  C   UNL A   1      44.334  26.143  31.263  1.00  0.00     0.049 A 
ATOM     47  H   UNL A   1      43.129  27.055  29.802  1.00  0.00     0.167 HD
ATOM     48  C   UNL A   1      39.666  28.109  27.514  1.00  0.00     0.034 A 
ATOM     49  C   UNL A   1      44.424  27.061  32.259  1.00  0.00     0.034 A 
ATOM     50  C   UNL A   1      40.809  28.885  27.101  1.00  0.00     0.049 A 
ATOM     51  C   UNL A   1      44.052  28.369  31.688  1.00  0.00     0.074 A 
ATOM     52  C   UNL A   1      41.469  29.200  25.935  1.00  0.00     0.029 A 
ATOM     53  N   UNL A   1      41.670  29.122  28.136  1.00  0.00    -0.354 N 
ATOM     54  N   UNL A   1      44.774  28.983  30.793  1.00  0.00    -0.248 NA
ATOM     55  C   UNL A   1      42.693  28.867  31.862  1.00  0.00     0.031 C 
ATOM     56  C   UNL A   1      42.793  29.577  26.316  1.00  0.00     0.029 A 
ATOM     57  C   UNL A   1      42.892  29.537  27.703  1.00  0.00     0.049 A 
ATOM     58  H   UNL A   1      41.433  29.006  29.085  1.00  0.00     0.167 HD
ATOM     59  C   UNL A   1      43.830  29.585  29.985  1.00  0.00     0.074 A 
ATOM     60  C   UNL A   1      42.615  29.654  30.786  1.00  0.00     0.031 C 
ATOM     61  C   UNL A   1      43.994  29.615  28.634  1.00  0.00     0.034 A 
BRANCH  48  62
ATOM     62  C   UNL A   1      38.665  28.737  28.479  1.00  0.00     0.023 A 
ATOM     63  C   UNL A   1      37.798  29.720  27.945  1.00  0.00     0.012 A 
ATOM     64  C   UNL A   1      38.736  28.661  29.890  1.00  0.00     0.148 A 
ATOM     65  C   UNL A   1      37.078  30.597  28.765  1.00  0.00     0.002 A 
ATOM     66  C   UNL A   1      37.962  29.483  30.702  1.00  0.00     0.091 A 
ATOM     67  F   UNL A   1      39.654  27.893  30.478  1.00  0.00    -0.205 F 
ATOM     68  C   UNL A   1      37.152  30.474  30.146  1.00  0.00     0.022 A 
BRANCH  66  69
ATOM     69  S   UNL A   1      38.003  29.344  32.496  1.00  0.00     0.127 S 
ATOM     70  O   UNL A   1      39.384  29.713  32.783  1.00  0.00    -0.237 OA
ATOM     71  O   UNL A   1      36.996  30.330  32.887  1.00  0.00    -0.237 OA
ATOM     72  O   UNL A   1      37.635  27.964  32.794  1.00  0.00    -0.744 OA
ENDBRANCH  66  69
ENDBRANCH  48  62
BRANCH  49  73
ATOM     73  C   UNL A   1      44.650  26.910  33.718  1.00  0.00     0.023 A 
ATOM     74  C   UNL A   1      45.789  27.494  34.313  1.00  0.00     0.012 A 
ATOM     75  C   UNL A   1      43.604  26.485  34.563  1.00  0.00     0.148 A 
ATOM     76  C   UNL A   1      45.857  27.704  35.697  1.00  0.00     0.002 A 
ATOM     77  C   UNL A   1      43.675  26.697  35.939  1.00  0.00     0.091 A 
ATOM     78  F   UNL A   1      42.504  25.957  34.009  1.00  0.00    -0.205 F 
ATOM     79  C   UNL A   1      44.793  27.321  36.507  1.00  0.00     0.022 A 
BRANCH  77  80
ATOM     80  S   UNL A   1      42.326  26.263  37.047  1.00  0.00     0.127 S 
ATOM     81  O   UNL A   1      42.097  24.858  36.708  1.00  0.00    -0.237 OA
ATOM     82  O   UNL A   1      42.926  26.486  38.359  1.00  0.00    -0.237 OA
ATOM     83  O   UNL A   1      41.222  27.151  36.700  1.00  0.00    -0.744 OA
ENDBRANCH  77  80
ENDBRANCH  49  73
BRANCH  61  84
ATOM     84  C   UNL A   1      45.387  29.618  28.095  1.00  0.00     0.023 A 
ATOM     85  C   UNL A   1      46.207  30.759  28.033  1.00  0.00     0.012 A 
ATOM     86  C   UNL A   1      45.903  28.375  27.699  1.00  0.00     0.148 A 
ATOM     87  C   UNL A   1      47.522  30.655  27.569  1.00  0.00     0.002 A 
ATOM     88  C   UNL A   1      47.218  28.268  27.280  1.00  0.00     0.091 A 
ATOM     89  F   UNL A   1      45.090  27.309  27.748  1.00  0.00    -0.205 F 
ATOM     90  C   UNL A   1      48.032  29.408  27.204  1.00  0.00     0.022 A 
BRANCH  88  91
ATOM     91  S   UNL A   1      47.938  26.672  26.898  1.00  0.00     0.127 S 
ATOM     92  O   UNL A   1      47.168  26.263  25.726  1.00  0.00    -0.237 OA
ATOM     93  O   UNL A   1      49.334  27.018  26.627  1.00  0.00    -0.237 OA
ATOM     94  O   UNL A   1      47.752  25.851  28.088  1.00  0.00    -0.744 OA
ENDBRANCH  88  91
ENDBRANCH  61  84
ENDBRANCH  35  36
ENDBRANCH  27  30
ENDBRANCH  25  26
ENDBRANCH  24  25
ENDBRANCH  23  24
ENDBRANCH   1  23
TORSDOF 20
ENDMDL
MODEL 2
REMARK VINA RESULT:     -10.5      1.670      2.349
REMARK SMILES CC[C@H]1CC(=O)N(CCn2cc(C(=O)NCCCCCCNC(=O)c3ccc(-c4c5nc(c(-c6cccc(S(=O)(=O)[O-])c6F)c6ccc([nH]6)c(-c6cccc(S(=O)(=O)[O-])c6F)c6nc(c(-c7cccc(S(=O)(=O)[O-])c7F)c7ccc4[nH]7)C=C6)C=C5)cc3)nn2)C1
REMARK SMILES IDX 18 1 17 2 16 3 15 4 13 5 14 6 12 8 10 9 11 10 89 11 88 12
REMARK SMILES IDX 9 13 8 14 7 15 3 16 4 17 90 18 5 19 6 20 2 21 1 22 19 23
REMARK SMILES IDX 20 24 21 25 22 26 23 27 24 29 25 30 26 31 87 32 27 33 86 34
REMARK SMILES IDX 28 35 29 36 30 37 80 38 31 39 85 40 79 41 81 42 32 43 84 44
REMARK SMILES IDX 78 45 77 46 33 48 65 49 45 50 64 51 46 52 49 53 63 54 82 55
REMARK SMILES IDX 47 56 48 57 62 59 83 60 50 61 34 62 35 63 43 64 36 65 38 66
REMARK SMILES IDX 44 67 37 68 39 69 40 70 41 71 42 72 66 73 67 74 75 75 68 76
REMARK SMILES IDX 70 77 76 78 69 79 71 80 72 81 73 82 74 83 51 84 52 85 60 86
REMARK SMILES IDX 53 87 55 88 61 89 54 90 56 91 57 92 58 93 59 94
REMARK H PARENT 15 7 22 28 81 47 49 58
REMARK Flexibility Score: inf
ROOT
ATOM      1  C   UNL A   1      36.336  21.261  24.323  1.00  0.00     0.002 C 
ENDROOT
BRANCH   1   2
ATOM      2  C   UNL A   1      35.633  22.610  24.126  1.00  0.00     0.021 C 
BRANCH   2   3
ATOM      3  C   UNL A   1      34.263  22.681  24.793  1.00  0.00     0.116 C 
BRANCH   3   4
ATOM      4  N   UNL A   1      34.363  22.369  26.205  1.00  0.00    -0.351 N 
ATOM      5  C   UNL A   1      33.490  22.661  27.228  1.00  0.00     0.273 C 
ATOM      6  O   UNL A   1      33.720  22.180  28.339  1.00  0.00    -0.267 OA
ATOM      7  H   UNL A   1      35.171  21.875  26.471  1.00  0.00     0.163 HD
BRANCH   5   8
ATOM      8  C   UNL A   1      32.305  23.453  26.945  1.00  0.00     0.170 A 
ATOM      9  N   UNL A   1      30.845  24.891  26.238  1.00  0.00    -0.250 N 
ATOM     10  C   UNL A   1      32.190  24.682  26.325  1.00  0.00     0.145 A 
ATOM     11  N   UNL A   1      30.162  23.861  26.772  1.00  0.00    -0.067 NA
ATOM     12  N   UNL A   1      31.045  23.010  27.273  1.00  0.00    -0.125 NA
BRANCH   9  13
ATOM     13  C   UNL A   1      30.161  26.018  25.635  1.00  0.00     0.167 C 
BRANCH  13  14
ATOM     14  C   UNL A   1      30.840  26.593  24.386  1.00  0.00     0.143 C 
BRANCH  14  15
ATOM     15  N   UNL A   1      31.992  27.440  24.671  1.00  0.00    -0.341 N 
ATOM     16  C   UNL A   1      33.274  29.160  25.599  1.00  0.00     0.017 C 
ATOM     17  C   UNL A   1      34.163  28.307  24.687  1.00  0.00     0.105 C 
ATOM     18  C   UNL A   1      32.092  28.239  25.863  1.00  0.00     0.123 C 
ATOM     19  C   UNL A   1      33.157  27.475  23.917  1.00  0.00     0.222 C 
ATOM     20  O   UNL A   1      33.351  26.916  22.860  1.00  0.00    -0.275 OA
BRANCH  16  21
ATOM     21  C   UNL A   1      33.844  29.704  26.916  1.00  0.00     0.002 C 
ATOM     22  C   UNL A   1      33.338  31.062  27.361  1.00  0.00     0.004 C 
ENDBRANCH  16  21
ENDBRANCH  14  15
ENDBRANCH  13  14
ENDBRANCH   9  13
ENDBRANCH   5   8
ENDBRANCH   3   4
ENDBRANCH   2   3
ENDBRANCH   1   2
BRANCH   1  23
ATOM     23  C   UNL A   1      37.711  21.330  25.006  1.00  0.00     0.002 C 
BRANCH  23  24
ATOM     24  C   UNL A   1      38.519  20.024  25.020  1.00  0.00     0.021 C 
BRANCH  24  25
ATOM     25  C   UNL A   1      39.480  19.918  26.195  1.00  0.00     0.116 C 
BRANCH  25  26
ATOM     26  N   UNL A   1      40.701  19.207  25.828  1.00  0.00    -0.352 N 
ATOM     27  C   UNL A   1      41.980  19.708  25.739  1.00  0.00     0.251 C 
ATOM     28  H   UNL A   1      40.596  18.250  25.619  1.00  0.00     0.163 HD
ATOM     29  O   UNL A   1      42.826  19.136  25.059  1.00  0.00    -0.269 OA
BRANCH  27  30
ATOM     30  C   UNL A   1      42.315  20.938  26.475  1.00  0.00     0.039 A 
ATOM     31  C   UNL A   1      42.871  22.030  25.807  1.00  0.00     0.014 A 
ATOM     32  C   UNL A   1      42.050  20.995  27.844  1.00  0.00     0.014 A 
ATOM     33  C   UNL A   1      43.081  23.207  26.517  1.00  0.00     0.010 A 
ATOM     34  C   UNL A   1      42.139  22.195  28.514  1.00  0.00     0.010 A 
ATOM     35  C   UNL A   1      42.680  23.297  27.865  1.00  0.00    -0.014 A 
BRANCH  35  36
ATOM     36  C   UNL A   1      42.620  24.610  28.509  1.00  0.00     0.031 A 
ATOM     37  C   UNL A   1      41.365  25.330  28.163  1.00  0.00     0.074 A 
ATOM     38  C   UNL A   1      43.482  25.050  29.455  1.00  0.00     0.049 A 
ATOM     39  N   UNL A   1      41.233  26.297  27.315  1.00  0.00    -0.248 NA
ATOM     40  C   UNL A   1      40.078  24.773  28.621  1.00  0.00     0.031 C 
ATOM     41  C   UNL A   1      44.540  24.268  30.107  1.00  0.00     0.029 A 
ATOM     42  N   UNL A   1      43.529  26.235  30.141  1.00  0.00    -0.354 N 
ATOM     43  C   UNL A   1      39.904  26.693  27.441  1.00  0.00     0.074 A 
ATOM     44  C   UNL A   1      39.205  25.569  27.997  1.00  0.00     0.031 C 
ATOM     45  C   UNL A   1      44.924  24.884  31.246  1.00  0.00     0.029 A 
ATOM     46  C   UNL A   1      44.280  26.181  31.317  1.00  0.00     0.049 A 
ATOM     47  H   UNL A   1      43.074  27.051  29.832  1.00  0.00     0.167 HD
ATOM     48  C   UNL A   1      39.614  28.023  27.504  1.00  0.00     0.034 A 
ATOM     49  C   UNL A   1      44.354  27.118  32.297  1.00  0.00     0.034 A 
ATOM     50  C   UNL A   1      40.751  28.804  27.084  1.00  0.00     0.049 A 
ATOM     51  C   UNL A   1      43.970  28.411  31.699  1.00  0.00     0.074 A 
ATOM     52  C   UNL A   1      41.414  29.106  25.917  1.00  0.00     0.029 A 
ATOM     53  N   UNL A   1      41.602  29.070  28.120  1.00  0.00    -0.354 N 
ATOM     54  N   UNL A   1      44.690  29.017  30.797  1.00  0.00    -0.248 NA
ATOM     55  C   UNL A   1      42.604  28.896  31.856  1.00  0.00     0.031 C 
ATOM     56  C   UNL A   1      42.731  29.505  26.298  1.00  0.00     0.029 A 
ATOM     57  C   UNL A   1      42.822  29.492  27.687  1.00  0.00     0.049 A 
ATOM     58  H   UNL A   1      41.360  28.969  29.069  1.00  0.00     0.167 HD
ATOM     59  C   UNL A   1      43.745  29.592  29.973  1.00  0.00     0.074 A 
ATOM     60  C   UNL A   1      42.523  29.662  30.765  1.00  0.00     0.031 C 
ATOM     61  C   UNL A   1      43.917  29.600  28.623  1.00  0.00     0.034 A 
BRANCH  48  62
ATOM     62  C   UNL A   1      38.600  28.656  28.451  1.00  0.00     0.023 A 
ATOM     63  C   UNL A   1      37.751  29.648  27.904  1.00  0.00     0.012 A 
ATOM     64  C   UNL A   1      38.642  28.576  29.863  1.00  0.00     0.148 A 
ATOM     65  C   UNL A   1      37.023  30.529  28.712  1.00  0.00     0.002 A 
ATOM     66  C   UNL A   1      37.859  29.402  30.662  1.00  0.00     0.091 A 
ATOM     67  F   UNL A   1      39.541  27.799  30.466  1.00  0.00    -0.205 F 
ATOM     68  C   UNL A   1      37.069  30.402  30.094  1.00  0.00     0.022 A 
BRANCH  66  69
ATOM     69  S   UNL A   1      37.864  29.258  32.456  1.00  0.00     0.127 S 
ATOM     70  O   UNL A   1      37.724  27.816  32.631  1.00  0.00    -0.237 OA
ATOM     71  O   UNL A   1      39.180  29.804  32.788  1.00  0.00    -0.237 OA
ATOM     72  O   UNL A   1      36.746  30.070  32.921  1.00  0.00    -0.744 OA
ENDBRANCH  66  69
ENDBRANCH  48  62
BRANCH  49  73
ATOM     73  C   UNL A   1      44.572  26.997  33.760  1.00  0.00     0.023 A 
ATOM     74  C   UNL A   1      45.697  27.610  34.352  1.00  0.00     0.012 A 
ATOM     75  C   UNL A   1      43.527  26.568  34.606  1.00  0.00     0.148 A 
ATOM     76  C   UNL A   1      45.752  27.845  35.732  1.00  0.00     0.002 A 
ATOM     77  C   UNL A   1      43.585  26.805  35.977  1.00  0.00     0.091 A 
ATOM     78  F   UNL A   1      42.441  26.012  34.054  1.00  0.00    -0.205 F 
ATOM     79  C   UNL A   1      44.688  27.458  36.542  1.00  0.00     0.022 A 
BRANCH  77  80
ATOM     80  S   UNL A   1      42.236  26.368  37.084  1.00  0.00     0.127 S 
ATOM     81  O   UNL A   1      42.885  26.441  38.393  1.00  0.00    -0.237 OA
ATOM     82  O   UNL A   1      41.269  27.429  36.819  1.00  0.00    -0.237 OA
ATOM     83  O   UNL A   1      41.819  25.026  36.696  1.00  0.00    -0.744 OA
ENDBRANCH  77  80
ENDBRANCH  49  73
BRANCH  61  84
ATOM     84  C   UNL A   1      45.313  29.609  28.092  1.00  0.00     0.023 A 
ATOM     85  C   UNL A   1      46.139  30.748  28.062  1.00  0.00     0.012 A 
ATOM     86  C   UNL A   1      45.826  28.373  27.671  1.00  0.00     0.148 A 
ATOM     87  C   UNL A   1      47.455  30.649  27.603  1.00  0.00     0.002 A 
ATOM     88  C   UNL A   1      47.144  28.270  27.258  1.00  0.00     0.091 A 
ATOM     89  F   UNL A   1      45.009  27.310  27.691  1.00  0.00    -0.205 F 
ATOM     90  C   UNL A   1      47.962  29.408  27.213  1.00  0.00     0.022 A 
BRANCH  88  91
ATOM     91  S   UNL A   1      47.860  26.680  26.844  1.00  0.00     0.127 S 
ATOM     92  O   UNL A   1      47.107  26.309  25.648  1.00  0.00    -0.237 OA
ATOM     93  O   UNL A   1      49.262  27.024  26.605  1.00  0.00    -0.237 OA
ATOM     94  O   UNL A   1      47.648  25.828  28.008  1.00  0.00    -0.744 OA
ENDBRANCH  88  91
ENDBRANCH  61  84
ENDBRANCH  35  36
ENDBRANCH  27  30
ENDBRANCH  25  26
ENDBRANCH  24  25
ENDBRANCH  23  24
ENDBRANCH   1  23
TORSDOF 20
ENDMDL
MODEL 3
REMARK VINA RESULT:      -9.4      1.991      2.699
REMARK SMILES CC[C@H]1CC(=O)N(CCn2cc(C(=O)NCCCCCCNC(=O)c3ccc(-c4c5nc(c(-c6cccc(S(=O)(=O)[O-])c6F)c6ccc([nH]6)c(-c6cccc(S(=O)(=O)[O-])c6F)c6nc(c(-c7cccc(S(=O)(=O)[O-])c7F)c7ccc4[nH]7)C=C6)C=C5)cc3)nn2)C1
REMARK SMILES IDX 18 1 17 2 16 3 15 4 13 5 14 6 12 8 10 9 11 10 89 11 88 12
REMARK SMILES IDX 9 13 8 14 7 15 3 16 4 17 90 18 5 19 6 20 2 21 1 22 19 23
REMARK SMILES IDX 20 24 21 25 22 26 23 27 24 29 25 30 26 31 87 32 27 33 86 34
REMARK SMILES IDX 28 35 29 36 30 37 80 38 31 39 85 40 79 41 81 42 32 43 84 44
REMARK SMILES IDX 78 45 77 46 33 48 65 49 45 50 64 51 46 52 49 53 63 54 82 55
REMARK SMILES IDX 47 56 48 57 62 59 83 60 50 61 34 62 35 63 43 64 36 65 38 66
REMARK SMILES IDX 44 67 37 68 39 69 40 70 41 71 42 72 66 73 67 74 75 75 68 76
REMARK SMILES IDX 70 77 76 78 69 79 71 80 72 81 73 82 74 83 51 84 52 85 60 86
REMARK SMILES IDX 53 87 55 88 61 89 54 90 56 91 57 92 58 93 59 94
REMARK H PARENT 15 7 22 28 81 47 49 58
REMARK Flexibility Score: inf
ROOT
ATOM      1  C   UNL A   1      36.213  21.321  24.122  1.00  0.00     0.002 C 
ENDROOT
BRANCH   1   2
ATOM      2  C   UNL A   1      35.424  22.632  24.019  1.00  0.00     0.021 C 
BRANCH   2   3
ATOM      3  C   UNL A   1      33.997  22.523  24.547  1.00  0.00     0.116 C 
BRANCH   3   4
ATOM      4  N   UNL A   1      33.990  22.026  25.908  1.00  0.00    -0.351 N 
ATOM      5  C   UNL A   1      33.199  22.399  26.971  1.00  0.00     0.273 C 
ATOM      6  O   UNL A   1      33.282  21.744  28.011  1.00  0.00    -0.267 OA
ATOM      7  H   UNL A   1      34.645  21.318  26.101  1.00  0.00     0.163 HD
BRANCH   5   8
ATOM      8  C   UNL A   1      32.254  23.490  26.802  1.00  0.00     0.170 A 
ATOM      9  N   UNL A   1      31.252  25.393  26.528  1.00  0.00    -0.250 N 
ATOM     10  C   UNL A   1      32.459  24.856  26.865  1.00  0.00     0.145 A 
ATOM     11  N   UNL A   1      30.348  24.427  26.273  1.00  0.00    -0.067 NA
ATOM     12  N   UNL A   1      30.930  23.261  26.509  1.00  0.00    -0.125 NA
BRANCH   9  13
ATOM     13  C   UNL A   1      30.912  26.796  26.399  1.00  0.00     0.167 C 
BRANCH  13  14
ATOM     14  C   UNL A   1      31.984  27.661  25.724  1.00  0.00     0.143 C 
BRANCH  14  15
ATOM     15  N   UNL A   1      32.107  27.443  24.288  1.00  0.00    -0.341 N 
ATOM     16  C   UNL A   1      32.838  26.538  22.261  1.00  0.00     0.017 C 
ATOM     17  C   UNL A   1      31.776  27.606  21.979  1.00  0.00     0.105 C 
ATOM     18  C   UNL A   1      32.600  26.213  23.729  1.00  0.00     0.123 C 
ATOM     19  C   UNL A   1      31.652  28.319  23.311  1.00  0.00     0.222 C 
ATOM     20  O   UNL A   1      31.204  29.430  23.488  1.00  0.00    -0.275 OA
BRANCH  16  21
ATOM     21  C   UNL A   1      32.863  25.255  21.418  1.00  0.00     0.002 C 
ATOM     22  C   UNL A   1      32.415  25.386  19.975  1.00  0.00     0.004 C 
ENDBRANCH  16  21
ENDBRANCH  14  15
ENDBRANCH  13  14
ENDBRANCH   9  13
ENDBRANCH   5   8
ENDBRANCH   3   4
ENDBRANCH   2   3
ENDBRANCH   1   2
BRANCH   1  23
ATOM     23  C   UNL A   1      37.524  21.405  24.919  1.00  0.00     0.002 C 
BRANCH  23  24
ATOM     24  C   UNL A   1      38.334  20.104  25.015  1.00  0.00     0.021 C 
BRANCH  24  25
ATOM     25  C   UNL A   1      39.308  20.081  26.184  1.00  0.00     0.116 C 
BRANCH  25  26
ATOM     26  N   UNL A   1      40.487  19.272  25.886  1.00  0.00    -0.352 N 
ATOM     27  C   UNL A   1      41.795  19.688  25.778  1.00  0.00     0.251 C 
ATOM     28  H   UNL A   1      40.325  18.311  25.745  1.00  0.00     0.163 HD
ATOM     29  O   UNL A   1      42.611  19.018  25.153  1.00  0.00    -0.269 OA
BRANCH  27  30
ATOM     30  C   UNL A   1      42.198  20.945  26.428  1.00  0.00     0.039 A 
ATOM     31  C   UNL A   1      42.429  22.091  25.665  1.00  0.00     0.014 A 
ATOM     32  C   UNL A   1      42.325  20.972  27.818  1.00  0.00     0.014 A 
ATOM     33  C   UNL A   1      42.710  23.283  26.323  1.00  0.00     0.010 A 
ATOM     34  C   UNL A   1      42.478  22.175  28.472  1.00  0.00     0.010 A 
ATOM     35  C   UNL A   1      42.699  23.329  27.731  1.00  0.00    -0.014 A 
BRANCH  35  36
ATOM     36  C   UNL A   1      42.691  24.627  28.406  1.00  0.00     0.031 A 
ATOM     37  C   UNL A   1      41.463  25.403  28.082  1.00  0.00     0.074 A 
ATOM     38  C   UNL A   1      43.572  25.012  29.359  1.00  0.00     0.049 A 
ATOM     39  N   UNL A   1      41.365  26.393  27.258  1.00  0.00    -0.248 NA
ATOM     40  C   UNL A   1      40.158  24.884  28.533  1.00  0.00     0.031 C 
ATOM     41  C   UNL A   1      44.602  24.175  29.988  1.00  0.00     0.029 A 
ATOM     42  N   UNL A   1      43.665  26.177  30.072  1.00  0.00    -0.354 N 
ATOM     43  C   UNL A   1      40.052  26.836  27.399  1.00  0.00     0.074 A 
ATOM     44  C   UNL A   1      39.313  25.727  27.931  1.00  0.00     0.031 C 
ATOM     45  C   UNL A   1      45.012  24.748  31.140  1.00  0.00     0.029 A 
ATOM     46  C   UNL A   1      44.418  26.067  31.244  1.00  0.00     0.049 A 
ATOM     47  H   UNL A   1      43.242  27.017  29.785  1.00  0.00     0.167 HD
ATOM     48  C   UNL A   1      39.813  28.174  27.494  1.00  0.00     0.034 A 
ATOM     49  C   UNL A   1      44.530  26.977  32.245  1.00  0.00     0.034 A 
ATOM     50  C   UNL A   1      40.977  28.922  27.088  1.00  0.00     0.049 A 
ATOM     51  C   UNL A   1      44.194  28.298  31.680  1.00  0.00     0.074 A 
ATOM     52  C   UNL A   1      41.648  29.226  25.926  1.00  0.00     0.029 A 
ATOM     53  N   UNL A   1      41.841  29.130  28.126  1.00  0.00    -0.354 N 
ATOM     54  N   UNL A   1      44.933  28.897  30.790  1.00  0.00    -0.248 NA
ATOM     55  C   UNL A   1      42.848  28.830  31.853  1.00  0.00     0.031 C 
ATOM     56  C   UNL A   1      42.980  29.565  26.311  1.00  0.00     0.029 A 
ATOM     57  C   UNL A   1      43.075  29.516  27.698  1.00  0.00     0.049 A 
ATOM     58  H   UNL A   1      41.599  29.016  29.074  1.00  0.00     0.167 HD
ATOM     59  C   UNL A   1      44.008  29.527  29.983  1.00  0.00     0.074 A 
ATOM     60  C   UNL A   1      42.793  29.625  30.782  1.00  0.00     0.031 C 
ATOM     61  C   UNL A   1      44.176  29.560  28.633  1.00  0.00     0.034 A 
BRANCH  48  62
ATOM     62  C   UNL A   1      38.827  28.823  28.460  1.00  0.00     0.023 A 
ATOM     63  C   UNL A   1      37.978  29.821  27.927  1.00  0.00     0.012 A 
ATOM     64  C   UNL A   1      38.898  28.749  29.871  1.00  0.00     0.148 A 
ATOM     65  C   UNL A   1      37.277  30.714  28.746  1.00  0.00     0.002 A 
ATOM     66  C   UNL A   1      38.142  29.586  30.683  1.00  0.00     0.091 A 
ATOM     67  F   UNL A   1      39.802  27.964  30.458  1.00  0.00    -0.205 F 
ATOM     68  C   UNL A   1      37.351  30.592  30.127  1.00  0.00     0.022 A 
BRANCH  66  69
ATOM     69  S   UNL A   1      38.184  29.450  32.477  1.00  0.00     0.127 S 
ATOM     70  O   UNL A   1      39.356  28.604  32.675  1.00  0.00    -0.237 OA
ATOM     71  O   UNL A   1      38.348  30.849  32.871  1.00  0.00    -0.237 OA
ATOM     72  O   UNL A   1      36.903  28.868  32.859  1.00  0.00    -0.744 OA
ENDBRANCH  66  69
ENDBRANCH  48  62
BRANCH  49  73
ATOM     73  C   UNL A   1      44.748  26.813  33.704  1.00  0.00     0.023 A 
ATOM     74  C   UNL A   1      45.912  27.343  34.301  1.00  0.00     0.012 A 
ATOM     75  C   UNL A   1      43.683  26.433  34.548  1.00  0.00     0.148 A 
ATOM     76  C   UNL A   1      45.989  27.547  35.685  1.00  0.00     0.002 A 
ATOM     77  C   UNL A   1      43.763  26.638  35.924  1.00  0.00     0.091 A 
ATOM     78  F   UNL A   1      42.561  25.956  33.992  1.00  0.00    -0.205 F 
ATOM     79  C   UNL A   1      44.907  27.210  36.494  1.00  0.00     0.022 A 
BRANCH  77  80
ATOM     80  S   UNL A   1      42.395  26.263  37.030  1.00  0.00     0.127 S 
ATOM     81  O   UNL A   1      42.173  24.842  36.764  1.00  0.00    -0.237 OA
ATOM     82  O   UNL A   1      42.973  26.558  38.338  1.00  0.00    -0.237 OA
ATOM     83  O   UNL A   1      41.297  27.129  36.617  1.00  0.00    -0.744 OA
ENDBRANCH  77  80
ENDBRANCH  49  73
BRANCH  61  84
ATOM     84  C   UNL A   1      45.570  29.529  28.097  1.00  0.00     0.023 A 
ATOM     85  C   UNL A   1      46.233  28.357  27.689  1.00  0.00     0.012 A 
ATOM     86  C   UNL A   1      46.203  30.771  27.939  1.00  0.00     0.148 A 
ATOM     87  C   UNL A   1      47.518  28.432  27.142  1.00  0.00     0.002 A 
ATOM     88  C   UNL A   1      47.457  30.845  27.357  1.00  0.00     0.091 A 
ATOM     89  F   UNL A   1      45.555  31.869  28.358  1.00  0.00    -0.205 F 
ATOM     90  C   UNL A   1      48.125  29.676  26.964  1.00  0.00     0.022 A 
BRANCH  88  91
ATOM     91  S   UNL A   1      48.228  32.428  27.022  1.00  0.00     0.127 S 
ATOM     92  O   UNL A   1      48.462  32.944  28.368  1.00  0.00    -0.237 OA
ATOM     93  O   UNL A   1      49.437  32.037  26.295  1.00  0.00    -0.237 OA
ATOM     94  O   UNL A   1      47.271  33.179  26.219  1.00  0.00    -0.744 OA
ENDBRANCH  88  91
ENDBRANCH  61  84
ENDBRANCH  35  36
ENDBRANCH  27  30
ENDBRANCH  25  26
ENDBRANCH  24  25
ENDBRANCH  23  24
ENDBRANCH   1  23
TORSDOF 20
ENDMDL
