MODEL 1
REMARK VINA RESULT:      -9.8      0.000      0.000
REMARK SMILES CCOc1c(Br)cc(CNc2cccc(C(=O)NCCCCCCNC(=O)c3ccc(-c4c5nc(c(-c6cccc(S(=O)(=O)[O-])c6F)c6ccc([nH]6)c(-c6cccc(S(=O)(=O)[O-])c6F)c6nc(c(-c7cccc(S(=O)(=O)[O-])c7F)c7ccc4[nH]7)C=C6)C=C5)cc3)c2C)cc1OC
REMARK SMILES IDX 20 1 19 2 18 3 16 4 17 5 15 7 11 8 12 9 91 10 13 11 92 12
REMARK SMILES IDX 14 13 10 14 9 16 8 17 4 18 5 19 94 20 6 21 7 22 93 23 3 24
REMARK SMILES IDX 2 25 1 26 95 27 96 28 21 29 22 30 23 31 24 32 25 33 26 34
REMARK SMILES IDX 27 36 28 37 29 38 90 39 30 40 89 41 31 42 32 43 33 44 83 45
REMARK SMILES IDX 34 46 88 47 82 48 84 49 35 50 87 51 81 52 80 53 36 55 68 56
REMARK SMILES IDX 48 57 67 58 49 59 52 60 66 61 85 62 50 63 51 64 65 66 86 67
REMARK SMILES IDX 53 68 37 69 38 70 46 71 39 72 41 73 47 74 40 75 42 76 43 77
REMARK SMILES IDX 44 78 45 79 69 80 70 81 78 82 71 83 73 84 79 85 72 86 74 87
REMARK SMILES IDX 75 88 76 89 77 90 54 91 55 92 63 93 56 94 58 95 64 96 57 97
REMARK SMILES IDX 59 98 60 99 61 100 62 101
REMARK H PARENT 18 6 10 15 25 35 84 54 52 65
REMARK Flexibility Score: inf
ROOT
ATOM      1  C   UNL A   1      40.424  28.206  28.318  1.00  0.00     0.021 C 
ENDROOT
BRANCH   1   2
ATOM      2  C   UNL A   1      41.244  27.152  29.057  1.00  0.00     0.116 C 
BRANCH   2   3
ATOM      3  N   UNL A   1      42.515  26.786  28.456  1.00  0.00    -0.352 N 
ATOM      4  C   UNL A   1      42.874  25.676  27.714  1.00  0.00     0.251 C 
ATOM      5  O   UNL A   1      43.956  25.707  27.128  1.00  0.00    -0.269 OA
ATOM      6  H   UNL A   1      43.240  27.436  28.601  1.00  0.00     0.163 HD
BRANCH   4   7
ATOM      7  C   UNL A   1      42.002  24.455  27.603  1.00  0.00     0.044 A 
ATOM      8  C   UNL A   1      40.058  23.245  26.697  1.00  0.00     0.038 A 
ATOM      9  C   UNL A   1      40.435  22.136  27.469  1.00  0.00     0.026 A 
ATOM     10  C   UNL A   1      40.883  24.405  26.720  1.00  0.00    -0.015 A 
ATOM     11  C   UNL A   1      41.508  22.195  28.347  1.00  0.00     0.003 A 
ATOM     12  C   UNL A   1      40.496  25.593  25.867  1.00  0.00     0.047 C 
ATOM     13  C   UNL A   1      42.245  23.367  28.453  1.00  0.00     0.014 A 
BRANCH   8  14
ATOM     14  N   UNL A   1      38.857  23.218  25.992  1.00  0.00    -0.381 N 
ATOM     15  H   UNL A   1      38.492  24.062  25.642  1.00  0.00     0.160 HD
BRANCH  14  16
ATOM     16  C   UNL A   1      38.126  21.983  25.757  1.00  0.00     0.149 C 
BRANCH  16  17
ATOM     17  C   UNL A   1      36.663  22.291  25.532  1.00  0.00    -0.024 A 
ATOM     18  C   UNL A   1      33.925  22.866  25.103  1.00  0.00     0.175 A 
ATOM     19  C   UNL A   1      34.866  23.900  25.267  1.00  0.00     0.064 A 
ATOM     20  C   UNL A   1      34.349  21.534  25.237  1.00  0.00     0.162 A 
ATOM     21  Br  UNL A   1      34.366  25.735  25.318  1.00  0.00    -0.047 Br
ATOM     22  C   UNL A   1      36.222  23.615  25.449  1.00  0.00     0.025 A 
ATOM     23  C   UNL A   1      35.716  21.265  25.435  1.00  0.00     0.056 A 
BRANCH  18  24
ATOM     24  O   UNL A   1      32.612  23.203  24.892  1.00  0.00    -0.489 OA
BRANCH  24  25
ATOM     25  C   UNL A   1      31.911  23.467  26.117  1.00  0.00     0.226 C 
ATOM     26  C   UNL A   1      30.627  22.665  26.207  1.00  0.00     0.049 C 
ENDBRANCH  24  25
ENDBRANCH  18  24
BRANCH  20  27
ATOM     27  O   UNL A   1      33.609  20.383  25.200  1.00  0.00    -0.493 OA
ATOM     28  C   UNL A   1      34.151  19.223  24.592  1.00  0.00     0.278 C 
ENDBRANCH  20  27
ENDBRANCH  16  17
ENDBRANCH  14  16
ENDBRANCH   8  14
ENDBRANCH   4   7
ENDBRANCH   2   3
ENDBRANCH   1   2
BRANCH   1  29
ATOM     29  C   UNL A   1      38.904  28.048  28.237  1.00  0.00     0.002 C 
BRANCH  29  30
ATOM     30  C   UNL A   1      37.996  29.155  28.788  1.00  0.00     0.002 C 
BRANCH  30  31
ATOM     31  C   UNL A   1      36.629  29.381  28.142  1.00  0.00     0.021 C 
BRANCH  31  32
ATOM     32  C   UNL A   1      36.302  30.827  27.783  1.00  0.00     0.116 C 
BRANCH  32  33
ATOM     33  N   UNL A   1      35.410  31.488  28.733  1.00  0.00    -0.352 N 
ATOM     34  C   UNL A   1      35.733  32.125  29.920  1.00  0.00     0.251 C 
ATOM     35  H   UNL A   1      34.453  31.479  28.498  1.00  0.00     0.163 HD
ATOM     36  O   UNL A   1      34.846  32.575  30.642  1.00  0.00    -0.269 OA
BRANCH  34  37
ATOM     37  C   UNL A   1      37.163  32.331  30.243  1.00  0.00     0.039 A 
ATOM     38  C   UNL A   1      37.806  31.386  31.048  1.00  0.00     0.014 A 
ATOM     39  C   UNL A   1      37.757  33.562  29.983  1.00  0.00     0.014 A 
ATOM     40  C   UNL A   1      38.910  31.774  31.802  1.00  0.00     0.010 A 
ATOM     41  C   UNL A   1      38.786  33.981  30.796  1.00  0.00     0.010 A 
ATOM     42  C   UNL A   1      39.316  33.106  31.751  1.00  0.00    -0.014 A 
BRANCH  42  43
ATOM     43  C   UNL A   1      40.292  33.692  32.654  1.00  0.00     0.031 A 
ATOM     44  C   UNL A   1      39.832  34.385  33.866  1.00  0.00     0.074 A 
ATOM     45  C   UNL A   1      41.609  33.493  32.428  1.00  0.00     0.049 A 
ATOM     46  N   UNL A   1      40.522  35.263  34.507  1.00  0.00    -0.248 NA
ATOM     47  C   UNL A   1      38.512  34.144  34.432  1.00  0.00     0.031 C 
ATOM     48  C   UNL A   1      42.711  33.700  33.358  1.00  0.00     0.029 A 
ATOM     49  N   UNL A   1      42.235  33.255  31.202  1.00  0.00    -0.354 N 
ATOM     50  C   UNL A   1      39.867  35.506  35.697  1.00  0.00     0.074 A 
ATOM     51  C   UNL A   1      38.592  34.837  35.570  1.00  0.00     0.031 C 
ATOM     52  C   UNL A   1      43.844  33.857  32.655  1.00  0.00     0.029 A 
ATOM     53  C   UNL A   1      43.473  33.920  31.252  1.00  0.00     0.049 A 
ATOM     54  H   UNL A   1      41.880  32.726  30.452  1.00  0.00     0.167 HD
ATOM     55  C   UNL A   1      40.542  36.106  36.717  1.00  0.00     0.034 A 
ATOM     56  C   UNL A   1      43.851  34.891  30.366  1.00  0.00     0.034 A 
ATOM     57  C   UNL A   1      41.902  36.476  36.303  1.00  0.00     0.049 A 
ATOM     58  C   UNL A   1      44.158  36.215  31.046  1.00  0.00     0.074 A 
ATOM     59  C   UNL A   1      43.120  35.824  36.415  1.00  0.00     0.029 A 
ATOM     60  N   UNL A   1      42.091  37.503  35.386  1.00  0.00    -0.354 N 
ATOM     61  N   UNL A   1      43.962  36.447  32.316  1.00  0.00    -0.248 NA
ATOM     62  C   UNL A   1      44.659  37.395  30.344  1.00  0.00     0.031 C 
ATOM     63  C   UNL A   1      44.015  36.402  35.476  1.00  0.00     0.029 A 
ATOM     64  C   UNL A   1      43.355  37.425  34.817  1.00  0.00     0.049 A 
ATOM     65  H   UNL A   1      41.421  38.191  35.170  1.00  0.00     0.167 HD
ATOM     66  C   UNL A   1      44.130  37.782  32.572  1.00  0.00     0.074 A 
ATOM     67  C   UNL A   1      44.656  38.314  31.327  1.00  0.00     0.031 C 
ATOM     68  C   UNL A   1      43.750  38.350  33.759  1.00  0.00     0.034 A 
BRANCH  55  69
ATOM     69  C   UNL A   1      40.101  36.017  38.168  1.00  0.00     0.023 A 
ATOM     70  C   UNL A   1      39.559  37.182  38.756  1.00  0.00     0.012 A 
ATOM     71  C   UNL A   1      40.255  34.904  39.024  1.00  0.00     0.148 A 
ATOM     72  C   UNL A   1      39.299  37.282  40.127  1.00  0.00     0.002 A 
ATOM     73  C   UNL A   1      40.074  35.025  40.408  1.00  0.00     0.091 A 
ATOM     74  F   UNL A   1      40.499  33.697  38.501  1.00  0.00    -0.205 F 
ATOM     75  C   UNL A   1      39.599  36.217  40.962  1.00  0.00     0.022 A 
BRANCH  73  76
ATOM     76  S   UNL A   1      40.547  33.726  41.563  1.00  0.00     0.127 S 
ATOM     77  O   UNL A   1      41.969  33.546  41.261  1.00  0.00    -0.237 OA
ATOM     78  O   UNL A   1      40.275  34.342  42.859  1.00  0.00    -0.237 OA
ATOM     79  O   UNL A   1      39.721  32.573  41.223  1.00  0.00    -0.744 OA
ENDBRANCH  73  76
ENDBRANCH  55  69
BRANCH  56  80
ATOM     80  C   UNL A   1      43.216  34.732  29.021  1.00  0.00     0.023 A 
ATOM     81  C   UNL A   1      42.268  35.719  28.653  1.00  0.00     0.012 A 
ATOM     82  C   UNL A   1      43.826  33.970  28.011  1.00  0.00     0.148 A 
ATOM     83  C   UNL A   1      42.099  36.083  27.316  1.00  0.00     0.002 A 
ATOM     84  C   UNL A   1      43.631  34.324  26.678  1.00  0.00     0.091 A 
ATOM     85  F   UNL A   1      44.650  32.974  28.357  1.00  0.00    -0.205 F 
ATOM     86  C   UNL A   1      42.818  35.415  26.331  1.00  0.00     0.022 A 
BRANCH  84  87
ATOM     87  S   UNL A   1      44.519  33.467  25.372  1.00  0.00     0.127 S 
ATOM     88  O   UNL A   1      45.907  33.703  25.756  1.00  0.00    -0.237 OA
ATOM     89  O   UNL A   1      44.067  32.086  25.525  1.00  0.00    -0.237 OA
ATOM     90  O   UNL A   1      44.061  34.112  24.148  1.00  0.00    -0.744 OA
ENDBRANCH  84  87
ENDBRANCH  56  80
BRANCH  68  91
ATOM     91  C   UNL A   1      43.705  39.840  34.023  1.00  0.00     0.023 A 
ATOM     92  C   UNL A   1      44.359  40.427  35.124  1.00  0.00     0.012 A 
ATOM     93  C   UNL A   1      43.118  40.724  33.080  1.00  0.00     0.148 A 
ATOM     94  C   UNL A   1      44.365  41.810  35.327  1.00  0.00     0.002 A 
ATOM     95  C   UNL A   1      43.223  42.104  33.231  1.00  0.00     0.091 A 
ATOM     96  F   UNL A   1      42.435  40.228  32.038  1.00  0.00    -0.205 F 
ATOM     97  C   UNL A   1      43.815  42.652  34.371  1.00  0.00     0.022 A 
BRANCH  95  98
ATOM     98  S   UNL A   1      42.746  43.215  31.899  1.00  0.00     0.127 S 
ATOM     99  O   UNL A   1      41.740  42.428  31.190  1.00  0.00    -0.237 OA
ATOM    100  O   UNL A   1      42.214  44.371  32.622  1.00  0.00    -0.237 OA
ATOM    101  O   UNL A   1      43.982  43.484  31.176  1.00  0.00    -0.744 OA
ENDBRANCH  95  98
ENDBRANCH  68  91
ENDBRANCH  42  43
ENDBRANCH  34  37
ENDBRANCH  32  33
ENDBRANCH  31  32
ENDBRANCH  30  31
ENDBRANCH  29  30
ENDBRANCH   1  29
TORSDOF 22
ENDMDL
MODEL 2
REMARK VINA RESULT:      -9.8      7.551     13.907
REMARK SMILES CCOc1c(Br)cc(CNc2cccc(C(=O)NCCCCCCNC(=O)c3ccc(-c4c5nc(c(-c6cccc(S(=O)(=O)[O-])c6F)c6ccc([nH]6)c(-c6cccc(S(=O)(=O)[O-])c6F)c6nc(c(-c7cccc(S(=O)(=O)[O-])c7F)c7ccc4[nH]7)C=C6)C=C5)cc3)c2C)cc1OC
REMARK SMILES IDX 20 1 19 2 18 3 16 4 17 5 15 7 11 8 12 9 91 10 13 11 92 12
REMARK SMILES IDX 14 13 10 14 9 16 8 17 4 18 5 19 94 20 6 21 7 22 93 23 3 24
REMARK SMILES IDX 2 25 1 26 95 27 96 28 21 29 22 30 23 31 24 32 25 33 26 34
REMARK SMILES IDX 27 36 28 37 29 38 90 39 30 40 89 41 31 42 32 43 33 44 83 45
REMARK SMILES IDX 34 46 88 47 82 48 84 49 35 50 87 51 81 52 80 53 36 55 68 56
REMARK SMILES IDX 48 57 67 58 49 59 52 60 66 61 85 62 50 63 51 64 65 66 86 67
REMARK SMILES IDX 53 68 37 69 38 70 46 71 39 72 41 73 47 74 40 75 42 76 43 77
REMARK SMILES IDX 44 78 45 79 69 80 70 81 78 82 71 83 73 84 79 85 72 86 74 87
REMARK SMILES IDX 75 88 76 89 77 90 54 91 55 92 63 93 56 94 58 95 64 96 57 97
REMARK SMILES IDX 59 98 60 99 61 100 62 101
REMARK H PARENT 18 6 10 15 25 35 84 54 52 65
REMARK Flexibility Score: inf
ROOT
ATOM      1  C   UNL A   1      40.151  27.892  27.317  1.00  0.00     0.021 C 
ENDROOT
BRANCH   1   2
ATOM      2  C   UNL A   1      39.928  29.390  27.502  1.00  0.00     0.116 C 
BRANCH   2   3
ATOM      3  N   UNL A   1      40.075  29.901  28.854  1.00  0.00    -0.352 N 
ATOM      4  C   UNL A   1      39.175  30.560  29.672  1.00  0.00     0.251 C 
ATOM      5  O   UNL A   1      39.473  30.691  30.859  1.00  0.00    -0.269 OA
ATOM      6  H   UNL A   1      40.962  29.754  29.255  1.00  0.00     0.163 HD
BRANCH   4   7
ATOM      7  C   UNL A   1      37.869  31.109  29.166  1.00  0.00     0.044 A 
ATOM      8  C   UNL A   1      35.540  30.840  28.412  1.00  0.00     0.038 A 
ATOM      9  C   UNL A   1      35.481  32.227  28.220  1.00  0.00     0.026 A 
ATOM     10  C   UNL A   1      36.733  30.275  28.946  1.00  0.00    -0.015 A 
ATOM     11  C   UNL A   1      36.593  33.035  28.409  1.00  0.00     0.003 A 
ATOM     12  C   UNL A   1      36.793  28.782  29.183  1.00  0.00     0.047 C 
ATOM     13  C   UNL A   1      37.791  32.466  28.821  1.00  0.00     0.014 A 
BRANCH   8  14
ATOM     14  N   UNL A   1      34.472  30.041  28.011  1.00  0.00    -0.381 N 
ATOM     15  H   UNL A   1      34.544  29.065  28.111  1.00  0.00     0.160 HD
BRANCH  14  16
ATOM     16  C   UNL A   1      33.255  30.603  27.448  1.00  0.00     0.149 C 
BRANCH  16  17
ATOM     17  C   UNL A   1      32.721  29.689  26.370  1.00  0.00    -0.024 A 
ATOM     18  C   UNL A   1      31.727  27.979  24.344  1.00  0.00     0.175 A 
ATOM     19  C   UNL A   1      31.212  29.279  24.514  1.00  0.00     0.064 A 
ATOM     20  C   UNL A   1      32.691  27.507  25.250  1.00  0.00     0.162 A 
ATOM     21  Br  UNL A   1      29.757  29.941  23.482  1.00  0.00    -0.047 Br
ATOM     22  C   UNL A   1      31.723  30.132  25.495  1.00  0.00     0.025 A 
ATOM     23  C   UNL A   1      33.185  28.374  26.241  1.00  0.00     0.056 A 
BRANCH  18  24
ATOM     24  O   UNL A   1      31.211  27.197  23.342  1.00  0.00    -0.489 OA
BRANCH  24  25
ATOM     25  C   UNL A   1      32.155  26.972  22.284  1.00  0.00     0.226 C 
ATOM     26  C   UNL A   1      32.342  25.491  22.009  1.00  0.00     0.049 C 
ENDBRANCH  24  25
ENDBRANCH  18  24
BRANCH  20  27
ATOM     27  O   UNL A   1      33.269  26.268  25.330  1.00  0.00    -0.493 OA
ATOM     28  C   UNL A   1      32.714  25.294  26.196  1.00  0.00     0.278 C 
ENDBRANCH  20  27
ENDBRANCH  16  17
ENDBRANCH  14  16
ENDBRANCH   8  14
ENDBRANCH   4   7
ENDBRANCH   2   3
ENDBRANCH   1   2
BRANCH   1  29
ATOM     29  C   UNL A   1      39.871  26.945  28.485  1.00  0.00     0.002 C 
BRANCH  29  30
ATOM     30  C   UNL A   1      39.087  25.649  28.241  1.00  0.00     0.002 C 
BRANCH  30  31
ATOM     31  C   UNL A   1      39.408  24.810  27.004  1.00  0.00     0.021 C 
BRANCH  31  32
ATOM     32  C   UNL A   1      39.600  23.318  27.252  1.00  0.00     0.116 C 
BRANCH  32  33
ATOM     33  N   UNL A   1      40.490  22.666  26.294  1.00  0.00    -0.352 N 
ATOM     34  C   UNL A   1      41.850  22.858  26.112  1.00  0.00     0.251 C 
ATOM     35  H   UNL A   1      40.067  22.004  25.699  1.00  0.00     0.163 HD
ATOM     36  O   UNL A   1      42.441  22.272  25.207  1.00  0.00    -0.269 OA
BRANCH  34  37
ATOM     37  C   UNL A   1      42.579  23.702  27.085  1.00  0.00     0.039 A 
ATOM     38  C   UNL A   1      42.707  25.067  26.816  1.00  0.00     0.014 A 
ATOM     39  C   UNL A   1      43.344  23.100  28.080  1.00  0.00     0.014 A 
ATOM     40  C   UNL A   1      43.781  25.769  27.357  1.00  0.00     0.010 A 
ATOM     41  C   UNL A   1      44.461  23.761  28.541  1.00  0.00     0.010 A 
ATOM     42  C   UNL A   1      44.712  25.073  28.125  1.00  0.00    -0.014 A 
BRANCH  42  43
ATOM     43  C   UNL A   1      45.988  25.623  28.548  1.00  0.00     0.031 A 
ATOM     44  C   UNL A   1      47.201  25.319  27.774  1.00  0.00     0.074 A 
ATOM     45  C   UNL A   1      46.026  26.497  29.577  1.00  0.00     0.049 A 
ATOM     46  N   UNL A   1      48.399  25.392  28.240  1.00  0.00    -0.248 NA
ATOM     47  C   UNL A   1      47.133  24.872  26.389  1.00  0.00     0.031 C 
ATOM     48  C   UNL A   1      47.114  27.395  29.941  1.00  0.00     0.029 A 
ATOM     49  N   UNL A   1      45.134  26.589  30.648  1.00  0.00    -0.354 N 
ATOM     50  C   UNL A   1      49.261  25.266  27.171  1.00  0.00     0.074 A 
ATOM     51  C   UNL A   1      48.426  24.877  26.056  1.00  0.00     0.031 C 
ATOM     52  C   UNL A   1      46.982  27.731  31.234  1.00  0.00     0.029 A 
ATOM     53  C   UNL A   1      45.901  26.927  31.777  1.00  0.00     0.049 A 
ATOM     54  H   UNL A   1      44.160  26.445  30.618  1.00  0.00     0.167 HD
ATOM     55  C   UNL A   1      50.557  25.662  27.310  1.00  0.00     0.034 A 
ATOM     56  C   UNL A   1      45.960  26.166  32.911  1.00  0.00     0.034 A 
ATOM     57  C   UNL A   1      50.827  26.103  28.685  1.00  0.00     0.049 A 
ATOM     58  C   UNL A   1      47.373  25.709  33.236  1.00  0.00     0.074 A 
ATOM     59  C   UNL A   1      50.800  27.352  29.285  1.00  0.00     0.029 A 
ATOM     60  N   UNL A   1      50.853  25.173  29.717  1.00  0.00    -0.354 N 
ATOM     61  N   UNL A   1      48.401  25.907  32.456  1.00  0.00    -0.248 NA
ATOM     62  C   UNL A   1      47.731  24.951  34.433  1.00  0.00     0.031 C 
ATOM     63  C   UNL A   1      50.702  27.163  30.689  1.00  0.00     0.029 A 
ATOM     64  C   UNL A   1      50.702  25.803  30.946  1.00  0.00     0.049 A 
ATOM     65  H   UNL A   1      50.962  24.203  29.595  1.00  0.00     0.167 HD
ATOM     66  C   UNL A   1      49.476  25.196  32.920  1.00  0.00     0.074 A 
ATOM     67  C   UNL A   1      49.032  24.692  34.208  1.00  0.00     0.031 C 
ATOM     68  C   UNL A   1      50.610  25.018  32.174  1.00  0.00     0.034 A 
BRANCH  55  69
ATOM     69  C   UNL A   1      51.454  25.995  26.130  1.00  0.00     0.023 A 
ATOM     70  C   UNL A   1      52.417  25.032  25.753  1.00  0.00     0.012 A 
ATOM     71  C   UNL A   1      51.481  27.213  25.415  1.00  0.00     0.148 A 
ATOM     72  C   UNL A   1      53.420  25.298  24.816  1.00  0.00     0.002 A 
ATOM     73  C   UNL A   1      52.531  27.513  24.538  1.00  0.00     0.091 A 
ATOM     74  F   UNL A   1      50.450  28.060  25.515  1.00  0.00    -0.205 F 
ATOM     75  C   UNL A   1      53.505  26.556  24.240  1.00  0.00     0.022 A 
BRANCH  73  76
ATOM     76  S   UNL A   1      52.769  29.157  23.841  1.00  0.00     0.127 S 
ATOM     77  O   UNL A   1      52.943  29.980  25.040  1.00  0.00    -0.237 OA
ATOM     78  O   UNL A   1      53.980  28.988  23.041  1.00  0.00    -0.237 OA
ATOM     79  O   UNL A   1      51.552  29.452  23.094  1.00  0.00    -0.744 OA
ENDBRANCH  73  76
ENDBRANCH  55  69
BRANCH  56  80
ATOM     80  C   UNL A   1      44.715  25.370  33.146  1.00  0.00     0.023 A 
ATOM     81  C   UNL A   1      44.804  23.976  32.904  1.00  0.00     0.012 A 
ATOM     82  C   UNL A   1      43.690  25.846  33.979  1.00  0.00     0.148 A 
ATOM     83  C   UNL A   1      44.036  23.073  33.640  1.00  0.00     0.002 A 
ATOM     84  C   UNL A   1      42.910  24.937  34.690  1.00  0.00     0.091 A 
ATOM     85  F   UNL A   1      43.543  27.168  34.136  1.00  0.00    -0.205 F 
ATOM     86  C   UNL A   1      43.121  23.554  34.569  1.00  0.00     0.022 A 
BRANCH  84  87
ATOM     87  S   UNL A   1      41.695  25.518  35.880  1.00  0.00     0.127 S 
ATOM     88  O   UNL A   1      41.119  24.262  36.349  1.00  0.00    -0.237 OA
ATOM     89  O   UNL A   1      42.516  26.220  36.865  1.00  0.00    -0.237 OA
ATOM     90  O   UNL A   1      40.824  26.388  35.101  1.00  0.00    -0.744 OA
ENDBRANCH  84  87
ENDBRANCH  56  80
BRANCH  68  91
ATOM     91  C   UNL A   1      51.736  24.071  32.534  1.00  0.00     0.023 A 
ATOM     92  C   UNL A   1      51.574  22.672  32.513  1.00  0.00     0.012 A 
ATOM     93  C   UNL A   1      53.047  24.561  32.766  1.00  0.00     0.148 A 
ATOM     94  C   UNL A   1      52.633  21.802  32.786  1.00  0.00     0.002 A 
ATOM     95  C   UNL A   1      54.119  23.687  32.927  1.00  0.00     0.091 A 
ATOM     96  F   UNL A   1      53.258  25.883  32.850  1.00  0.00    -0.205 F 
ATOM     97  C   UNL A   1      53.912  22.308  32.974  1.00  0.00     0.022 A 
BRANCH  95  98
ATOM     98  S   UNL A   1      55.812  24.298  32.922  1.00  0.00     0.127 S 
ATOM     99  O   UNL A   1      56.581  23.065  32.765  1.00  0.00    -0.237 OA
ATOM    100  O   UNL A   1      55.831  25.178  31.753  1.00  0.00    -0.237 OA
ATOM    101  O   UNL A   1      55.962  24.993  34.193  1.00  0.00    -0.744 OA
ENDBRANCH  95  98
ENDBRANCH  68  91
ENDBRANCH  42  43
ENDBRANCH  34  37
ENDBRANCH  32  33
ENDBRANCH  31  32
ENDBRANCH  30  31
ENDBRANCH  29  30
ENDBRANCH   1  29
TORSDOF 22
ENDMDL
MODEL 3
REMARK VINA RESULT:      -9.4      7.419     14.099
REMARK SMILES CCOc1c(Br)cc(CNc2cccc(C(=O)NCCCCCCNC(=O)c3ccc(-c4c5nc(c(-c6cccc(S(=O)(=O)[O-])c6F)c6ccc([nH]6)c(-c6cccc(S(=O)(=O)[O-])c6F)c6nc(c(-c7cccc(S(=O)(=O)[O-])c7F)c7ccc4[nH]7)C=C6)C=C5)cc3)c2C)cc1OC
REMARK SMILES IDX 20 1 19 2 18 3 16 4 17 5 15 7 11 8 12 9 91 10 13 11 92 12
REMARK SMILES IDX 14 13 10 14 9 16 8 17 4 18 5 19 94 20 6 21 7 22 93 23 3 24
REMARK SMILES IDX 2 25 1 26 95 27 96 28 21 29 22 30 23 31 24 32 25 33 26 34
REMARK SMILES IDX 27 36 28 37 29 38 90 39 30 40 89 41 31 42 32 43 33 44 83 45
REMARK SMILES IDX 34 46 88 47 82 48 84 49 35 50 87 51 81 52 80 53 36 55 68 56
REMARK SMILES IDX 48 57 67 58 49 59 52 60 66 61 85 62 50 63 51 64 65 66 86 67
REMARK SMILES IDX 53 68 37 69 38 70 46 71 39 72 41 73 47 74 40 75 42 76 43 77
REMARK SMILES IDX 44 78 45 79 69 80 70 81 78 82 71 83 73 84 79 85 72 86 74 87
REMARK SMILES IDX 75 88 76 89 77 90 54 91 55 92 63 93 56 94 58 95 64 96 57 97
REMARK SMILES IDX 59 98 60 99 61 100 62 101
REMARK H PARENT 18 6 10 15 25 35 84 54 52 65
REMARK Flexibility Score: inf
ROOT
ATOM      1  C   UNL A   1      40.516  28.779  28.513  1.00  0.00     0.021 C 
ENDROOT
BRANCH   1   2
ATOM      2  C   UNL A   1      40.516  30.226  28.998  1.00  0.00     0.116 C 
BRANCH   2   3
ATOM      3  N   UNL A   1      39.976  30.461  30.326  1.00  0.00    -0.352 N 
ATOM      4  C   UNL A   1      38.725  30.896  30.726  1.00  0.00     0.251 C 
ATOM      5  O   UNL A   1      38.443  30.800  31.920  1.00  0.00    -0.269 OA
ATOM      6  H   UNL A   1      40.603  30.280  31.063  1.00  0.00     0.163 HD
BRANCH   4   7
ATOM      7  C   UNL A   1      37.720  31.472  29.767  1.00  0.00     0.044 A 
ATOM      8  C   UNL A   1      35.914  31.241  28.109  1.00  0.00     0.038 A 
ATOM      9  C   UNL A   1      35.885  32.638  28.000  1.00  0.00     0.026 A 
ATOM     10  C   UNL A   1      36.805  30.647  29.046  1.00  0.00    -0.015 A 
ATOM     11  C   UNL A   1      36.791  33.438  28.681  1.00  0.00     0.003 A 
ATOM     12  C   UNL A   1      36.821  29.141  29.189  1.00  0.00     0.047 C 
ATOM     13  C   UNL A   1      37.738  32.850  29.510  1.00  0.00     0.014 A 
BRANCH   8  14
ATOM     14  N   UNL A   1      35.134  30.466  27.253  1.00  0.00    -0.381 N 
ATOM     15  H   UNL A   1      35.557  29.722  26.767  1.00  0.00     0.160 HD
BRANCH  14  16
ATOM     16  C   UNL A   1      33.717  30.721  27.055  1.00  0.00     0.149 C 
BRANCH  16  17
ATOM     17  C   UNL A   1      33.123  29.650  26.169  1.00  0.00    -0.024 A 
ATOM     18  C   UNL A   1      32.008  27.640  24.518  1.00  0.00     0.175 A 
ATOM     19  C   UNL A   1      33.210  27.420  25.216  1.00  0.00     0.064 A 
ATOM     20  C   UNL A   1      31.405  28.907  24.585  1.00  0.00     0.162 A 
ATOM     21  Br  UNL A   1      34.220  25.819  25.025  1.00  0.00    -0.047 Br
ATOM     22  C   UNL A   1      33.745  28.402  26.054  1.00  0.00     0.025 A 
ATOM     23  C   UNL A   1      31.964  29.889  25.423  1.00  0.00     0.056 A 
BRANCH  18  24
ATOM     24  O   UNL A   1      31.510  26.628  23.736  1.00  0.00    -0.489 OA
BRANCH  24  25
ATOM     25  C   UNL A   1      30.829  25.626  24.507  1.00  0.00     0.226 C 
ATOM     26  C   UNL A   1      30.191  26.217  25.749  1.00  0.00     0.049 C 
ENDBRANCH  24  25
ENDBRANCH  18  24
BRANCH  20  27
ATOM     27  O   UNL A   1      30.292  29.371  23.936  1.00  0.00    -0.493 OA
ATOM     28  C   UNL A   1      30.239  29.322  22.521  1.00  0.00     0.278 C 
ENDBRANCH  20  27
ENDBRANCH  16  17
ENDBRANCH  14  16
ENDBRANCH   8  14
ENDBRANCH   4   7
ENDBRANCH   2   3
ENDBRANCH   1   2
BRANCH   1  29
ATOM     29  C   UNL A   1      40.290  27.653  29.524  1.00  0.00     0.002 C 
BRANCH  29  30
ATOM     30  C   UNL A   1      39.294  26.532  29.202  1.00  0.00     0.002 C 
BRANCH  30  31
ATOM     31  C   UNL A   1      39.387  25.823  27.851  1.00  0.00     0.021 C 
BRANCH  31  32
ATOM     32  C   UNL A   1      39.542  24.307  27.912  1.00  0.00     0.116 C 
BRANCH  32  33
ATOM     33  N   UNL A   1      40.378  23.752  26.849  1.00  0.00    -0.352 N 
ATOM     34  C   UNL A   1      41.737  23.922  26.643  1.00  0.00     0.251 C 
ATOM     35  H   UNL A   1      39.913  23.181  26.194  1.00  0.00     0.163 HD
ATOM     36  O   UNL A   1      42.278  23.436  25.652  1.00  0.00    -0.269 OA
BRANCH  34  37
ATOM     37  C   UNL A   1      42.526  24.617  27.685  1.00  0.00     0.039 A 
ATOM     38  C   UNL A   1      42.821  25.971  27.504  1.00  0.00     0.014 A 
ATOM     39  C   UNL A   1      43.182  23.873  28.661  1.00  0.00     0.014 A 
ATOM     40  C   UNL A   1      43.950  26.509  28.115  1.00  0.00     0.010 A 
ATOM     41  C   UNL A   1      44.352  24.369  29.192  1.00  0.00     0.010 A 
ATOM     42  C   UNL A   1      44.768  25.665  28.864  1.00  0.00    -0.014 A 
BRANCH  42  43
ATOM     43  C   UNL A   1      46.084  26.035  29.354  1.00  0.00     0.031 A 
ATOM     44  C   UNL A   1      47.280  25.610  28.610  1.00  0.00     0.074 A 
ATOM     45  C   UNL A   1      46.189  26.860  30.418  1.00  0.00     0.049 A 
ATOM     46  N   UNL A   1      48.458  25.515  29.121  1.00  0.00    -0.248 NA
ATOM     47  C   UNL A   1      47.213  25.225  27.207  1.00  0.00     0.031 C 
ATOM     48  C   UNL A   1      47.364  27.601  30.856  1.00  0.00     0.029 A 
ATOM     49  N   UNL A   1      45.273  27.023  31.460  1.00  0.00    -0.354 N 
ATOM     50  C   UNL A   1      49.340  25.321  28.078  1.00  0.00     0.074 A 
ATOM     51  C   UNL A   1      48.508  25.081  26.920  1.00  0.00     0.031 C 
ATOM     52  C   UNL A   1      47.223  27.903  32.156  1.00  0.00     0.029 A 
ATOM     53  C   UNL A   1      46.030  27.221  32.628  1.00  0.00     0.049 A 
ATOM     54  H   UNL A   1      44.291  27.004  31.389  1.00  0.00     0.167 HD
ATOM     55  C   UNL A   1      50.669  25.546  28.279  1.00  0.00     0.034 A 
ATOM     56  C   UNL A   1      45.949  26.419  33.732  1.00  0.00     0.034 A 
ATOM     57  C   UNL A   1      50.935  25.900  29.679  1.00  0.00     0.049 A 
ATOM     58  C   UNL A   1      47.281  25.777  34.086  1.00  0.00     0.074 A 
ATOM     59  C   UNL A   1      51.040  27.121  30.330  1.00  0.00     0.029 A 
ATOM     60  N   UNL A   1      50.805  24.938  30.674  1.00  0.00    -0.354 N 
ATOM     61  N   UNL A   1      48.356  25.873  33.352  1.00  0.00    -0.248 NA
ATOM     62  C   UNL A   1      47.494  24.937  35.264  1.00  0.00     0.031 C 
ATOM     63  C   UNL A   1      50.863  26.894  31.719  1.00  0.00     0.029 A 
ATOM     64  C   UNL A   1      50.684  25.536  31.921  1.00  0.00     0.049 A 
ATOM     65  H   UNL A   1      50.799  23.967  30.516  1.00  0.00     0.167 HD
ATOM     66  C   UNL A   1      49.315  25.017  33.824  1.00  0.00     0.074 A 
ATOM     67  C   UNL A   1      48.761  24.526  35.074  1.00  0.00     0.031 C 
ATOM     68  C   UNL A   1      50.447  24.725  33.112  1.00  0.00     0.034 A 
BRANCH  55  69
ATOM     69  C   UNL A   1      51.646  25.807  27.146  1.00  0.00     0.023 A 
ATOM     70  C   UNL A   1      51.108  25.976  25.850  1.00  0.00     0.012 A 
ATOM     71  C   UNL A   1      53.056  25.816  27.240  1.00  0.00     0.148 A 
ATOM     72  C   UNL A   1      51.909  26.029  24.704  1.00  0.00     0.002 A 
ATOM     73  C   UNL A   1      53.856  25.786  26.091  1.00  0.00     0.091 A 
ATOM     74  F   UNL A   1      53.637  25.937  28.439  1.00  0.00    -0.205 F 
ATOM     75  C   UNL A   1      53.283  25.888  24.821  1.00  0.00     0.022 A 
BRANCH  73  76
ATOM     76  S   UNL A   1      55.633  25.494  26.159  1.00  0.00     0.127 S 
ATOM     77  O   UNL A   1      55.951  25.191  24.761  1.00  0.00    -0.237 OA
ATOM     78  O   UNL A   1      56.146  26.778  26.632  1.00  0.00    -0.237 OA
ATOM     79  O   UNL A   1      55.816  24.365  27.064  1.00  0.00    -0.744 OA
ENDBRANCH  73  76
ENDBRANCH  55  69
BRANCH  56  80
ATOM     80  C   UNL A   1      44.607  25.777  33.890  1.00  0.00     0.023 A 
ATOM     81  C   UNL A   1      44.503  24.426  33.474  1.00  0.00     0.012 A 
ATOM     82  C   UNL A   1      43.659  26.280  34.795  1.00  0.00     0.148 A 
ATOM     83  C   UNL A   1      43.619  23.550  34.107  1.00  0.00     0.002 A 
ATOM     84  C   UNL A   1      42.762  25.404  35.402  1.00  0.00     0.091 A 
ATOM     85  F   UNL A   1      43.695  27.579  35.118  1.00  0.00    -0.205 F 
ATOM     86  C   UNL A   1      42.781  24.031  35.106  1.00  0.00     0.022 A 
BRANCH  84  87
ATOM     87  S   UNL A   1      41.642  25.991  36.679  1.00  0.00     0.127 S 
ATOM     88  O   UNL A   1      40.817  24.810  36.912  1.00  0.00    -0.237 OA
ATOM     89  O   UNL A   1      42.548  26.332  37.774  1.00  0.00    -0.237 OA
ATOM     90  O   UNL A   1      40.982  27.139  36.071  1.00  0.00    -0.744 OA
ENDBRANCH  84  87
ENDBRANCH  56  80
BRANCH  68  91
ATOM     91  C   UNL A   1      51.432  23.632  33.472  1.00  0.00     0.023 A 
ATOM     92  C   UNL A   1      52.808  23.885  33.630  1.00  0.00     0.012 A 
ATOM     93  C   UNL A   1      50.976  22.331  33.808  1.00  0.00     0.148 A 
ATOM     94  C   UNL A   1      53.702  22.885  34.023  1.00  0.00     0.002 A 
ATOM     95  C   UNL A   1      51.855  21.371  34.304  1.00  0.00     0.091 A 
ATOM     96  F   UNL A   1      49.686  22.011  33.629  1.00  0.00    -0.205 F 
ATOM     97  C   UNL A   1      53.224  21.632  34.380  1.00  0.00     0.022 A 
BRANCH  95  98
ATOM     98  S   UNL A   1      51.238  19.834  35.006  1.00  0.00     0.127 S 
ATOM     99  O   UNL A   1      50.486  20.307  36.166  1.00  0.00    -0.237 OA
ATOM    100  O   UNL A   1      50.410  19.298  33.924  1.00  0.00    -0.237 OA
ATOM    101  O   UNL A   1      52.430  19.046  35.288  1.00  0.00    -0.744 OA
ENDBRANCH  95  98
ENDBRANCH  68  91
ENDBRANCH  42  43
ENDBRANCH  34  37
ENDBRANCH  32  33
ENDBRANCH  31  32
ENDBRANCH  30  31
ENDBRANCH  29  30
ENDBRANCH   1  29
TORSDOF 22
ENDMDL
