MODEL 1
REMARK VINA RESULT:     -10.5      0.000      0.000
REMARK SMILES COCCCC(=O)N[C@H]1CC[C@@H](C(=O)NCCCCCCNC(=O)c2ccc(-c3c4nc(c(-c5cccc(S(=O)(=O)[O-])c5F)c5ccc([nH]5)c(-c5cccc(S(=O)(=O)[O-])c5F)c5nc(c(-c6cccc(S(=O)(=O)[O-])c6F)c6ccc3[nH]6)C=C5)C=C4)cc2)CC1
REMARK SMILES IDX 17 1 16 2 15 3 13 4 14 5 12 7 9 8 10 9 89 10 11 11 88 12
REMARK SMILES IDX 8 13 6 14 7 15 5 17 4 18 3 19 2 20 1 21 18 22 19 23 20 24
REMARK SMILES IDX 21 25 22 26 23 27 24 29 25 30 26 31 87 32 27 33 86 34 28 35
REMARK SMILES IDX 29 36 30 37 80 38 31 39 85 40 79 41 81 42 32 43 84 44 78 45
REMARK SMILES IDX 77 46 33 48 65 49 45 50 64 51 46 52 49 53 63 54 82 55 47 56
REMARK SMILES IDX 48 57 62 59 83 60 50 61 34 62 35 63 43 64 36 65 38 66 44 67
REMARK SMILES IDX 37 68 39 69 40 70 41 71 42 72 66 73 67 74 75 75 68 76 70 77
REMARK SMILES IDX 76 78 69 79 71 80 72 81 73 82 74 83 51 84 52 85 60 86 53 87
REMARK SMILES IDX 55 88 61 89 54 90 56 91 57 92 58 93 59 94
REMARK H PARENT 15 6 8 16 22 28 81 47 49 58
REMARK Flexibility Score: inf
ROOT
ATOM      1  C   UNL A   1      33.311  23.869  22.666  1.00  0.00     0.021 C 
ENDROOT
BRANCH   1   2
ATOM      2  C   UNL A   1      31.942  23.324  23.089  1.00  0.00     0.116 C 
BRANCH   2   3
ATOM      3  N   UNL A   1      32.021  22.089  23.841  1.00  0.00    -0.356 N 
ATOM      4  C   UNL A   1      31.821  21.762  25.140  1.00  0.00     0.223 C 
ATOM      5  O   UNL A   1      31.779  20.547  25.376  1.00  0.00    -0.275 OA
ATOM      6  H   UNL A   1      32.274  21.317  23.285  1.00  0.00     0.163 HD
BRANCH   4   7
ATOM      7  C   UNL A   1      31.710  22.746  26.315  1.00  0.00     0.078 C 
ATOM      8  C   UNL A   1      32.573  25.596  26.044  1.00  0.00     0.082 C 
ATOM      9  C   UNL A   1      31.115  25.212  25.751  1.00  0.00     0.026 C 
ATOM     10  C   UNL A   1      33.582  24.450  26.120  1.00  0.00     0.026 C 
ATOM     11  C   UNL A   1      30.657  23.848  26.247  1.00  0.00     0.015 C 
ATOM     12  C   UNL A   1      33.051  23.234  26.852  1.00  0.00     0.015 C 
BRANCH   8  13
ATOM     13  N   UNL A   1      32.983  26.610  25.082  1.00  0.00    -0.353 N 
ATOM     14  C   UNL A   1      33.633  27.790  25.189  1.00  0.00     0.220 C 
ATOM     15  O   UNL A   1      33.876  28.365  24.122  1.00  0.00    -0.275 OA
ATOM     16  H   UNL A   1      32.734  26.388  24.157  1.00  0.00     0.163 HD
BRANCH  14  17
ATOM     17  C   UNL A   1      34.178  28.327  26.494  1.00  0.00     0.102 C 
BRANCH  17  18
ATOM     18  C   UNL A   1      33.261  29.013  27.506  1.00  0.00     0.038 C 
BRANCH  18  19
ATOM     19  C   UNL A   1      31.916  29.635  27.118  1.00  0.00     0.160 C 
BRANCH  19  20
ATOM     20  O   UNL A   1      31.770  31.034  26.876  1.00  0.00    -0.385 OA
ATOM     21  C   UNL A   1      31.028  31.468  25.757  1.00  0.00     0.194 C 
ENDBRANCH  19  20
ENDBRANCH  18  19
ENDBRANCH  17  18
ENDBRANCH  14  17
ENDBRANCH   8  13
ENDBRANCH   4   7
ENDBRANCH   2   3
ENDBRANCH   1   2
BRANCH   1  22
ATOM     22  C   UNL A   1      34.446  22.853  22.751  1.00  0.00     0.002 C 
BRANCH  22  23
ATOM     23  C   UNL A   1      35.689  23.336  23.509  1.00  0.00     0.002 C 
BRANCH  23  24
ATOM     24  C   UNL A   1      36.697  22.253  23.911  1.00  0.00     0.021 C 
BRANCH  24  25
ATOM     25  C   UNL A   1      36.978  22.148  25.409  1.00  0.00     0.116 C 
BRANCH  25  26
ATOM     26  N   UNL A   1      37.950  21.102  25.703  1.00  0.00    -0.352 N 
ATOM     27  C   UNL A   1      39.252  21.204  26.125  1.00  0.00     0.251 C 
ATOM     28  H   UNL A   1      37.622  20.182  25.581  1.00  0.00     0.163 HD
ATOM     29  O   UNL A   1      39.998  20.232  26.054  1.00  0.00    -0.269 OA
BRANCH  27  30
ATOM     30  C   UNL A   1      39.750  22.483  26.666  1.00  0.00     0.039 A 
ATOM     31  C   UNL A   1      40.686  22.470  27.704  1.00  0.00     0.014 A 
ATOM     32  C   UNL A   1      39.277  23.693  26.154  1.00  0.00     0.014 A 
ATOM     33  C   UNL A   1      41.209  23.677  28.175  1.00  0.00     0.010 A 
ATOM     34  C   UNL A   1      39.845  24.889  26.580  1.00  0.00     0.010 A 
ATOM     35  C   UNL A   1      40.821  24.891  27.588  1.00  0.00    -0.014 A 
BRANCH  35  36
ATOM     36  C   UNL A   1      41.460  26.176  27.963  1.00  0.00     0.031 A 
ATOM     37  C   UNL A   1      40.662  27.254  28.639  1.00  0.00     0.074 A 
ATOM     38  C   UNL A   1      42.729  26.411  27.577  1.00  0.00     0.049 A 
ATOM     39  N   UNL A   1      41.023  28.468  28.959  1.00  0.00    -0.248 NA
ATOM     40  C   UNL A   1      39.265  26.933  28.975  1.00  0.00     0.031 C 
ATOM     41  C   UNL A   1      43.580  25.463  26.853  1.00  0.00     0.029 A 
ATOM     42  N   UNL A   1      43.513  27.530  27.705  1.00  0.00    -0.354 N 
ATOM     43  C   UNL A   1      39.892  29.072  29.495  1.00  0.00     0.074 A 
ATOM     44  C   UNL A   1      38.826  28.095  29.437  1.00  0.00     0.031 C 
ATOM     45  C   UNL A   1      44.768  26.037  26.609  1.00  0.00     0.029 A 
ATOM     46  C   UNL A   1      44.749  27.405  27.117  1.00  0.00     0.049 A 
ATOM     47  H   UNL A   1      43.218  28.344  28.175  1.00  0.00     0.167 HD
ATOM     48  C   UNL A   1      39.760  30.320  30.004  1.00  0.00     0.034 A 
ATOM     49  C   UNL A   1      45.750  28.297  26.984  1.00  0.00     0.034 A 
ATOM     50  C   UNL A   1      40.834  31.274  30.078  1.00  0.00     0.049 A 
ATOM     51  C   UNL A   1      45.575  29.678  27.554  1.00  0.00     0.074 A 
ATOM     52  C   UNL A   1      40.837  32.522  30.677  1.00  0.00     0.029 A 
ATOM     53  N   UNL A   1      42.089  31.099  29.514  1.00  0.00    -0.354 N 
ATOM     54  N   UNL A   1      44.560  30.174  28.219  1.00  0.00    -0.248 NA
ATOM     55  C   UNL A   1      46.691  30.617  27.372  1.00  0.00     0.031 C 
ATOM     56  C   UNL A   1      42.078  33.119  30.434  1.00  0.00     0.029 A 
ATOM     57  C   UNL A   1      42.862  32.230  29.715  1.00  0.00     0.049 A 
ATOM     58  H   UNL A   1      42.387  30.289  29.040  1.00  0.00     0.167 HD
ATOM     59  C   UNL A   1      44.922  31.472  28.559  1.00  0.00     0.074 A 
ATOM     60  C   UNL A   1      46.261  31.677  28.044  1.00  0.00     0.031 C 
ATOM     61  C   UNL A   1      44.206  32.411  29.226  1.00  0.00     0.034 A 
BRANCH  48  62
ATOM     62  C   UNL A   1      38.407  30.715  30.539  1.00  0.00     0.023 A 
ATOM     63  C   UNL A   1      38.041  30.359  31.854  1.00  0.00     0.012 A 
ATOM     64  C   UNL A   1      37.511  31.468  29.755  1.00  0.00     0.148 A 
ATOM     65  C   UNL A   1      36.790  30.702  32.362  1.00  0.00     0.002 A 
ATOM     66  C   UNL A   1      36.283  31.847  30.285  1.00  0.00     0.091 A 
ATOM     67  F   UNL A   1      37.864  31.782  28.500  1.00  0.00    -0.205 F 
ATOM     68  C   UNL A   1      35.915  31.453  31.581  1.00  0.00     0.022 A 
BRANCH  66  69
ATOM     69  S   UNL A   1      35.121  32.882  29.386  1.00  0.00     0.127 S 
ATOM     70  O   UNL A   1      34.082  33.099  30.390  1.00  0.00    -0.237 OA
ATOM     71  O   UNL A   1      35.930  34.062  29.081  1.00  0.00    -0.237 OA
ATOM     72  O   UNL A   1      34.718  32.109  28.220  1.00  0.00    -0.744 OA
ENDBRANCH  66  69
ENDBRANCH  48  62
BRANCH  49  73
ATOM     73  C   UNL A   1      47.030  27.885  26.344  1.00  0.00     0.023 A 
ATOM     74  C   UNL A   1      48.065  27.380  27.155  1.00  0.00     0.012 A 
ATOM     75  C   UNL A   1      47.213  27.936  24.948  1.00  0.00     0.148 A 
ATOM     76  C   UNL A   1      49.267  26.954  26.591  1.00  0.00     0.002 A 
ATOM     77  C   UNL A   1      48.394  27.461  24.387  1.00  0.00     0.091 A 
ATOM     78  F   UNL A   1      46.218  28.424  24.195  1.00  0.00    -0.205 F 
ATOM     79  C   UNL A   1      49.428  26.985  25.208  1.00  0.00     0.022 A 
BRANCH  77  80
ATOM     80  S   UNL A   1      48.651  27.348  22.613  1.00  0.00     0.127 S 
ATOM     81  O   UNL A   1      48.306  25.954  22.349  1.00  0.00    -0.237 OA
ATOM     82  O   UNL A   1      47.688  28.326  22.108  1.00  0.00    -0.237 OA
ATOM     83  O   UNL A   1      50.046  27.700  22.387  1.00  0.00    -0.744 OA
ENDBRANCH  77  80
ENDBRANCH  49  73
BRANCH  61  84
ATOM     84  C   UNL A   1      44.853  33.754  29.450  1.00  0.00     0.023 A 
ATOM     85  C   UNL A   1      45.606  33.979  30.620  1.00  0.00     0.012 A 
ATOM     86  C   UNL A   1      44.787  34.760  28.465  1.00  0.00     0.148 A 
ATOM     87  C   UNL A   1      46.265  35.192  30.815  1.00  0.00     0.002 A 
ATOM     88  C   UNL A   1      45.489  35.946  28.644  1.00  0.00     0.091 A 
ATOM     89  F   UNL A   1      44.053  34.530  27.366  1.00  0.00    -0.205 F 
ATOM     90  C   UNL A   1      46.217  36.169  29.824  1.00  0.00     0.022 A 
BRANCH  88  91
ATOM     91  S   UNL A   1      45.567  37.225  27.384  1.00  0.00     0.127 S 
ATOM     92  O   UNL A   1      46.425  38.222  28.025  1.00  0.00    -0.237 OA
ATOM     93  O   UNL A   1      46.188  36.516  26.265  1.00  0.00    -0.237 OA
ATOM     94  O   UNL A   1      44.193  37.648  27.150  1.00  0.00    -0.744 OA
ENDBRANCH  88  91
ENDBRANCH  61  84
ENDBRANCH  35  36
ENDBRANCH  27  30
ENDBRANCH  25  26
ENDBRANCH  24  25
ENDBRANCH  23  24
ENDBRANCH  22  23
ENDBRANCH   1  22
TORSDOF 21
ENDMDL
MODEL 2
REMARK VINA RESULT:     -10.2      1.940      2.205
REMARK SMILES COCCCC(=O)N[C@H]1CC[C@@H](C(=O)NCCCCCCNC(=O)c2ccc(-c3c4nc(c(-c5cccc(S(=O)(=O)[O-])c5F)c5ccc([nH]5)c(-c5cccc(S(=O)(=O)[O-])c5F)c5nc(c(-c6cccc(S(=O)(=O)[O-])c6F)c6ccc3[nH]6)C=C5)C=C4)cc2)CC1
REMARK SMILES IDX 17 1 16 2 15 3 13 4 14 5 12 7 9 8 10 9 89 10 11 11 88 12
REMARK SMILES IDX 8 13 6 14 7 15 5 17 4 18 3 19 2 20 1 21 18 22 19 23 20 24
REMARK SMILES IDX 21 25 22 26 23 27 24 29 25 30 26 31 87 32 27 33 86 34 28 35
REMARK SMILES IDX 29 36 30 37 80 38 31 39 85 40 79 41 81 42 32 43 84 44 78 45
REMARK SMILES IDX 77 46 33 48 65 49 45 50 64 51 46 52 49 53 63 54 82 55 47 56
REMARK SMILES IDX 48 57 62 59 83 60 50 61 34 62 35 63 43 64 36 65 38 66 44 67
REMARK SMILES IDX 37 68 39 69 40 70 41 71 42 72 66 73 67 74 75 75 68 76 70 77
REMARK SMILES IDX 76 78 69 79 71 80 72 81 73 82 74 83 51 84 52 85 60 86 53 87
REMARK SMILES IDX 55 88 61 89 54 90 56 91 57 92 58 93 59 94
REMARK H PARENT 15 6 8 16 22 28 81 47 49 58
REMARK Flexibility Score: inf
ROOT
ATOM      1  C   UNL A   1      33.264  23.947  22.719  1.00  0.00     0.021 C 
ENDROOT
BRANCH   1   2
ATOM      2  C   UNL A   1      31.916  23.292  23.042  1.00  0.00     0.116 C 
BRANCH   2   3
ATOM      3  N   UNL A   1      32.039  22.061  23.797  1.00  0.00    -0.356 N 
ATOM      4  C   UNL A   1      31.863  21.733  25.098  1.00  0.00     0.223 C 
ATOM      5  O   UNL A   1      31.859  20.517  25.338  1.00  0.00    -0.275 OA
ATOM      6  H   UNL A   1      32.309  21.296  23.240  1.00  0.00     0.163 HD
BRANCH   4   7
ATOM      7  C   UNL A   1      31.734  22.715  26.272  1.00  0.00     0.078 C 
ATOM      8  C   UNL A   1      32.552  25.578  25.999  1.00  0.00     0.082 C 
ATOM      9  C   UNL A   1      31.101  25.171  25.704  1.00  0.00     0.026 C 
ATOM     10  C   UNL A   1      33.580  24.449  26.078  1.00  0.00     0.026 C 
ATOM     11  C   UNL A   1      30.664  23.801  26.201  1.00  0.00     0.015 C 
ATOM     12  C   UNL A   1      33.067  23.225  26.810  1.00  0.00     0.015 C 
BRANCH   8  13
ATOM     13  N   UNL A   1      32.948  26.598  25.037  1.00  0.00    -0.353 N 
ATOM     14  C   UNL A   1      33.626  27.763  25.135  1.00  0.00     0.220 C 
ATOM     15  O   UNL A   1      33.842  28.348  24.069  1.00  0.00    -0.275 OA
ATOM     16  H   UNL A   1      32.661  26.394  24.118  1.00  0.00     0.163 HD
BRANCH  14  17
ATOM     17  C   UNL A   1      34.228  28.271  26.427  1.00  0.00     0.102 C 
BRANCH  17  18
ATOM     18  C   UNL A   1      33.360  28.946  27.488  1.00  0.00     0.038 C 
BRANCH  18  19
ATOM     19  C   UNL A   1      32.107  29.755  27.142  1.00  0.00     0.160 C 
BRANCH  19  20
ATOM     20  O   UNL A   1      32.008  30.519  25.940  1.00  0.00    -0.385 OA
ATOM     21  C   UNL A   1      31.016  30.190  24.993  1.00  0.00     0.194 C 
ENDBRANCH  19  20
ENDBRANCH  18  19
ENDBRANCH  17  18
ENDBRANCH  14  17
ENDBRANCH   8  13
ENDBRANCH   4   7
ENDBRANCH   2   3
ENDBRANCH   1   2
BRANCH   1  22
ATOM     22  C   UNL A   1      34.436  22.972  22.647  1.00  0.00     0.002 C 
BRANCH  22  23
ATOM     23  C   UNL A   1      35.657  23.367  23.487  1.00  0.00     0.002 C 
BRANCH  23  24
ATOM     24  C   UNL A   1      36.623  22.232  23.846  1.00  0.00     0.021 C 
BRANCH  24  25
ATOM     25  C   UNL A   1      36.815  21.990  25.342  1.00  0.00     0.116 C 
BRANCH  25  26
ATOM     26  N   UNL A   1      37.744  20.894  25.596  1.00  0.00    -0.352 N 
ATOM     27  C   UNL A   1      39.054  20.927  26.003  1.00  0.00     0.251 C 
ATOM     28  H   UNL A   1      37.375  19.993  25.453  1.00  0.00     0.163 HD
ATOM     29  O   UNL A   1      39.756  19.927  25.896  1.00  0.00    -0.269 OA
BRANCH  27  30
ATOM     30  C   UNL A   1      39.614  22.169  26.572  1.00  0.00     0.039 A 
ATOM     31  C   UNL A   1      40.582  22.086  27.577  1.00  0.00     0.014 A 
ATOM     32  C   UNL A   1      39.169  23.412  26.119  1.00  0.00     0.014 A 
ATOM     33  C   UNL A   1      41.162  23.256  28.072  1.00  0.00     0.010 A 
ATOM     34  C   UNL A   1      39.792  24.571  26.567  1.00  0.00     0.010 A 
ATOM     35  C   UNL A   1      40.799  24.504  27.541  1.00  0.00    -0.014 A 
BRANCH  35  36
ATOM     36  C   UNL A   1      41.495  25.751  27.939  1.00  0.00     0.031 A 
ATOM     37  C   UNL A   1      40.752  26.840  28.659  1.00  0.00     0.074 A 
ATOM     38  C   UNL A   1      42.765  25.948  27.536  1.00  0.00     0.049 A 
ATOM     39  N   UNL A   1      41.167  28.030  29.006  1.00  0.00    -0.248 NA
ATOM     40  C   UNL A   1      39.351  26.564  29.014  1.00  0.00     0.031 C 
ATOM     41  C   UNL A   1      43.565  24.988  26.770  1.00  0.00     0.029 A 
ATOM     42  N   UNL A   1      43.595  27.031  27.680  1.00  0.00    -0.354 N 
ATOM     43  C   UNL A   1      40.071  28.662  29.580  1.00  0.00     0.074 A 
ATOM     44  C   UNL A   1      38.966  27.729  29.516  1.00  0.00     0.031 C 
ATOM     45  C   UNL A   1      44.770  25.522  26.519  1.00  0.00     0.029 A 
ATOM     46  C   UNL A   1      44.814  26.875  27.065  1.00  0.00     0.049 A 
ATOM     47  H   UNL A   1      43.341  27.842  28.178  1.00  0.00     0.167 HD
ATOM     48  C   UNL A   1      39.997  29.899  30.126  1.00  0.00     0.034 A 
ATOM     49  C   UNL A   1      45.847  27.731  26.938  1.00  0.00     0.034 A 
ATOM     50  C   UNL A   1      41.109  30.807  30.207  1.00  0.00     0.049 A 
ATOM     51  C   UNL A   1      45.737  29.100  27.549  1.00  0.00     0.074 A 
ATOM     52  C   UNL A   1      41.172  32.037  30.839  1.00  0.00     0.029 A 
ATOM     53  N   UNL A   1      42.346  30.600  29.613  1.00  0.00    -0.354 N 
ATOM     54  N   UNL A   1      44.755  29.616  28.247  1.00  0.00    -0.248 NA
ATOM     55  C   UNL A   1      46.886  30.000  27.372  1.00  0.00     0.031 C 
ATOM     56  C   UNL A   1      42.432  32.592  30.589  1.00  0.00     0.029 A 
ATOM     57  C   UNL A   1      43.167  31.694  29.831  1.00  0.00     0.049 A 
ATOM     58  H   UNL A   1      42.603  29.792  29.112  1.00  0.00     0.167 HD
ATOM     59  C   UNL A   1      45.174  30.889  28.615  1.00  0.00     0.074 A 
ATOM     60  C   UNL A   1      46.511  31.057  28.081  1.00  0.00     0.031 C 
ATOM     61  C   UNL A   1      44.508  31.836  29.322  1.00  0.00     0.034 A 
BRANCH  48  62
ATOM     62  C   UNL A   1      38.671  30.331  30.698  1.00  0.00     0.023 A 
ATOM     63  C   UNL A   1      38.329  29.980  32.020  1.00  0.00     0.012 A 
ATOM     64  C   UNL A   1      37.777  31.113  29.940  1.00  0.00     0.148 A 
ATOM     65  C   UNL A   1      37.102  30.357  32.562  1.00  0.00     0.002 A 
ATOM     66  C   UNL A   1      36.575  31.525  30.503  1.00  0.00     0.091 A 
ATOM     67  F   UNL A   1      38.106  31.421  28.677  1.00  0.00    -0.205 F 
ATOM     68  C   UNL A   1      36.229  31.137  31.807  1.00  0.00     0.022 A 
BRANCH  66  69
ATOM     69  S   UNL A   1      35.420  32.597  29.638  1.00  0.00     0.127 S 
ATOM     70  O   UNL A   1      34.304  32.649  30.579  1.00  0.00    -0.237 OA
ATOM     71  O   UNL A   1      36.181  33.842  29.525  1.00  0.00    -0.237 OA
ATOM     72  O   UNL A   1      35.142  31.941  28.368  1.00  0.00    -0.744 OA
ENDBRANCH  66  69
ENDBRANCH  48  62
BRANCH  49  73
ATOM     73  C   UNL A   1      47.098  27.287  26.262  1.00  0.00     0.023 A 
ATOM     74  C   UNL A   1      47.288  27.607  24.903  1.00  0.00     0.012 A 
ATOM     75  C   UNL A   1      48.116  26.604  26.957  1.00  0.00     0.148 A 
ATOM     76  C   UNL A   1      48.460  27.237  24.243  1.00  0.00     0.002 A 
ATOM     77  C   UNL A   1      49.303  26.283  26.306  1.00  0.00     0.091 A 
ATOM     78  F   UNL A   1      47.912  26.304  28.247  1.00  0.00    -0.205 F 
ATOM     79  C   UNL A   1      49.470  26.585  24.946  1.00  0.00     0.022 A 
BRANCH  77  80
ATOM     80  S   UNL A   1      50.709  25.551  27.153  1.00  0.00     0.127 S 
ATOM     81  O   UNL A   1      51.016  26.567  28.156  1.00  0.00    -0.237 OA
ATOM     82  O   UNL A   1      50.129  24.317  27.683  1.00  0.00    -0.237 OA
ATOM     83  O   UNL A   1      51.729  25.350  26.133  1.00  0.00    -0.744 OA
ENDBRANCH  77  80
ENDBRANCH  49  73
BRANCH  61  84
ATOM     84  C   UNL A   1      45.211  33.146  29.571  1.00  0.00     0.023 A 
ATOM     85  C   UNL A   1      45.024  34.219  28.676  1.00  0.00     0.012 A 
ATOM     86  C   UNL A   1      45.983  33.341  30.733  1.00  0.00     0.148 A 
ATOM     87  C   UNL A   1      45.613  35.459  28.923  1.00  0.00     0.002 A 
ATOM     88  C   UNL A   1      46.525  34.593  30.998  1.00  0.00     0.091 A 
ATOM     89  F   UNL A   1      46.160  32.303  31.563  1.00  0.00    -0.205 F 
ATOM     90  C   UNL A   1      46.352  35.649  30.089  1.00  0.00     0.022 A 
BRANCH  88  91
ATOM     91  S   UNL A   1      47.410  34.964  32.517  1.00  0.00     0.127 S 
ATOM     92  O   UNL A   1      46.361  34.792  33.523  1.00  0.00    -0.237 OA
ATOM     93  O   UNL A   1      48.443  33.928  32.532  1.00  0.00    -0.237 OA
ATOM     94  O   UNL A   1      47.913  36.323  32.372  1.00  0.00    -0.744 OA
ENDBRANCH  88  91
ENDBRANCH  61  84
ENDBRANCH  35  36
ENDBRANCH  27  30
ENDBRANCH  25  26
ENDBRANCH  24  25
ENDBRANCH  23  24
ENDBRANCH  22  23
ENDBRANCH   1  22
TORSDOF 21
ENDMDL
MODEL 3
REMARK VINA RESULT:      -9.9      1.581      7.844
REMARK SMILES COCCCC(=O)N[C@H]1CC[C@@H](C(=O)NCCCCCCNC(=O)c2ccc(-c3c4nc(c(-c5cccc(S(=O)(=O)[O-])c5F)c5ccc([nH]5)c(-c5cccc(S(=O)(=O)[O-])c5F)c5nc(c(-c6cccc(S(=O)(=O)[O-])c6F)c6ccc3[nH]6)C=C5)C=C4)cc2)CC1
REMARK SMILES IDX 17 1 16 2 15 3 13 4 14 5 12 7 9 8 10 9 89 10 11 11 88 12
REMARK SMILES IDX 8 13 6 14 7 15 5 17 4 18 3 19 2 20 1 21 18 22 19 23 20 24
REMARK SMILES IDX 21 25 22 26 23 27 24 29 25 30 26 31 87 32 27 33 86 34 28 35
REMARK SMILES IDX 29 36 30 37 80 38 31 39 85 40 79 41 81 42 32 43 84 44 78 45
REMARK SMILES IDX 77 46 33 48 65 49 45 50 64 51 46 52 49 53 63 54 82 55 47 56
REMARK SMILES IDX 48 57 62 59 83 60 50 61 34 62 35 63 43 64 36 65 38 66 44 67
REMARK SMILES IDX 37 68 39 69 40 70 41 71 42 72 66 73 67 74 75 75 68 76 70 77
REMARK SMILES IDX 76 78 69 79 71 80 72 81 73 82 74 83 51 84 52 85 60 86 53 87
REMARK SMILES IDX 55 88 61 89 54 90 56 91 57 92 58 93 59 94
REMARK H PARENT 15 6 8 16 22 28 81 47 49 58
REMARK Flexibility Score: inf
ROOT
ATOM      1  C   UNL A   1      36.094  22.166  24.080  1.00  0.00     0.021 C 
ENDROOT
BRANCH   1   2
ATOM      2  C   UNL A   1      35.170  22.861  25.086  1.00  0.00     0.116 C 
BRANCH   2   3
ATOM      3  N   UNL A   1      34.544  21.947  26.020  1.00  0.00    -0.356 N 
ATOM      4  C   UNL A   1      33.391  21.237  26.015  1.00  0.00     0.223 C 
ATOM      5  O   UNL A   1      33.290  20.390  26.913  1.00  0.00    -0.275 OA
ATOM      6  H   UNL A   1      35.075  21.812  26.839  1.00  0.00     0.163 HD
BRANCH   4   7
ATOM      7  C   UNL A   1      32.210  21.434  25.052  1.00  0.00     0.078 C 
ATOM      8  C   UNL A   1      32.215  23.620  23.013  1.00  0.00     0.082 C 
ATOM      9  C   UNL A   1      32.760  22.233  22.641  1.00  0.00     0.026 C 
ATOM     10  C   UNL A   1      32.022  23.906  24.502  1.00  0.00     0.026 C 
ATOM     11  C   UNL A   1      32.404  21.089  23.579  1.00  0.00     0.015 C 
ATOM     12  C   UNL A   1      31.439  22.733  25.264  1.00  0.00     0.015 C 
BRANCH   8  13
ATOM     13  N   UNL A   1      33.052  24.629  22.377  1.00  0.00    -0.353 N 
ATOM     14  C   UNL A   1      32.806  25.845  21.840  1.00  0.00     0.220 C 
ATOM     15  O   UNL A   1      33.799  26.465  21.445  1.00  0.00    -0.275 OA
ATOM     16  H   UNL A   1      33.999  24.368  22.327  1.00  0.00     0.163 HD
BRANCH  14  17
ATOM     17  C   UNL A   1      31.442  26.500  21.849  1.00  0.00     0.102 C 
BRANCH  17  18
ATOM     18  C   UNL A   1      31.012  27.404  23.004  1.00  0.00     0.038 C 
BRANCH  18  19
ATOM     19  C   UNL A   1      31.886  27.645  24.239  1.00  0.00     0.160 C 
BRANCH  19  20
ATOM     20  O   UNL A   1      31.353  27.605  25.562  1.00  0.00    -0.385 OA
ATOM     21  C   UNL A   1      31.785  28.558  26.509  1.00  0.00     0.194 C 
ENDBRANCH  19  20
ENDBRANCH  18  19
ENDBRANCH  17  18
ENDBRANCH  14  17
ENDBRANCH   8  13
ENDBRANCH   4   7
ENDBRANCH   2   3
ENDBRANCH   1   2
BRANCH   1  22
ATOM     22  C   UNL A   1      37.288  21.453  24.710  1.00  0.00     0.002 C 
BRANCH  22  23
ATOM     23  C   UNL A   1      37.229  19.921  24.649  1.00  0.00     0.002 C 
BRANCH  23  24
ATOM     24  C   UNL A   1      38.462  19.179  25.179  1.00  0.00     0.021 C 
BRANCH  24  25
ATOM     25  C   UNL A   1      39.301  19.952  26.194  1.00  0.00     0.116 C 
BRANCH  25  26
ATOM     26  N   UNL A   1      40.605  19.333  26.400  1.00  0.00    -0.352 N 
ATOM     27  C   UNL A   1      41.846  19.909  26.511  1.00  0.00     0.251 C 
ATOM     28  H   UNL A   1      40.594  18.351  26.470  1.00  0.00     0.163 HD
ATOM     29  O   UNL A   1      42.855  19.219  26.403  1.00  0.00    -0.269 OA
BRANCH  27  30
ATOM     30  C   UNL A   1      41.961  21.358  26.764  1.00  0.00     0.039 A 
ATOM     31  C   UNL A   1      42.275  21.806  28.050  1.00  0.00     0.014 A 
ATOM     32  C   UNL A   1      41.744  22.271  25.729  1.00  0.00     0.014 A 
ATOM     33  C   UNL A   1      42.450  23.173  28.280  1.00  0.00     0.010 A 
ATOM     34  C   UNL A   1      41.981  23.623  25.945  1.00  0.00     0.010 A 
ATOM     35  C   UNL A   1      42.343  24.087  27.219  1.00  0.00    -0.014 A 
BRANCH  35  36
ATOM     36  C   UNL A   1      42.662  25.523  27.395  1.00  0.00     0.031 A 
ATOM     37  C   UNL A   1      44.001  26.062  26.978  1.00  0.00     0.074 A 
ATOM     38  C   UNL A   1      41.786  26.312  28.048  1.00  0.00     0.049 A 
ATOM     39  N   UNL A   1      44.490  27.264  27.135  1.00  0.00    -0.248 NA
ATOM     40  C   UNL A   1      44.920  25.119  26.322  1.00  0.00     0.031 C 
ATOM     41  C   UNL A   1      40.483  25.881  28.560  1.00  0.00     0.029 A 
ATOM     42  N   UNL A   1      41.872  27.629  28.424  1.00  0.00    -0.354 N 
ATOM     43  C   UNL A   1      45.787  27.214  26.638  1.00  0.00     0.074 A 
ATOM     44  C   UNL A   1      46.015  25.856  26.193  1.00  0.00     0.031 C 
ATOM     45  C   UNL A   1      39.889  26.914  29.177  1.00  0.00     0.029 A 
ATOM     46  C   UNL A   1      40.785  28.066  29.143  1.00  0.00     0.049 A 
ATOM     47  H   UNL A   1      42.638  28.205  28.200  1.00  0.00     0.167 HD
ATOM     48  C   UNL A   1      46.697  28.213  26.545  1.00  0.00     0.034 A 
ATOM     49  C   UNL A   1      40.542  29.256  29.727  1.00  0.00     0.034 A 
ATOM     50  C   UNL A   1      46.449  29.565  26.968  1.00  0.00     0.049 A 
ATOM     51  C   UNL A   1      41.572  30.346  29.613  1.00  0.00     0.074 A 
ATOM     52  C   UNL A   1      47.260  30.676  26.815  1.00  0.00     0.029 A 
ATOM     53  N   UNL A   1      45.318  29.987  27.652  1.00  0.00    -0.354 N 
ATOM     54  N   UNL A   1      42.720  30.334  28.980  1.00  0.00    -0.248 NA
ATOM     55  C   UNL A   1      41.265  31.621  30.277  1.00  0.00     0.031 C 
ATOM     56  C   UNL A   1      46.639  31.759  27.447  1.00  0.00     0.029 A 
ATOM     57  C   UNL A   1      45.425  31.332  27.963  1.00  0.00     0.049 A 
ATOM     58  H   UNL A   1      44.551  29.413  27.882  1.00  0.00     0.167 HD
ATOM     59  C   UNL A   1      43.261  31.604  29.146  1.00  0.00     0.074 A 
ATOM     60  C   UNL A   1      42.303  32.366  29.921  1.00  0.00     0.031 C 
ATOM     61  C   UNL A   1      44.449  32.089  28.706  1.00  0.00     0.034 A 
BRANCH  48  62
ATOM     62  C   UNL A   1      48.038  27.880  25.943  1.00  0.00     0.023 A 
ATOM     63  C   UNL A   1      49.129  27.578  26.784  1.00  0.00     0.012 A 
ATOM     64  C   UNL A   1      48.211  27.831  24.546  1.00  0.00     0.148 A 
ATOM     65  C   UNL A   1      50.381  27.282  26.247  1.00  0.00     0.002 A 
ATOM     66  C   UNL A   1      49.450  27.488  24.017  1.00  0.00     0.091 A 
ATOM     67  F   UNL A   1      47.169  28.140  23.759  1.00  0.00    -0.205 F 
ATOM     68  C   UNL A   1      50.539  27.229  24.864  1.00  0.00     0.022 A 
BRANCH  66  69
ATOM     69  S   UNL A   1      49.732  27.316  22.250  1.00  0.00     0.127 S 
ATOM     70  O   UNL A   1      51.139  26.923  22.213  1.00  0.00    -0.237 OA
ATOM     71  O   UNL A   1      48.792  26.253  21.891  1.00  0.00    -0.237 OA
ATOM     72  O   UNL A   1      49.425  28.615  21.668  1.00  0.00    -0.744 OA
ENDBRANCH  66  69
ENDBRANCH  48  62
BRANCH  49  73
ATOM     73  C   UNL A   1      39.239  29.495  30.408  1.00  0.00     0.023 A 
ATOM     74  C   UNL A   1      39.034  28.955  31.693  1.00  0.00     0.012 A 
ATOM     75  C   UNL A   1      38.231  30.288  29.826  1.00  0.00     0.148 A 
ATOM     76  C   UNL A   1      37.841  29.182  32.378  1.00  0.00     0.002 A 
ATOM     77  C   UNL A   1      37.064  30.553  30.535  1.00  0.00     0.091 A 
ATOM     78  F   UNL A   1      38.444  30.788  28.601  1.00  0.00    -0.205 F 
ATOM     79  C   UNL A   1      36.861  29.989  31.804  1.00  0.00     0.022 A 
BRANCH  77  80
ATOM     80  S   UNL A   1      35.795  31.675  29.935  1.00  0.00     0.127 S 
ATOM     81  O   UNL A   1      34.988  31.882  31.134  1.00  0.00    -0.237 OA
ATOM     82  O   UNL A   1      36.590  32.831  29.521  1.00  0.00    -0.237 OA
ATOM     83  O   UNL A   1      35.128  30.977  28.845  1.00  0.00    -0.744 OA
ENDBRANCH  77  80
ENDBRANCH  49  73
BRANCH  61  84
ATOM     84  C   UNL A   1      44.788  33.519  29.043  1.00  0.00     0.023 A 
ATOM     85  C   UNL A   1      45.726  33.793  30.059  1.00  0.00     0.012 A 
ATOM     86  C   UNL A   1      44.245  34.583  28.297  1.00  0.00     0.148 A 
ATOM     87  C   UNL A   1      46.101  35.106  30.340  1.00  0.00     0.002 A 
ATOM     88  C   UNL A   1      44.662  35.885  28.550  1.00  0.00     0.091 A 
ATOM     89  F   UNL A   1      43.343  34.301  27.345  1.00  0.00    -0.205 F 
ATOM     90  C   UNL A   1      45.580  36.149  29.579  1.00  0.00     0.022 A 
BRANCH  88  91
ATOM     91  S   UNL A   1      44.122  37.285  27.561  1.00  0.00     0.127 S 
ATOM     92  O   UNL A   1      43.194  36.648  26.626  1.00  0.00    -0.237 OA
ATOM     93  O   UNL A   1      43.486  38.141  28.563  1.00  0.00    -0.237 OA
ATOM     94  O   UNL A   1      45.324  37.843  26.957  1.00  0.00    -0.744 OA
ENDBRANCH  88  91
ENDBRANCH  61  84
ENDBRANCH  35  36
ENDBRANCH  27  30
ENDBRANCH  25  26
ENDBRANCH  24  25
ENDBRANCH  23  24
ENDBRANCH  22  23
ENDBRANCH   1  22
TORSDOF 21
ENDMDL
