MODEL 1
REMARK VINA RESULT:     -10.4      0.000      0.000
REMARK SMILES C[C@@H](C(=O)NCCCCCCNC(=O)c1ccc(-c2c3nc(c(-c4cccc(S(=O)(=O)[O-])c4F)c4ccc([nH]4)c(-c4cccc(S(=O)(=O)[O-])c4F)c4nc(c(-c5cccc(S(=O)(=O)[O-])c5F)c5ccc2[nH]5)C=C4)C=C3)cc1)c1ccc2c3cc(Cl)ccc3n(C(=O)c3cocn3)c2c1
REMARK SMILES IDX 8 1 7 2 6 3 5 4 3 5 4 6 2 8 1 9 78 10 79 11 98 12 80 13
REMARK SMILES IDX 97 14 81 15 89 16 82 17 88 18 83 19 87 20 84 21 86 22 85 23
REMARK SMILES IDX 90 24 91 25 92 26 93 27 96 28 94 29 95 30 9 31 10 32 11 33
REMARK SMILES IDX 12 34 13 35 14 37 15 38 16 39 77 40 17 41 76 42 18 43 19 44
REMARK SMILES IDX 20 45 70 46 21 47 75 48 69 49 71 50 22 51 74 52 68 53 67 54
REMARK SMILES IDX 23 56 55 57 35 58 54 59 36 60 39 61 53 62 72 63 37 64 38 65
REMARK SMILES IDX 52 67 73 68 40 69 24 70 25 71 33 72 26 73 28 74 34 75 27 76
REMARK SMILES IDX 29 77 30 78 31 79 32 80 56 81 57 82 65 83 58 84 60 85 66 86
REMARK SMILES IDX 59 87 61 88 62 89 63 90 64 91 41 92 42 93 50 94 43 95 45 96
REMARK SMILES IDX 51 97 44 98 46 99 47 100 48 101 49 102
REMARK H PARENT 5 7 12 36 71 55 39 66
REMARK Flexibility Score: inf
ROOT
ATOM      1  C   UNL A   1      36.892  23.995  26.431  1.00  0.00     0.002 C 
ENDROOT
BRANCH   1   2
ATOM      2  C   UNL A   1      36.006  23.912  25.182  1.00  0.00     0.021 C 
BRANCH   2   3
ATOM      3  C   UNL A   1      34.596  24.476  25.382  1.00  0.00     0.116 C 
BRANCH   3   4
ATOM      4  N   UNL A   1      34.401  25.630  24.529  1.00  0.00    -0.356 N 
ATOM      5  C   UNL A   1      33.508  26.655  24.651  1.00  0.00     0.227 C 
ATOM      6  O   UNL A   1      33.318  27.352  23.650  1.00  0.00    -0.274 OA
ATOM      7  H   UNL A   1      35.001  25.684  23.749  1.00  0.00     0.163 HD
BRANCH   5   8
ATOM      8  C   UNL A   1      32.826  26.920  26.006  1.00  0.00     0.105 C 
ATOM      9  C   UNL A   1      31.345  26.522  25.975  1.00  0.00     0.023 C 
BRANCH   8  10
ATOM     10  C   UNL A   1      33.056  28.364  26.468  1.00  0.00    -0.034 A 
ATOM     11  C   UNL A   1      32.189  29.407  26.135  1.00  0.00     0.005 A 
ATOM     12  C   UNL A   1      34.206  28.650  27.231  1.00  0.00     0.032 A 
ATOM     13  C   UNL A   1      32.413  30.706  26.597  1.00  0.00     0.011 A 
ATOM     14  C   UNL A   1      34.472  29.978  27.632  1.00  0.00     0.058 A 
ATOM     15  C   UNL A   1      33.560  30.993  27.361  1.00  0.00     0.008 A 
ATOM     16  N   UNL A   1      35.560  30.536  28.323  1.00  0.00    -0.274 N 
ATOM     17  C   UNL A   1      34.050  32.185  27.951  1.00  0.00     0.009 A 
ATOM     18  C   UNL A   1      35.318  31.916  28.479  1.00  0.00     0.057 A 
ATOM     19  C   UNL A   1      33.519  33.491  28.021  1.00  0.00     0.031 A 
ATOM     20  C   UNL A   1      36.114  32.973  28.968  1.00  0.00     0.029 A 
ATOM     21  C   UNL A   1      34.282  34.514  28.575  1.00  0.00     0.041 A 
ATOM     22  C   UNL A   1      35.571  34.264  29.024  1.00  0.00     0.023 A 
ATOM     23  Cl  UNL A   1      33.633  36.105  28.662  1.00  0.00    -0.084 Cl
BRANCH  16  24
ATOM     24  C   UNL A   1      36.709  29.808  28.738  1.00  0.00     0.284 C 
ATOM     25  O   UNL A   1      37.452  29.402  27.830  1.00  0.00    -0.266 OA
BRANCH  24  26
ATOM     26  C   UNL A   1      37.054  29.487  30.117  1.00  0.00     0.167 A 
ATOM     27  C   UNL A   1      36.544  30.025  31.281  1.00  0.00     0.231 A 
ATOM     28  N   UNL A   1      37.908  28.446  30.457  1.00  0.00    -0.211 NA
ATOM     29  O   UNL A   1      37.080  29.355  32.340  1.00  0.00    -0.451 OA
ATOM     30  C   UNL A   1      37.871  28.409  31.765  1.00  0.00     0.308 A 
ENDBRANCH  24  26
ENDBRANCH  16  24
ENDBRANCH   8  10
ENDBRANCH   5   8
ENDBRANCH   3   4
ENDBRANCH   2   3
ENDBRANCH   1   2
BRANCH   1  31
ATOM     31  C   UNL A   1      38.374  24.257  26.155  1.00  0.00     0.002 C 
BRANCH  31  32
ATOM     32  C   UNL A   1      39.115  24.996  27.271  1.00  0.00     0.021 C 
BRANCH  32  33
ATOM     33  C   UNL A   1      40.546  24.522  27.506  1.00  0.00     0.116 C 
BRANCH  33  34
ATOM     34  N   UNL A   1      41.332  24.535  26.282  1.00  0.00    -0.352 N 
ATOM     35  C   UNL A   1      42.063  25.561  25.739  1.00  0.00     0.251 C 
ATOM     36  H   UNL A   1      41.340  23.691  25.774  1.00  0.00     0.163 HD
ATOM     37  O   UNL A   1      42.509  25.464  24.599  1.00  0.00    -0.269 OA
BRANCH  35  38
ATOM     38  C   UNL A   1      42.299  26.790  26.527  1.00  0.00     0.039 A 
ATOM     39  C   UNL A   1      43.184  26.745  27.607  1.00  0.00     0.014 A 
ATOM     40  C   UNL A   1      41.644  27.982  26.202  1.00  0.00     0.014 A 
ATOM     41  C   UNL A   1      43.453  27.909  28.330  1.00  0.00     0.010 A 
ATOM     42  C   UNL A   1      41.961  29.153  26.882  1.00  0.00     0.010 A 
ATOM     43  C   UNL A   1      42.863  29.128  27.957  1.00  0.00    -0.014 A 
BRANCH  43  44
ATOM     44  C   UNL A   1      43.182  30.390  28.671  1.00  0.00     0.031 A 
ATOM     45  C   UNL A   1      42.295  30.874  29.786  1.00  0.00     0.074 A 
ATOM     46  C   UNL A   1      44.211  31.151  28.251  1.00  0.00     0.049 A 
ATOM     47  N   UNL A   1      42.372  31.980  30.480  1.00  0.00    -0.248 NA
ATOM     48  C   UNL A   1      41.153  30.017  30.149  1.00  0.00     0.031 C 
ATOM     49  C   UNL A   1      45.090  30.834  27.123  1.00  0.00     0.029 A 
ATOM     50  N   UNL A   1      44.671  32.363  28.699  1.00  0.00    -0.354 N 
ATOM     51  C   UNL A   1      41.273  31.973  31.330  1.00  0.00     0.074 A 
ATOM     52  C   UNL A   1      40.527  30.766  31.046  1.00  0.00     0.031 C 
ATOM     53  C   UNL A   1      45.977  31.830  26.964  1.00  0.00     0.029 A 
ATOM     54  C   UNL A   1      45.718  32.864  27.963  1.00  0.00     0.049 A 
ATOM     55  H   UNL A   1      44.287  32.831  29.477  1.00  0.00     0.167 HD
ATOM     56  C   UNL A   1      40.931  32.872  32.284  1.00  0.00     0.034 A 
ATOM     57  C   UNL A   1      46.391  34.025  28.073  1.00  0.00     0.034 A 
ATOM     58  C   UNL A   1      41.707  34.040  32.602  1.00  0.00     0.049 A 
ATOM     59  C   UNL A   1      46.033  34.976  29.183  1.00  0.00     0.074 A 
ATOM     60  C   UNL A   1      41.504  34.956  33.620  1.00  0.00     0.029 A 
ATOM     61  N   UNL A   1      42.829  34.459  31.906  1.00  0.00    -0.354 N 
ATOM     62  N   UNL A   1      45.097  34.864  30.094  1.00  0.00    -0.248 NA
ATOM     63  C   UNL A   1      46.848  36.194  29.306  1.00  0.00     0.031 C 
ATOM     64  C   UNL A   1      42.498  35.935  33.531  1.00  0.00     0.029 A 
ATOM     65  C   UNL A   1      43.328  35.622  32.466  1.00  0.00     0.049 A 
ATOM     66  H   UNL A   1      43.216  33.996  31.128  1.00  0.00     0.167 HD
ATOM     67  C   UNL A   1      45.229  35.976  30.916  1.00  0.00     0.074 A 
ATOM     68  C   UNL A   1      46.351  36.740  30.408  1.00  0.00     0.031 C 
ATOM     69  C   UNL A   1      44.479  36.343  31.984  1.00  0.00     0.034 A 
BRANCH  56  70
ATOM     70  C   UNL A   1      39.695  32.592  33.097  1.00  0.00     0.023 A 
ATOM     71  C   UNL A   1      39.770  31.695  34.183  1.00  0.00     0.012 A 
ATOM     72  C   UNL A   1      38.479  33.250  32.827  1.00  0.00     0.148 A 
ATOM     73  C   UNL A   1      38.647  31.431  34.966  1.00  0.00     0.002 A 
ATOM     74  C   UNL A   1      37.375  33.012  33.638  1.00  0.00     0.091 A 
ATOM     75  F   UNL A   1      38.420  34.080  31.777  1.00  0.00    -0.205 F 
ATOM     76  C   UNL A   1      37.453  32.096  34.699  1.00  0.00     0.022 A 
BRANCH  74  77
ATOM     77  S   UNL A   1      35.815  33.878  33.420  1.00  0.00     0.127 S 
ATOM     78  O   UNL A   1      35.276  33.219  32.232  1.00  0.00    -0.237 OA
ATOM     79  O   UNL A   1      35.110  33.565  34.664  1.00  0.00    -0.237 OA
ATOM     80  O   UNL A   1      36.160  35.284  33.260  1.00  0.00    -0.744 OA
ENDBRANCH  74  77
ENDBRANCH  56  70
BRANCH  57  81
ATOM     81  C   UNL A   1      47.523  34.314  27.147  1.00  0.00     0.023 A 
ATOM     82  C   UNL A   1      47.268  34.983  25.934  1.00  0.00     0.012 A 
ATOM     83  C   UNL A   1      48.847  33.973  27.478  1.00  0.00     0.148 A 
ATOM     84  C   UNL A   1      48.309  35.284  25.056  1.00  0.00     0.002 A 
ATOM     85  C   UNL A   1      49.887  34.323  26.622  1.00  0.00     0.091 A 
ATOM     86  F   UNL A   1      49.068  33.324  28.630  1.00  0.00    -0.205 F 
ATOM     87  C   UNL A   1      49.618  34.964  25.404  1.00  0.00     0.022 A 
BRANCH  85  88
ATOM     88  S   UNL A   1      51.612  34.072  27.058  1.00  0.00     0.127 S 
ATOM     89  O   UNL A   1      52.281  34.316  25.783  1.00  0.00    -0.237 OA
ATOM     90  O   UNL A   1      51.824  35.105  28.073  1.00  0.00    -0.237 OA
ATOM     91  O   UNL A   1      51.692  32.710  27.568  1.00  0.00    -0.744 OA
ENDBRANCH  85  88
ENDBRANCH  57  81
BRANCH  69  92
ATOM     92  C   UNL A   1      44.854  37.613  32.700  1.00  0.00     0.023 A 
ATOM     93  C   UNL A   1      45.827  37.578  33.717  1.00  0.00     0.012 A 
ATOM     94  C   UNL A   1      44.306  38.851  32.308  1.00  0.00     0.148 A 
ATOM     95  C   UNL A   1      46.229  38.751  34.354  1.00  0.00     0.002 A 
ATOM     96  C   UNL A   1      44.744  40.021  32.917  1.00  0.00     0.091 A 
ATOM     97  F   UNL A   1      43.366  38.861  31.352  1.00  0.00    -0.205 F 
ATOM     98  C   UNL A   1      45.699  39.973  33.946  1.00  0.00     0.022 A 
BRANCH  96  99
ATOM     99  S   UNL A   1      44.182  41.644  32.390  1.00  0.00     0.127 S 
ATOM    100  O   UNL A   1      42.757  41.584  32.709  1.00  0.00    -0.237 OA
ATOM    101  O   UNL A   1      44.961  42.538  33.248  1.00  0.00    -0.237 OA
ATOM    102  O   UNL A   1      44.505  41.737  30.973  1.00  0.00    -0.744 OA
ENDBRANCH  96  99
ENDBRANCH  69  92
ENDBRANCH  43  44
ENDBRANCH  35  38
ENDBRANCH  33  34
ENDBRANCH  32  33
ENDBRANCH  31  32
ENDBRANCH   1  31
TORSDOF 19
ENDMDL
MODEL 2
REMARK VINA RESULT:     -10.2      5.919     10.915
REMARK SMILES C[C@@H](C(=O)NCCCCCCNC(=O)c1ccc(-c2c3nc(c(-c4cccc(S(=O)(=O)[O-])c4F)c4ccc([nH]4)c(-c4cccc(S(=O)(=O)[O-])c4F)c4nc(c(-c5cccc(S(=O)(=O)[O-])c5F)c5ccc2[nH]5)C=C4)C=C3)cc1)c1ccc2c3cc(Cl)ccc3n(C(=O)c3cocn3)c2c1
REMARK SMILES IDX 8 1 7 2 6 3 5 4 3 5 4 6 2 8 1 9 78 10 79 11 98 12 80 13
REMARK SMILES IDX 97 14 81 15 89 16 82 17 88 18 83 19 87 20 84 21 86 22 85 23
REMARK SMILES IDX 90 24 91 25 92 26 93 27 96 28 94 29 95 30 9 31 10 32 11 33
REMARK SMILES IDX 12 34 13 35 14 37 15 38 16 39 77 40 17 41 76 42 18 43 19 44
REMARK SMILES IDX 20 45 70 46 21 47 75 48 69 49 71 50 22 51 74 52 68 53 67 54
REMARK SMILES IDX 23 56 55 57 35 58 54 59 36 60 39 61 53 62 72 63 37 64 38 65
REMARK SMILES IDX 52 67 73 68 40 69 24 70 25 71 33 72 26 73 28 74 34 75 27 76
REMARK SMILES IDX 29 77 30 78 31 79 32 80 56 81 57 82 65 83 58 84 60 85 66 86
REMARK SMILES IDX 59 87 61 88 62 89 63 90 64 91 41 92 42 93 50 94 43 95 45 96
REMARK SMILES IDX 51 97 44 98 46 99 47 100 48 101 49 102
REMARK H PARENT 5 7 12 36 71 55 39 66
REMARK Flexibility Score: inf
ROOT
ATOM      1  C   UNL A   1      31.764  31.140  26.318  1.00  0.00     0.002 C 
ENDROOT
BRANCH   1   2
ATOM      2  C   UNL A   1      31.399  29.939  25.437  1.00  0.00     0.021 C 
BRANCH   2   3
ATOM      3  C   UNL A   1      31.667  28.582  26.095  1.00  0.00     0.116 C 
BRANCH   3   4
ATOM      4  N   UNL A   1      31.143  27.519  25.263  1.00  0.00    -0.356 N 
ATOM      5  C   UNL A   1      31.664  26.283  25.008  1.00  0.00     0.227 C 
ATOM      6  O   UNL A   1      31.209  25.675  24.036  1.00  0.00    -0.274 OA
ATOM      7  H   UNL A   1      30.287  27.715  24.817  1.00  0.00     0.163 HD
BRANCH   5   8
ATOM      8  C   UNL A   1      32.739  25.698  25.943  1.00  0.00     0.105 C 
ATOM      9  C   UNL A   1      34.079  26.425  25.781  1.00  0.00     0.023 C 
BRANCH   8  10
ATOM     10  C   UNL A   1      32.849  24.177  25.774  1.00  0.00    -0.034 A 
ATOM     11  C   UNL A   1      31.834  23.301  26.165  1.00  0.00     0.005 A 
ATOM     12  C   UNL A   1      34.037  23.646  25.230  1.00  0.00     0.032 A 
ATOM     13  C   UNL A   1      31.955  21.924  25.969  1.00  0.00     0.011 A 
ATOM     14  C   UNL A   1      34.189  22.248  25.105  1.00  0.00     0.058 A 
ATOM     15  C   UNL A   1      33.139  21.393  25.424  1.00  0.00     0.008 A 
ATOM     16  N   UNL A   1      35.275  21.470  24.670  1.00  0.00    -0.274 N 
ATOM     17  C   UNL A   1      33.551  20.070  25.120  1.00  0.00     0.009 A 
ATOM     18  C   UNL A   1      34.893  20.115  24.726  1.00  0.00     0.057 A 
ATOM     19  C   UNL A   1      32.881  18.830  25.208  1.00  0.00     0.031 A 
ATOM     20  C   UNL A   1      35.610  18.915  24.537  1.00  0.00     0.029 A 
ATOM     21  C   UNL A   1      33.577  17.654  24.946  1.00  0.00     0.041 A 
ATOM     22  C   UNL A   1      34.929  17.693  24.634  1.00  0.00     0.023 A 
ATOM     23  Cl  UNL A   1      32.761  16.144  25.050  1.00  0.00    -0.084 Cl
BRANCH  16  24
ATOM     24  C   UNL A   1      36.541  21.996  24.292  1.00  0.00     0.284 C 
ATOM     25  O   UNL A   1      36.656  22.332  23.102  1.00  0.00    -0.266 OA
BRANCH  24  26
ATOM     26  C   UNL A   1      37.693  22.139  25.172  1.00  0.00     0.167 A 
ATOM     27  C   UNL A   1      38.017  23.190  26.006  1.00  0.00     0.231 A 
ATOM     28  N   UNL A   1      38.609  21.116  25.386  1.00  0.00    -0.211 NA
ATOM     29  O   UNL A   1      39.128  22.852  26.720  1.00  0.00    -0.451 OA
ATOM     30  C   UNL A   1      39.411  21.586  26.309  1.00  0.00     0.308 A 
ENDBRANCH  24  26
ENDBRANCH  16  24
ENDBRANCH   8  10
ENDBRANCH   5   8
ENDBRANCH   3   4
ENDBRANCH   2   3
ENDBRANCH   1   2
BRANCH   1  31
ATOM     31  C   UNL A   1      32.961  30.919  27.246  1.00  0.00     0.002 C 
BRANCH  31  32
ATOM     32  C   UNL A   1      33.335  32.124  28.112  1.00  0.00     0.021 C 
BRANCH  32  33
ATOM     33  C   UNL A   1      33.471  33.437  27.348  1.00  0.00     0.116 C 
BRANCH  33  34
ATOM     34  N   UNL A   1      32.940  34.563  28.101  1.00  0.00    -0.352 N 
ATOM     35  C   UNL A   1      33.271  34.989  29.363  1.00  0.00     0.251 C 
ATOM     36  H   UNL A   1      32.248  35.091  27.642  1.00  0.00     0.163 HD
ATOM     37  O   UNL A   1      32.587  35.839  29.925  1.00  0.00    -0.269 OA
BRANCH  35  38
ATOM     38  C   UNL A   1      34.446  34.408  30.047  1.00  0.00     0.039 A 
ATOM     39  C   UNL A   1      34.255  33.682  31.226  1.00  0.00     0.014 A 
ATOM     40  C   UNL A   1      35.732  34.583  29.528  1.00  0.00     0.014 A 
ATOM     41  C   UNL A   1      35.349  33.086  31.857  1.00  0.00     0.010 A 
ATOM     42  C   UNL A   1      36.812  33.937  30.122  1.00  0.00     0.010 A 
ATOM     43  C   UNL A   1      36.633  33.188  31.295  1.00  0.00    -0.014 A 
BRANCH  43  44
ATOM     44  C   UNL A   1      37.801  32.512  31.914  1.00  0.00     0.031 A 
ATOM     45  C   UNL A   1      38.489  31.382  31.198  1.00  0.00     0.074 A 
ATOM     46  C   UNL A   1      38.180  32.849  33.162  1.00  0.00     0.049 A 
ATOM     47  N   UNL A   1      39.478  30.629  31.604  1.00  0.00    -0.248 NA
ATOM     48  C   UNL A   1      37.979  31.032  29.861  1.00  0.00     0.031 C 
ATOM     49  C   UNL A   1      37.536  33.866  33.996  1.00  0.00     0.029 A 
ATOM     50  N   UNL A   1      39.175  32.346  33.962  1.00  0.00    -0.354 N 
ATOM     51  C   UNL A   1      39.683  29.694  30.597  1.00  0.00     0.074 A 
ATOM     52  C   UNL A   1      38.697  29.955  29.571  1.00  0.00     0.031 C 
ATOM     53  C   UNL A   1      38.148  33.908  35.190  1.00  0.00     0.029 A 
ATOM     54  C   UNL A   1      39.212  32.908  35.217  1.00  0.00     0.049 A 
ATOM     55  H   UNL A   1      39.805  31.650  33.665  1.00  0.00     0.167 HD
ATOM     56  C   UNL A   1      40.626  28.725  30.516  1.00  0.00     0.034 A 
ATOM     57  C   UNL A   1      40.006  32.645  36.272  1.00  0.00     0.034 A 
ATOM     58  C   UNL A   1      41.641  28.506  31.512  1.00  0.00     0.049 A 
ATOM     59  C   UNL A   1      41.089  31.609  36.133  1.00  0.00     0.074 A 
ATOM     60  C   UNL A   1      42.705  27.622  31.475  1.00  0.00     0.029 A 
ATOM     61  N   UNL A   1      41.716  29.171  32.725  1.00  0.00    -0.354 N 
ATOM     62  N   UNL A   1      41.381  30.856  35.101  1.00  0.00    -0.248 NA
ATOM     63  C   UNL A   1      41.977  31.414  37.288  1.00  0.00     0.031 C 
ATOM     64  C   UNL A   1      43.417  27.745  32.672  1.00  0.00     0.029 A 
ATOM     65  C   UNL A   1      42.803  28.715  33.449  1.00  0.00     0.049 A 
ATOM     66  H   UNL A   1      41.088  29.867  33.027  1.00  0.00     0.167 HD
ATOM     67  C   UNL A   1      42.502  30.122  35.467  1.00  0.00     0.074 A 
ATOM     68  C   UNL A   1      42.851  30.538  36.811  1.00  0.00     0.031 C 
ATOM     69  C   UNL A   1      43.172  29.177  34.763  1.00  0.00     0.034 A 
BRANCH  56  70
ATOM     70  C   UNL A   1      40.645  27.869  29.278  1.00  0.00     0.023 A 
ATOM     71  C   UNL A   1      39.709  26.822  29.148  1.00  0.00     0.012 A 
ATOM     72  C   UNL A   1      41.543  28.128  28.225  1.00  0.00     0.148 A 
ATOM     73  C   UNL A   1      39.689  26.023  28.004  1.00  0.00     0.002 A 
ATOM     74  C   UNL A   1      41.490  27.354  27.070  1.00  0.00     0.091 A 
ATOM     75  F   UNL A   1      42.441  29.111  28.376  1.00  0.00    -0.205 F 
ATOM     76  C   UNL A   1      40.572  26.295  26.963  1.00  0.00     0.022 A 
BRANCH  74  77
ATOM     77  S   UNL A   1      42.535  27.676  25.645  1.00  0.00     0.127 S 
ATOM     78  O   UNL A   1      43.852  27.802  26.267  1.00  0.00    -0.237 OA
ATOM     79  O   UNL A   1      42.352  26.464  24.845  1.00  0.00    -0.237 OA
ATOM     80  O   UNL A   1      42.010  28.888  25.033  1.00  0.00    -0.744 OA
ENDBRANCH  74  77
ENDBRANCH  56  70
BRANCH  57  81
ATOM     81  C   UNL A   1      39.851  33.432  37.528  1.00  0.00     0.023 A 
ATOM     82  C   UNL A   1      38.872  33.049  38.465  1.00  0.00     0.012 A 
ATOM     83  C   UNL A   1      40.691  34.523  37.819  1.00  0.00     0.148 A 
ATOM     84  C   UNL A   1      38.716  33.755  39.659  1.00  0.00     0.002 A 
ATOM     85  C   UNL A   1      40.566  35.190  39.034  1.00  0.00     0.091 A 
ATOM     86  F   UNL A   1      41.608  34.880  36.908  1.00  0.00    -0.205 F 
ATOM     87  C   UNL A   1      39.569  34.817  39.947  1.00  0.00     0.022 A 
BRANCH  85  88
ATOM     88  S   UNL A   1      41.710  36.477  39.543  1.00  0.00     0.127 S 
ATOM     89  O   UNL A   1      41.501  36.509  40.988  1.00  0.00    -0.237 OA
ATOM     90  O   UNL A   1      42.998  35.925  39.119  1.00  0.00    -0.237 OA
ATOM     91  O   UNL A   1      41.305  37.671  38.814  1.00  0.00    -0.744 OA
ENDBRANCH  85  88
ENDBRANCH  57  81
BRANCH  69  92
ATOM     92  C   UNL A   1      44.369  28.537  35.415  1.00  0.00     0.023 A 
ATOM     93  C   UNL A   1      45.658  29.038  35.147  1.00  0.00     0.012 A 
ATOM     94  C   UNL A   1      44.212  27.499  36.354  1.00  0.00     0.148 A 
ATOM     95  C   UNL A   1      46.775  28.497  35.781  1.00  0.00     0.002 A 
ATOM     96  C   UNL A   1      45.325  26.994  37.016  1.00  0.00     0.091 A 
ATOM     97  F   UNL A   1      42.979  27.022  36.580  1.00  0.00    -0.205 F 
ATOM     98  C   UNL A   1      46.608  27.485  36.725  1.00  0.00     0.022 A 
BRANCH  96  99
ATOM     99  S   UNL A   1      45.191  25.756  38.311  1.00  0.00     0.127 S 
ATOM    100  O   UNL A   1      46.582  25.620  38.739  1.00  0.00    -0.237 OA
ATOM    101  O   UNL A   1      44.316  26.414  39.283  1.00  0.00    -0.237 OA
ATOM    102  O   UNL A   1      44.610  24.579  37.679  1.00  0.00    -0.744 OA
ENDBRANCH  96  99
ENDBRANCH  69  92
ENDBRANCH  43  44
ENDBRANCH  35  38
ENDBRANCH  33  34
ENDBRANCH  32  33
ENDBRANCH  31  32
ENDBRANCH   1  31
TORSDOF 19
ENDMDL
MODEL 3
REMARK VINA RESULT:     -10.0      6.429     10.003
REMARK SMILES C[C@@H](C(=O)NCCCCCCNC(=O)c1ccc(-c2c3nc(c(-c4cccc(S(=O)(=O)[O-])c4F)c4ccc([nH]4)c(-c4cccc(S(=O)(=O)[O-])c4F)c4nc(c(-c5cccc(S(=O)(=O)[O-])c5F)c5ccc2[nH]5)C=C4)C=C3)cc1)c1ccc2c3cc(Cl)ccc3n(C(=O)c3cocn3)c2c1
REMARK SMILES IDX 8 1 7 2 6 3 5 4 3 5 4 6 2 8 1 9 78 10 79 11 98 12 80 13
REMARK SMILES IDX 97 14 81 15 89 16 82 17 88 18 83 19 87 20 84 21 86 22 85 23
REMARK SMILES IDX 90 24 91 25 92 26 93 27 96 28 94 29 95 30 9 31 10 32 11 33
REMARK SMILES IDX 12 34 13 35 14 37 15 38 16 39 77 40 17 41 76 42 18 43 19 44
REMARK SMILES IDX 20 45 70 46 21 47 75 48 69 49 71 50 22 51 74 52 68 53 67 54
REMARK SMILES IDX 23 56 55 57 35 58 54 59 36 60 39 61 53 62 72 63 37 64 38 65
REMARK SMILES IDX 52 67 73 68 40 69 24 70 25 71 33 72 26 73 28 74 34 75 27 76
REMARK SMILES IDX 29 77 30 78 31 79 32 80 56 81 57 82 65 83 58 84 60 85 66 86
REMARK SMILES IDX 59 87 61 88 62 89 63 90 64 91 41 92 42 93 50 94 43 95 45 96
REMARK SMILES IDX 51 97 44 98 46 99 47 100 48 101 49 102
REMARK H PARENT 5 7 12 36 71 55 39 66
REMARK Flexibility Score: inf
ROOT
ATOM      1  C   UNL A   1      33.943  28.598  26.242  1.00  0.00     0.002 C 
ENDROOT
BRANCH   1   2
ATOM      2  C   UNL A   1      33.456  28.584  24.788  1.00  0.00     0.021 C 
BRANCH   2   3
ATOM      3  C   UNL A   1      33.573  27.216  24.108  1.00  0.00     0.116 C 
BRANCH   3   4
ATOM      4  N   UNL A   1      32.287  26.821  23.571  1.00  0.00    -0.356 N 
ATOM      5  C   UNL A   1      31.466  25.800  23.955  1.00  0.00     0.227 C 
ATOM      6  O   UNL A   1      30.582  25.466  23.162  1.00  0.00    -0.274 OA
ATOM      7  H   UNL A   1      31.957  27.368  22.822  1.00  0.00     0.163 HD
BRANCH   5   8
ATOM      8  C   UNL A   1      31.644  25.154  25.342  1.00  0.00     0.105 C 
ATOM      9  C   UNL A   1      31.588  26.203  26.460  1.00  0.00     0.023 C 
BRANCH   8  10
ATOM     10  C   UNL A   1      32.908  24.286  25.389  1.00  0.00    -0.034 A 
ATOM     11  C   UNL A   1      34.165  24.805  25.707  1.00  0.00     0.005 A 
ATOM     12  C   UNL A   1      32.795  22.918  25.067  1.00  0.00     0.032 A 
ATOM     13  C   UNL A   1      35.290  23.980  25.769  1.00  0.00     0.011 A 
ATOM     14  C   UNL A   1      33.947  22.102  25.054  1.00  0.00     0.058 A 
ATOM     15  C   UNL A   1      35.179  22.613  25.450  1.00  0.00     0.008 A 
ATOM     16  N   UNL A   1      34.122  20.752  24.708  1.00  0.00    -0.274 N 
ATOM     17  C   UNL A   1      36.120  21.553  25.416  1.00  0.00     0.009 A 
ATOM     18  C   UNL A   1      35.480  20.425  24.888  1.00  0.00     0.057 A 
ATOM     19  C   UNL A   1      37.490  21.496  25.750  1.00  0.00     0.031 A 
ATOM     20  C   UNL A   1      36.233  19.274  24.574  1.00  0.00     0.029 A 
ATOM     21  C   UNL A   1      38.208  20.329  25.508  1.00  0.00     0.041 A 
ATOM     22  C   UNL A   1      37.593  19.239  24.909  1.00  0.00     0.023 A 
ATOM     23  Cl  UNL A   1      39.877  20.259  25.919  1.00  0.00    -0.084 Cl
BRANCH  16  24
ATOM     24  C   UNL A   1      33.087  19.907  24.220  1.00  0.00     0.284 C 
ATOM     25  O   UNL A   1      32.218  20.457  23.524  1.00  0.00    -0.266 OA
BRANCH  24  26
ATOM     26  C   UNL A   1      32.961  18.481  24.495  1.00  0.00     0.167 A 
ATOM     27  C   UNL A   1      33.329  17.413  23.701  1.00  0.00     0.231 A 
ATOM     28  N   UNL A   1      32.539  17.985  25.722  1.00  0.00    -0.211 NA
ATOM     29  O   UNL A   1      33.122  16.261  24.400  1.00  0.00    -0.451 OA
ATOM     30  C   UNL A   1      32.669  16.687  25.610  1.00  0.00     0.308 A 
ENDBRANCH  24  26
ENDBRANCH  16  24
ENDBRANCH   8  10
ENDBRANCH   5   8
ENDBRANCH   3   4
ENDBRANCH   2   3
ENDBRANCH   1   2
BRANCH   1  31
ATOM     31  C   UNL A   1      34.098  29.992  26.857  1.00  0.00     0.002 C 
BRANCH  31  32
ATOM     32  C   UNL A   1      33.134  31.047  26.309  1.00  0.00     0.021 C 
BRANCH  32  33
ATOM     33  C   UNL A   1      32.276  31.733  27.367  1.00  0.00     0.116 C 
BRANCH  33  34
ATOM     34  N   UNL A   1      32.528  33.164  27.430  1.00  0.00    -0.352 N 
ATOM     35  C   UNL A   1      33.527  33.834  28.090  1.00  0.00     0.251 C 
ATOM     36  H   UNL A   1      31.895  33.729  26.930  1.00  0.00     0.163 HD
ATOM     37  O   UNL A   1      33.481  35.056  28.200  1.00  0.00    -0.269 OA
BRANCH  35  38
ATOM     38  C   UNL A   1      34.651  33.077  28.680  1.00  0.00     0.039 A 
ATOM     39  C   UNL A   1      35.918  33.180  28.101  1.00  0.00     0.014 A 
ATOM     40  C   UNL A   1      34.452  32.264  29.801  1.00  0.00     0.014 A 
ATOM     41  C   UNL A   1      36.999  32.508  28.678  1.00  0.00     0.010 A 
ATOM     42  C   UNL A   1      35.540  31.648  30.411  1.00  0.00     0.010 A 
ATOM     43  C   UNL A   1      36.823  31.758  29.852  1.00  0.00    -0.014 A 
BRANCH  43  44
ATOM     44  C   UNL A   1      37.968  31.086  30.517  1.00  0.00     0.031 A 
ATOM     45  C   UNL A   1      38.330  31.434  31.936  1.00  0.00     0.074 A 
ATOM     46  C   UNL A   1      38.743  30.238  29.813  1.00  0.00     0.049 A 
ATOM     47  N   UNL A   1      39.331  31.006  32.660  1.00  0.00    -0.248 NA
ATOM     48  C   UNL A   1      37.471  32.415  32.621  1.00  0.00     0.031 C 
ATOM     49  C   UNL A   1      38.549  29.889  28.404  1.00  0.00     0.029 A 
ATOM     50  N   UNL A   1      39.869  29.544  30.175  1.00  0.00    -0.354 N 
ATOM     51  C   UNL A   1      39.248  31.690  33.866  1.00  0.00     0.074 A 
ATOM     52  C   UNL A   1      38.115  32.585  33.767  1.00  0.00     0.031 C 
ATOM     53  C   UNL A   1      39.527  29.053  28.020  1.00  0.00     0.029 A 
ATOM     54  C   UNL A   1      40.428  28.823  29.146  1.00  0.00     0.049 A 
ATOM     55  H   UNL A   1      40.243  29.560  31.086  1.00  0.00     0.167 HD
ATOM     56  C   UNL A   1      40.024  31.565  34.969  1.00  0.00     0.034 A 
ATOM     57  C   UNL A   1      41.542  28.066  29.110  1.00  0.00     0.034 A 
ATOM     58  C   UNL A   1      41.114  30.633  35.084  1.00  0.00     0.049 A 
ATOM     59  C   UNL A   1      42.349  27.891  30.368  1.00  0.00     0.074 A 
ATOM     60  C   UNL A   1      41.892  30.353  36.193  1.00  0.00     0.029 A 
ATOM     61  N   UNL A   1      41.583  29.834  34.054  1.00  0.00    -0.354 N 
ATOM     62  N   UNL A   1      42.149  28.411  31.554  1.00  0.00    -0.248 NA
ATOM     63  C   UNL A   1      43.512  26.994  30.294  1.00  0.00     0.031 C 
ATOM     64  C   UNL A   1      42.842  29.393  35.829  1.00  0.00     0.029 A 
ATOM     65  C   UNL A   1      42.644  29.064  34.497  1.00  0.00     0.049 A 
ATOM     66  H   UNL A   1      41.215  29.815  33.141  1.00  0.00     0.167 HD
ATOM     67  C   UNL A   1      43.137  27.882  32.375  1.00  0.00     0.074 A 
ATOM     68  C   UNL A   1      43.923  26.983  31.555  1.00  0.00     0.031 C 
ATOM     69  C   UNL A   1      43.384  28.132  33.685  1.00  0.00     0.034 A 
BRANCH  56  70
ATOM     70  C   UNL A   1      39.681  32.412  36.166  1.00  0.00     0.023 A 
ATOM     71  C   UNL A   1      40.309  33.664  36.328  1.00  0.00     0.012 A 
ATOM     72  C   UNL A   1      38.706  32.002  37.096  1.00  0.00     0.148 A 
ATOM     73  C   UNL A   1      39.998  34.480  37.417  1.00  0.00     0.002 A 
ATOM     74  C   UNL A   1      38.371  32.838  38.155  1.00  0.00     0.091 A 
ATOM     75  F   UNL A   1      38.137  30.799  36.939  1.00  0.00    -0.205 F 
ATOM     76  C   UNL A   1      39.023  34.071  38.323  1.00  0.00     0.022 A 
BRANCH  74  77
ATOM     77  S   UNL A   1      37.075  32.434  39.331  1.00  0.00     0.127 S 
ATOM     78  O   UNL A   1      37.455  31.081  39.735  1.00  0.00    -0.237 OA
ATOM     79  O   UNL A   1      37.262  33.454  40.363  1.00  0.00    -0.237 OA
ATOM     80  O   UNL A   1      35.823  32.542  38.595  1.00  0.00    -0.744 OA
ENDBRANCH  74  77
ENDBRANCH  56  70
BRANCH  57  81
ATOM     81  C   UNL A   1      41.912  27.357  27.852  1.00  0.00     0.023 A 
ATOM     82  C   UNL A   1      42.506  28.082  26.801  1.00  0.00     0.012 A 
ATOM     83  C   UNL A   1      41.723  25.970  27.708  1.00  0.00     0.148 A 
ATOM     84  C   UNL A   1      42.882  27.443  25.620  1.00  0.00     0.002 A 
ATOM     85  C   UNL A   1      42.148  25.329  26.549  1.00  0.00     0.091 A 
ATOM     86  F   UNL A   1      41.143  25.299  28.714  1.00  0.00    -0.205 F 
ATOM     87  C   UNL A   1      42.713  26.067  25.498  1.00  0.00     0.022 A 
BRANCH  85  88
ATOM     88  S   UNL A   1      42.093  23.543  26.366  1.00  0.00     0.127 S 
ATOM     89  O   UNL A   1      42.864  23.100  27.524  1.00  0.00    -0.237 OA
ATOM     90  O   UNL A   1      40.656  23.273  26.442  1.00  0.00    -0.237 OA
ATOM     91  O   UNL A   1      42.683  23.265  25.063  1.00  0.00    -0.744 OA
ENDBRANCH  85  88
ENDBRANCH  57  81
BRANCH  69  92
ATOM     92  C   UNL A   1      44.536  27.408  34.330  1.00  0.00     0.023 A 
ATOM     93  C   UNL A   1      45.784  28.049  34.443  1.00  0.00     0.012 A 
ATOM     94  C   UNL A   1      44.359  26.131  34.897  1.00  0.00     0.148 A 
ATOM     95  C   UNL A   1      46.849  27.419  35.085  1.00  0.00     0.002 A 
ATOM     96  C   UNL A   1      45.412  25.527  35.575  1.00  0.00     0.091 A 
ATOM     97  F   UNL A   1      43.169  25.528  34.761  1.00  0.00    -0.205 F 
ATOM     98  C   UNL A   1      46.660  26.165  35.663  1.00  0.00     0.022 A 
BRANCH  96  99
ATOM     99  S   UNL A   1      45.228  23.955  36.427  1.00  0.00     0.127 S 
ATOM    100  O   UNL A   1      44.944  24.389  37.794  1.00  0.00    -0.237 OA
ATOM    101  O   UNL A   1      44.091  23.353  35.730  1.00  0.00    -0.237 OA
ATOM    102  O   UNL A   1      46.489  23.251  36.241  1.00  0.00    -0.744 OA
ENDBRANCH  96  99
ENDBRANCH  69  92
ENDBRANCH  43  44
ENDBRANCH  35  38
ENDBRANCH  33  34
ENDBRANCH  32  33
ENDBRANCH  31  32
ENDBRANCH   1  31
TORSDOF 19
ENDMDL
