MODEL 1
REMARK VINA RESULT:     -11.1      0.000      0.000
REMARK SMILES C[N@@H+](C[C@H]1CCC[N@@H+]1CC(=O)NCCCCCCNC(=O)c1ccc(-c2c3nc(c(-c4cccc(S(=O)(=O)[O-])c4F)c4ccc([nH]4)c(-c4cccc(S(=O)(=O)[O-])c4F)c4nc(c(-c5cccc(S(=O)(=O)[O-])c5F)c5ccc2[nH]5)C=C4)C=C3)cc1)C1CC1
REMARK SMILES IDX 15 1 14 2 13 3 12 4 10 5 11 6 9 8 8 9 4 10 5 11 6 12 7 13
REMARK SMILES IDX 3 15 2 16 1 17 85 19 86 20 87 21 16 22 17 23 18 24 19 25
REMARK SMILES IDX 20 26 21 28 22 29 23 30 84 31 24 32 83 33 25 34 26 35 27 36
REMARK SMILES IDX 77 37 28 38 82 39 76 40 78 41 29 42 81 43 75 44 74 45 30 47
REMARK SMILES IDX 62 48 42 49 61 50 43 51 46 52 60 53 79 54 44 55 45 56 59 58
REMARK SMILES IDX 80 59 47 60 31 61 32 62 40 63 33 64 35 65 41 66 34 67 36 68
REMARK SMILES IDX 37 69 38 70 39 71 63 72 64 73 72 74 65 75 67 76 73 77 66 78
REMARK SMILES IDX 68 79 69 80 70 81 71 82 48 83 49 84 57 85 50 86 52 87 58 88
REMARK SMILES IDX 51 89 53 90 54 91 55 92 56 93
REMARK H PARENT 12 7 8 14 2 18 19 27 78 46 46 57
REMARK Flexibility Score: inf
ROOT
ATOM      1  C   UNL A   1      35.458  22.718  25.774  1.00  0.00     0.002 C 
ENDROOT
BRANCH   1   2
ATOM      2  C   UNL A   1      34.684  22.693  27.092  1.00  0.00     0.021 C 
BRANCH   2   3
ATOM      3  C   UNL A   1      33.447  21.778  27.105  1.00  0.00     0.116 C 
BRANCH   3   4
ATOM      4  N   UNL A   1      32.207  22.483  27.412  1.00  0.00    -0.351 N 
ATOM      5  C   UNL A   1      31.382  23.272  26.659  1.00  0.00     0.275 C 
ATOM      6  O   UNL A   1      30.394  23.753  27.225  1.00  0.00    -0.269 OA
ATOM      7  H   UNL A   1      31.906  22.369  28.341  1.00  0.00     0.163 HD
BRANCH   5   8
ATOM      8  C   UNL A   1      31.655  23.552  25.174  1.00  0.00     0.363 C 
BRANCH   8   9
ATOM      9  N   UNL A   1      31.810  24.984  24.816  1.00  0.00    -0.320 N 
ATOM     10  C   UNL A   1      32.717  25.183  23.681  1.00  0.00     0.240 C 
ATOM     11  C   UNL A   1      34.044  25.671  24.262  1.00  0.00     0.077 C 
ATOM     12  C   UNL A   1      33.749  26.117  25.680  1.00  0.00     0.068 C 
ATOM     13  C   UNL A   1      32.274  25.835  25.908  1.00  0.00     0.263 C 
ATOM     14  H   UNL A   1      30.860  25.264  24.570  1.00  0.00     0.348 HD
BRANCH  10  15
ATOM     15  C   UNL A   1      32.218  25.929  22.414  1.00  0.00     0.327 C 
BRANCH  15  16
ATOM     16  N   UNL A   1      32.143  27.383  22.351  1.00  0.00    -0.330 N 
ATOM     17  C   UNL A   1      33.440  28.028  22.243  1.00  0.00     0.333 C 
ATOM     18  H   UNL A   1      31.681  27.543  21.456  1.00  0.00     0.348 HD
BRANCH  16  19
ATOM     19  C   UNL A   1      31.205  28.040  23.272  1.00  0.00     0.184 C 
ATOM     20  C   UNL A   1      30.374  29.169  22.708  1.00  0.00     0.071 C 
ATOM     21  C   UNL A   1      29.703  27.927  23.192  1.00  0.00     0.071 C 
ENDBRANCH  16  19
ENDBRANCH  15  16
ENDBRANCH  10  15
ENDBRANCH   8   9
ENDBRANCH   5   8
ENDBRANCH   3   4
ENDBRANCH   2   3
ENDBRANCH   1   2
BRANCH   1  22
ATOM     22  C   UNL A   1      35.241  21.470  24.925  1.00  0.00     0.002 C 
BRANCH  22  23
ATOM     23  C   UNL A   1      36.312  20.388  25.104  1.00  0.00     0.021 C 
BRANCH  23  24
ATOM     24  C   UNL A   1      37.744  20.917  25.149  1.00  0.00     0.116 C 
BRANCH  24  25
ATOM     25  N   UNL A   1      38.669  19.873  25.567  1.00  0.00    -0.352 N 
ATOM     26  C   UNL A   1      39.935  20.032  26.080  1.00  0.00     0.251 C 
ATOM     27  H   UNL A   1      38.351  18.947  25.470  1.00  0.00     0.163 HD
ATOM     28  O   UNL A   1      40.732  19.103  26.091  1.00  0.00    -0.269 OA
BRANCH  26  29
ATOM     29  C   UNL A   1      40.314  21.358  26.612  1.00  0.00     0.039 A 
ATOM     30  C   UNL A   1      41.195  21.440  27.691  1.00  0.00     0.014 A 
ATOM     31  C   UNL A   1      39.830  22.514  25.995  1.00  0.00     0.014 A 
ATOM     32  C   UNL A   1      41.647  22.693  28.110  1.00  0.00     0.010 A 
ATOM     33  C   UNL A   1      40.330  23.756  26.374  1.00  0.00     0.010 A 
ATOM     34  C   UNL A   1      41.250  23.857  27.430  1.00  0.00    -0.014 A 
BRANCH  34  35
ATOM     35  C   UNL A   1      41.828  25.184  27.767  1.00  0.00     0.031 A 
ATOM     36  C   UNL A   1      40.986  26.234  28.438  1.00  0.00     0.074 A 
ATOM     37  C   UNL A   1      43.081  25.478  27.363  1.00  0.00     0.049 A 
ATOM     38  N   UNL A   1      41.296  27.470  28.733  1.00  0.00    -0.248 NA
ATOM     39  C   UNL A   1      39.612  25.857  28.808  1.00  0.00     0.031 C 
ATOM     40  C   UNL A   1      43.967  24.572  26.628  1.00  0.00     0.029 A 
ATOM     41  N   UNL A   1      43.813  26.635  27.476  1.00  0.00    -0.354 N 
ATOM     42  C   UNL A   1      40.150  28.029  29.285  1.00  0.00     0.074 A 
ATOM     43  C   UNL A   1      39.131  27.002  29.272  1.00  0.00     0.031 C 
ATOM     44  C   UNL A   1      45.113  25.209  26.344  1.00  0.00     0.029 A 
ATOM     45  C   UNL A   1      45.032  26.579  26.840  1.00  0.00     0.049 A 
ATOM     46  H   UNL A   1      43.496  27.428  27.965  1.00  0.00     0.167 HD
ATOM     47  C   UNL A   1      39.970  29.279  29.773  1.00  0.00     0.034 A 
ATOM     48  C   UNL A   1      45.969  27.531  26.650  1.00  0.00     0.034 A 
ATOM     49  C   UNL A   1      40.999  30.283  29.821  1.00  0.00     0.049 A 
ATOM     50  C   UNL A   1      45.746  28.903  27.226  1.00  0.00     0.074 A 
ATOM     51  C   UNL A   1      40.945  31.537  30.405  1.00  0.00     0.029 A 
ATOM     52  N   UNL A   1      42.252  30.165  29.242  1.00  0.00    -0.354 N 
ATOM     53  N   UNL A   1      44.729  29.349  27.921  1.00  0.00    -0.248 NA
ATOM     54  C   UNL A   1      46.811  29.894  27.018  1.00  0.00     0.031 C 
ATOM     55  C   UNL A   1      42.151  32.192  30.143  1.00  0.00     0.029 A 
ATOM     56  C   UNL A   1      42.968  31.334  29.426  1.00  0.00     0.049 A 
ATOM     57  H   UNL A   1      42.582  29.367  28.770  1.00  0.00     0.167 HD
ATOM     58  C   UNL A   1      45.041  30.663  28.252  1.00  0.00     0.074 A 
ATOM     59  C   UNL A   1      46.357  30.929  27.712  1.00  0.00     0.031 C 
ATOM     60  C   UNL A   1      44.295  31.575  28.922  1.00  0.00     0.034 A 
BRANCH  47  61
ATOM     61  C   UNL A   1      38.622  29.636  30.341  1.00  0.00     0.023 A 
ATOM     62  C   UNL A   1      38.300  29.266  31.661  1.00  0.00     0.012 A 
ATOM     63  C   UNL A   1      37.726  30.437  29.605  1.00  0.00     0.148 A 
ATOM     64  C   UNL A   1      37.097  29.673  32.236  1.00  0.00     0.002 A 
ATOM     65  C   UNL A   1      36.550  30.876  30.201  1.00  0.00     0.091 A 
ATOM     66  F   UNL A   1      38.047  30.762  28.345  1.00  0.00    -0.205 F 
ATOM     67  C   UNL A   1      36.230  30.488  31.513  1.00  0.00     0.022 A 
BRANCH  65  68
ATOM     68  S   UNL A   1      35.405  31.994  29.385  1.00  0.00     0.127 S 
ATOM     69  O   UNL A   1      36.303  33.057  28.935  1.00  0.00    -0.237 OA
ATOM     70  O   UNL A   1      34.869  31.154  28.315  1.00  0.00    -0.237 OA
ATOM     71  O   UNL A   1      34.436  32.390  30.397  1.00  0.00    -0.744 OA
ENDBRANCH  65  68
ENDBRANCH  47  61
BRANCH  48  72
ATOM     72  C   UNL A   1      47.212  27.219  25.888  1.00  0.00     0.023 A 
ATOM     73  C   UNL A   1      48.286  26.579  26.534  1.00  0.00     0.012 A 
ATOM     74  C   UNL A   1      47.336  27.556  24.526  1.00  0.00     0.148 A 
ATOM     75  C   UNL A   1      49.476  26.320  25.852  1.00  0.00     0.002 A 
ATOM     76  C   UNL A   1      48.498  27.239  23.834  1.00  0.00     0.091 A 
ATOM     77  F   UNL A   1      46.310  28.180  23.928  1.00  0.00    -0.205 F 
ATOM     78  C   UNL A   1      49.579  26.641  24.501  1.00  0.00     0.022 A 
BRANCH  76  79
ATOM     79  S   UNL A   1      48.656  27.488  22.062  1.00  0.00     0.127 S 
ATOM     80  O   UNL A   1      48.665  26.115  21.566  1.00  0.00    -0.237 OA
ATOM     81  O   UNL A   1      47.444  28.248  21.754  1.00  0.00    -0.237 OA
ATOM     82  O   UNL A   1      49.891  28.241  21.883  1.00  0.00    -0.744 OA
ENDBRANCH  76  79
ENDBRANCH  48  72
BRANCH  60  83
ATOM     83  C   UNL A   1      44.884  32.946  29.129  1.00  0.00     0.023 A 
ATOM     84  C   UNL A   1      45.657  33.206  30.278  1.00  0.00     0.012 A 
ATOM     85  C   UNL A   1      44.738  33.949  28.150  1.00  0.00     0.148 A 
ATOM     86  C   UNL A   1      46.250  34.455  30.466  1.00  0.00     0.002 A 
ATOM     87  C   UNL A   1      45.374  35.172  28.320  1.00  0.00     0.091 A 
ATOM     88  F   UNL A   1      43.988  33.685  27.071  1.00  0.00    -0.205 F 
ATOM     89  C   UNL A   1      46.119  35.432  29.482  1.00  0.00     0.022 A 
BRANCH  87  90
ATOM     90  S   UNL A   1      45.343  36.459  27.068  1.00  0.00     0.127 S 
ATOM     91  O   UNL A   1      46.018  35.803  25.948  1.00  0.00    -0.237 OA
ATOM     92  O   UNL A   1      43.908  36.670  26.876  1.00  0.00    -0.237 OA
ATOM     93  O   UNL A   1      46.053  37.597  27.638  1.00  0.00    -0.744 OA
ENDBRANCH  87  90
ENDBRANCH  60  83
ENDBRANCH  34  35
ENDBRANCH  26  29
ENDBRANCH  24  25
ENDBRANCH  23  24
ENDBRANCH  22  23
ENDBRANCH   1  22
TORSDOF 20
ENDMDL
MODEL 2
REMARK VINA RESULT:     -11.0      5.667     11.113
REMARK SMILES C[N@@H+](C[C@H]1CCC[N@@H+]1CC(=O)NCCCCCCNC(=O)c1ccc(-c2c3nc(c(-c4cccc(S(=O)(=O)[O-])c4F)c4ccc([nH]4)c(-c4cccc(S(=O)(=O)[O-])c4F)c4nc(c(-c5cccc(S(=O)(=O)[O-])c5F)c5ccc2[nH]5)C=C4)C=C3)cc1)C1CC1
REMARK SMILES IDX 15 1 14 2 13 3 12 4 10 5 11 6 9 8 8 9 4 10 5 11 6 12 7 13
REMARK SMILES IDX 3 15 2 16 1 17 85 19 86 20 87 21 16 22 17 23 18 24 19 25
REMARK SMILES IDX 20 26 21 28 22 29 23 30 84 31 24 32 83 33 25 34 26 35 27 36
REMARK SMILES IDX 77 37 28 38 82 39 76 40 78 41 29 42 81 43 75 44 74 45 30 47
REMARK SMILES IDX 62 48 42 49 61 50 43 51 46 52 60 53 79 54 44 55 45 56 59 58
REMARK SMILES IDX 80 59 47 60 31 61 32 62 40 63 33 64 35 65 41 66 34 67 36 68
REMARK SMILES IDX 37 69 38 70 39 71 63 72 64 73 72 74 65 75 67 76 73 77 66 78
REMARK SMILES IDX 68 79 69 80 70 81 71 82 48 83 49 84 57 85 50 86 52 87 58 88
REMARK SMILES IDX 51 89 53 90 54 91 55 92 56 93
REMARK H PARENT 12 7 8 14 2 18 19 27 78 46 46 57
REMARK Flexibility Score: inf
ROOT
ATOM      1  C   UNL A   1      32.473  29.000  26.777  1.00  0.00     0.002 C 
ENDROOT
BRANCH   1   2
ATOM      2  C   UNL A   1      31.533  27.806  26.940  1.00  0.00     0.021 C 
BRANCH   2   3
ATOM      3  C   UNL A   1      31.999  26.510  26.254  1.00  0.00     0.116 C 
BRANCH   3   4
ATOM      4  N   UNL A   1      31.389  25.307  26.810  1.00  0.00    -0.351 N 
ATOM      5  C   UNL A   1      31.803  24.005  26.872  1.00  0.00     0.275 C 
ATOM      6  O   UNL A   1      31.034  23.196  27.402  1.00  0.00    -0.269 OA
ATOM      7  H   UNL A   1      30.508  25.462  27.219  1.00  0.00     0.163 HD
BRANCH   5   8
ATOM      8  C   UNL A   1      33.164  23.557  26.318  1.00  0.00     0.363 C 
BRANCH   8   9
ATOM      9  N   UNL A   1      33.104  22.605  25.181  1.00  0.00    -0.320 N 
ATOM     10  C   UNL A   1      33.859  21.374  25.439  1.00  0.00     0.240 C 
ATOM     11  C   UNL A   1      35.168  21.493  24.660  1.00  0.00     0.077 C 
ATOM     12  C   UNL A   1      34.966  22.613  23.659  1.00  0.00     0.068 C 
ATOM     13  C   UNL A   1      33.569  23.151  23.909  1.00  0.00     0.263 C 
ATOM     14  H   UNL A   1      32.107  22.404  25.101  1.00  0.00     0.348 HD
BRANCH  10  15
ATOM     15  C   UNL A   1      33.145  19.998  25.359  1.00  0.00     0.327 C 
BRANCH  15  16
ATOM     16  N   UNL A   1      33.196  19.169  24.162  1.00  0.00    -0.330 N 
ATOM     17  C   UNL A   1      32.172  19.496  23.184  1.00  0.00     0.333 C 
ATOM     18  H   UNL A   1      34.080  19.447  23.736  1.00  0.00     0.348 HD
BRANCH  16  19
ATOM     19  C   UNL A   1      33.420  17.730  24.359  1.00  0.00     0.184 C 
ATOM     20  C   UNL A   1      33.989  16.962  23.188  1.00  0.00     0.071 C 
ATOM     21  C   UNL A   1      34.776  17.078  24.450  1.00  0.00     0.071 C 
ENDBRANCH  16  19
ENDBRANCH  15  16
ENDBRANCH  10  15
ENDBRANCH   8   9
ENDBRANCH   5   8
ENDBRANCH   3   4
ENDBRANCH   2   3
ENDBRANCH   1   2
BRANCH   1  22
ATOM     22  C   UNL A   1      31.938  30.062  25.822  1.00  0.00     0.002 C 
BRANCH  22  23
ATOM     23  C   UNL A   1      31.590  31.396  26.490  1.00  0.00     0.021 C 
BRANCH  23  24
ATOM     24  C   UNL A   1      32.762  32.075  27.196  1.00  0.00     0.116 C 
BRANCH  24  25
ATOM     25  N   UNL A   1      32.526  33.506  27.331  1.00  0.00    -0.352 N 
ATOM     26  C   UNL A   1      33.036  34.353  28.287  1.00  0.00     0.251 C 
ATOM     27  H   UNL A   1      31.933  33.914  26.659  1.00  0.00     0.163 HD
ATOM     28  O   UNL A   1      32.527  35.445  28.498  1.00  0.00    -0.269 OA
BRANCH  26  29
ATOM     29  C   UNL A   1      34.213  33.906  29.062  1.00  0.00     0.039 A 
ATOM     30  C   UNL A   1      34.038  33.035  30.138  1.00  0.00     0.014 A 
ATOM     31  C   UNL A   1      35.492  34.316  28.675  1.00  0.00     0.014 A 
ATOM     32  C   UNL A   1      35.160  32.518  30.788  1.00  0.00     0.010 A 
ATOM     33  C   UNL A   1      36.608  33.752  29.285  1.00  0.00     0.010 A 
ATOM     34  C   UNL A   1      36.454  32.841  30.342  1.00  0.00    -0.014 A 
BRANCH  34  35
ATOM     35  C   UNL A   1      37.657  32.193  30.925  1.00  0.00     0.031 A 
ATOM     36  C   UNL A   1      38.401  31.135  30.157  1.00  0.00     0.074 A 
ATOM     37  C   UNL A   1      38.009  32.480  32.195  1.00  0.00     0.049 A 
ATOM     38  N   UNL A   1      39.419  30.408  30.537  1.00  0.00    -0.248 NA
ATOM     39  C   UNL A   1      37.930  30.840  28.794  1.00  0.00     0.031 C 
ATOM     40  C   UNL A   1      37.315  33.426  33.072  1.00  0.00     0.029 A 
ATOM     41  N   UNL A   1      39.014  31.976  32.984  1.00  0.00    -0.354 N 
ATOM     42  C   UNL A   1      39.686  29.545  29.481  1.00  0.00     0.074 A 
ATOM     43  C   UNL A   1      38.714  29.828  28.448  1.00  0.00     0.031 C 
ATOM     44  C   UNL A   1      37.902  33.424  34.278  1.00  0.00     0.029 A 
ATOM     45  C   UNL A   1      38.990  32.451  34.276  1.00  0.00     0.049 A 
ATOM     46  H   UNL A   1      39.688  31.337  32.658  1.00  0.00     0.167 HD
ATOM     47  C   UNL A   1      40.663  28.613  29.378  1.00  0.00     0.034 A 
ATOM     48  C   UNL A   1      39.739  32.119  35.348  1.00  0.00     0.034 A 
ATOM     49  C   UNL A   1      41.652  28.363  30.392  1.00  0.00     0.049 A 
ATOM     50  C   UNL A   1      40.831  31.097  35.191  1.00  0.00     0.074 A 
ATOM     51  C   UNL A   1      42.751  27.525  30.328  1.00  0.00     0.029 A 
ATOM     52  N   UNL A   1      41.648  28.923  31.659  1.00  0.00    -0.354 N 
ATOM     53  N   UNL A   1      41.192  30.435  34.119  1.00  0.00    -0.248 NA
ATOM     54  C   UNL A   1      41.638  30.794  36.382  1.00  0.00     0.031 C 
ATOM     55  C   UNL A   1      43.389  27.546  31.571  1.00  0.00     0.029 A 
ATOM     56  C   UNL A   1      42.706  28.423  32.398  1.00  0.00     0.049 A 
ATOM     57  H   UNL A   1      40.990  29.579  31.985  1.00  0.00     0.167 HD
ATOM     58  C   UNL A   1      42.279  29.658  34.500  1.00  0.00     0.074 A 
ATOM     59  C   UNL A   1      42.541  29.957  35.891  1.00  0.00     0.031 C 
ATOM     60  C   UNL A   1      42.985  28.760  33.770  1.00  0.00     0.034 A 
BRANCH  47  61
ATOM     61  C   UNL A   1      40.752  27.811  28.107  1.00  0.00     0.023 A 
ATOM     62  C   UNL A   1      41.383  28.363  26.975  1.00  0.00     0.012 A 
ATOM     63  C   UNL A   1      40.314  26.472  28.074  1.00  0.00     0.148 A 
ATOM     64  C   UNL A   1      41.562  27.600  25.822  1.00  0.00     0.002 A 
ATOM     65  C   UNL A   1      40.536  25.705  26.937  1.00  0.00     0.091 A 
ATOM     66  F   UNL A   1      39.701  25.974  29.157  1.00  0.00    -0.205 F 
ATOM     67  C   UNL A   1      41.153  26.270  25.808  1.00  0.00     0.022 A 
BRANCH  65  68
ATOM     68  S   UNL A   1      40.121  23.960  26.845  1.00  0.00     0.127 S 
ATOM     69  O   UNL A   1      41.077  23.483  25.846  1.00  0.00    -0.237 OA
ATOM     70  O   UNL A   1      40.390  23.510  28.210  1.00  0.00    -0.237 OA
ATOM     71  O   UNL A   1      38.723  23.896  26.444  1.00  0.00    -0.744 OA
ENDBRANCH  65  68
ENDBRANCH  47  61
BRANCH  48  72
ATOM     72  C   UNL A   1      39.490  32.769  36.667  1.00  0.00     0.023 A 
ATOM     73  C   UNL A   1      40.230  33.908  37.035  1.00  0.00     0.012 A 
ATOM     74  C   UNL A   1      38.524  32.263  37.558  1.00  0.00     0.148 A 
ATOM     75  C   UNL A   1      40.047  34.504  38.285  1.00  0.00     0.002 A 
ATOM     76  C   UNL A   1      38.300  32.898  38.774  1.00  0.00     0.091 A 
ATOM     77  F   UNL A   1      37.838  31.168  37.200  1.00  0.00    -0.205 F 
ATOM     78  C   UNL A   1      39.076  34.005  39.149  1.00  0.00     0.022 A 
BRANCH  76  79
ATOM     79  S   UNL A   1      36.973  32.406  39.880  1.00  0.00     0.127 S 
ATOM     80  O   UNL A   1      37.401  31.070  40.286  1.00  0.00    -0.237 OA
ATOM     81  O   UNL A   1      37.055  33.426  40.926  1.00  0.00    -0.237 OA
ATOM     82  O   UNL A   1      35.756  32.471  39.081  1.00  0.00    -0.744 OA
ENDBRANCH  76  79
ENDBRANCH  48  72
BRANCH  60  83
ATOM     83  C   UNL A   1      44.121  28.041  34.449  1.00  0.00     0.023 A 
ATOM     84  C   UNL A   1      45.367  28.684  34.592  1.00  0.00     0.012 A 
ATOM     85  C   UNL A   1      43.931  26.765  35.015  1.00  0.00     0.148 A 
ATOM     86  C   UNL A   1      46.417  28.054  35.259  1.00  0.00     0.002 A 
ATOM     87  C   UNL A   1      44.966  26.166  35.723  1.00  0.00     0.091 A 
ATOM     88  F   UNL A   1      42.743  26.165  34.857  1.00  0.00    -0.205 F 
ATOM     89  C   UNL A   1      46.213  26.802  35.835  1.00  0.00     0.022 A 
BRANCH  87  90
ATOM     90  S   UNL A   1      44.772  24.599  36.579  1.00  0.00     0.127 S 
ATOM     91  O   UNL A   1      45.491  23.684  35.694  1.00  0.00    -0.237 OA
ATOM     92  O   UNL A   1      45.437  24.860  37.856  1.00  0.00    -0.237 OA
ATOM     93  O   UNL A   1      43.337  24.366  36.677  1.00  0.00    -0.744 OA
ENDBRANCH  87  90
ENDBRANCH  60  83
ENDBRANCH  34  35
ENDBRANCH  26  29
ENDBRANCH  24  25
ENDBRANCH  23  24
ENDBRANCH  22  23
ENDBRANCH   1  22
TORSDOF 20
ENDMDL
MODEL 3
REMARK VINA RESULT:     -10.9      6.105     11.269
REMARK SMILES C[N@@H+](C[C@H]1CCC[N@@H+]1CC(=O)NCCCCCCNC(=O)c1ccc(-c2c3nc(c(-c4cccc(S(=O)(=O)[O-])c4F)c4ccc([nH]4)c(-c4cccc(S(=O)(=O)[O-])c4F)c4nc(c(-c5cccc(S(=O)(=O)[O-])c5F)c5ccc2[nH]5)C=C4)C=C3)cc1)C1CC1
REMARK SMILES IDX 15 1 14 2 13 3 12 4 10 5 11 6 9 8 8 9 4 10 5 11 6 12 7 13
REMARK SMILES IDX 3 15 2 16 1 17 85 19 86 20 87 21 16 22 17 23 18 24 19 25
REMARK SMILES IDX 20 26 21 28 22 29 23 30 84 31 24 32 83 33 25 34 26 35 27 36
REMARK SMILES IDX 77 37 28 38 82 39 76 40 78 41 29 42 81 43 75 44 74 45 30 47
REMARK SMILES IDX 62 48 42 49 61 50 43 51 46 52 60 53 79 54 44 55 45 56 59 58
REMARK SMILES IDX 80 59 47 60 31 61 32 62 40 63 33 64 35 65 41 66 34 67 36 68
REMARK SMILES IDX 37 69 38 70 39 71 63 72 64 73 72 74 65 75 67 76 73 77 66 78
REMARK SMILES IDX 68 79 69 80 70 81 71 82 48 83 49 84 57 85 50 86 52 87 58 88
REMARK SMILES IDX 51 89 53 90 54 91 55 92 56 93
REMARK H PARENT 12 7 8 14 2 18 19 27 78 46 46 57
REMARK Flexibility Score: inf
ROOT
ATOM      1  C   UNL A   1      31.773  29.076  25.962  1.00  0.00     0.002 C 
ENDROOT
BRANCH   1   2
ATOM      2  C   UNL A   1      31.071  27.782  26.372  1.00  0.00     0.021 C 
BRANCH   2   3
ATOM      3  C   UNL A   1      31.794  26.488  25.957  1.00  0.00     0.116 C 
BRANCH   3   4
ATOM      4  N   UNL A   1      31.395  25.323  26.739  1.00  0.00    -0.351 N 
ATOM      5  C   UNL A   1      30.947  24.081  26.385  1.00  0.00     0.275 C 
ATOM      6  O   UNL A   1      30.666  23.302  27.303  1.00  0.00    -0.269 OA
ATOM      7  H   UNL A   1      31.461  25.458  27.712  1.00  0.00     0.163 HD
BRANCH   5   8
ATOM      8  C   UNL A   1      30.802  23.657  24.916  1.00  0.00     0.363 C 
BRANCH   8   9
ATOM      9  N   UNL A   1      31.767  22.629  24.453  1.00  0.00    -0.320 N 
ATOM     10  C   UNL A   1      33.148  22.945  24.834  1.00  0.00     0.240 C 
ATOM     11  C   UNL A   1      33.835  23.481  23.578  1.00  0.00     0.077 C 
ATOM     12  C   UNL A   1      32.951  23.093  22.411  1.00  0.00     0.068 C 
ATOM     13  C   UNL A   1      31.750  22.386  23.013  1.00  0.00     0.263 C 
ATOM     14  H   UNL A   1      31.449  21.784  24.927  1.00  0.00     0.348 HD
BRANCH  10  15
ATOM     15  C   UNL A   1      33.969  21.932  25.676  1.00  0.00     0.327 C 
BRANCH  15  16
ATOM     16  N   UNL A   1      35.063  21.157  25.104  1.00  0.00    -0.330 N 
ATOM     17  C   UNL A   1      34.716  19.771  24.840  1.00  0.00     0.333 C 
ATOM     18  H   UNL A   1      35.185  21.588  24.188  1.00  0.00     0.348 HD
BRANCH  16  19
ATOM     19  C   UNL A   1      36.395  21.357  25.690  1.00  0.00     0.184 C 
ATOM     20  C   UNL A   1      37.548  21.512  24.724  1.00  0.00     0.071 C 
ATOM     21  C   UNL A   1      37.178  22.644  25.622  1.00  0.00     0.071 C 
ENDBRANCH  16  19
ENDBRANCH  15  16
ENDBRANCH  10  15
ENDBRANCH   8   9
ENDBRANCH   5   8
ENDBRANCH   3   4
ENDBRANCH   2   3
ENDBRANCH   1   2
BRANCH   1  22
ATOM     22  C   UNL A   1      32.136  29.964  27.147  1.00  0.00     0.002 C 
BRANCH  22  23
ATOM     23  C   UNL A   1      32.022  31.467  26.870  1.00  0.00     0.021 C 
BRANCH  23  24
ATOM     24  C   UNL A   1      33.190  32.298  27.397  1.00  0.00     0.116 C 
BRANCH  24  25
ATOM     25  N   UNL A   1      32.797  33.689  27.575  1.00  0.00    -0.352 N 
ATOM     26  C   UNL A   1      33.167  34.540  28.590  1.00  0.00     0.251 C 
ATOM     27  H   UNL A   1      32.198  34.063  26.890  1.00  0.00     0.163 HD
ATOM     28  O   UNL A   1      32.535  35.563  28.817  1.00  0.00    -0.269 OA
BRANCH  26  29
ATOM     29  C   UNL A   1      34.345  34.184  29.409  1.00  0.00     0.039 A 
ATOM     30  C   UNL A   1      34.165  33.519  30.621  1.00  0.00     0.014 A 
ATOM     31  C   UNL A   1      35.628  34.468  28.933  1.00  0.00     0.014 A 
ATOM     32  C   UNL A   1      35.283  33.074  31.330  1.00  0.00     0.010 A 
ATOM     33  C   UNL A   1      36.738  33.970  29.609  1.00  0.00     0.010 A 
ATOM     34  C   UNL A   1      36.576  33.261  30.810  1.00  0.00    -0.014 A 
BRANCH  34  35
ATOM     35  C   UNL A   1      37.769  32.673  31.474  1.00  0.00     0.031 A 
ATOM     36  C   UNL A   1      38.487  31.506  30.854  1.00  0.00     0.074 A 
ATOM     37  C   UNL A   1      38.133  33.121  32.693  1.00  0.00     0.049 A 
ATOM     38  N   UNL A   1      39.492  30.816  31.327  1.00  0.00    -0.248 NA
ATOM     39  C   UNL A   1      38.004  31.040  29.544  1.00  0.00     0.031 C 
ATOM     40  C   UNL A   1      37.461  34.192  33.435  1.00  0.00     0.029 A 
ATOM     41  N   UNL A   1      39.130  32.708  33.541  1.00  0.00    -0.354 N 
ATOM     42  C   UNL A   1      39.737  29.813  30.398  1.00  0.00     0.074 A 
ATOM     43  C   UNL A   1      38.767  29.974  29.337  1.00  0.00     0.031 C 
ATOM     44  C   UNL A   1      38.054  34.340  34.629  1.00  0.00     0.029 A 
ATOM     45  C   UNL A   1      39.122  33.353  34.757  1.00  0.00     0.049 A 
ATOM     46  H   UNL A   1      39.789  32.016  33.303  1.00  0.00     0.167 HD
ATOM     47  C   UNL A   1      40.694  28.856  30.419  1.00  0.00     0.034 A 
ATOM     48  C   UNL A   1      39.868  33.154  35.863  1.00  0.00     0.034 A 
ATOM     49  C   UNL A   1      41.682  28.724  31.456  1.00  0.00     0.049 A 
ATOM     50  C   UNL A   1      40.938  32.097  35.843  1.00  0.00     0.074 A 
ATOM     51  C   UNL A   1      42.764  27.862  31.505  1.00  0.00     0.029 A 
ATOM     52  N   UNL A   1      41.695  29.450  32.637  1.00  0.00    -0.354 N 
ATOM     53  N   UNL A   1      41.282  31.290  34.870  1.00  0.00    -0.248 NA
ATOM     54  C   UNL A   1      41.744  31.941  37.063  1.00  0.00     0.031 C 
ATOM     55  C   UNL A   1      43.407  28.037  32.733  1.00  0.00     0.029 A 
ATOM     56  C   UNL A   1      42.747  29.032  33.434  1.00  0.00     0.049 A 
ATOM     57  H   UNL A   1      41.053  30.157  32.872  1.00  0.00     0.167 HD
ATOM     58  C   UNL A   1      42.354  30.548  35.350  1.00  0.00     0.074 A 
ATOM     59  C   UNL A   1      42.628  31.027  36.688  1.00  0.00     0.031 C 
ATOM     60  C   UNL A   1      43.038  29.545  34.747  1.00  0.00     0.034 A 
BRANCH  47  61
ATOM     61  C   UNL A   1      40.761  27.888  29.268  1.00  0.00     0.023 A 
ATOM     62  C   UNL A   1      39.894  26.779  29.236  1.00  0.00     0.012 A 
ATOM     63  C   UNL A   1      41.602  28.144  28.166  1.00  0.00     0.148 A 
ATOM     64  C   UNL A   1      39.873  25.927  28.133  1.00  0.00     0.002 A 
ATOM     65  C   UNL A   1      41.544  27.316  27.051  1.00  0.00     0.091 A 
ATOM     66  F   UNL A   1      42.430  29.195  28.226  1.00  0.00    -0.205 F 
ATOM     67  C   UNL A   1      40.686  26.203  27.037  1.00  0.00     0.022 A 
BRANCH  65  68
ATOM     68  S   UNL A   1      42.488  27.631  25.557  1.00  0.00     0.127 S 
ATOM     69  O   UNL A   1      43.857  27.648  26.072  1.00  0.00    -0.237 OA
ATOM     70  O   UNL A   1      42.159  26.466  24.737  1.00  0.00    -0.237 OA
ATOM     71  O   UNL A   1      42.008  28.902  25.035  1.00  0.00    -0.744 OA
ENDBRANCH  65  68
ENDBRANCH  47  61
BRANCH  48  72
ATOM     72  C   UNL A   1      39.638  33.981  37.082  1.00  0.00     0.023 A 
ATOM     73  C   UNL A   1      40.103  35.309  37.124  1.00  0.00     0.012 A 
ATOM     74  C   UNL A   1      38.963  33.457  38.202  1.00  0.00     0.148 A 
ATOM     75  C   UNL A   1      39.941  36.085  38.273  1.00  0.00     0.002 A 
ATOM     76  C   UNL A   1      38.747  34.255  39.319  1.00  0.00     0.091 A 
ATOM     77  F   UNL A   1      38.539  32.186  38.153  1.00  0.00    -0.205 F 
ATOM     78  C   UNL A   1      39.254  35.562  39.365  1.00  0.00     0.022 A 
BRANCH  76  79
ATOM     79  S   UNL A   1      37.750  33.705  40.708  1.00  0.00     0.127 S 
ATOM     80  O   UNL A   1      36.706  32.933  40.041  1.00  0.00    -0.237 OA
ATOM     81  O   UNL A   1      38.711  32.911  41.476  1.00  0.00    -0.237 OA
ATOM     82  O   UNL A   1      37.314  34.922  41.381  1.00  0.00    -0.744 OA
ENDBRANCH  76  79
ENDBRANCH  48  72
BRANCH  60  83
ATOM     83  C   UNL A   1      44.162  28.901  35.516  1.00  0.00     0.023 A 
ATOM     84  C   UNL A   1      45.462  29.438  35.430  1.00  0.00     0.012 A 
ATOM     85  C   UNL A   1      43.916  27.817  36.382  1.00  0.00     0.148 A 
ATOM     86  C   UNL A   1      46.507  28.886  36.171  1.00  0.00     0.002 A 
ATOM     87  C   UNL A   1      44.951  27.305  37.154  1.00  0.00     0.091 A 
ATOM     88  F   UNL A   1      42.675  27.313  36.438  1.00  0.00    -0.205 F 
ATOM     89  C   UNL A   1      46.249  27.829  37.041  1.00  0.00     0.022 A 
BRANCH  87  90
ATOM     90  S   UNL A   1      44.699  26.009  38.371  1.00  0.00     0.127 S 
ATOM     91  O   UNL A   1      46.070  25.569  38.627  1.00  0.00    -0.237 OA
ATOM     92  O   UNL A   1      44.077  26.740  39.477  1.00  0.00    -0.237 OA
ATOM     93  O   UNL A   1      43.839  25.019  37.737  1.00  0.00    -0.744 OA
ENDBRANCH  87  90
ENDBRANCH  60  83
ENDBRANCH  34  35
ENDBRANCH  26  29
ENDBRANCH  24  25
ENDBRANCH  23  24
ENDBRANCH  22  23
ENDBRANCH   1  22
TORSDOF 20
ENDMDL
