MODEL 1
REMARK VINA RESULT:     -11.2      0.000      0.000
REMARK SMILES C/C=C(\C)[C@@H]1C=C[C@@H]2C[C@H](C)C[C@H](C)[C@@H]2[C@@H]1C(=O)C1=C(NCCCCCCNC(=O)c2ccc(-c3c4nc(c(-c5cccc(S(=O)(=O)[O-])c5F)c5ccc([nH]5)c(-c5cccc(S(=O)(=O)[O-])c5F)c5nc(c(-c6cccc(S(=O)(=O)[O-])c6F)c6ccc3[nH]6)C=C5)C=C4)cc2)[C@H](C[C@](C)(O)C(=O)[O-])NC1=O
REMARK SMILES IDX 24 1 23 2 22 3 21 4 20 6 19 7 103 8 94 9 102 10 104 11 17 13
REMARK SMILES IDX 18 14 16 15 5 16 6 17 7 18 15 19 8 20 13 21 9 22 12 23 14 24
REMARK SMILES IDX 10 25 11 26 3 27 1 28 2 29 4 30 95 31 96 32 97 33 98 34
REMARK SMILES IDX 99 36 100 37 101 38 25 39 26 40 27 41 28 42 29 43 30 45
REMARK SMILES IDX 31 46 32 47 93 48 33 49 92 50 34 51 35 52 36 53 86 54 37 55
REMARK SMILES IDX 91 56 85 57 87 58 38 59 90 60 84 61 83 62 39 64 71 65 51 66
REMARK SMILES IDX 70 67 52 68 55 69 69 70 88 71 53 72 54 73 68 75 89 76 56 77
REMARK SMILES IDX 40 78 41 79 49 80 42 81 44 82 50 83 43 84 45 85 46 86 47 87
REMARK SMILES IDX 48 88 72 89 73 90 81 91 74 92 76 93 82 94 75 95 77 96 78 97
REMARK SMILES IDX 79 98 80 99 57 100 58 101 66 102 59 103 61 104 67 105 60 106
REMARK SMILES IDX 62 107 63 108 64 109 65 110
REMARK H PARENT 21 5 102 12 98 35 28 44 87 63 55 74
REMARK Flexibility Score: inf
ROOT
ATOM      1  C   UNL A   1      37.593  23.222  25.818  1.00  0.00     0.002 C 
ENDROOT
BRANCH   1   2
ATOM      2  C   UNL A   1      36.289  23.958  26.159  1.00  0.00     0.021 C 
BRANCH   2   3
ATOM      3  C   UNL A   1      35.468  24.446  24.964  1.00  0.00     0.112 C 
BRANCH   3   4
ATOM      4  N   UNL A   1      34.395  25.298  25.425  1.00  0.00    -0.386 N 
ATOM      5  H   UNL A   1      34.625  26.254  25.453  1.00  0.00     0.160 HD
BRANCH   4   6
ATOM      6  C   UNL A   1      33.105  25.017  25.833  1.00  0.00     0.050 C 
ATOM      7  C   UNL A   1      32.074  25.792  26.242  1.00  0.00     0.104 C 
ATOM      8  C   UNL A   1      30.941  24.861  26.470  1.00  0.00     0.257 C 
ATOM      9  C   UNL A   1      32.749  23.533  25.922  1.00  0.00     0.133 C 
ATOM     10  N   UNL A   1      31.383  23.583  26.292  1.00  0.00    -0.343 N 
ATOM     11  O   UNL A   1      29.778  25.093  26.751  1.00  0.00    -0.269 OA
ATOM     12  H   UNL A   1      30.818  22.785  26.407  1.00  0.00     0.164 HD
BRANCH   7  13
ATOM     13  C   UNL A   1      32.046  27.274  26.226  1.00  0.00     0.174 C 
ATOM     14  O   UNL A   1      31.244  27.814  26.998  1.00  0.00    -0.294 OA
BRANCH  13  15
ATOM     15  C   UNL A   1      32.867  28.161  25.247  1.00  0.00     0.076 C 
ATOM     16  C   UNL A   1      33.218  29.621  25.686  1.00  0.00     0.048 C 
ATOM     17  C   UNL A   1      32.010  30.524  25.593  1.00  0.00    -0.022 C 
ATOM     18  C   UNL A   1      30.983  30.261  24.763  1.00  0.00    -0.027 C 
ATOM     19  C   UNL A   1      32.250  28.304  23.794  1.00  0.00     0.010 C 
ATOM     20  C   UNL A   1      30.913  29.068  23.827  1.00  0.00     0.016 C 
ATOM     21  C   UNL A   1      32.146  27.119  22.808  1.00  0.00    -0.010 C 
ATOM     22  C   UNL A   1      29.740  28.131  24.150  1.00  0.00     0.011 C 
ATOM     23  C   UNL A   1      30.994  26.154  23.072  1.00  0.00     0.007 C 
ATOM     24  C   UNL A   1      33.467  26.381  22.607  1.00  0.00     0.008 C 
ATOM     25  C   UNL A   1      29.648  26.852  23.309  1.00  0.00    -0.013 C 
ATOM     26  C   UNL A   1      28.691  25.872  24.004  1.00  0.00     0.007 C 
BRANCH  16  27
ATOM     27  C   UNL A   1      34.141  29.848  26.891  1.00  0.00    -0.070 C 
ATOM     28  C   UNL A   1      34.762  31.381  28.844  1.00  0.00     0.035 C 
ATOM     29  C   UNL A   1      34.012  30.992  27.605  1.00  0.00    -0.031 C 
ATOM     30  C   UNL A   1      35.066  28.764  27.375  1.00  0.00     0.040 C 
ENDBRANCH  16  27
ENDBRANCH  13  15
ENDBRANCH   7  13
BRANCH   9  31
ATOM     31  C   UNL A   1      32.975  22.744  24.627  1.00  0.00     0.072 C 
BRANCH  31  32
ATOM     32  C   UNL A   1      33.546  21.330  24.843  1.00  0.00     0.103 C 
ATOM     33  C   UNL A   1      33.988  21.051  26.282  1.00  0.00     0.049 C 
BRANCH  32  34
ATOM     34  O   UNL A   1      34.736  21.234  24.044  1.00  0.00    -0.384 OA
ATOM     35  H   UNL A   1      34.817  20.334  23.692  1.00  0.00     0.211 HD
ENDBRANCH  32  34
BRANCH  32  36
ATOM     36  C   UNL A   1      32.495  20.295  24.411  1.00  0.00     0.073 C 
ATOM     37  O   UNL A   1      31.975  19.445  25.117  1.00  0.00    -0.547 OA
ATOM     38  O   UNL A   1      32.096  20.458  23.131  1.00  0.00    -0.547 OA
ENDBRANCH  32  36
ENDBRANCH  31  32
ENDBRANCH   9  31
ENDBRANCH   4   6
ENDBRANCH   3   4
ENDBRANCH   2   3
ENDBRANCH   1   2
BRANCH   1  39
ATOM     39  C   UNL A   1      37.482  22.184  24.700  1.00  0.00     0.002 C 
BRANCH  39  40
ATOM     40  C   UNL A   1      38.101  20.823  25.020  1.00  0.00     0.021 C 
BRANCH  40  41
ATOM     41  C   UNL A   1      39.176  20.841  26.103  1.00  0.00     0.116 C 
BRANCH  41  42
ATOM     42  N   UNL A   1      40.085  19.709  26.003  1.00  0.00    -0.352 N 
ATOM     43  C   UNL A   1      41.458  19.719  26.048  1.00  0.00     0.251 C 
ATOM     44  H   UNL A   1      39.663  18.826  25.889  1.00  0.00     0.163 HD
ATOM     45  O   UNL A   1      42.099  18.703  25.802  1.00  0.00    -0.269 OA
BRANCH  43  46
ATOM     46  C   UNL A   1      42.152  20.981  26.376  1.00  0.00     0.039 A 
ATOM     47  C   UNL A   1      42.481  21.863  25.346  1.00  0.00     0.014 A 
ATOM     48  C   UNL A   1      42.442  21.301  27.706  1.00  0.00     0.014 A 
ATOM     49  C   UNL A   1      43.060  23.096  25.654  1.00  0.00     0.010 A 
ATOM     50  C   UNL A   1      42.972  22.550  28.015  1.00  0.00     0.010 A 
ATOM     51  C   UNL A   1      43.289  23.458  26.992  1.00  0.00    -0.014 A 
BRANCH  51  52
ATOM     52  C   UNL A   1      43.851  24.785  27.342  1.00  0.00     0.031 A 
ATOM     53  C   UNL A   1      42.961  25.861  27.899  1.00  0.00     0.074 A 
ATOM     54  C   UNL A   1      45.146  25.050  27.075  1.00  0.00     0.049 A 
ATOM     55  N   UNL A   1      43.263  27.089  28.231  1.00  0.00    -0.248 NA
ATOM     56  C   UNL A   1      41.541  25.521  28.084  1.00  0.00     0.031 C 
ATOM     57  C   UNL A   1      46.088  24.119  26.451  1.00  0.00     0.029 A 
ATOM     58  N   UNL A   1      45.885  26.190  27.268  1.00  0.00    -0.354 N 
ATOM     59  C   UNL A   1      42.070  27.678  28.630  1.00  0.00     0.074 A 
ATOM     60  C   UNL A   1      41.033  26.682  28.472  1.00  0.00     0.031 C 
ATOM     61  C   UNL A   1      47.278  24.724  26.310  1.00  0.00     0.029 A 
ATOM     62  C   UNL A   1      47.182  26.089  26.821  1.00  0.00     0.049 A 
ATOM     63  H   UNL A   1      45.521  27.003  27.688  1.00  0.00     0.167 HD
ATOM     64  C   UNL A   1      41.862  28.926  29.115  1.00  0.00     0.034 A 
ATOM     65  C   UNL A   1      48.180  26.994  26.825  1.00  0.00     0.034 A 
ATOM     66  C   UNL A   1      42.904  29.892  29.326  1.00  0.00     0.049 A 
ATOM     67  C   UNL A   1      47.939  28.348  27.436  1.00  0.00     0.074 A 
ATOM     68  C   UNL A   1      42.812  31.144  29.909  1.00  0.00     0.029 A 
ATOM     69  N   UNL A   1      44.230  29.716  28.963  1.00  0.00    -0.354 N 
ATOM     70  N   UNL A   1      46.843  28.823  27.976  1.00  0.00    -0.248 NA
ATOM     71  C   UNL A   1      49.080  29.274  27.477  1.00  0.00     0.031 C 
ATOM     72  C   UNL A   1      44.083  31.727  29.892  1.00  0.00     0.029 A 
ATOM     73  C   UNL A   1      44.967  30.836  29.305  1.00  0.00     0.049 A 
ATOM     74  H   UNL A   1      44.594  28.913  28.526  1.00  0.00     0.167 HD
ATOM     75  C   UNL A   1      47.170  30.089  28.450  1.00  0.00     0.074 A 
ATOM     76  C   UNL A   1      48.572  30.297  28.152  1.00  0.00     0.031 C 
ATOM     77  C   UNL A   1      46.376  31.003  29.059  1.00  0.00     0.034 A 
BRANCH  64  78
ATOM     78  C   UNL A   1      40.459  29.290  29.525  1.00  0.00     0.023 A 
ATOM     79  C   UNL A   1      39.583  29.838  28.565  1.00  0.00     0.012 A 
ATOM     80  C   UNL A   1      39.989  29.036  30.827  1.00  0.00     0.148 A 
ATOM     81  C   UNL A   1      38.269  30.155  28.902  1.00  0.00     0.002 A 
ATOM     82  C   UNL A   1      38.665  29.320  31.145  1.00  0.00     0.091 A 
ATOM     83  F   UNL A   1      40.843  28.539  31.731  1.00  0.00    -0.205 F 
ATOM     84  C   UNL A   1      37.807  29.887  30.188  1.00  0.00     0.022 A 
BRANCH  82  85
ATOM     85  S   UNL A   1      37.958  28.946  32.754  1.00  0.00     0.127 S 
ATOM     86  O   UNL A   1      36.594  29.450  32.602  1.00  0.00    -0.237 OA
ATOM     87  O   UNL A   1      38.065  27.487  32.809  1.00  0.00    -0.237 OA
ATOM     88  O   UNL A   1      38.784  29.649  33.725  1.00  0.00    -0.744 OA
ENDBRANCH  82  85
ENDBRANCH  64  78
BRANCH  65  89
ATOM     89  C   UNL A   1      49.527  26.613  26.313  1.00  0.00     0.023 A 
ATOM     90  C   UNL A   1      50.329  25.739  27.072  1.00  0.00     0.012 A 
ATOM     91  C   UNL A   1      50.001  27.074  25.071  1.00  0.00     0.148 A 
ATOM     92  C   UNL A   1      51.589  25.352  26.616  1.00  0.00     0.002 A 
ATOM     93  C   UNL A   1      51.236  26.644  24.598  1.00  0.00     0.091 A 
ATOM     94  F   UNL A   1      49.232  27.920  24.369  1.00  0.00    -0.205 F 
ATOM     95  C   UNL A   1      52.038  25.794  25.375  1.00  0.00     0.022 A 
BRANCH  93  96
ATOM     96  S   UNL A   1      51.825  27.061  22.952  1.00  0.00     0.127 S 
ATOM     97  O   UNL A   1      52.995  26.198  22.824  1.00  0.00    -0.237 OA
ATOM     98  O   UNL A   1      50.687  26.688  22.112  1.00  0.00    -0.237 OA
ATOM     99  O   UNL A   1      52.087  28.495  22.992  1.00  0.00    -0.744 OA
ENDBRANCH  93  96
ENDBRANCH  65  89
BRANCH  77 100
ATOM    100  C   UNL A   1      47.002  32.309  29.471  1.00  0.00     0.023 A 
ATOM    101  C   UNL A   1      46.979  33.400  28.581  1.00  0.00     0.012 A 
ATOM    102  C   UNL A   1      47.534  32.479  30.763  1.00  0.00     0.148 A 
ATOM    103  C   UNL A   1      47.498  34.636  28.962  1.00  0.00     0.002 A 
ATOM    104  C   UNL A   1      48.013  33.726  31.152  1.00  0.00     0.091 A 
ATOM    105  F   UNL A   1      47.568  31.422  31.588  1.00  0.00    -0.205 F 
ATOM    106  C   UNL A   1      48.003  34.802  30.250  1.00  0.00     0.022 A 
BRANCH 104 107
ATOM    107  S   UNL A   1      48.596  34.048  32.821  1.00  0.00     0.127 S 
ATOM    108  O   UNL A   1      49.488  35.187  32.610  1.00  0.00    -0.237 OA
ATOM    109  O   UNL A   1      47.357  34.366  33.531  1.00  0.00    -0.237 OA
ATOM    110  O   UNL A   1      49.240  32.816  33.260  1.00  0.00    -0.744 OA
ENDBRANCH 104 107
ENDBRANCH  77 100
ENDBRANCH  51  52
ENDBRANCH  43  46
ENDBRANCH  41  42
ENDBRANCH  40  41
ENDBRANCH  39  40
ENDBRANCH   1  39
TORSDOF 23
ENDMDL
MODEL 2
REMARK VINA RESULT:     -10.8      1.768      2.029
REMARK SMILES C/C=C(\C)[C@@H]1C=C[C@@H]2C[C@H](C)C[C@H](C)[C@@H]2[C@@H]1C(=O)C1=C(NCCCCCCNC(=O)c2ccc(-c3c4nc(c(-c5cccc(S(=O)(=O)[O-])c5F)c5ccc([nH]5)c(-c5cccc(S(=O)(=O)[O-])c5F)c5nc(c(-c6cccc(S(=O)(=O)[O-])c6F)c6ccc3[nH]6)C=C5)C=C4)cc2)[C@H](C[C@](C)(O)C(=O)[O-])NC1=O
REMARK SMILES IDX 24 1 23 2 22 3 21 4 20 6 19 7 103 8 94 9 102 10 104 11 17 13
REMARK SMILES IDX 18 14 16 15 5 16 6 17 7 18 15 19 8 20 13 21 9 22 12 23 14 24
REMARK SMILES IDX 10 25 11 26 3 27 1 28 2 29 4 30 95 31 96 32 97 33 98 34
REMARK SMILES IDX 99 36 100 37 101 38 25 39 26 40 27 41 28 42 29 43 30 45
REMARK SMILES IDX 31 46 32 47 93 48 33 49 92 50 34 51 35 52 36 53 86 54 37 55
REMARK SMILES IDX 91 56 85 57 87 58 38 59 90 60 84 61 83 62 39 64 71 65 51 66
REMARK SMILES IDX 70 67 52 68 55 69 69 70 88 71 53 72 54 73 68 75 89 76 56 77
REMARK SMILES IDX 40 78 41 79 49 80 42 81 44 82 50 83 43 84 45 85 46 86 47 87
REMARK SMILES IDX 48 88 72 89 73 90 81 91 74 92 76 93 82 94 75 95 77 96 78 97
REMARK SMILES IDX 79 98 80 99 57 100 58 101 66 102 59 103 61 104 67 105 60 106
REMARK SMILES IDX 62 107 63 108 64 109 65 110
REMARK H PARENT 21 5 102 12 98 35 28 44 87 63 55 74
REMARK Flexibility Score: inf
ROOT
ATOM      1  C   UNL A   1      36.521  22.507  25.823  1.00  0.00     0.002 C 
ENDROOT
BRANCH   1   2
ATOM      2  C   UNL A   1      36.292  24.025  25.757  1.00  0.00     0.021 C 
BRANCH   2   3
ATOM      3  C   UNL A   1      35.339  24.507  24.662  1.00  0.00     0.112 C 
BRANCH   3   4
ATOM      4  N   UNL A   1      34.310  25.339  25.244  1.00  0.00    -0.386 N 
ATOM      5  H   UNL A   1      34.593  26.265  25.419  1.00  0.00     0.160 HD
BRANCH   4   6
ATOM      6  C   UNL A   1      33.002  25.074  25.600  1.00  0.00     0.050 C 
ATOM      7  C   UNL A   1      31.987  25.852  26.044  1.00  0.00     0.104 C 
ATOM      8  C   UNL A   1      30.818  24.947  26.174  1.00  0.00     0.257 C 
ATOM      9  C   UNL A   1      32.593  23.601  25.565  1.00  0.00     0.133 C 
ATOM     10  N   UNL A   1      31.221  23.671  25.907  1.00  0.00    -0.343 N 
ATOM     11  O   UNL A   1      29.656  25.199  26.446  1.00  0.00    -0.269 OA
ATOM     12  H   UNL A   1      30.626  22.888  25.948  1.00  0.00     0.164 HD
BRANCH   7  13
ATOM     13  C   UNL A   1      32.010  27.331  26.142  1.00  0.00     0.174 C 
ATOM     14  O   UNL A   1      31.259  27.834  26.986  1.00  0.00    -0.294 OA
BRANCH  13  15
ATOM     15  C   UNL A   1      32.822  28.265  25.200  1.00  0.00     0.076 C 
ATOM     16  C   UNL A   1      33.183  29.700  25.709  1.00  0.00     0.048 C 
ATOM     17  C   UNL A   1      31.978  30.609  25.677  1.00  0.00    -0.022 C 
ATOM     18  C   UNL A   1      30.939  30.392  24.848  1.00  0.00    -0.027 C 
ATOM     19  C   UNL A   1      32.189  28.484  23.764  1.00  0.00     0.010 C 
ATOM     20  C   UNL A   1      30.854  29.248  23.853  1.00  0.00     0.016 C 
ATOM     21  C   UNL A   1      32.068  27.352  22.720  1.00  0.00    -0.010 C 
ATOM     22  C   UNL A   1      29.682  28.299  24.141  1.00  0.00     0.011 C 
ATOM     23  C   UNL A   1      30.916  26.377  22.948  1.00  0.00     0.007 C 
ATOM     24  C   UNL A   1      33.384  26.621  22.466  1.00  0.00     0.008 C 
ATOM     25  C   UNL A   1      29.576  27.066  23.238  1.00  0.00    -0.013 C 
ATOM     26  C   UNL A   1      28.623  26.054  23.893  1.00  0.00     0.007 C 
BRANCH  16  27
ATOM     27  C   UNL A   1      34.121  29.861  26.913  1.00  0.00    -0.070 C 
ATOM     28  C   UNL A   1      34.937  31.398  28.791  1.00  0.00     0.035 C 
ATOM     29  C   UNL A   1      34.148  31.050  27.564  1.00  0.00    -0.031 C 
ATOM     30  C   UNL A   1      34.885  28.688  27.466  1.00  0.00     0.040 C 
ENDBRANCH  16  27
ENDBRANCH  13  15
ENDBRANCH   7  13
BRANCH   9  31
ATOM     31  C   UNL A   1      32.824  22.906  24.220  1.00  0.00     0.072 C 
BRANCH  31  32
ATOM     32  C   UNL A   1      32.906  21.371  24.309  1.00  0.00     0.103 C 
ATOM     33  C   UNL A   1      32.214  20.783  25.541  1.00  0.00     0.049 C 
BRANCH  32  34
ATOM     34  O   UNL A   1      34.295  21.033  24.444  1.00  0.00    -0.384 OA
ATOM     35  H   UNL A   1      34.817  21.844  24.542  1.00  0.00     0.211 HD
ENDBRANCH  32  34
BRANCH  32  36
ATOM     36  C   UNL A   1      32.302  20.763  23.033  1.00  0.00     0.073 C 
ATOM     37  O   UNL A   1      32.045  19.585  22.836  1.00  0.00    -0.547 OA
ATOM     38  O   UNL A   1      31.972  21.697  22.114  1.00  0.00    -0.547 OA
ENDBRANCH  32  36
ENDBRANCH  31  32
ENDBRANCH   9  31
ENDBRANCH   4   6
ENDBRANCH   3   4
ENDBRANCH   2   3
ENDBRANCH   1   2
BRANCH   1  39
ATOM     39  C   UNL A   1      37.455  21.943  24.750  1.00  0.00     0.002 C 
BRANCH  39  40
ATOM     40  C   UNL A   1      38.142  20.628  25.121  1.00  0.00     0.021 C 
BRANCH  40  41
ATOM     41  C   UNL A   1      39.265  20.752  26.146  1.00  0.00     0.116 C 
BRANCH  41  42
ATOM     42  N   UNL A   1      40.227  19.664  26.052  1.00  0.00    -0.352 N 
ATOM     43  C   UNL A   1      41.598  19.745  26.038  1.00  0.00     0.251 C 
ATOM     44  H   UNL A   1      39.847  18.757  25.991  1.00  0.00     0.163 HD
ATOM     45  O   UNL A   1      42.281  18.754  25.805  1.00  0.00    -0.269 OA
BRANCH  43  46
ATOM     46  C   UNL A   1      42.238  21.053  26.285  1.00  0.00     0.039 A 
ATOM     47  C   UNL A   1      42.458  21.916  25.210  1.00  0.00     0.014 A 
ATOM     48  C   UNL A   1      42.585  21.434  27.585  1.00  0.00     0.014 A 
ATOM     49  C   UNL A   1      42.985  23.188  25.445  1.00  0.00     0.010 A 
ATOM     50  C   UNL A   1      43.061  22.720  27.823  1.00  0.00     0.010 A 
ATOM     51  C   UNL A   1      43.268  23.607  26.756  1.00  0.00    -0.014 A 
BRANCH  51  52
ATOM     52  C   UNL A   1      43.775  24.974  27.030  1.00  0.00     0.031 A 
ATOM     53  C   UNL A   1      42.873  26.004  27.652  1.00  0.00     0.074 A 
ATOM     54  C   UNL A   1      45.020  25.313  26.640  1.00  0.00     0.049 A 
ATOM     55  N   UNL A   1      43.125  27.256  27.934  1.00  0.00    -0.248 NA
ATOM     56  C   UNL A   1      41.501  25.581  27.975  1.00  0.00     0.031 C 
ATOM     57  C   UNL A   1      45.957  24.429  25.944  1.00  0.00     0.029 A 
ATOM     58  N   UNL A   1      45.700  26.501  26.744  1.00  0.00    -0.354 N 
ATOM     59  C   UNL A   1      41.940  27.778  28.434  1.00  0.00     0.074 A 
ATOM     60  C   UNL A   1      40.958  26.717  28.390  1.00  0.00     0.031 C 
ATOM     61  C   UNL A   1      47.088  25.104  25.683  1.00  0.00     0.029 A 
ATOM     62  C   UNL A   1      46.953  26.471  26.179  1.00  0.00     0.049 A 
ATOM     63  H   UNL A   1      45.325  27.298  27.184  1.00  0.00     0.167 HD
ATOM     64  C   UNL A   1      41.698  29.021  28.918  1.00  0.00     0.034 A 
ATOM     65  C   UNL A   1      47.887  27.436  26.075  1.00  0.00     0.034 A 
ATOM     66  C   UNL A   1      42.692  30.054  29.015  1.00  0.00     0.049 A 
ATOM     67  C   UNL A   1      47.618  28.785  26.685  1.00  0.00     0.074 A 
ATOM     68  C   UNL A   1      42.574  31.310  29.583  1.00  0.00     0.029 A 
ATOM     69  N   UNL A   1      43.986  29.953  28.532  1.00  0.00    -0.354 N 
ATOM     70  N   UNL A   1      46.548  29.203  27.318  1.00  0.00    -0.248 NA
ATOM     71  C   UNL A   1      48.696  29.781  26.605  1.00  0.00     0.031 C 
ATOM     72  C   UNL A   1      43.798  31.971  29.438  1.00  0.00     0.029 A 
ATOM     73  C   UNL A   1      44.679  31.124  28.786  1.00  0.00     0.049 A 
ATOM     74  H   UNL A   1      44.359  29.165  28.075  1.00  0.00     0.167 HD
ATOM     75  C   UNL A   1      46.837  30.496  27.739  1.00  0.00     0.074 A 
ATOM     76  C   UNL A   1      48.189  30.785  27.308  1.00  0.00     0.031 C 
ATOM     77  C   UNL A   1      46.046  31.372  28.406  1.00  0.00     0.034 A 
BRANCH  64  78
ATOM     78  C   UNL A   1      40.319  29.306  29.451  1.00  0.00     0.023 A 
ATOM     79  C   UNL A   1      39.342  29.834  28.583  1.00  0.00     0.012 A 
ATOM     80  C   UNL A   1      39.971  28.997  30.780  1.00  0.00     0.148 A 
ATOM     81  C   UNL A   1      38.046  30.078  29.035  1.00  0.00     0.002 A 
ATOM     82  C   UNL A   1      38.667  29.209  31.213  1.00  0.00     0.091 A 
ATOM     83  F   UNL A   1      40.920  28.520  31.596  1.00  0.00    -0.205 F 
ATOM     84  C   UNL A   1      37.706  29.756  30.347  1.00  0.00     0.022 A 
BRANCH  82  85
ATOM     85  S   UNL A   1      38.114  28.761  32.864  1.00  0.00     0.127 S 
ATOM     86  O   UNL A   1      36.727  29.222  32.847  1.00  0.00    -0.237 OA
ATOM     87  O   UNL A   1      38.271  27.305  32.860  1.00  0.00    -0.237 OA
ATOM     88  O   UNL A   1      39.000  29.461  33.783  1.00  0.00    -0.744 OA
ENDBRANCH  82  85
ENDBRANCH  64  78
BRANCH  65  89
ATOM     89  C   UNL A   1      49.203  27.129  25.445  1.00  0.00     0.023 A 
ATOM     90  C   UNL A   1      49.404  27.442  24.086  1.00  0.00     0.012 A 
ATOM     91  C   UNL A   1      50.261  26.569  26.184  1.00  0.00     0.148 A 
ATOM     92  C   UNL A   1      50.627  27.179  23.468  1.00  0.00     0.002 A 
ATOM     93  C   UNL A   1      51.494  26.358  25.576  1.00  0.00     0.091 A 
ATOM     94  F   UNL A   1      50.047  26.261  27.471  1.00  0.00    -0.205 F 
ATOM     95  C   UNL A   1      51.675  26.648  24.215  1.00  0.00     0.022 A 
BRANCH  93  96
ATOM     96  S   UNL A   1      52.931  25.804  26.501  1.00  0.00     0.127 S 
ATOM     97  O   UNL A   1      53.978  26.678  25.981  1.00  0.00    -0.237 OA
ATOM     98  O   UNL A   1      52.532  26.074  27.883  1.00  0.00    -0.237 OA
ATOM     99  O   UNL A   1      53.065  24.386  26.189  1.00  0.00    -0.744 OA
ENDBRANCH  93  96
ENDBRANCH  65  89
BRANCH  77 100
ATOM    100  C   UNL A   1      46.622  32.723  28.736  1.00  0.00     0.023 A 
ATOM    101  C   UNL A   1      47.308  32.905  29.953  1.00  0.00     0.012 A 
ATOM    102  C   UNL A   1      46.559  33.782  27.811  1.00  0.00     0.148 A 
ATOM    103  C   UNL A   1      47.902  34.130  30.255  1.00  0.00     0.002 A 
ATOM    104  C   UNL A   1      47.190  34.988  28.100  1.00  0.00     0.091 A 
ATOM    105  F   UNL A   1      45.882  33.596  26.668  1.00  0.00    -0.205 F 
ATOM    106  C   UNL A   1      47.854  35.166  29.324  1.00  0.00     0.022 A 
BRANCH 104 107
ATOM    107  S   UNL A   1      47.253  36.341  26.918  1.00  0.00     0.127 S 
ATOM    108  O   UNL A   1      47.819  35.683  25.742  1.00  0.00    -0.237 OA
ATOM    109  O   UNL A   1      45.844  36.713  26.791  1.00  0.00    -0.237 OA
ATOM    110  O   UNL A   1      48.091  37.363  27.532  1.00  0.00    -0.744 OA
ENDBRANCH 104 107
ENDBRANCH  77 100
ENDBRANCH  51  52
ENDBRANCH  43  46
ENDBRANCH  41  42
ENDBRANCH  40  41
ENDBRANCH  39  40
ENDBRANCH   1  39
TORSDOF 23
ENDMDL
MODEL 3
REMARK VINA RESULT:     -10.5      2.511      7.627
REMARK SMILES C/C=C(\C)[C@@H]1C=C[C@@H]2C[C@H](C)C[C@H](C)[C@@H]2[C@@H]1C(=O)C1=C(NCCCCCCNC(=O)c2ccc(-c3c4nc(c(-c5cccc(S(=O)(=O)[O-])c5F)c5ccc([nH]5)c(-c5cccc(S(=O)(=O)[O-])c5F)c5nc(c(-c6cccc(S(=O)(=O)[O-])c6F)c6ccc3[nH]6)C=C5)C=C4)cc2)[C@H](C[C@](C)(O)C(=O)[O-])NC1=O
REMARK SMILES IDX 24 1 23 2 22 3 21 4 20 6 19 7 103 8 94 9 102 10 104 11 17 13
REMARK SMILES IDX 18 14 16 15 5 16 6 17 7 18 15 19 8 20 13 21 9 22 12 23 14 24
REMARK SMILES IDX 10 25 11 26 3 27 1 28 2 29 4 30 95 31 96 32 97 33 98 34
REMARK SMILES IDX 99 36 100 37 101 38 25 39 26 40 27 41 28 42 29 43 30 45
REMARK SMILES IDX 31 46 32 47 93 48 33 49 92 50 34 51 35 52 36 53 86 54 37 55
REMARK SMILES IDX 91 56 85 57 87 58 38 59 90 60 84 61 83 62 39 64 71 65 51 66
REMARK SMILES IDX 70 67 52 68 55 69 69 70 88 71 53 72 54 73 68 75 89 76 56 77
REMARK SMILES IDX 40 78 41 79 49 80 42 81 44 82 50 83 43 84 45 85 46 86 47 87
REMARK SMILES IDX 48 88 72 89 73 90 81 91 74 92 76 93 82 94 75 95 77 96 78 97
REMARK SMILES IDX 79 98 80 99 57 100 58 101 66 102 59 103 61 104 67 105 60 106
REMARK SMILES IDX 62 107 63 108 64 109 65 110
REMARK H PARENT 21 5 102 12 98 35 28 44 87 63 55 74
REMARK Flexibility Score: inf
ROOT
ATOM      1  C   UNL A   1      36.822  21.037  24.174  1.00  0.00     0.002 C 
ENDROOT
BRANCH   1   2
ATOM      2  C   UNL A   1      36.793  22.243  23.223  1.00  0.00     0.021 C 
BRANCH   2   3
ATOM      3  C   UNL A   1      35.451  22.970  23.112  1.00  0.00     0.112 C 
BRANCH   3   4
ATOM      4  N   UNL A   1      34.373  22.046  23.384  1.00  0.00    -0.386 N 
ATOM      5  H   UNL A   1      34.457  21.182  22.921  1.00  0.00     0.160 HD
BRANCH   4   6
ATOM      6  C   UNL A   1      33.244  22.153  24.175  1.00  0.00     0.050 C 
ATOM      7  C   UNL A   1      32.448  23.193  24.514  1.00  0.00     0.104 C 
ATOM      8  C   UNL A   1      31.362  22.611  25.341  1.00  0.00     0.257 C 
ATOM      9  C   UNL A   1      32.811  20.872  24.885  1.00  0.00     0.133 C 
ATOM     10  N   UNL A   1      31.626  21.287  25.539  1.00  0.00    -0.343 N 
ATOM     11  O   UNL A   1      30.358  23.130  25.798  1.00  0.00    -0.269 OA
ATOM     12  H   UNL A   1      31.058  20.688  26.076  1.00  0.00     0.164 HD
BRANCH   7  13
ATOM     13  C   UNL A   1      32.537  24.567  23.964  1.00  0.00     0.174 C 
ATOM     14  O   UNL A   1      32.030  24.743  22.849  1.00  0.00    -0.294 OA
BRANCH  13  15
ATOM     15  C   UNL A   1      33.301  25.740  24.640  1.00  0.00     0.076 C 
ATOM     16  C   UNL A   1      33.923  25.504  26.056  1.00  0.00     0.048 C 
ATOM     17  C   UNL A   1      32.857  25.497  27.126  1.00  0.00    -0.022 C 
ATOM     18  C   UNL A   1      31.679  26.130  26.966  1.00  0.00    -0.027 C 
ATOM     19  C   UNL A   1      32.478  27.089  24.771  1.00  0.00     0.010 C 
ATOM     20  C   UNL A   1      31.286  26.925  25.733  1.00  0.00     0.016 C 
ATOM     21  C   UNL A   1      32.045  27.928  23.548  1.00  0.00    -0.010 C 
ATOM     22  C   UNL A   1      30.062  26.338  25.016  1.00  0.00     0.011 C 
ATOM     23  C   UNL A   1      30.828  27.399  22.796  1.00  0.00     0.007 C 
ATOM     24  C   UNL A   1      33.197  28.257  22.602  1.00  0.00     0.008 C 
ATOM     25  C   UNL A   1      29.653  27.027  23.709  1.00  0.00    -0.013 C 
ATOM     26  C   UNL A   1      28.695  26.102  22.943  1.00  0.00     0.007 C 
BRANCH  16  27
ATOM     27  C   UNL A   1      35.055  24.481  26.223  1.00  0.00    -0.070 C 
ATOM     28  C   UNL A   1      37.568  24.032  26.040  1.00  0.00     0.035 C 
ATOM     29  C   UNL A   1      36.318  24.847  25.895  1.00  0.00    -0.031 C 
ATOM     30  C   UNL A   1      34.809  23.150  26.881  1.00  0.00     0.040 C 
ENDBRANCH  16  27
ENDBRANCH  13  15
ENDBRANCH   7  13
BRANCH   9  31
ATOM     31  C   UNL A   1      32.577  19.674  23.958  1.00  0.00     0.072 C 
BRANCH  31  32
ATOM     32  C   UNL A   1      33.282  18.381  24.408  1.00  0.00     0.103 C 
ATOM     33  C   UNL A   1      32.678  17.751  25.666  1.00  0.00     0.049 C 
BRANCH  32  34
ATOM     34  O   UNL A   1      34.628  18.738  24.759  1.00  0.00    -0.384 OA
ATOM     35  H   UNL A   1      35.046  19.194  24.012  1.00  0.00     0.211 HD
ENDBRANCH  32  34
BRANCH  32  36
ATOM     36  C   UNL A   1      33.253  17.368  23.252  1.00  0.00     0.073 C 
ATOM     37  O   UNL A   1      32.782  17.543  22.140  1.00  0.00    -0.547 OA
ATOM     38  O   UNL A   1      33.907  16.222  23.545  1.00  0.00    -0.547 OA
ENDBRANCH  32  36
ENDBRANCH  31  32
ENDBRANCH   9  31
ENDBRANCH   4   6
ENDBRANCH   3   4
ENDBRANCH   2   3
ENDBRANCH   1   2
BRANCH   1  39
ATOM     39  C   UNL A   1      37.911  21.082  25.248  1.00  0.00     0.002 C 
BRANCH  39  40
ATOM     40  C   UNL A   1      38.815  19.849  25.300  1.00  0.00     0.021 C 
BRANCH  40  41
ATOM     41  C   UNL A   1      39.826  19.837  26.444  1.00  0.00     0.116 C 
BRANCH  41  42
ATOM     42  N   UNL A   1      41.100  19.253  26.053  1.00  0.00    -0.352 N 
ATOM     43  C   UNL A   1      42.314  19.882  25.921  1.00  0.00     0.251 C 
ATOM     44  H   UNL A   1      41.091  18.287  25.859  1.00  0.00     0.163 HD
ATOM     45  O   UNL A   1      43.276  19.292  25.440  1.00  0.00    -0.269 OA
BRANCH  43  46
ATOM     46  C   UNL A   1      42.438  21.291  26.348  1.00  0.00     0.039 A 
ATOM     47  C   UNL A   1      42.608  21.577  27.704  1.00  0.00     0.014 A 
ATOM     48  C   UNL A   1      42.422  22.319  25.400  1.00  0.00     0.014 A 
ATOM     49  C   UNL A   1      42.811  22.899  28.107  1.00  0.00     0.010 A 
ATOM     50  C   UNL A   1      42.677  23.628  25.799  1.00  0.00     0.010 A 
ATOM     51  C   UNL A   1      42.870  23.931  27.155  1.00  0.00    -0.014 A 
BRANCH  51  52
ATOM     52  C   UNL A   1      43.141  25.332  27.560  1.00  0.00     0.031 A 
ATOM     53  C   UNL A   1      44.547  25.864  27.546  1.00  0.00     0.074 A 
ATOM     54  C   UNL A   1      42.132  26.098  28.022  1.00  0.00     0.049 A 
ATOM     55  N   UNL A   1      44.983  27.046  27.897  1.00  0.00    -0.248 NA
ATOM     56  C   UNL A   1      45.605  24.941  27.107  1.00  0.00     0.031 C 
ATOM     57  C   UNL A   1      40.742  25.664  28.169  1.00  0.00     0.029 A 
ATOM     58  N   UNL A   1      42.127  27.391  28.482  1.00  0.00    -0.354 N 
ATOM     59  C   UNL A   1      46.363  27.000  27.754  1.00  0.00     0.074 A 
ATOM     60  C   UNL A   1      46.698  25.663  27.312  1.00  0.00     0.031 C 
ATOM     61  C   UNL A   1      40.019  26.672  28.686  1.00  0.00     0.029 A 
ATOM     62  C   UNL A   1      40.895  27.816  28.918  1.00  0.00     0.049 A 
ATOM     63  H   UNL A   1      42.931  27.959  28.497  1.00  0.00     0.167 HD
ATOM     64  C   UNL A   1      47.269  27.989  27.941  1.00  0.00     0.034 A 
ATOM     65  C   UNL A   1      40.514  28.997  29.444  1.00  0.00     0.034 A 
ATOM     66  C   UNL A   1      46.927  29.332  28.322  1.00  0.00     0.049 A 
ATOM     67  C   UNL A   1      41.528  30.102  29.574  1.00  0.00     0.074 A 
ATOM     68  C   UNL A   1      47.758  30.432  28.437  1.00  0.00     0.029 A 
ATOM     69  N   UNL A   1      45.651  29.759  28.650  1.00  0.00    -0.354 N 
ATOM     70  N   UNL A   1      42.801  30.091  29.259  1.00  0.00    -0.248 NA
ATOM     71  C   UNL A   1      41.047  31.392  30.088  1.00  0.00     0.031 C 
ATOM     72  C   UNL A   1      46.984  31.524  28.841  1.00  0.00     0.029 A 
ATOM     73  C   UNL A   1      45.669  31.105  28.971  1.00  0.00     0.049 A 
ATOM     74  H   UNL A   1      44.848  29.189  28.655  1.00  0.00     0.167 HD
ATOM     75  C   UNL A   1      43.265  31.379  29.507  1.00  0.00     0.074 A 
ATOM     76  C   UNL A   1      42.131  32.148  29.977  1.00  0.00     0.031 C 
ATOM     77  C   UNL A   1      44.520  31.872  29.376  1.00  0.00     0.034 A 
BRANCH  64  78
ATOM     78  C   UNL A   1      48.714  27.675  27.661  1.00  0.00     0.023 A 
ATOM     79  C   UNL A   1      49.511  27.127  28.687  1.00  0.00     0.012 A 
ATOM     80  C   UNL A   1      49.267  27.858  26.379  1.00  0.00     0.148 A 
ATOM     81  C   UNL A   1      50.843  26.793  28.452  1.00  0.00     0.002 A 
ATOM     82  C   UNL A   1      50.586  27.487  26.142  1.00  0.00     0.091 A 
ATOM     83  F   UNL A   1      48.502  28.403  25.423  1.00  0.00    -0.205 F 
ATOM     84  C   UNL A   1      51.378  26.963  27.178  1.00  0.00     0.022 A 
BRANCH  82  85
ATOM     85  S   UNL A   1      51.344  27.604  24.516  1.00  0.00     0.127 S 
ATOM     86  O   UNL A   1      50.376  26.889  23.687  1.00  0.00    -0.237 OA
ATOM     87  O   UNL A   1      51.384  29.051  24.295  1.00  0.00    -0.237 OA
ATOM     88  O   UNL A   1      52.652  26.976  24.641  1.00  0.00    -0.744 OA
ENDBRANCH  82  85
ENDBRANCH  64  78
BRANCH  65  89
ATOM     89  C   UNL A   1      39.085  29.223  29.801  1.00  0.00     0.023 A 
ATOM     90  C   UNL A   1      38.633  28.868  31.087  1.00  0.00     0.012 A 
ATOM     91  C   UNL A   1      38.185  29.818  28.898  1.00  0.00     0.148 A 
ATOM     92  C   UNL A   1      37.304  29.078  31.457  1.00  0.00     0.002 A 
ATOM     93  C   UNL A   1      36.876  30.072  29.291  1.00  0.00     0.091 A 
ATOM     94  F   UNL A   1      38.628  30.134  27.672  1.00  0.00    -0.205 F 
ATOM     95  C   UNL A   1      36.429  29.689  30.565  1.00  0.00     0.022 A 
BRANCH  93  96
ATOM     96  S   UNL A   1      35.725  30.977  28.248  1.00  0.00     0.127 S 
ATOM     97  O   UNL A   1      35.484  30.024  27.169  1.00  0.00    -0.237 OA
ATOM     98  O   UNL A   1      34.592  31.189  29.150  1.00  0.00    -0.237 OA
ATOM     99  O   UNL A   1      36.425  32.201  27.879  1.00  0.00    -0.744 OA
ENDBRANCH  93  96
ENDBRANCH  65  89
BRANCH  77 100
ATOM    100  C   UNL A   1      44.741  33.321  29.721  1.00  0.00     0.023 A 
ATOM    101  C   UNL A   1      45.092  33.675  31.038  1.00  0.00     0.012 A 
ATOM    102  C   UNL A   1      44.683  34.317  28.728  1.00  0.00     0.148 A 
ATOM    103  C   UNL A   1      45.360  35.003  31.367  1.00  0.00     0.002 A 
ATOM    104  C   UNL A   1      44.992  35.633  29.054  1.00  0.00     0.091 A 
ATOM    105  F   UNL A   1      44.324  33.964  27.485  1.00  0.00    -0.205 F 
ATOM    106  C   UNL A   1      45.323  35.979  30.374  1.00  0.00     0.022 A 
BRANCH 104 107
ATOM    107  S   UNL A   1      45.056  36.935  27.816  1.00  0.00     0.127 S 
ATOM    108  O   UNL A   1      43.660  37.008  27.389  1.00  0.00    -0.237 OA
ATOM    109  O   UNL A   1      45.518  38.086  28.594  1.00  0.00    -0.237 OA
ATOM    110  O   UNL A   1      46.001  36.475  26.807  1.00  0.00    -0.744 OA
ENDBRANCH 104 107
ENDBRANCH  77 100
ENDBRANCH  51  52
ENDBRANCH  43  46
ENDBRANCH  41  42
ENDBRANCH  40  41
ENDBRANCH  39  40
ENDBRANCH   1  39
TORSDOF 23
ENDMDL
