MODEL 1
REMARK VINA RESULT:     -10.8      0.000      0.000
REMARK SMILES C=CCN(CC(=O)NCCCCCCNC(=O)c1ccc(-c2c3nc(c(-c4cccc(S(=O)(=O)[O-])c4F)c4ccc([nH]4)c(-c4cccc(S(=O)(=O)[O-])c4F)c4nc(c(-c5cccc(S(=O)(=O)[O-])c5F)c5ccc2[nH]5)C=C4)C=C3)cc1)c1ccc([N+](=O)[O-])cc1Br
REMARK SMILES IDX 11 1 10 2 9 3 8 4 6 5 7 6 5 8 4 9 3 10 2 11 1 12 81 13 82 14
REMARK SMILES IDX 89 15 83 16 88 17 90 18 84 19 85 20 86 21 87 22 12 23 13 24
REMARK SMILES IDX 14 25 15 26 16 27 17 29 18 30 19 31 80 32 20 33 79 34 21 35
REMARK SMILES IDX 22 36 23 37 73 38 24 39 78 40 72 41 74 42 25 43 77 44 71 45
REMARK SMILES IDX 70 46 26 48 58 49 38 50 57 51 39 52 42 53 56 54 75 55 40 56
REMARK SMILES IDX 41 57 55 59 76 60 43 61 27 62 28 63 36 64 29 65 31 66 37 67
REMARK SMILES IDX 30 68 32 69 33 70 34 71 35 72 59 73 60 74 68 75 61 76 63 77
REMARK SMILES IDX 69 78 62 79 64 80 65 81 66 82 67 83 44 84 45 85 53 86 46 87
REMARK SMILES IDX 48 88 54 89 47 90 49 91 50 92 51 93 52 94
REMARK H PARENT 8 7 15 28 74 47 42 58
REMARK Flexibility Score: inf
ROOT
ATOM      1  C   UNL A   1      32.339  29.216  25.664  1.00  0.00     0.002 C 
ENDROOT
BRANCH   1   2
ATOM      2  C   UNL A   1      31.712  28.056  26.446  1.00  0.00     0.021 C 
BRANCH   2   3
ATOM      3  C   UNL A   1      31.881  26.688  25.778  1.00  0.00     0.116 C 
BRANCH   3   4
ATOM      4  N   UNL A   1      31.526  25.600  26.664  1.00  0.00    -0.355 N 
ATOM      5  C   UNL A   1      31.231  24.293  26.400  1.00  0.00     0.239 C 
ATOM      6  O   UNL A   1      30.941  23.587  27.373  1.00  0.00    -0.273 OA
ATOM      7  H   UNL A   1      31.490  25.844  27.617  1.00  0.00     0.163 HD
BRANCH   5   8
ATOM      8  C   UNL A   1      31.294  23.693  24.983  1.00  0.00     0.216 C 
BRANCH   8   9
ATOM      9  N   UNL A   1      32.575  23.085  24.554  1.00  0.00    -0.358 N 
BRANCH   9  10
ATOM     10  C   UNL A   1      33.539  23.946  23.856  1.00  0.00     0.144 C 
BRANCH  10  11
ATOM     11  C   UNL A   1      34.905  23.916  24.454  1.00  0.00    -0.014 C 
ATOM     12  C   UNL A   1      35.987  23.419  23.837  1.00  0.00     0.006 C 
ENDBRANCH  10  11
ENDBRANCH   9  10
BRANCH   9  13
ATOM     13  C   UNL A   1      32.707  21.699  24.461  1.00  0.00     0.052 A 
ATOM     14  C   UNL A   1      32.181  21.012  23.348  1.00  0.00     0.034 A 
ATOM     15  C   UNL A   1      33.382  20.901  25.414  1.00  0.00     0.048 A 
ATOM     16  C   UNL A   1      32.359  19.640  23.147  1.00  0.00     0.088 A 
ATOM     17  C   UNL A   1      33.624  19.534  25.200  1.00  0.00     0.103 A 
ATOM     18  Br  UNL A   1      33.851  21.530  27.151  1.00  0.00    -0.048 Br
ATOM     19  C   UNL A   1      33.111  18.911  24.062  1.00  0.00     0.270 A 
BRANCH  19  20
ATOM     20  N   UNL A   1      33.330  17.479  23.847  1.00  0.00     0.062 N 
ATOM     21  O   UNL A   1      33.402  17.076  22.677  1.00  0.00    -0.258 OA
ATOM     22  O   UNL A   1      33.425  16.754  24.848  1.00  0.00    -0.258 OA
ENDBRANCH  19  20
ENDBRANCH   9  13
ENDBRANCH   8   9
ENDBRANCH   5   8
ENDBRANCH   3   4
ENDBRANCH   2   3
ENDBRANCH   1   2
BRANCH   1  23
ATOM     23  C   UNL A   1      31.412  30.416  25.443  1.00  0.00     0.002 C 
BRANCH  23  24
ATOM     24  C   UNL A   1      31.368  31.418  26.601  1.00  0.00     0.021 C 
BRANCH  24  25
ATOM     25  C   UNL A   1      32.705  32.085  26.912  1.00  0.00     0.116 C 
BRANCH  25  26
ATOM     26  N   UNL A   1      32.544  33.494  27.237  1.00  0.00    -0.352 N 
ATOM     27  C   UNL A   1      33.165  34.237  28.209  1.00  0.00     0.251 C 
ATOM     28  H   UNL A   1      31.896  33.985  26.682  1.00  0.00     0.163 HD
ATOM     29  O   UNL A   1      32.741  35.360  28.486  1.00  0.00    -0.269 OA
BRANCH  27  30
ATOM     30  C   UNL A   1      34.330  33.686  28.932  1.00  0.00     0.039 A 
ATOM     31  C   UNL A   1      34.122  32.728  29.927  1.00  0.00     0.014 A 
ATOM     32  C   UNL A   1      35.626  34.120  28.635  1.00  0.00     0.014 A 
ATOM     33  C   UNL A   1      35.217  32.164  30.585  1.00  0.00     0.010 A 
ATOM     34  C   UNL A   1      36.718  33.502  29.238  1.00  0.00     0.010 A 
ATOM     35  C   UNL A   1      36.527  32.523  30.224  1.00  0.00    -0.014 A 
BRANCH  35  36
ATOM     36  C   UNL A   1      37.705  31.875  30.858  1.00  0.00     0.031 A 
ATOM     37  C   UNL A   1      38.478  30.813  30.123  1.00  0.00     0.074 A 
ATOM     38  C   UNL A   1      38.031  32.188  32.127  1.00  0.00     0.049 A 
ATOM     39  N   UNL A   1      39.499  30.105  30.533  1.00  0.00    -0.248 NA
ATOM     40  C   UNL A   1      38.032  30.484  28.759  1.00  0.00     0.031 C 
ATOM     41  C   UNL A   1      37.315  33.145  32.974  1.00  0.00     0.029 A 
ATOM     42  N   UNL A   1      39.032  31.714  32.940  1.00  0.00    -0.354 N 
ATOM     43  C   UNL A   1      39.795  29.227  29.497  1.00  0.00     0.074 A 
ATOM     44  C   UNL A   1      38.825  29.467  28.451  1.00  0.00     0.031 C 
ATOM     45  C   UNL A   1      37.902  33.192  34.179  1.00  0.00     0.029 A 
ATOM     46  C   UNL A   1      39.011  32.245  34.208  1.00  0.00     0.049 A 
ATOM     47  H   UNL A   1      39.701  31.056  32.641  1.00  0.00     0.167 HD
ATOM     48  C   UNL A   1      40.800  28.323  29.410  1.00  0.00     0.034 A 
ATOM     49  C   UNL A   1      39.790  31.990  35.278  1.00  0.00     0.034 A 
ATOM     50  C   UNL A   1      41.784  28.111  30.437  1.00  0.00     0.049 A 
ATOM     51  C   UNL A   1      40.914  30.998  35.146  1.00  0.00     0.074 A 
ATOM     52  C   UNL A   1      42.891  27.281  30.409  1.00  0.00     0.029 A 
ATOM     53  N   UNL A   1      41.776  28.722  31.681  1.00  0.00    -0.354 N 
ATOM     54  N   UNL A   1      41.273  30.292  34.102  1.00  0.00    -0.248 NA
ATOM     55  C   UNL A   1      41.762  30.793  36.330  1.00  0.00     0.031 C 
ATOM     56  C   UNL A   1      43.531  27.363  31.649  1.00  0.00     0.029 A 
ATOM     57  C   UNL A   1      42.847  28.276  32.436  1.00  0.00     0.049 A 
ATOM     58  H   UNL A   1      41.106  29.378  31.984  1.00  0.00     0.167 HD
ATOM     59  C   UNL A   1      42.409  29.589  34.489  1.00  0.00     0.074 A 
ATOM     60  C   UNL A   1      42.690  29.972  35.857  1.00  0.00     0.031 C 
ATOM     61  C   UNL A   1      43.145  28.698  33.780  1.00  0.00     0.034 A 
BRANCH  48  62
ATOM     62  C   UNL A   1      40.913  27.519  28.140  1.00  0.00     0.023 A 
ATOM     63  C   UNL A   1      41.567  28.071  27.019  1.00  0.00     0.012 A 
ATOM     64  C   UNL A   1      40.433  26.197  28.076  1.00  0.00     0.148 A 
ATOM     65  C   UNL A   1      41.707  27.335  25.844  1.00  0.00     0.002 A 
ATOM     66  C   UNL A   1      40.620  25.452  26.917  1.00  0.00     0.091 A 
ATOM     67  F   UNL A   1      39.797  25.694  29.144  1.00  0.00    -0.205 F 
ATOM     68  C   UNL A   1      41.244  26.023  25.797  1.00  0.00     0.022 A 
BRANCH  66  69
ATOM     69  S   UNL A   1      40.133  23.728  26.782  1.00  0.00     0.127 S 
ATOM     70  O   UNL A   1      40.359  23.251  28.146  1.00  0.00    -0.237 OA
ATOM     71  O   UNL A   1      38.726  23.836  26.398  1.00  0.00    -0.237 OA
ATOM     72  O   UNL A   1      40.998  23.143  25.766  1.00  0.00    -0.744 OA
ENDBRANCH  66  69
ENDBRANCH  48  62
BRANCH  49  73
ATOM     73  C   UNL A   1      39.564  32.722  36.557  1.00  0.00     0.023 A 
ATOM     74  C   UNL A   1      40.281  33.906  36.816  1.00  0.00     0.012 A 
ATOM     75  C   UNL A   1      38.634  32.261  37.509  1.00  0.00     0.148 A 
ATOM     76  C   UNL A   1      40.106  34.597  38.015  1.00  0.00     0.002 A 
ATOM     77  C   UNL A   1      38.420  32.986  38.676  1.00  0.00     0.091 A 
ATOM     78  F   UNL A   1      37.968  31.127  37.249  1.00  0.00    -0.205 F 
ATOM     79  C   UNL A   1      39.169  34.144  38.939  1.00  0.00     0.022 A 
BRANCH  77  80
ATOM     80  S   UNL A   1      37.141  32.551  39.859  1.00  0.00     0.127 S 
ATOM     81  O   UNL A   1      37.594  31.242  40.322  1.00  0.00    -0.237 OA
ATOM     82  O   UNL A   1      37.258  33.629  40.840  1.00  0.00    -0.237 OA
ATOM     83  O   UNL A   1      35.892  32.557  39.109  1.00  0.00    -0.744 OA
ENDBRANCH  77  80
ENDBRANCH  49  73
BRANCH  61  84
ATOM     84  C   UNL A   1      44.354  28.099  34.450  1.00  0.00     0.023 A 
ATOM     85  C   UNL A   1      45.569  28.811  34.482  1.00  0.00     0.012 A 
ATOM     86  C   UNL A   1      44.264  26.856  35.109  1.00  0.00     0.148 A 
ATOM     87  C   UNL A   1      46.685  28.281  35.128  1.00  0.00     0.002 A 
ATOM     88  C   UNL A   1      45.364  26.358  35.797  1.00  0.00     0.091 A 
ATOM     89  F   UNL A   1      43.104  26.185  35.053  1.00  0.00    -0.205 F 
ATOM     90  C   UNL A   1      46.580  27.062  35.794  1.00  0.00     0.022 A 
BRANCH  88  91
ATOM     91  S   UNL A   1      45.294  24.848  36.765  1.00  0.00     0.127 S 
ATOM     92  O   UNL A   1      44.228  24.109  36.089  1.00  0.00    -0.237 OA
ATOM     93  O   UNL A   1      46.636  24.296  36.574  1.00  0.00    -0.237 OA
ATOM     94  O   UNL A   1      44.997  25.258  38.132  1.00  0.00    -0.744 OA
ENDBRANCH  88  91
ENDBRANCH  61  84
ENDBRANCH  35  36
ENDBRANCH  27  30
ENDBRANCH  25  26
ENDBRANCH  24  25
ENDBRANCH  23  24
ENDBRANCH   1  23
TORSDOF 21
ENDMDL
MODEL 2
REMARK VINA RESULT:     -10.7      0.574      7.497
REMARK SMILES C=CCN(CC(=O)NCCCCCCNC(=O)c1ccc(-c2c3nc(c(-c4cccc(S(=O)(=O)[O-])c4F)c4ccc([nH]4)c(-c4cccc(S(=O)(=O)[O-])c4F)c4nc(c(-c5cccc(S(=O)(=O)[O-])c5F)c5ccc2[nH]5)C=C4)C=C3)cc1)c1ccc([N+](=O)[O-])cc1Br
REMARK SMILES IDX 11 1 10 2 9 3 8 4 6 5 7 6 5 8 4 9 3 10 2 11 1 12 81 13 82 14
REMARK SMILES IDX 89 15 83 16 88 17 90 18 84 19 85 20 86 21 87 22 12 23 13 24
REMARK SMILES IDX 14 25 15 26 16 27 17 29 18 30 19 31 80 32 20 33 79 34 21 35
REMARK SMILES IDX 22 36 23 37 73 38 24 39 78 40 72 41 74 42 25 43 77 44 71 45
REMARK SMILES IDX 70 46 26 48 58 49 38 50 57 51 39 52 42 53 56 54 75 55 40 56
REMARK SMILES IDX 41 57 55 59 76 60 43 61 27 62 28 63 36 64 29 65 31 66 37 67
REMARK SMILES IDX 30 68 32 69 33 70 34 71 35 72 59 73 60 74 68 75 61 76 63 77
REMARK SMILES IDX 69 78 62 79 64 80 65 81 66 82 67 83 44 84 45 85 53 86 46 87
REMARK SMILES IDX 48 88 54 89 47 90 49 91 50 92 51 93 52 94
REMARK H PARENT 8 7 15 28 74 47 42 58
REMARK Flexibility Score: inf
ROOT
ATOM      1  C   UNL A   1      32.291  29.629  25.797  1.00  0.00     0.002 C 
ENDROOT
BRANCH   1   2
ATOM      2  C   UNL A   1      31.793  28.463  26.659  1.00  0.00     0.021 C 
BRANCH   2   3
ATOM      3  C   UNL A   1      32.584  27.165  26.471  1.00  0.00     0.116 C 
BRANCH   3   4
ATOM      4  N   UNL A   1      31.861  26.010  26.960  1.00  0.00    -0.355 N 
ATOM      5  C   UNL A   1      31.554  24.826  26.352  1.00  0.00     0.239 C 
ATOM      6  O   UNL A   1      30.898  24.018  27.022  1.00  0.00    -0.273 OA
ATOM      7  H   UNL A   1      31.536  26.092  27.886  1.00  0.00     0.163 HD
BRANCH   5   8
ATOM      8  C   UNL A   1      32.024  24.471  24.930  1.00  0.00     0.216 C 
BRANCH   8   9
ATOM      9  N   UNL A   1      33.197  23.575  24.801  1.00  0.00    -0.358 N 
BRANCH   9  10
ATOM     10  C   UNL A   1      34.487  24.185  24.454  1.00  0.00     0.144 C 
BRANCH  10  11
ATOM     11  C   UNL A   1      35.186  23.501  23.328  1.00  0.00    -0.014 C 
ATOM     12  C   UNL A   1      36.351  22.848  23.449  1.00  0.00     0.006 C 
ENDBRANCH  10  11
ENDBRANCH   9  10
BRANCH   9  13
ATOM     13  C   UNL A   1      33.025  22.201  24.631  1.00  0.00     0.052 A 
ATOM     14  C   UNL A   1      32.395  21.706  23.471  1.00  0.00     0.034 A 
ATOM     15  C   UNL A   1      33.481  21.225  25.547  1.00  0.00     0.048 A 
ATOM     16  C   UNL A   1      32.274  20.341  23.194  1.00  0.00     0.088 A 
ATOM     17  C   UNL A   1      33.425  19.851  25.258  1.00  0.00     0.103 A 
ATOM     18  Br  UNL A   1      34.026  21.642  27.325  1.00  0.00    -0.048 Br
ATOM     19  C   UNL A   1      32.822  19.417  24.078  1.00  0.00     0.270 A 
BRANCH  19  20
ATOM     20  N   UNL A   1      32.728  17.985  23.784  1.00  0.00     0.062 N 
ATOM     21  O   UNL A   1      33.033  17.610  22.643  1.00  0.00    -0.258 OA
ATOM     22  O   UNL A   1      32.345  17.234  24.692  1.00  0.00    -0.258 OA
ENDBRANCH  19  20
ENDBRANCH   9  13
ENDBRANCH   8   9
ENDBRANCH   5   8
ENDBRANCH   3   4
ENDBRANCH   2   3
ENDBRANCH   1   2
BRANCH   1  23
ATOM     23  C   UNL A   1      31.289  30.774  25.626  1.00  0.00     0.002 C 
BRANCH  23  24
ATOM     24  C   UNL A   1      31.280  31.799  26.763  1.00  0.00     0.021 C 
BRANCH  24  25
ATOM     25  C   UNL A   1      32.651  32.375  27.107  1.00  0.00     0.116 C 
BRANCH  25  26
ATOM     26  N   UNL A   1      32.576  33.790  27.441  1.00  0.00    -0.352 N 
ATOM     27  C   UNL A   1      33.251  34.490  28.408  1.00  0.00     0.251 C 
ATOM     28  H   UNL A   1      31.950  34.319  26.897  1.00  0.00     0.163 HD
ATOM     29  O   UNL A   1      32.897  35.634  28.695  1.00  0.00    -0.269 OA
BRANCH  27  30
ATOM     30  C   UNL A   1      34.391  33.869  29.113  1.00  0.00     0.039 A 
ATOM     31  C   UNL A   1      34.144  32.875  30.063  1.00  0.00     0.014 A 
ATOM     32  C   UNL A   1      35.703  34.272  28.845  1.00  0.00     0.014 A 
ATOM     33  C   UNL A   1      35.214  32.247  30.703  1.00  0.00     0.010 A 
ATOM     34  C   UNL A   1      36.769  33.592  29.428  1.00  0.00     0.010 A 
ATOM     35  C   UNL A   1      36.538  32.577  30.367  1.00  0.00    -0.014 A 
BRANCH  35  36
ATOM     36  C   UNL A   1      37.688  31.862  30.980  1.00  0.00     0.031 A 
ATOM     37  C   UNL A   1      38.155  32.218  32.366  1.00  0.00     0.074 A 
ATOM     38  C   UNL A   1      38.363  30.948  30.256  1.00  0.00     0.049 A 
ATOM     39  N   UNL A   1      39.168  31.739  33.042  1.00  0.00    -0.248 NA
ATOM     40  C   UNL A   1      37.404  33.265  33.077  1.00  0.00     0.031 C 
ATOM     41  C   UNL A   1      38.058  30.568  28.875  1.00  0.00     0.029 A 
ATOM     42  N   UNL A   1      39.463  30.188  30.572  1.00  0.00    -0.354 N 
ATOM     43  C   UNL A   1      39.196  32.447  34.238  1.00  0.00     0.074 A 
ATOM     44  C   UNL A   1      38.120  33.412  34.183  1.00  0.00     0.031 C 
ATOM     45  C   UNL A   1      38.943  29.647  28.465  1.00  0.00     0.029 A 
ATOM     46  C   UNL A   1      39.900  29.394  29.537  1.00  0.00     0.049 A 
ATOM     47  H   UNL A   1      39.898  30.211  31.455  1.00  0.00     0.167 HD
ATOM     48  C   UNL A   1      40.023  32.289  35.300  1.00  0.00     0.034 A 
ATOM     49  C   UNL A   1      40.960  28.564  29.456  1.00  0.00     0.034 A 
ATOM     50  C   UNL A   1      41.070  31.305  35.366  1.00  0.00     0.049 A 
ATOM     51  C   UNL A   1      41.848  28.391  30.658  1.00  0.00     0.074 A 
ATOM     52  C   UNL A   1      41.905  31.009  36.429  1.00  0.00     0.029 A 
ATOM     53  N   UNL A   1      41.435  30.465  34.326  1.00  0.00    -0.354 N 
ATOM     54  N   UNL A   1      41.760  28.957  31.836  1.00  0.00    -0.248 NA
ATOM     55  C   UNL A   1      42.960  27.438  30.530  1.00  0.00     0.031 C 
ATOM     56  C   UNL A   1      42.799  30.015  36.020  1.00  0.00     0.029 A 
ATOM     57  C   UNL A   1      42.494  29.663  34.714  1.00  0.00     0.049 A 
ATOM     58  H   UNL A   1      41.005  30.443  33.440  1.00  0.00     0.167 HD
ATOM     59  C   UNL A   1      42.780  28.402  32.602  1.00  0.00     0.074 A 
ATOM     60  C   UNL A   1      43.458  27.439  31.759  1.00  0.00     0.031 C 
ATOM     61  C   UNL A   1      43.132  28.674  33.883  1.00  0.00     0.034 A 
BRANCH  48  62
ATOM     62  C   UNL A   1      39.804  33.177  36.498  1.00  0.00     0.023 A 
ATOM     63  C   UNL A   1      40.297  34.498  36.490  1.00  0.00     0.012 A 
ATOM     64  C   UNL A   1      39.053  32.728  37.602  1.00  0.00     0.148 A 
ATOM     65  C   UNL A   1      40.081  35.344  37.576  1.00  0.00     0.002 A 
ATOM     66  C   UNL A   1      38.800  33.594  38.660  1.00  0.00     0.091 A 
ATOM     67  F   UNL A   1      38.607  31.463  37.602  1.00  0.00    -0.205 F 
ATOM     68  C   UNL A   1      39.324  34.897  38.654  1.00  0.00     0.022 A 
BRANCH  66  69
ATOM     69  S   UNL A   1      37.768  33.141  40.059  1.00  0.00     0.127 S 
ATOM     70  O   UNL A   1      36.453  33.025  39.430  1.00  0.00    -0.237 OA
ATOM     71  O   UNL A   1      38.359  31.870  40.477  1.00  0.00    -0.237 OA
ATOM     72  O   UNL A   1      37.902  34.222  41.026  1.00  0.00    -0.744 OA
ENDBRANCH  66  69
ENDBRANCH  48  62
BRANCH  49  73
ATOM     73  C   UNL A   1      41.210  27.796  28.203  1.00  0.00     0.023 A 
ATOM     74  C   UNL A   1      41.792  28.443  27.095  1.00  0.00     0.012 A 
ATOM     75  C   UNL A   1      40.891  26.428  28.108  1.00  0.00     0.148 A 
ATOM     76  C   UNL A   1      42.015  27.752  25.904  1.00  0.00     0.002 A 
ATOM     77  C   UNL A   1      41.170  25.731  26.939  1.00  0.00     0.091 A 
ATOM     78  F   UNL A   1      40.329  25.831  29.170  1.00  0.00    -0.205 F 
ATOM     79  C   UNL A   1      41.714  26.395  25.829  1.00  0.00     0.022 A 
BRANCH  77  80
ATOM     80  S   UNL A   1      40.940  23.955  26.798  1.00  0.00     0.127 S 
ATOM     81  O   UNL A   1      39.535  23.865  26.411  1.00  0.00    -0.237 OA
ATOM     82  O   UNL A   1      41.895  23.609  25.744  1.00  0.00    -0.237 OA
ATOM     83  O   UNL A   1      41.271  23.410  28.108  1.00  0.00    -0.744 OA
ENDBRANCH  77  80
ENDBRANCH  49  73
BRANCH  61  84
ATOM     84  C   UNL A   1      44.278  27.896  34.475  1.00  0.00     0.023 A 
ATOM     85  C   UNL A   1      45.590  28.401  34.396  1.00  0.00     0.012 A 
ATOM     86  C   UNL A   1      44.041  26.694  35.172  1.00  0.00     0.148 A 
ATOM     87  C   UNL A   1      46.653  27.706  34.970  1.00  0.00     0.002 A 
ATOM     88  C   UNL A   1      45.097  26.033  35.788  1.00  0.00     0.091 A 
ATOM     89  F   UNL A   1      42.787  26.219  35.222  1.00  0.00    -0.205 F 
ATOM     90  C   UNL A   1      46.406  26.530  35.674  1.00  0.00     0.022 A 
BRANCH  88  91
ATOM     91  S   UNL A   1      44.862  24.569  36.798  1.00  0.00     0.127 S 
ATOM     92  O   UNL A   1      43.939  25.059  37.823  1.00  0.00    -0.237 OA
ATOM     93  O   UNL A   1      44.271  23.627  35.846  1.00  0.00    -0.237 OA
ATOM     94  O   UNL A   1      46.184  24.192  37.279  1.00  0.00    -0.744 OA
ENDBRANCH  88  91
ENDBRANCH  61  84
ENDBRANCH  35  36
ENDBRANCH  27  30
ENDBRANCH  25  26
ENDBRANCH  24  25
ENDBRANCH  23  24
ENDBRANCH   1  23
TORSDOF 21
ENDMDL
MODEL 3
REMARK VINA RESULT:     -10.6      5.890     11.022
REMARK SMILES C=CCN(CC(=O)NCCCCCCNC(=O)c1ccc(-c2c3nc(c(-c4cccc(S(=O)(=O)[O-])c4F)c4ccc([nH]4)c(-c4cccc(S(=O)(=O)[O-])c4F)c4nc(c(-c5cccc(S(=O)(=O)[O-])c5F)c5ccc2[nH]5)C=C4)C=C3)cc1)c1ccc([N+](=O)[O-])cc1Br
REMARK SMILES IDX 11 1 10 2 9 3 8 4 6 5 7 6 5 8 4 9 3 10 2 11 1 12 81 13 82 14
REMARK SMILES IDX 89 15 83 16 88 17 90 18 84 19 85 20 86 21 87 22 12 23 13 24
REMARK SMILES IDX 14 25 15 26 16 27 17 29 18 30 19 31 80 32 20 33 79 34 21 35
REMARK SMILES IDX 22 36 23 37 73 38 24 39 78 40 72 41 74 42 25 43 77 44 71 45
REMARK SMILES IDX 70 46 26 48 58 49 38 50 57 51 39 52 42 53 56 54 75 55 40 56
REMARK SMILES IDX 41 57 55 59 76 60 43 61 27 62 28 63 36 64 29 65 31 66 37 67
REMARK SMILES IDX 30 68 32 69 33 70 34 71 35 72 59 73 60 74 68 75 61 76 63 77
REMARK SMILES IDX 69 78 62 79 64 80 65 81 66 82 67 83 44 84 45 85 53 86 46 87
REMARK SMILES IDX 48 88 54 89 47 90 49 91 50 92 51 93 52 94
REMARK H PARENT 8 7 15 28 74 47 42 58
REMARK Flexibility Score: inf
ROOT
ATOM      1  C   UNL A   1      37.412  22.427  25.405  1.00  0.00     0.002 C 
ENDROOT
BRANCH   1   2
ATOM      2  C   UNL A   1      36.787  23.705  24.832  1.00  0.00     0.021 C 
BRANCH   2   3
ATOM      3  C   UNL A   1      35.259  23.749  24.928  1.00  0.00     0.116 C 
BRANCH   3   4
ATOM      4  N   UNL A   1      34.755  25.105  24.987  1.00  0.00    -0.355 N 
ATOM      5  C   UNL A   1      33.766  25.721  24.276  1.00  0.00     0.239 C 
ATOM      6  O   UNL A   1      33.564  26.914  24.534  1.00  0.00    -0.273 OA
ATOM      7  H   UNL A   1      35.202  25.679  25.651  1.00  0.00     0.163 HD
BRANCH   5   8
ATOM      8  C   UNL A   1      32.901  24.984  23.237  1.00  0.00     0.216 C 
BRANCH   8   9
ATOM      9  N   UNL A   1      31.766  24.177  23.739  1.00  0.00    -0.358 N 
BRANCH   9  10
ATOM     10  C   UNL A   1      30.660  24.888  24.394  1.00  0.00     0.144 C 
BRANCH  10  11
ATOM     11  C   UNL A   1      30.223  26.112  23.662  1.00  0.00    -0.014 C 
ATOM     12  C   UNL A   1      28.998  26.650  23.755  1.00  0.00     0.006 C 
ENDBRANCH  10  11
ENDBRANCH   9  10
BRANCH   9  13
ATOM     13  C   UNL A   1      31.904  22.803  23.937  1.00  0.00     0.052 A 
ATOM     14  C   UNL A   1      31.947  21.931  22.829  1.00  0.00     0.034 A 
ATOM     15  C   UNL A   1      32.045  22.194  25.205  1.00  0.00     0.048 A 
ATOM     16  C   UNL A   1      32.177  20.557  22.951  1.00  0.00     0.088 A 
ATOM     17  C   UNL A   1      32.339  20.826  25.343  1.00  0.00     0.103 A 
ATOM     18  Br  UNL A   1      31.661  23.095  26.840  1.00  0.00    -0.048 Br
ATOM     19  C   UNL A   1      32.405  20.015  24.211  1.00  0.00     0.270 A 
BRANCH  19  20
ATOM     20  N   UNL A   1      32.677  18.583  24.348  1.00  0.00     0.062 N 
ATOM     21  O   UNL A   1      33.449  18.061  23.530  1.00  0.00    -0.258 OA
ATOM     22  O   UNL A   1      32.116  17.975  25.272  1.00  0.00    -0.258 OA
ENDBRANCH  19  20
ENDBRANCH   9  13
ENDBRANCH   8   9
ENDBRANCH   5   8
ENDBRANCH   3   4
ENDBRANCH   2   3
ENDBRANCH   1   2
BRANCH   1  23
ATOM     23  C   UNL A   1      37.089  21.149  24.626  1.00  0.00     0.002 C 
BRANCH  23  24
ATOM     24  C   UNL A   1      38.016  19.965  24.915  1.00  0.00     0.021 C 
BRANCH  24  25
ATOM     25  C   UNL A   1      39.011  20.203  26.047  1.00  0.00     0.116 C 
BRANCH  25  26
ATOM     26  N   UNL A   1      40.096  19.232  26.027  1.00  0.00    -0.352 N 
ATOM     27  C   UNL A   1      41.451  19.445  26.053  1.00  0.00     0.251 C 
ATOM     28  H   UNL A   1      39.818  18.289  25.988  1.00  0.00     0.163 HD
ATOM     29  O   UNL A   1      42.221  18.516  25.803  1.00  0.00    -0.269 OA
BRANCH  27  30
ATOM     30  C   UNL A   1      41.985  20.787  26.364  1.00  0.00     0.039 A 
ATOM     31  C   UNL A   1      42.252  21.672  25.318  1.00  0.00     0.014 A 
ATOM     32  C   UNL A   1      42.231  21.169  27.687  1.00  0.00     0.014 A 
ATOM     33  C   UNL A   1      42.712  22.960  25.600  1.00  0.00     0.010 A 
ATOM     34  C   UNL A   1      42.617  22.476  27.969  1.00  0.00     0.010 A 
ATOM     35  C   UNL A   1      42.868  23.385  26.931  1.00  0.00    -0.014 A 
BRANCH  35  36
ATOM     36  C   UNL A   1      43.280  24.776  27.251  1.00  0.00     0.031 A 
ATOM     37  C   UNL A   1      42.301  25.737  27.871  1.00  0.00     0.074 A 
ATOM     38  C   UNL A   1      44.514  25.198  26.911  1.00  0.00     0.049 A 
ATOM     39  N   UNL A   1      42.466  26.999  28.174  1.00  0.00    -0.248 NA
ATOM     40  C   UNL A   1      40.954  25.223  28.166  1.00  0.00     0.031 C 
ATOM     41  C   UNL A   1      45.530  24.386  26.237  1.00  0.00     0.029 A 
ATOM     42  N   UNL A   1      45.117  26.423  27.061  1.00  0.00    -0.354 N 
ATOM     43  C   UNL A   1      41.240  27.437  28.661  1.00  0.00     0.074 A 
ATOM     44  C   UNL A   1      40.330  26.316  28.582  1.00  0.00     0.031 C 
ATOM     45  C   UNL A   1      46.628  25.131  26.037  1.00  0.00     0.029 A 
ATOM     46  C   UNL A   1      46.386  26.481  26.534  1.00  0.00     0.049 A 
ATOM     47  H   UNL A   1      44.681  27.187  27.503  1.00  0.00     0.167 HD
ATOM     48  C   UNL A   1      40.908  28.654  29.157  1.00  0.00     0.034 A 
ATOM     49  C   UNL A   1      47.253  27.510  26.449  1.00  0.00     0.034 A 
ATOM     50  C   UNL A   1      41.824  29.756  29.266  1.00  0.00     0.049 A 
ATOM     51  C   UNL A   1      46.867  28.843  27.029  1.00  0.00     0.074 A 
ATOM     52  C   UNL A   1      41.608  31.000  29.833  1.00  0.00     0.029 A 
ATOM     53  N   UNL A   1      43.126  29.755  28.791  1.00  0.00    -0.354 N 
ATOM     54  N   UNL A   1      45.755  29.191  27.629  1.00  0.00    -0.248 NA
ATOM     55  C   UNL A   1      47.869  29.917  26.952  1.00  0.00     0.031 C 
ATOM     56  C   UNL A   1      42.768  31.764  29.668  1.00  0.00     0.029 A 
ATOM     57  C   UNL A   1      43.721  30.982  29.034  1.00  0.00     0.049 A 
ATOM     58  H   UNL A   1      43.564  28.995  28.345  1.00  0.00     0.167 HD
ATOM     59  C   UNL A   1      45.936  30.509  28.033  1.00  0.00     0.074 A 
ATOM     60  C   UNL A   1      47.274  30.889  27.630  1.00  0.00     0.031 C 
ATOM     61  C   UNL A   1      45.069  31.334  28.670  1.00  0.00     0.034 A 
BRANCH  48  62
ATOM     62  C   UNL A   1      39.500  28.846  29.659  1.00  0.00     0.023 A 
ATOM     63  C   UNL A   1      39.155  28.415  30.957  1.00  0.00     0.012 A 
ATOM     64  C   UNL A   1      38.537  29.511  28.875  1.00  0.00     0.148 A 
ATOM     65  C   UNL A   1      37.867  28.608  31.452  1.00  0.00     0.002 A 
ATOM     66  C   UNL A   1      37.268  29.743  29.394  1.00  0.00     0.091 A 
ATOM     67  F   UNL A   1      38.876  29.897  27.637  1.00  0.00    -0.205 F 
ATOM     68  C   UNL A   1      36.928  29.282  30.676  1.00  0.00     0.022 A 
BRANCH  66  69
ATOM     69  S   UNL A   1      36.012  30.672  28.508  1.00  0.00     0.127 S 
ATOM     70  O   UNL A   1      35.467  29.651  27.614  1.00  0.00    -0.237 OA
ATOM     71  O   UNL A   1      35.114  31.080  29.588  1.00  0.00    -0.237 OA
ATOM     72  O   UNL A   1      36.710  31.768  27.849  1.00  0.00    -0.744 OA
ENDBRANCH  66  69
ENDBRANCH  48  62
BRANCH  49  73
ATOM     73  C   UNL A   1      48.594  27.305  25.831  1.00  0.00     0.023 A 
ATOM     74  C   UNL A   1      49.675  26.895  26.635  1.00  0.00     0.012 A 
ATOM     75  C   UNL A   1      48.801  27.500  24.452  1.00  0.00     0.148 A 
ATOM     76  C   UNL A   1      50.946  26.719  26.086  1.00  0.00     0.002 A 
ATOM     77  C   UNL A   1      50.056  27.266  23.900  1.00  0.00     0.091 A 
ATOM     78  F   UNL A   1      47.763  27.900  23.703  1.00  0.00    -0.205 F 
ATOM     79  C   UNL A   1      51.133  26.895  24.718  1.00  0.00     0.022 A 
BRANCH  77  80
ATOM     80  S   UNL A   1      50.357  27.338  22.131  1.00  0.00     0.127 S 
ATOM     81  O   UNL A   1      50.144  28.754  21.848  1.00  0.00    -0.237 OA
ATOM     82  O   UNL A   1      51.748  26.892  22.044  1.00  0.00    -0.237 OA
ATOM     83  O   UNL A   1      49.397  26.422  21.530  1.00  0.00    -0.744 OA
ENDBRANCH  77  80
ENDBRANCH  49  73
BRANCH  61  84
ATOM     84  C   UNL A   1      45.546  32.722  29.012  1.00  0.00     0.023 A 
ATOM     85  C   UNL A   1      46.241  32.954  30.215  1.00  0.00     0.012 A 
ATOM     86  C   UNL A   1      45.364  33.785  28.104  1.00  0.00     0.148 A 
ATOM     87  C   UNL A   1      46.716  34.227  30.526  1.00  0.00     0.002 A 
ATOM     88  C   UNL A   1      45.886  35.039  28.395  1.00  0.00     0.091 A 
ATOM     89  F   UNL A   1      44.684  33.549  26.972  1.00  0.00    -0.205 F 
ATOM     90  C   UNL A   1      46.549  35.265  29.612  1.00  0.00     0.022 A 
BRANCH  88  91
ATOM     91  S   UNL A   1      45.807  36.409  27.238  1.00  0.00     0.127 S 
ATOM     92  O   UNL A   1      46.459  35.841  26.058  1.00  0.00    -0.237 OA
ATOM     93  O   UNL A   1      44.364  36.614  27.099  1.00  0.00    -0.237 OA
ATOM     94  O   UNL A   1      46.517  37.513  27.871  1.00  0.00    -0.744 OA
ENDBRANCH  88  91
ENDBRANCH  61  84
ENDBRANCH  35  36
ENDBRANCH  27  30
ENDBRANCH  25  26
ENDBRANCH  24  25
ENDBRANCH  23  24
ENDBRANCH   1  23
TORSDOF 21
ENDMDL
