MODEL 1
REMARK VINA RESULT:     -13.0      0.000      0.000
REMARK SMILES Cc1ccc(C(=O)NCCCCCCNC(=O)c2ccc(-c3c4nc(c(-c5cccc(S(=O)(=O)[O-])c5F)c5ccc([nH]5)c(-c5cccc(S(=O)(=O)[O-])c5F)c5nc(c(-c6cccc(S(=O)(=O)[O-])c6F)c6ccc3[nH]6)C=C5)C=C4)cc2)c2c1N[C@H](c1ccccc1F)[C@H]1CC=C[C@@H]21
REMARK SMILES IDX 12 1 11 2 10 3 9 4 8 5 6 6 7 7 5 9 1 10 2 11 3 12 82 13 4 14
REMARK SMILES IDX 81 15 83 16 96 17 84 18 92 20 95 21 93 22 94 23 85 24 86 25
REMARK SMILES IDX 90 26 87 27 89 28 91 29 88 30 13 31 14 32 15 33 16 34 17 36
REMARK SMILES IDX 18 37 19 38 80 39 20 40 79 41 21 42 22 43 23 44 73 45 24 46
REMARK SMILES IDX 78 47 72 48 74 49 25 50 77 51 71 52 70 53 26 55 58 56 38 57
REMARK SMILES IDX 57 58 39 59 42 60 56 61 75 62 40 63 41 64 55 66 76 67 43 68
REMARK SMILES IDX 27 69 28 70 36 71 29 72 31 73 37 74 30 75 32 76 33 77 34 78
REMARK SMILES IDX 35 79 59 80 60 81 68 82 61 83 63 84 69 85 62 86 64 87 65 88
REMARK SMILES IDX 66 89 67 90 44 91 45 92 53 93 46 94 48 95 54 96 47 97 49 98
REMARK SMILES IDX 50 99 51 100 52 101
REMARK H PARENT 8 8 83 19 15 35 74 54 42 65
REMARK Flexibility Score: inf
ROOT
ATOM      1  C   UNL A   1      31.873  30.505  26.559  1.00  0.00     0.002 C 
ENDROOT
BRANCH   1   2
ATOM      2  C   UNL A   1      33.345  30.099  26.402  1.00  0.00     0.002 C 
BRANCH   2   3
ATOM      3  C   UNL A   1      33.747  28.844  27.195  1.00  0.00     0.021 C 
BRANCH   3   4
ATOM      4  C   UNL A   1      33.681  27.563  26.357  1.00  0.00     0.116 C 
BRANCH   4   5
ATOM      5  N   UNL A   1      32.471  26.847  26.693  1.00  0.00    -0.352 N 
ATOM      6  C   UNL A   1      31.602  26.044  26.003  1.00  0.00     0.251 C 
ATOM      7  O   UNL A   1      30.510  25.917  26.559  1.00  0.00    -0.269 OA
ATOM      8  H   UNL A   1      32.210  26.964  27.636  1.00  0.00     0.163 HD
BRANCH   6   9
ATOM      9  C   UNL A   1      31.921  25.326  24.713  1.00  0.00     0.045 A 
ATOM     10  C   UNL A   1      33.053  23.472  20.950  1.00  0.00     0.046 C 
ATOM     11  C   UNL A   1      32.634  24.037  22.283  1.00  0.00    -0.028 A 
ATOM     12  C   UNL A   1      32.111  25.331  22.285  1.00  0.00     0.006 A 
ATOM     13  C   UNL A   1      32.701  23.318  23.493  1.00  0.00     0.042 A 
ATOM     14  C   UNL A   1      31.715  25.939  23.473  1.00  0.00     0.014 A 
ATOM     15  C   UNL A   1      32.400  23.978  24.717  1.00  0.00    -0.005 A 
ATOM     16  N   UNL A   1      33.074  21.982  23.480  1.00  0.00    -0.377 N 
ATOM     17  C   UNL A   1      32.517  23.191  26.008  1.00  0.00     0.050 C 
ATOM     18  C   UNL A   1      33.574  21.314  24.668  1.00  0.00     0.117 C 
ATOM     19  H   UNL A   1      32.998  21.473  22.641  1.00  0.00     0.161 HD
ATOM     20  C   UNL A   1      32.688  21.666  25.869  1.00  0.00     0.031 C 
ATOM     21  C   UNL A   1      33.688  23.547  26.888  1.00  0.00    -0.023 C 
ATOM     22  C   UNL A   1      33.348  21.258  27.201  1.00  0.00     0.034 C 
ATOM     23  C   UNL A   1      34.130  22.480  27.566  1.00  0.00    -0.030 C 
BRANCH  18  24
ATOM     24  C   UNL A   1      33.749  19.830  24.355  1.00  0.00     0.010 A 
ATOM     25  C   UNL A   1      32.684  19.152  23.729  1.00  0.00     0.009 A 
ATOM     26  C   UNL A   1      34.906  19.090  24.631  1.00  0.00     0.128 A 
ATOM     27  C   UNL A   1      32.789  17.802  23.380  1.00  0.00     0.001 A 
ATOM     28  C   UNL A   1      35.017  17.745  24.280  1.00  0.00     0.039 A 
ATOM     29  F   UNL A   1      35.970  19.646  25.225  1.00  0.00    -0.207 F 
ATOM     30  C   UNL A   1      33.960  17.098  23.650  1.00  0.00     0.003 A 
ENDBRANCH  18  24
ENDBRANCH   6   9
ENDBRANCH   4   5
ENDBRANCH   3   4
ENDBRANCH   2   3
ENDBRANCH   1   2
BRANCH   1  31
ATOM     31  C   UNL A   1      31.662  31.972  26.942  1.00  0.00     0.021 C 
BRANCH  31  32
ATOM     32  C   UNL A   1      32.960  32.709  27.249  1.00  0.00     0.116 C 
BRANCH  32  33
ATOM     33  N   UNL A   1      32.692  34.084  27.641  1.00  0.00    -0.352 N 
ATOM     34  C   UNL A   1      33.164  34.756  28.741  1.00  0.00     0.251 C 
ATOM     35  H   UNL A   1      32.100  34.595  27.044  1.00  0.00     0.163 HD
ATOM     36  O   UNL A   1      32.649  35.805  29.105  1.00  0.00    -0.269 OA
BRANCH  34  37
ATOM     37  C   UNL A   1      34.310  34.187  29.473  1.00  0.00     0.039 A 
ATOM     38  C   UNL A   1      34.080  33.368  30.580  1.00  0.00     0.014 A 
ATOM     39  C   UNL A   1      35.613  34.462  29.041  1.00  0.00     0.014 A 
ATOM     40  C   UNL A   1      35.166  32.793  31.241  1.00  0.00     0.010 A 
ATOM     41  C   UNL A   1      36.687  33.848  29.668  1.00  0.00     0.010 A 
ATOM     42  C   UNL A   1      36.472  33.021  30.781  1.00  0.00    -0.014 A 
BRANCH  42  43
ATOM     43  C   UNL A   1      37.646  32.440  31.468  1.00  0.00     0.031 A 
ATOM     44  C   UNL A   1      38.373  31.289  30.835  1.00  0.00     0.074 A 
ATOM     45  C   UNL A   1      37.998  32.889  32.686  1.00  0.00     0.049 A 
ATOM     46  N   UNL A   1      39.356  30.576  31.315  1.00  0.00    -0.248 NA
ATOM     47  C   UNL A   1      37.926  30.871  29.494  1.00  0.00     0.031 C 
ATOM     48  C   UNL A   1      37.337  33.973  33.414  1.00  0.00     0.029 A 
ATOM     49  N   UNL A   1      38.985  32.465  33.541  1.00  0.00    -0.354 N 
ATOM     50  C   UNL A   1      39.628  29.613  30.353  1.00  0.00     0.074 A 
ATOM     51  C   UNL A   1      38.694  29.816  29.268  1.00  0.00     0.031 C 
ATOM     52  C   UNL A   1      37.931  34.125  34.609  1.00  0.00     0.029 A 
ATOM     53  C   UNL A   1      38.994  33.133  34.741  1.00  0.00     0.049 A 
ATOM     54  H   UNL A   1      39.623  31.751  33.315  1.00  0.00     0.167 HD
ATOM     55  C   UNL A   1      40.588  28.662  30.363  1.00  0.00     0.034 A 
ATOM     56  C   UNL A   1      39.766  32.957  35.831  1.00  0.00     0.034 A 
ATOM     57  C   UNL A   1      41.536  28.485  31.428  1.00  0.00     0.049 A 
ATOM     58  C   UNL A   1      40.834  31.899  35.813  1.00  0.00     0.074 A 
ATOM     59  C   UNL A   1      42.582  27.583  31.502  1.00  0.00     0.029 A 
ATOM     60  N   UNL A   1      41.553  29.221  32.600  1.00  0.00    -0.354 N 
ATOM     61  N   UNL A   1      41.138  31.057  34.855  1.00  0.00    -0.248 NA
ATOM     62  C   UNL A   1      41.684  31.786  37.006  1.00  0.00     0.031 C 
ATOM     63  C   UNL A   1      43.225  27.765  32.729  1.00  0.00     0.029 A 
ATOM     64  C   UNL A   1      42.593  28.796  33.406  1.00  0.00     0.049 A 
ATOM     65  H   UNL A   1      40.919  29.940  32.828  1.00  0.00     0.167 HD
ATOM     66  C   UNL A   1      42.234  30.338  35.314  1.00  0.00     0.074 A 
ATOM     67  C   UNL A   1      42.544  30.844  36.636  1.00  0.00     0.031 C 
ATOM     68  C   UNL A   1      42.918  29.344  34.696  1.00  0.00     0.034 A 
BRANCH  55  69
ATOM     69  C   UNL A   1      40.709  27.766  29.164  1.00  0.00     0.023 A 
ATOM     70  C   UNL A   1      39.844  26.662  29.041  1.00  0.00     0.012 A 
ATOM     71  C   UNL A   1      41.596  28.078  28.116  1.00  0.00     0.148 A 
ATOM     72  C   UNL A   1      39.860  25.875  27.890  1.00  0.00     0.002 A 
ATOM     73  C   UNL A   1      41.585  27.309  26.959  1.00  0.00     0.091 A 
ATOM     74  F   UNL A   1      42.420  29.124  28.267  1.00  0.00    -0.205 F 
ATOM     75  C   UNL A   1      40.720  26.206  26.846  1.00  0.00     0.022 A 
BRANCH  73  76
ATOM     76  S   UNL A   1      42.612  27.680  25.534  1.00  0.00     0.127 S 
ATOM     77  O   UNL A   1      42.380  26.507  24.690  1.00  0.00    -0.237 OA
ATOM     78  O   UNL A   1      42.012  28.918  25.039  1.00  0.00    -0.237 OA
ATOM     79  O   UNL A   1      43.972  27.814  26.038  1.00  0.00    -0.744 OA
ENDBRANCH  73  76
ENDBRANCH  55  69
BRANCH  56  80
ATOM     80  C   UNL A   1      39.593  33.859  37.001  1.00  0.00     0.023 A 
ATOM     81  C   UNL A   1      39.985  35.206  36.892  1.00  0.00     0.012 A 
ATOM     82  C   UNL A   1      38.979  33.410  38.186  1.00  0.00     0.148 A 
ATOM     83  C   UNL A   1      39.778  36.092  37.950  1.00  0.00     0.002 A 
ATOM     84  C   UNL A   1      38.743  34.305  39.222  1.00  0.00     0.091 A 
ATOM     85  F   UNL A   1      38.614  32.122  38.260  1.00  0.00    -0.205 F 
ATOM     86  C   UNL A   1      39.150  35.644  39.109  1.00  0.00     0.022 A 
BRANCH  84  87
ATOM     87  S   UNL A   1      37.855  33.849  40.715  1.00  0.00     0.127 S 
ATOM     88  O   UNL A   1      37.695  35.143  41.375  1.00  0.00    -0.237 OA
ATOM     89  O   UNL A   1      36.623  33.281  40.166  1.00  0.00    -0.237 OA
ATOM     90  O   UNL A   1      38.706  32.895  41.409  1.00  0.00    -0.744 OA
ENDBRANCH  84  87
ENDBRANCH  56  80
BRANCH  68  91
ATOM     91  C   UNL A   1      44.102  28.751  35.408  1.00  0.00     0.023 A 
ATOM     92  C   UNL A   1      45.378  29.318  35.232  1.00  0.00     0.012 A 
ATOM     93  C   UNL A   1      43.920  27.716  36.347  1.00  0.00     0.148 A 
ATOM     94  C   UNL A   1      46.463  28.854  35.975  1.00  0.00     0.002 A 
ATOM     95  C   UNL A   1      44.997  27.284  37.108  1.00  0.00     0.091 A 
ATOM     96  F   UNL A   1      42.694  27.191  36.487  1.00  0.00    -0.205 F 
ATOM     97  C   UNL A   1      46.270  27.847  36.921  1.00  0.00     0.022 A 
BRANCH  95  98
ATOM     98  S   UNL A   1      44.832  26.047  38.400  1.00  0.00     0.127 S 
ATOM     99  O   UNL A   1      43.853  26.672  39.287  1.00  0.00    -0.237 OA
ATOM    100  O   UNL A   1      44.333  24.890  37.658  1.00  0.00    -0.237 OA
ATOM    101  O   UNL A   1      46.163  25.876  38.969  1.00  0.00    -0.744 OA
ENDBRANCH  95  98
ENDBRANCH  68  91
ENDBRANCH  42  43
ENDBRANCH  34  37
ENDBRANCH  32  33
ENDBRANCH  31  32
ENDBRANCH   1  31
TORSDOF 17
ENDMDL
MODEL 2
REMARK VINA RESULT:     -12.9      6.340     11.675
REMARK SMILES Cc1ccc(C(=O)NCCCCCCNC(=O)c2ccc(-c3c4nc(c(-c5cccc(S(=O)(=O)[O-])c5F)c5ccc([nH]5)c(-c5cccc(S(=O)(=O)[O-])c5F)c5nc(c(-c6cccc(S(=O)(=O)[O-])c6F)c6ccc3[nH]6)C=C5)C=C4)cc2)c2c1N[C@H](c1ccccc1F)[C@H]1CC=C[C@@H]21
REMARK SMILES IDX 12 1 11 2 10 3 9 4 8 5 6 6 7 7 5 9 1 10 2 11 3 12 82 13 4 14
REMARK SMILES IDX 81 15 83 16 96 17 84 18 92 20 95 21 93 22 94 23 85 24 86 25
REMARK SMILES IDX 90 26 87 27 89 28 91 29 88 30 13 31 14 32 15 33 16 34 17 36
REMARK SMILES IDX 18 37 19 38 80 39 20 40 79 41 21 42 22 43 23 44 73 45 24 46
REMARK SMILES IDX 78 47 72 48 74 49 25 50 77 51 71 52 70 53 26 55 58 56 38 57
REMARK SMILES IDX 57 58 39 59 42 60 56 61 75 62 40 63 41 64 55 66 76 67 43 68
REMARK SMILES IDX 27 69 28 70 36 71 29 72 31 73 37 74 30 75 32 76 33 77 34 78
REMARK SMILES IDX 35 79 59 80 60 81 68 82 61 83 63 84 69 85 62 86 64 87 65 88
REMARK SMILES IDX 66 89 67 90 44 91 45 92 53 93 46 94 48 95 54 96 47 97 49 98
REMARK SMILES IDX 50 99 51 100 52 101
REMARK H PARENT 8 8 83 19 15 35 74 54 42 65
REMARK Flexibility Score: inf
ROOT
ATOM      1  C   UNL A   1      36.879  20.638  24.934  1.00  0.00     0.002 C 
ENDROOT
BRANCH   1   2
ATOM      2  C   UNL A   1      37.153  22.092  24.525  1.00  0.00     0.002 C 
BRANCH   2   3
ATOM      3  C   UNL A   1      37.081  23.102  25.682  1.00  0.00     0.021 C 
BRANCH   3   4
ATOM      4  C   UNL A   1      35.864  24.029  25.590  1.00  0.00     0.116 C 
BRANCH   4   5
ATOM      5  N   UNL A   1      35.414  24.073  24.216  1.00  0.00    -0.352 N 
ATOM      6  C   UNL A   1      34.194  24.010  23.599  1.00  0.00     0.251 C 
ATOM      7  O   UNL A   1      34.267  23.731  22.402  1.00  0.00    -0.269 OA
ATOM      8  H   UNL A   1      36.157  24.169  23.577  1.00  0.00     0.163 HD
BRANCH   6   9
ATOM      9  C   UNL A   1      32.867  24.294  24.265  1.00  0.00     0.045 A 
ATOM     10  C   UNL A   1      29.196  25.079  26.451  1.00  0.00     0.046 C 
ATOM     11  C   UNL A   1      30.437  24.855  25.627  1.00  0.00    -0.028 A 
ATOM     12  C   UNL A   1      31.065  23.614  25.754  1.00  0.00     0.006 A 
ATOM     13  C   UNL A   1      30.956  25.800  24.720  1.00  0.00     0.042 A 
ATOM     14  C   UNL A   1      32.228  23.326  25.045  1.00  0.00     0.014 A 
ATOM     15  C   UNL A   1      32.202  25.547  24.081  1.00  0.00    -0.005 A 
ATOM     16  N   UNL A   1      30.257  26.972  24.473  1.00  0.00    -0.377 N 
ATOM     17  C   UNL A   1      32.755  26.598  23.139  1.00  0.00     0.050 C 
ATOM     18  C   UNL A   1      30.903  28.147  23.915  1.00  0.00     0.117 C 
ATOM     19  H   UNL A   1      29.296  27.008  24.682  1.00  0.00     0.161 HD
ATOM     20  C   UNL A   1      31.796  27.735  22.739  1.00  0.00     0.031 C 
ATOM     21  C   UNL A   1      33.945  27.373  23.648  1.00  0.00    -0.023 C 
ATOM     22  C   UNL A   1      32.747  28.874  22.321  1.00  0.00     0.034 C 
ATOM     23  C   UNL A   1      33.950  28.624  23.174  1.00  0.00    -0.030 C 
BRANCH  18  24
ATOM     24  C   UNL A   1      29.835  29.200  23.631  1.00  0.00     0.010 A 
ATOM     25  C   UNL A   1      28.744  28.839  22.814  1.00  0.00     0.009 A 
ATOM     26  C   UNL A   1      29.850  30.505  24.139  1.00  0.00     0.128 A 
ATOM     27  C   UNL A   1      27.711  29.742  22.542  1.00  0.00     0.001 A 
ATOM     28  C   UNL A   1      28.820  31.407  23.875  1.00  0.00     0.039 A 
ATOM     29  F   UNL A   1      30.844  30.942  24.923  1.00  0.00    -0.207 F 
ATOM     30  C   UNL A   1      27.745  31.026  23.079  1.00  0.00     0.003 A 
ENDBRANCH  18  24
ENDBRANCH   6   9
ENDBRANCH   4   5
ENDBRANCH   3   4
ENDBRANCH   2   3
ENDBRANCH   1   2
BRANCH   1  31
ATOM     31  C   UNL A   1      38.119  19.742  24.939  1.00  0.00     0.021 C 
BRANCH  31  32
ATOM     32  C   UNL A   1      39.182  20.185  25.937  1.00  0.00     0.116 C 
BRANCH  32  33
ATOM     33  N   UNL A   1      40.259  19.210  26.012  1.00  0.00    -0.352 N 
ATOM     34  C   UNL A   1      41.610  19.446  26.048  1.00  0.00     0.251 C 
ATOM     35  H   UNL A   1      39.985  18.265  26.039  1.00  0.00     0.163 HD
ATOM     36  O   UNL A   1      42.411  18.547  25.829  1.00  0.00    -0.269 OA
BRANCH  34  37
ATOM     37  C   UNL A   1      42.077  20.810  26.362  1.00  0.00     0.039 A 
ATOM     38  C   UNL A   1      42.407  21.679  25.322  1.00  0.00     0.014 A 
ATOM     39  C   UNL A   1      42.169  21.219  27.698  1.00  0.00     0.014 A 
ATOM     40  C   UNL A   1      42.802  22.983  25.621  1.00  0.00     0.010 A 
ATOM     41  C   UNL A   1      42.512  22.531  27.991  1.00  0.00     0.010 A 
ATOM     42  C   UNL A   1      42.845  23.417  26.956  1.00  0.00    -0.014 A 
BRANCH  42  43
ATOM     43  C   UNL A   1      43.274  24.788  27.309  1.00  0.00     0.031 A 
ATOM     44  C   UNL A   1      42.284  25.734  27.925  1.00  0.00     0.074 A 
ATOM     45  C   UNL A   1      44.517  25.200  26.999  1.00  0.00     0.049 A 
ATOM     46  N   UNL A   1      42.429  26.998  28.215  1.00  0.00    -0.248 NA
ATOM     47  C   UNL A   1      40.950  25.192  28.240  1.00  0.00     0.031 C 
ATOM     48  C   UNL A   1      45.547  24.380  26.361  1.00  0.00     0.029 A 
ATOM     49  N   UNL A   1      45.113  26.427  27.154  1.00  0.00    -0.354 N 
ATOM     50  C   UNL A   1      41.203  27.411  28.721  1.00  0.00     0.074 A 
ATOM     51  C   UNL A   1      40.316  26.269  28.680  1.00  0.00     0.031 C 
ATOM     52  C   UNL A   1      46.647  25.128  26.172  1.00  0.00     0.029 A 
ATOM     53  C   UNL A   1      46.389  26.484  26.649  1.00  0.00     0.049 A 
ATOM     54  H   UNL A   1      44.668  27.192  27.585  1.00  0.00     0.167 HD
ATOM     55  C   UNL A   1      40.858  28.627  29.200  1.00  0.00     0.034 A 
ATOM     56  C   UNL A   1      47.250  27.516  26.569  1.00  0.00     0.034 A 
ATOM     57  C   UNL A   1      41.751  29.749  29.269  1.00  0.00     0.049 A 
ATOM     58  C   UNL A   1      46.846  28.856  27.119  1.00  0.00     0.074 A 
ATOM     59  C   UNL A   1      41.507  31.006  29.791  1.00  0.00     0.029 A 
ATOM     60  N   UNL A   1      43.056  29.750  28.805  1.00  0.00    -0.354 N 
ATOM     61  N   UNL A   1      45.712  29.204  27.679  1.00  0.00    -0.248 NA
ATOM     62  C   UNL A   1      47.843  29.934  27.056  1.00  0.00     0.031 C 
ATOM     63  C   UNL A   1      42.663  31.775  29.629  1.00  0.00     0.029 A 
ATOM     64  C   UNL A   1      43.632  30.986  29.029  1.00  0.00     0.049 A 
ATOM     65  H   UNL A   1      43.506  28.985  28.378  1.00  0.00     0.167 HD
ATOM     66  C   UNL A   1      45.871  30.528  28.066  1.00  0.00     0.074 A 
ATOM     67  C   UNL A   1      47.211  30.921  27.680  1.00  0.00     0.031 C 
ATOM     68  C   UNL A   1      44.982  31.345  28.683  1.00  0.00     0.034 A 
BRANCH  55  69
ATOM     69  C   UNL A   1      39.469  28.804  29.743  1.00  0.00     0.023 A 
ATOM     70  C   UNL A   1      39.197  28.426  31.072  1.00  0.00     0.012 A 
ATOM     71  C   UNL A   1      38.472  29.442  28.982  1.00  0.00     0.148 A 
ATOM     72  C   UNL A   1      37.948  28.676  31.637  1.00  0.00     0.002 A 
ATOM     73  C   UNL A   1      37.239  29.718  29.561  1.00  0.00     0.091 A 
ATOM     74  F   UNL A   1      38.753  29.777  27.715  1.00  0.00    -0.205 F 
ATOM     75  C   UNL A   1      36.975  29.333  30.887  1.00  0.00     0.022 A 
BRANCH  73  76
ATOM     76  S   UNL A   1      35.937  30.606  28.703  1.00  0.00     0.127 S 
ATOM     77  O   UNL A   1      35.180  31.173  29.820  1.00  0.00    -0.237 OA
ATOM     78  O   UNL A   1      36.696  31.582  27.922  1.00  0.00    -0.237 OA
ATOM     79  O   UNL A   1      35.218  29.613  27.916  1.00  0.00    -0.744 OA
ENDBRANCH  73  76
ENDBRANCH  55  69
BRANCH  56  80
ATOM     80  C   UNL A   1      48.608  27.292  26.003  1.00  0.00     0.023 A 
ATOM     81  C   UNL A   1      49.619  26.774  26.834  1.00  0.00     0.012 A 
ATOM     82  C   UNL A   1      48.878  27.519  24.641  1.00  0.00     0.148 A 
ATOM     83  C   UNL A   1      50.885  26.494  26.318  1.00  0.00     0.002 A 
ATOM     84  C   UNL A   1      50.130  27.204  24.125  1.00  0.00     0.091 A 
ATOM     85  F   UNL A   1      47.895  28.011  23.874  1.00  0.00    -0.205 F 
ATOM     86  C   UNL A   1      51.137  26.700  24.964  1.00  0.00     0.022 A 
BRANCH  84  87
ATOM     87  S   UNL A   1      50.522  27.343  22.378  1.00  0.00     0.127 S 
ATOM     88  O   UNL A   1      50.451  28.788  22.169  1.00  0.00    -0.237 OA
ATOM     89  O   UNL A   1      51.872  26.779  22.331  1.00  0.00    -0.237 OA
ATOM     90  O   UNL A   1      49.513  26.561  21.679  1.00  0.00    -0.744 OA
ENDBRANCH  84  87
ENDBRANCH  56  80
BRANCH  68  91
ATOM     91  C   UNL A   1      45.424  32.740  29.027  1.00  0.00     0.023 A 
ATOM     92  C   UNL A   1      46.141  32.973  30.215  1.00  0.00     0.012 A 
ATOM     93  C   UNL A   1      45.237  33.791  28.106  1.00  0.00     0.148 A 
ATOM     94  C   UNL A   1      46.659  34.238  30.489  1.00  0.00     0.002 A 
ATOM     95  C   UNL A   1      45.786  35.038  28.369  1.00  0.00     0.091 A 
ATOM     96  F   UNL A   1      44.543  33.541  26.986  1.00  0.00    -0.205 F 
ATOM     97  C   UNL A   1      46.492  35.266  29.561  1.00  0.00     0.022 A 
BRANCH  95  98
ATOM     98  S   UNL A   1      45.688  36.402  27.203  1.00  0.00     0.127 S 
ATOM     99  O   UNL A   1      44.242  36.558  27.050  1.00  0.00    -0.237 OA
ATOM    100  O   UNL A   1      46.344  37.483  27.938  1.00  0.00    -0.237 OA
ATOM    101  O   UNL A   1      46.395  35.963  26.007  1.00  0.00    -0.744 OA
ENDBRANCH  95  98
ENDBRANCH  68  91
ENDBRANCH  42  43
ENDBRANCH  34  37
ENDBRANCH  32  33
ENDBRANCH  31  32
ENDBRANCH   1  31
TORSDOF 17
ENDMDL
MODEL 3
REMARK VINA RESULT:     -12.8      0.332      7.479
REMARK SMILES Cc1ccc(C(=O)NCCCCCCNC(=O)c2ccc(-c3c4nc(c(-c5cccc(S(=O)(=O)[O-])c5F)c5ccc([nH]5)c(-c5cccc(S(=O)(=O)[O-])c5F)c5nc(c(-c6cccc(S(=O)(=O)[O-])c6F)c6ccc3[nH]6)C=C5)C=C4)cc2)c2c1N[C@H](c1ccccc1F)[C@H]1CC=C[C@@H]21
REMARK SMILES IDX 12 1 11 2 10 3 9 4 8 5 6 6 7 7 5 9 1 10 2 11 3 12 82 13 4 14
REMARK SMILES IDX 81 15 83 16 96 17 84 18 92 20 95 21 93 22 94 23 85 24 86 25
REMARK SMILES IDX 90 26 87 27 89 28 91 29 88 30 13 31 14 32 15 33 16 34 17 36
REMARK SMILES IDX 18 37 19 38 80 39 20 40 79 41 21 42 22 43 23 44 73 45 24 46
REMARK SMILES IDX 78 47 72 48 74 49 25 50 77 51 71 52 70 53 26 55 58 56 38 57
REMARK SMILES IDX 57 58 39 59 42 60 56 61 75 62 40 63 41 64 55 66 76 67 43 68
REMARK SMILES IDX 27 69 28 70 36 71 29 72 31 73 37 74 30 75 32 76 33 77 34 78
REMARK SMILES IDX 35 79 59 80 60 81 68 82 61 83 63 84 69 85 62 86 64 87 65 88
REMARK SMILES IDX 66 89 67 90 44 91 45 92 53 93 46 94 48 95 54 96 47 97 49 98
REMARK SMILES IDX 50 99 51 100 52 101
REMARK H PARENT 8 8 83 19 15 35 74 54 42 65
REMARK Flexibility Score: inf
ROOT
ATOM      1  C   UNL A   1      31.785  30.806  26.224  1.00  0.00     0.002 C 
ENDROOT
BRANCH   1   2
ATOM      2  C   UNL A   1      32.377  29.769  27.188  1.00  0.00     0.002 C 
BRANCH   2   3
ATOM      3  C   UNL A   1      33.801  29.310  26.832  1.00  0.00     0.021 C 
BRANCH   3   4
ATOM      4  C   UNL A   1      33.834  27.932  26.164  1.00  0.00     0.116 C 
BRANCH   4   5
ATOM      5  N   UNL A   1      32.689  27.169  26.610  1.00  0.00    -0.352 N 
ATOM      6  C   UNL A   1      31.821  26.295  26.013  1.00  0.00     0.251 C 
ATOM      7  O   UNL A   1      30.778  26.136  26.646  1.00  0.00    -0.269 OA
ATOM      8  H   UNL A   1      32.487  27.312  27.563  1.00  0.00     0.163 HD
BRANCH   6   9
ATOM      9  C   UNL A   1      32.091  25.540  24.731  1.00  0.00     0.045 A 
ATOM     10  C   UNL A   1      33.092  23.573  20.989  1.00  0.00     0.046 C 
ATOM     11  C   UNL A   1      32.716  24.179  22.317  1.00  0.00    -0.028 A 
ATOM     12  C   UNL A   1      32.247  25.494  22.302  1.00  0.00     0.006 A 
ATOM     13  C   UNL A   1      32.769  23.480  23.539  1.00  0.00     0.042 A 
ATOM     14  C   UNL A   1      31.894  26.139  23.484  1.00  0.00     0.014 A 
ATOM     15  C   UNL A   1      32.514  24.174  24.755  1.00  0.00    -0.005 A 
ATOM     16  N   UNL A   1      33.087  22.130  23.546  1.00  0.00    -0.377 N 
ATOM     17  C   UNL A   1      32.616  23.406  26.058  1.00  0.00     0.050 C 
ATOM     18  C   UNL A   1      33.576  21.463  24.740  1.00  0.00     0.117 C 
ATOM     19  H   UNL A   1      32.977  21.609  22.718  1.00  0.00     0.161 HD
ATOM     20  C   UNL A   1      32.722  21.874  25.946  1.00  0.00     0.031 C 
ATOM     21  C   UNL A   1      33.814  23.729  26.916  1.00  0.00    -0.023 C 
ATOM     22  C   UNL A   1      33.383  21.463  27.276  1.00  0.00     0.034 C 
ATOM     23  C   UNL A   1      34.220  22.657  27.607  1.00  0.00    -0.030 C 
BRANCH  18  24
ATOM     24  C   UNL A   1      33.684  19.968  24.452  1.00  0.00     0.010 A 
ATOM     25  C   UNL A   1      32.542  19.298  23.968  1.00  0.00     0.009 A 
ATOM     26  C   UNL A   1      34.849  19.208  24.620  1.00  0.00     0.128 A 
ATOM     27  C   UNL A   1      32.580  17.937  23.648  1.00  0.00     0.001 A 
ATOM     28  C   UNL A   1      34.893  17.852  24.298  1.00  0.00     0.039 A 
ATOM     29  F   UNL A   1      35.983  19.754  25.077  1.00  0.00    -0.207 F 
ATOM     30  C   UNL A   1      33.759  17.214  23.807  1.00  0.00     0.003 A 
ENDBRANCH  18  24
ENDBRANCH   6   9
ENDBRANCH   4   5
ENDBRANCH   3   4
ENDBRANCH   2   3
ENDBRANCH   1   2
BRANCH   1  31
ATOM     31  C   UNL A   1      31.621  32.203  26.827  1.00  0.00     0.021 C 
BRANCH  31  32
ATOM     32  C   UNL A   1      32.928  32.801  27.333  1.00  0.00     0.116 C 
BRANCH  32  33
ATOM     33  N   UNL A   1      32.724  34.160  27.811  1.00  0.00    -0.352 N 
ATOM     34  C   UNL A   1      33.222  34.737  28.952  1.00  0.00     0.251 C 
ATOM     35  H   UNL A   1      32.160  34.735  27.246  1.00  0.00     0.163 HD
ATOM     36  O   UNL A   1      32.755  35.784  29.381  1.00  0.00    -0.269 OA
BRANCH  34  37
ATOM     37  C   UNL A   1      34.336  34.068  29.649  1.00  0.00     0.039 A 
ATOM     38  C   UNL A   1      34.066  33.244  30.742  1.00  0.00     0.014 A 
ATOM     39  C   UNL A   1      35.647  34.257  29.197  1.00  0.00     0.014 A 
ATOM     40  C   UNL A   1      35.117  32.575  31.370  1.00  0.00     0.010 A 
ATOM     41  C   UNL A   1      36.685  33.551  29.789  1.00  0.00     0.010 A 
ATOM     42  C   UNL A   1      36.429  32.717  30.889  1.00  0.00    -0.014 A 
BRANCH  42  43
ATOM     43  C   UNL A   1      37.568  32.035  31.539  1.00  0.00     0.031 A 
ATOM     44  C   UNL A   1      38.074  32.543  32.859  1.00  0.00     0.074 A 
ATOM     45  C   UNL A   1      38.193  31.025  30.908  1.00  0.00     0.049 A 
ATOM     46  N   UNL A   1      39.116  32.154  33.543  1.00  0.00    -0.248 NA
ATOM     47  C   UNL A   1      37.321  33.646  33.483  1.00  0.00     0.031 C 
ATOM     48  C   UNL A   1      37.815  30.478  29.604  1.00  0.00     0.029 A 
ATOM     49  N   UNL A   1      39.301  30.298  31.267  1.00  0.00    -0.354 N 
ATOM     50  C   UNL A   1      39.160  32.976  34.661  1.00  0.00     0.074 A 
ATOM     51  C   UNL A   1      38.054  33.902  34.557  1.00  0.00     0.031 C 
ATOM     52  C   UNL A   1      38.680  29.506  29.269  1.00  0.00     0.029 A 
ATOM     53  C   UNL A   1      39.687  29.383  30.319  1.00  0.00     0.049 A 
ATOM     54  H   UNL A   1      39.773  30.423  32.121  1.00  0.00     0.167 HD
ATOM     55  C   UNL A   1      40.031  32.944  35.694  1.00  0.00     0.034 A 
ATOM     56  C   UNL A   1      40.742  28.545  30.294  1.00  0.00     0.034 A 
ATOM     57  C   UNL A   1      41.108  32.002  35.810  1.00  0.00     0.049 A 
ATOM     58  C   UNL A   1      41.689  28.521  31.461  1.00  0.00     0.074 A 
ATOM     59  C   UNL A   1      42.010  31.856  36.850  1.00  0.00     0.029 A 
ATOM     60  N   UNL A   1      41.430  31.048  34.859  1.00  0.00    -0.354 N 
ATOM     61  N   UNL A   1      41.662  29.243  32.554  1.00  0.00    -0.248 NA
ATOM     62  C   UNL A   1      42.791  27.549  31.408  1.00  0.00     0.031 C 
ATOM     63  C   UNL A   1      42.888  30.820  36.520  1.00  0.00     0.029 A 
ATOM     64  C   UNL A   1      42.516  30.307  35.286  1.00  0.00     0.049 A 
ATOM     65  H   UNL A   1      40.957  30.917  34.006  1.00  0.00     0.167 HD
ATOM     66  C   UNL A   1      42.719  28.792  33.334  1.00  0.00     0.074 A 
ATOM     67  C   UNL A   1      43.367  27.731  32.590  1.00  0.00     0.031 C 
ATOM     68  C   UNL A   1      43.118  29.223  34.556  1.00  0.00     0.034 A 
BRANCH  55  69
ATOM     69  C   UNL A   1      39.831  33.919  36.819  1.00  0.00     0.023 A 
ATOM     70  C   UNL A   1      40.116  35.281  36.607  1.00  0.00     0.012 A 
ATOM     71  C   UNL A   1      39.261  33.507  38.039  1.00  0.00     0.148 A 
ATOM     72  C   UNL A   1      39.839  36.224  37.596  1.00  0.00     0.002 A 
ATOM     73  C   UNL A   1      38.959  34.455  39.008  1.00  0.00     0.091 A 
ATOM     74  F   UNL A   1      39.016  32.202  38.220  1.00  0.00    -0.205 F 
ATOM     75  C   UNL A   1      39.250  35.813  38.789  1.00  0.00     0.022 A 
BRANCH  73  76
ATOM     76  S   UNL A   1      38.150  34.042  40.556  1.00  0.00     0.127 S 
ATOM     77  O   UNL A   1      39.169  33.222  41.212  1.00  0.00    -0.237 OA
ATOM     78  O   UNL A   1      37.947  35.360  41.156  1.00  0.00    -0.237 OA
ATOM     79  O   UNL A   1      36.928  33.333  40.199  1.00  0.00    -0.744 OA
ENDBRANCH  73  76
ENDBRANCH  55  69
BRANCH  56  80
ATOM     80  C   UNL A   1      40.906  27.612  29.146  1.00  0.00     0.023 A 
ATOM     81  C   UNL A   1      40.162  26.417  29.123  1.00  0.00     0.012 A 
ATOM     82  C   UNL A   1      41.732  27.936  28.055  1.00  0.00     0.148 A 
ATOM     83  C   UNL A   1      40.247  25.553  28.031  1.00  0.00     0.002 A 
ATOM     84  C   UNL A   1      41.784  27.089  26.954  1.00  0.00     0.091 A 
ATOM     85  F   UNL A   1      42.427  29.082  28.104  1.00  0.00    -0.205 F 
ATOM     86  C   UNL A   1      41.050  25.892  26.945  1.00  0.00     0.022 A 
BRANCH  84  87
ATOM     87  S   UNL A   1      42.712  27.484  25.468  1.00  0.00     0.127 S 
ATOM     88  O   UNL A   1      44.079  27.558  25.979  1.00  0.00    -0.237 OA
ATOM     89  O   UNL A   1      42.431  26.320  24.626  1.00  0.00    -0.237 OA
ATOM     90  O   UNL A   1      42.160  28.737  24.975  1.00  0.00    -0.744 OA
ENDBRANCH  84  87
ENDBRANCH  56  80
BRANCH  68  91
ATOM     91  C   UNL A   1      44.285  28.532  35.204  1.00  0.00     0.023 A 
ATOM     92  C   UNL A   1      45.596  28.947  34.905  1.00  0.00     0.012 A 
ATOM     93  C   UNL A   1      44.070  27.562  36.203  1.00  0.00     0.148 A 
ATOM     94  C   UNL A   1      46.681  28.396  35.586  1.00  0.00     0.002 A 
ATOM     95  C   UNL A   1      45.152  27.044  36.901  1.00  0.00     0.091 A 
ATOM     96  F   UNL A   1      42.810  27.181  36.461  1.00  0.00    -0.205 F 
ATOM     97  C   UNL A   1      46.459  27.456  36.591  1.00  0.00     0.022 A 
BRANCH  95  98
ATOM     98  S   UNL A   1      44.961  25.885  38.261  1.00  0.00     0.127 S 
ATOM     99  O   UNL A   1      44.363  24.734  37.587  1.00  0.00    -0.237 OA
ATOM    100  O   UNL A   1      46.344  25.688  38.694  1.00  0.00    -0.237 OA
ATOM    101  O   UNL A   1      44.106  26.546  39.238  1.00  0.00    -0.744 OA
ENDBRANCH  95  98
ENDBRANCH  68  91
ENDBRANCH  42  43
ENDBRANCH  34  37
ENDBRANCH  32  33
ENDBRANCH  31  32
ENDBRANCH   1  31
TORSDOF 17
ENDMDL
