MODEL 1
REMARK VINA RESULT:     -11.4      0.000      0.000
REMARK SMILES CC[C@@H]1CCC[C@@](Cc2cccc(O)c2)(C(=O)NCCCCCCNC(=O)c2ccc(-c3c4nc(c(-c5cccc(S(=O)(=O)[O-])c5F)c5ccc([nH]5)c(-c5cccc(S(=O)(=O)[O-])c5F)c5nc(c(-c6cccc(S(=O)(=O)[O-])c6F)c6ccc3[nH]6)C=C5)C=C4)cc2)C1
REMARK SMILES IDX 21 1 20 2 19 3 18 4 16 5 17 6 7 8 3 9 4 10 91 11 5 12 6 13
REMARK SMILES IDX 2 14 1 15 8 16 9 17 10 18 15 19 11 20 13 21 12 22 14 23
REMARK SMILES IDX 22 25 23 26 24 27 25 28 26 29 27 31 28 32 29 33 90 34 30 35
REMARK SMILES IDX 89 36 31 37 32 38 33 39 83 40 34 41 88 42 82 43 84 44 35 45
REMARK SMILES IDX 87 46 81 47 80 48 36 50 68 51 48 52 67 53 49 54 52 55 66 56
REMARK SMILES IDX 85 57 50 58 51 59 65 61 86 62 53 63 37 64 38 65 46 66 39 67
REMARK SMILES IDX 41 68 47 69 40 70 42 71 43 72 44 73 45 74 69 75 70 76 78 77
REMARK SMILES IDX 71 78 73 79 79 80 72 81 74 82 75 83 76 84 77 85 54 86 55 87
REMARK SMILES IDX 63 88 56 89 58 90 64 91 57 92 59 93 60 94 61 95 62 96
REMARK H PARENT 18 7 14 24 25 30 84 49 52 60
REMARK Flexibility Score: inf
ROOT
ATOM      1  C   UNL A   1      34.815  24.069  23.558  1.00  0.00     0.002 C 
ENDROOT
BRANCH   1   2
ATOM      2  C   UNL A   1      34.445  24.886  24.800  1.00  0.00     0.021 C 
BRANCH   2   3
ATOM      3  C   UNL A   1      33.990  26.309  24.509  1.00  0.00     0.116 C 
BRANCH   3   4
ATOM      4  N   UNL A   1      32.894  26.758  25.340  1.00  0.00    -0.356 N 
ATOM      5  C   UNL A   1      31.546  26.678  25.169  1.00  0.00     0.226 C 
ATOM      6  O   UNL A   1      30.881  26.816  26.204  1.00  0.00    -0.274 OA
ATOM      7  H   UNL A   1      33.171  27.199  26.176  1.00  0.00     0.163 HD
BRANCH   5   8
ATOM      8  C   UNL A   1      30.849  26.417  23.803  1.00  0.00     0.053 C 
ATOM      9  C   UNL A   1      30.131  28.931  23.522  1.00  0.00    -0.010 C 
ATOM     10  C   UNL A   1      31.206  29.101  22.437  1.00  0.00     0.003 C 
ATOM     11  C   UNL A   1      29.678  27.462  23.659  1.00  0.00     0.020 C 
ATOM     12  C   UNL A   1      32.314  28.062  22.523  1.00  0.00     0.001 C 
ATOM     13  C   UNL A   1      31.735  26.649  22.559  1.00  0.00     0.017 C 
BRANCH   9  14
ATOM     14  C   UNL A   1      28.957  29.883  23.209  1.00  0.00     0.000 C 
ATOM     15  C   UNL A   1      27.680  29.191  22.755  1.00  0.00     0.004 C 
ENDBRANCH   9  14
BRANCH   8  16
ATOM     16  C   UNL A   1      30.141  25.024  23.821  1.00  0.00     0.052 C 
BRANCH  16  17
ATOM     17  C   UNL A   1      30.955  23.780  24.077  1.00  0.00    -0.043 A 
ATOM     18  C   UNL A   1      31.440  23.010  23.009  1.00  0.00     0.004 A 
ATOM     19  C   UNL A   1      31.245  23.371  25.386  1.00  0.00     0.049 A 
ATOM     20  C   UNL A   1      32.154  21.830  23.247  1.00  0.00     0.004 A 
ATOM     21  C   UNL A   1      31.956  22.195  25.613  1.00  0.00     0.115 A 
ATOM     22  C   UNL A   1      32.406  21.415  24.555  1.00  0.00     0.046 A 
BRANCH  21  23
ATOM     23  O   UNL A   1      32.177  21.831  26.907  1.00  0.00    -0.508 OA
ATOM     24  H   UNL A   1      32.117  20.929  27.158  1.00  0.00     0.293 HD
ENDBRANCH  21  23
ENDBRANCH  16  17
ENDBRANCH   8  16
ENDBRANCH   5   8
ENDBRANCH   3   4
ENDBRANCH   2   3
ENDBRANCH   1   2
BRANCH   1  25
ATOM     25  C   UNL A   1      36.116  23.259  23.648  1.00  0.00     0.002 C 
BRANCH  25  26
ATOM     26  C   UNL A   1      36.014  21.889  24.327  1.00  0.00     0.021 C 
BRANCH  26  27
ATOM     27  C   UNL A   1      36.572  21.819  25.744  1.00  0.00     0.116 C 
BRANCH  27  28
ATOM     28  N   UNL A   1      37.621  20.823  25.874  1.00  0.00    -0.352 N 
ATOM     29  C   UNL A   1      38.957  20.985  26.124  1.00  0.00     0.251 C 
ATOM     30  H   UNL A   1      37.326  19.889  25.766  1.00  0.00     0.163 HD
ATOM     31  O   UNL A   1      39.713  20.016  26.023  1.00  0.00    -0.269 OA
BRANCH  29  32
ATOM     32  C   UNL A   1      39.504  22.308  26.496  1.00  0.00     0.039 A 
ATOM     33  C   UNL A   1      40.503  22.370  27.472  1.00  0.00     0.014 A 
ATOM     34  C   UNL A   1      39.021  23.485  25.917  1.00  0.00     0.014 A 
ATOM     35  C   UNL A   1      41.046  23.605  27.833  1.00  0.00     0.010 A 
ATOM     36  C   UNL A   1      39.615  24.708  26.223  1.00  0.00     0.010 A 
ATOM     37  C   UNL A   1      40.627  24.782  27.193  1.00  0.00    -0.014 A 
BRANCH  37  38
ATOM     38  C   UNL A   1      41.250  26.089  27.518  1.00  0.00     0.031 A 
ATOM     39  C   UNL A   1      42.665  26.391  27.105  1.00  0.00     0.074 A 
ATOM     40  C   UNL A   1      40.563  26.984  28.255  1.00  0.00     0.049 A 
ATOM     41  N   UNL A   1      43.372  27.471  27.315  1.00  0.00    -0.248 NA
ATOM     42  C   UNL A   1      43.390  25.331  26.386  1.00  0.00     0.031 C 
ATOM     43  C   UNL A   1      39.220  26.772  28.798  1.00  0.00     0.029 A 
ATOM     44  N   UNL A   1      40.908  28.237  28.697  1.00  0.00    -0.354 N 
ATOM     45  C   UNL A   1      44.630  27.214  26.781  1.00  0.00     0.074 A 
ATOM     46  C   UNL A   1      44.600  25.858  26.276  1.00  0.00     0.031 C 
ATOM     47  C   UNL A   1      38.854  27.857  29.498  1.00  0.00     0.029 A 
ATOM     48  C   UNL A   1      39.943  28.830  29.475  1.00  0.00     0.049 A 
ATOM     49  H   UNL A   1      41.764  28.669  28.477  1.00  0.00     0.167 HD
ATOM     50  C   UNL A   1      45.700  28.038  26.687  1.00  0.00     0.034 A 
ATOM     51  C   UNL A   1      39.934  30.020  30.106  1.00  0.00     0.034 A 
ATOM     52  C   UNL A   1      45.715  29.396  27.163  1.00  0.00     0.049 A 
ATOM     53  C   UNL A   1      41.112  30.940  29.948  1.00  0.00     0.074 A 
ATOM     54  C   UNL A   1      46.715  30.343  27.036  1.00  0.00     0.029 A 
ATOM     55  N   UNL A   1      44.684  29.998  27.869  1.00  0.00    -0.354 N 
ATOM     56  N   UNL A   1      42.227  30.744  29.289  1.00  0.00    -0.248 NA
ATOM     57  C   UNL A   1      41.014  32.261  30.584  1.00  0.00     0.031 C 
ATOM     58  C   UNL A   1      46.299  31.510  27.688  1.00  0.00     0.029 A 
ATOM     59  C   UNL A   1      45.027  31.299  28.198  1.00  0.00     0.049 A 
ATOM     60  H   UNL A   1      43.832  29.564  28.104  1.00  0.00     0.167 HD
ATOM     61  C   UNL A   1      42.955  31.922  29.410  1.00  0.00     0.074 A 
ATOM     62  C   UNL A   1      42.140  32.837  30.183  1.00  0.00     0.031 C 
ATOM     63  C   UNL A   1      44.194  32.213  28.938  1.00  0.00     0.034 A 
BRANCH  50  64
ATOM     64  C   UNL A   1      46.928  27.504  25.994  1.00  0.00     0.023 A 
ATOM     65  C   UNL A   1      47.077  27.691  24.603  1.00  0.00     0.012 A 
ATOM     66  C   UNL A   1      47.946  26.846  26.712  1.00  0.00     0.148 A 
ATOM     67  C   UNL A   1      48.192  27.191  23.931  1.00  0.00     0.002 A 
ATOM     68  C   UNL A   1      49.077  26.392  26.043  1.00  0.00     0.091 A 
ATOM     69  F   UNL A   1      47.782  26.657  28.028  1.00  0.00    -0.205 F 
ATOM     70  C   UNL A   1      49.195  26.550  24.651  1.00  0.00     0.022 A 
BRANCH  68  71
ATOM     71  S   UNL A   1      50.460  25.625  26.895  1.00  0.00     0.127 S 
ATOM     72  O   UNL A   1      50.852  26.678  27.831  1.00  0.00    -0.237 OA
ATOM     73  O   UNL A   1      49.832  24.460  27.518  1.00  0.00    -0.237 OA
ATOM     74  O   UNL A   1      51.435  25.305  25.863  1.00  0.00    -0.744 OA
ENDBRANCH  68  71
ENDBRANCH  50  64
BRANCH  51  75
ATOM     75  C   UNL A   1      38.733  30.422  30.889  1.00  0.00     0.023 A 
ATOM     76  C   UNL A   1      38.691  30.174  32.275  1.00  0.00     0.012 A 
ATOM     77  C   UNL A   1      37.666  31.110  30.279  1.00  0.00     0.148 A 
ATOM     78  C   UNL A   1      37.598  30.589  33.037  1.00  0.00     0.002 A 
ATOM     79  C   UNL A   1      36.609  31.572  31.053  1.00  0.00     0.091 A 
ATOM     80  F   UNL A   1      37.724  31.325  28.958  1.00  0.00    -0.205 F 
ATOM     81  C   UNL A   1      36.564  31.298  32.429  1.00  0.00     0.022 A 
BRANCH  79  82
ATOM     82  S   UNL A   1      35.316  32.622  30.383  1.00  0.00     0.127 S 
ATOM     83  O   UNL A   1      34.406  32.740  31.521  1.00  0.00    -0.237 OA
ATOM     84  O   UNL A   1      36.057  33.840  30.057  1.00  0.00    -0.237 OA
ATOM     85  O   UNL A   1      34.791  31.913  29.225  1.00  0.00    -0.744 OA
ENDBRANCH  79  82
ENDBRANCH  51  75
BRANCH  63  86
ATOM     86  C   UNL A   1      44.744  33.585  29.233  1.00  0.00     0.023 A 
ATOM     87  C   UNL A   1      45.391  33.830  30.461  1.00  0.00     0.012 A 
ATOM     88  C   UNL A   1      44.676  34.613  28.271  1.00  0.00     0.148 A 
ATOM     89  C   UNL A   1      45.929  35.085  30.742  1.00  0.00     0.002 A 
ATOM     90  C   UNL A   1      45.257  35.846  28.539  1.00  0.00     0.091 A 
ATOM     91  F   UNL A   1      44.038  34.367  27.116  1.00  0.00    -0.205 F 
ATOM     92  C   UNL A   1      45.873  36.088  29.777  1.00  0.00     0.022 A 
BRANCH  90  93
ATOM     93  S   UNL A   1      45.314  37.167  27.322  1.00  0.00     0.127 S 
ATOM     94  O   UNL A   1      46.142  36.572  26.275  1.00  0.00    -0.237 OA
ATOM     95  O   UNL A   1      43.903  37.325  26.968  1.00  0.00    -0.237 OA
ATOM     96  O   UNL A   1      45.897  38.315  28.005  1.00  0.00    -0.744 OA
ENDBRANCH  90  93
ENDBRANCH  63  86
ENDBRANCH  37  38
ENDBRANCH  29  32
ENDBRANCH  27  28
ENDBRANCH  26  27
ENDBRANCH  25  26
ENDBRANCH   1  25
TORSDOF 20
ENDMDL
MODEL 2
REMARK VINA RESULT:     -11.3      2.066      8.280
REMARK SMILES CC[C@@H]1CCC[C@@](Cc2cccc(O)c2)(C(=O)NCCCCCCNC(=O)c2ccc(-c3c4nc(c(-c5cccc(S(=O)(=O)[O-])c5F)c5ccc([nH]5)c(-c5cccc(S(=O)(=O)[O-])c5F)c5nc(c(-c6cccc(S(=O)(=O)[O-])c6F)c6ccc3[nH]6)C=C5)C=C4)cc2)C1
REMARK SMILES IDX 21 1 20 2 19 3 18 4 16 5 17 6 7 8 3 9 4 10 91 11 5 12 6 13
REMARK SMILES IDX 2 14 1 15 8 16 9 17 10 18 15 19 11 20 13 21 12 22 14 23
REMARK SMILES IDX 22 25 23 26 24 27 25 28 26 29 27 31 28 32 29 33 90 34 30 35
REMARK SMILES IDX 89 36 31 37 32 38 33 39 83 40 34 41 88 42 82 43 84 44 35 45
REMARK SMILES IDX 87 46 81 47 80 48 36 50 68 51 48 52 67 53 49 54 52 55 66 56
REMARK SMILES IDX 85 57 50 58 51 59 65 61 86 62 53 63 37 64 38 65 46 66 39 67
REMARK SMILES IDX 41 68 47 69 40 70 42 71 43 72 44 73 45 74 69 75 70 76 78 77
REMARK SMILES IDX 71 78 73 79 79 80 72 81 74 82 75 83 76 84 77 85 54 86 55 87
REMARK SMILES IDX 63 88 56 89 58 90 64 91 57 92 59 93 60 94 61 95 62 96
REMARK H PARENT 18 7 14 24 25 30 84 49 52 60
REMARK Flexibility Score: inf
ROOT
ATOM      1  C   UNL A   1      36.735  21.432  25.011  1.00  0.00     0.002 C 
ENDROOT
BRANCH   1   2
ATOM      2  C   UNL A   1      37.034  22.182  23.709  1.00  0.00     0.021 C 
BRANCH   2   3
ATOM      3  C   UNL A   1      36.351  23.537  23.589  1.00  0.00     0.116 C 
BRANCH   3   4
ATOM      4  N   UNL A   1      35.684  23.970  24.798  1.00  0.00    -0.356 N 
ATOM      5  C   UNL A   1      34.375  23.929  25.165  1.00  0.00     0.226 C 
ATOM      6  O   UNL A   1      34.171  24.031  26.382  1.00  0.00    -0.274 OA
ATOM      7  H   UNL A   1      36.283  24.364  25.474  1.00  0.00     0.163 HD
BRANCH   5   8
ATOM      8  C   UNL A   1      33.191  23.750  24.172  1.00  0.00     0.053 C 
ATOM      9  C   UNL A   1      33.043  21.158  24.585  1.00  0.00    -0.010 C 
ATOM     10  C   UNL A   1      31.753  21.375  25.391  1.00  0.00     0.003 C 
ATOM     11  C   UNL A   1      33.289  22.296  23.572  1.00  0.00     0.020 C 
ATOM     12  C   UNL A   1      31.613  22.791  25.927  1.00  0.00     0.001 C 
ATOM     13  C   UNL A   1      31.785  23.817  24.809  1.00  0.00     0.017 C 
BRANCH   9  14
ATOM     14  C   UNL A   1      32.976  19.771  23.908  1.00  0.00     0.000 C 
ATOM     15  C   UNL A   1      32.524  18.640  24.820  1.00  0.00     0.004 C 
ENDBRANCH   9  14
BRANCH   8  16
ATOM     16  C   UNL A   1      33.373  24.701  22.945  1.00  0.00     0.052 C 
BRANCH  16  17
ATOM     17  C   UNL A   1      32.939  26.142  23.051  1.00  0.00    -0.043 A 
ATOM     18  C   UNL A   1      33.632  27.040  23.878  1.00  0.00     0.004 A 
ATOM     19  C   UNL A   1      31.836  26.612  22.325  1.00  0.00     0.049 A 
ATOM     20  C   UNL A   1      33.199  28.363  24.014  1.00  0.00     0.004 A 
ATOM     21  C   UNL A   1      31.413  27.931  22.468  1.00  0.00     0.115 A 
ATOM     22  C   UNL A   1      32.079  28.810  23.314  1.00  0.00     0.046 A 
BRANCH  21  23
ATOM     23  O   UNL A   1      30.313  28.321  21.763  1.00  0.00    -0.508 OA
ATOM     24  H   UNL A   1      29.915  29.152  21.938  1.00  0.00     0.293 HD
ENDBRANCH  21  23
ENDBRANCH  16  17
ENDBRANCH   8  16
ENDBRANCH   5   8
ENDBRANCH   3   4
ENDBRANCH   2   3
ENDBRANCH   1   2
BRANCH   1  25
ATOM     25  C   UNL A   1      36.712  19.899  24.914  1.00  0.00     0.002 C 
BRANCH  25  26
ATOM     26  C   UNL A   1      38.065  19.193  25.055  1.00  0.00     0.021 C 
BRANCH  26  27
ATOM     27  C   UNL A   1      39.150  19.995  25.765  1.00  0.00     0.116 C 
BRANCH  27  28
ATOM     28  N   UNL A   1      40.313  19.186  26.083  1.00  0.00    -0.352 N 
ATOM     29  C   UNL A   1      41.588  19.571  26.404  1.00  0.00     0.251 C 
ATOM     30  H   UNL A   1      40.163  18.213  26.067  1.00  0.00     0.163 HD
ATOM     31  O   UNL A   1      42.478  18.721  26.470  1.00  0.00    -0.269 OA
BRANCH  29  32
ATOM     32  C   UNL A   1      41.910  20.993  26.653  1.00  0.00     0.039 A 
ATOM     33  C   UNL A   1      42.224  21.391  27.955  1.00  0.00     0.014 A 
ATOM     34  C   UNL A   1      41.874  21.939  25.624  1.00  0.00     0.014 A 
ATOM     35  C   UNL A   1      42.546  22.724  28.216  1.00  0.00     0.010 A 
ATOM     36  C   UNL A   1      42.267  23.253  25.872  1.00  0.00     0.010 A 
ATOM     37  C   UNL A   1      42.596  23.663  27.173  1.00  0.00    -0.014 A 
BRANCH  37  38
ATOM     38  C   UNL A   1      43.007  25.066  27.430  1.00  0.00     0.031 A 
ATOM     39  C   UNL A   1      42.048  26.047  28.046  1.00  0.00     0.074 A 
ATOM     40  C   UNL A   1      44.228  25.479  27.037  1.00  0.00     0.049 A 
ATOM     41  N   UNL A   1      42.231  27.311  28.328  1.00  0.00    -0.248 NA
ATOM     42  C   UNL A   1      40.698  25.553  28.361  1.00  0.00     0.031 C 
ATOM     43  C   UNL A   1      45.215  24.649  26.343  1.00  0.00     0.029 A 
ATOM     44  N   UNL A   1      44.838  26.704  27.142  1.00  0.00    -0.354 N 
ATOM     45  C   UNL A   1      41.018  27.771  28.827  1.00  0.00     0.074 A 
ATOM     46  C   UNL A   1      40.093  26.660  28.767  1.00  0.00     0.031 C 
ATOM     47  C   UNL A   1      46.305  25.387  26.085  1.00  0.00     0.029 A 
ATOM     48  C   UNL A   1      46.087  26.746  26.573  1.00  0.00     0.049 A 
ATOM     49  H   UNL A   1      44.419  27.478  27.583  1.00  0.00     0.167 HD
ATOM     50  C   UNL A   1      40.708  28.994  29.321  1.00  0.00     0.034 A 
ATOM     51  C   UNL A   1      46.962  27.764  26.449  1.00  0.00     0.034 A 
ATOM     52  C   UNL A   1      41.640  30.087  29.406  1.00  0.00     0.049 A 
ATOM     53  C   UNL A   1      46.618  29.099  27.049  1.00  0.00     0.074 A 
ATOM     54  C   UNL A   1      41.454  31.336  29.973  1.00  0.00     0.029 A 
ATOM     55  N   UNL A   1      42.931  30.068  28.901  1.00  0.00    -0.354 N 
ATOM     56  N   UNL A   1      45.526  29.464  27.674  1.00  0.00    -0.248 NA
ATOM     57  C   UNL A   1      47.642  30.149  26.964  1.00  0.00     0.031 C 
ATOM     58  C   UNL A   1      42.624  32.080  29.786  1.00  0.00     0.029 A 
ATOM     59  C   UNL A   1      43.551  31.286  29.128  1.00  0.00     0.049 A 
ATOM     60  H   UNL A   1      43.347  29.301  28.446  1.00  0.00     0.167 HD
ATOM     61  C   UNL A   1      45.738  30.778  28.077  1.00  0.00     0.074 A 
ATOM     62  C   UNL A   1      47.076  31.133  27.649  1.00  0.00     0.031 C 
ATOM     63  C   UNL A   1      44.894  31.618  28.729  1.00  0.00     0.034 A 
BRANCH  50  64
ATOM     64  C   UNL A   1      39.313  29.192  29.858  1.00  0.00     0.023 A 
ATOM     65  C   UNL A   1      39.000  28.748  31.160  1.00  0.00     0.012 A 
ATOM     66  C   UNL A   1      38.320  29.837  29.094  1.00  0.00     0.148 A 
ATOM     67  C   UNL A   1      37.714  28.899  31.676  1.00  0.00     0.002 A 
ATOM     68  C   UNL A   1      37.053  30.027  29.634  1.00  0.00     0.091 A 
ATOM     69  F   UNL A   1      38.625  30.234  27.851  1.00  0.00    -0.205 F 
ATOM     70  C   UNL A   1      36.743  29.546  30.917  1.00  0.00     0.022 A 
BRANCH  68  71
ATOM     71  S   UNL A   1      35.758  30.920  28.765  1.00  0.00     0.127 S 
ATOM     72  O   UNL A   1      35.076  29.836  28.058  1.00  0.00    -0.237 OA
ATOM     73  O   UNL A   1      34.991  31.504  29.866  1.00  0.00    -0.237 OA
ATOM     74  O   UNL A   1      36.440  31.890  27.923  1.00  0.00    -0.744 OA
ENDBRANCH  68  71
ENDBRANCH  50  64
BRANCH  51  75
ATOM     75  C   UNL A   1      48.271  27.525  25.781  1.00  0.00     0.023 A 
ATOM     76  C   UNL A   1      49.374  27.097  26.544  1.00  0.00     0.012 A 
ATOM     77  C   UNL A   1      48.406  27.651  24.385  1.00  0.00     0.148 A 
ATOM     78  C   UNL A   1      50.595  26.817  25.930  1.00  0.00     0.002 A 
ATOM     79  C   UNL A   1      49.607  27.314  23.774  1.00  0.00     0.091 A 
ATOM     80  F   UNL A   1      47.345  28.068  23.681  1.00  0.00    -0.205 F 
ATOM     81  C   UNL A   1      50.709  26.913  24.545  1.00  0.00     0.022 A 
BRANCH  79  82
ATOM     82  S   UNL A   1      49.793  27.261  21.988  1.00  0.00     0.127 S 
ATOM     83  O   UNL A   1      51.181  26.826  21.845  1.00  0.00    -0.237 OA
ATOM     84  O   UNL A   1      48.792  26.263  21.611  1.00  0.00    -0.237 OA
ATOM     85  O   UNL A   1      49.501  28.608  21.520  1.00  0.00    -0.744 OA
ENDBRANCH  79  82
ENDBRANCH  51  75
BRANCH  63  86
ATOM     86  C   UNL A   1      45.396  33.006  29.031  1.00  0.00     0.023 A 
ATOM     87  C   UNL A   1      46.092  33.253  30.232  1.00  0.00     0.012 A 
ATOM     88  C   UNL A   1      45.233  34.052  28.101  1.00  0.00     0.148 A 
ATOM     89  C   UNL A   1      46.587  34.525  30.518  1.00  0.00     0.002 A 
ATOM     90  C   UNL A   1      45.771  35.304  28.371  1.00  0.00     0.091 A 
ATOM     91  F   UNL A   1      44.550  33.805  26.973  1.00  0.00    -0.205 F 
ATOM     92  C   UNL A   1      46.437  35.546  29.583  1.00  0.00     0.022 A 
BRANCH  90  93
ATOM     93  S   UNL A   1      45.706  36.655  27.187  1.00  0.00     0.127 S 
ATOM     94  O   UNL A   1      46.455  37.698  27.884  1.00  0.00    -0.237 OA
ATOM     95  O   UNL A   1      46.392  36.084  26.026  1.00  0.00    -0.237 OA
ATOM     96  O   UNL A   1      44.292  36.933  26.974  1.00  0.00    -0.744 OA
ENDBRANCH  90  93
ENDBRANCH  63  86
ENDBRANCH  37  38
ENDBRANCH  29  32
ENDBRANCH  27  28
ENDBRANCH  26  27
ENDBRANCH  25  26
ENDBRANCH   1  25
TORSDOF 20
ENDMDL
MODEL 3
REMARK VINA RESULT:     -11.2      5.413      8.464
REMARK SMILES CC[C@@H]1CCC[C@@](Cc2cccc(O)c2)(C(=O)NCCCCCCNC(=O)c2ccc(-c3c4nc(c(-c5cccc(S(=O)(=O)[O-])c5F)c5ccc([nH]5)c(-c5cccc(S(=O)(=O)[O-])c5F)c5nc(c(-c6cccc(S(=O)(=O)[O-])c6F)c6ccc3[nH]6)C=C5)C=C4)cc2)C1
REMARK SMILES IDX 21 1 20 2 19 3 18 4 16 5 17 6 7 8 3 9 4 10 91 11 5 12 6 13
REMARK SMILES IDX 2 14 1 15 8 16 9 17 10 18 15 19 11 20 13 21 12 22 14 23
REMARK SMILES IDX 22 25 23 26 24 27 25 28 26 29 27 31 28 32 29 33 90 34 30 35
REMARK SMILES IDX 89 36 31 37 32 38 33 39 83 40 34 41 88 42 82 43 84 44 35 45
REMARK SMILES IDX 87 46 81 47 80 48 36 50 68 51 48 52 67 53 49 54 52 55 66 56
REMARK SMILES IDX 85 57 50 58 51 59 65 61 86 62 53 63 37 64 38 65 46 66 39 67
REMARK SMILES IDX 41 68 47 69 40 70 42 71 43 72 44 73 45 74 69 75 70 76 78 77
REMARK SMILES IDX 71 78 73 79 79 80 72 81 74 82 75 83 76 84 77 85 54 86 55 87
REMARK SMILES IDX 63 88 56 89 58 90 64 91 57 92 59 93 60 94 61 95 62 96
REMARK H PARENT 18 7 14 24 25 30 84 49 52 60
REMARK Flexibility Score: inf
ROOT
ATOM      1  C   UNL A   1      32.111  29.619  25.975  1.00  0.00     0.002 C 
ENDROOT
BRANCH   1   2
ATOM      2  C   UNL A   1      31.691  28.877  27.247  1.00  0.00     0.021 C 
BRANCH   2   3
ATOM      3  C   UNL A   1      31.986  27.383  27.235  1.00  0.00     0.116 C 
BRANCH   3   4
ATOM      4  N   UNL A   1      33.079  27.006  26.366  1.00  0.00    -0.356 N 
ATOM      5  C   UNL A   1      33.093  26.342  25.179  1.00  0.00     0.226 C 
ATOM      6  O   UNL A   1      34.124  26.493  24.510  1.00  0.00    -0.274 OA
ATOM      7  H   UNL A   1      33.969  27.276  26.691  1.00  0.00     0.163 HD
BRANCH   5   8
ATOM      8  C   UNL A   1      31.923  25.464  24.650  1.00  0.00     0.053 C 
ATOM      9  C   UNL A   1      30.731  27.498  23.484  1.00  0.00    -0.010 C 
ATOM     10  C   UNL A   1      31.170  26.951  22.116  1.00  0.00     0.003 C 
ATOM     11  C   UNL A   1      30.646  26.384  24.549  1.00  0.00     0.020 C 
ATOM     12  C   UNL A   1      32.364  26.013  22.201  1.00  0.00     0.001 C 
ATOM     13  C   UNL A   1      32.115  24.905  23.223  1.00  0.00     0.017 C 
BRANCH   9  14
ATOM     14  C   UNL A   1      29.393  28.249  23.309  1.00  0.00     0.000 C 
ATOM     15  C   UNL A   1      29.501  29.579  22.578  1.00  0.00     0.004 C 
ENDBRANCH   9  14
BRANCH   8  16
ATOM     16  C   UNL A   1      31.548  24.377  25.709  1.00  0.00     0.052 C 
BRANCH  16  17
ATOM     17  C   UNL A   1      32.275  23.056  25.704  1.00  0.00    -0.043 A 
ATOM     18  C   UNL A   1      31.671  21.908  25.167  1.00  0.00     0.004 A 
ATOM     19  C   UNL A   1      33.568  22.948  26.234  1.00  0.00     0.049 A 
ATOM     20  C   UNL A   1      32.326  20.672  25.207  1.00  0.00     0.004 A 
ATOM     21  C   UNL A   1      34.211  21.713  26.270  1.00  0.00     0.115 A 
ATOM     22  C   UNL A   1      33.598  20.571  25.769  1.00  0.00     0.046 A 
BRANCH  21  23
ATOM     23  O   UNL A   1      35.453  21.665  26.830  1.00  0.00    -0.508 OA
ATOM     24  H   UNL A   1      35.546  21.573  27.758  1.00  0.00     0.293 HD
ENDBRANCH  21  23
ENDBRANCH  16  17
ENDBRANCH   8  16
ENDBRANCH   5   8
ENDBRANCH   3   4
ENDBRANCH   2   3
ENDBRANCH   1   2
BRANCH   1  25
ATOM     25  C   UNL A   1      31.417  30.964  25.720  1.00  0.00     0.002 C 
BRANCH  25  26
ATOM     26  C   UNL A   1      31.389  31.944  26.897  1.00  0.00     0.021 C 
BRANCH  26  27
ATOM     27  C   UNL A   1      32.718  32.620  27.216  1.00  0.00     0.116 C 
BRANCH  27  28
ATOM     28  N   UNL A   1      32.549  34.004  27.625  1.00  0.00    -0.352 N 
ATOM     29  C   UNL A   1      33.180  34.709  28.615  1.00  0.00     0.251 C 
ATOM     30  H   UNL A   1      31.879  34.512  27.112  1.00  0.00     0.163 HD
ATOM     31  O   UNL A   1      32.765  35.830  28.916  1.00  0.00    -0.269 OA
BRANCH  29  32
ATOM     32  C   UNL A   1      34.337  34.134  29.336  1.00  0.00     0.039 A 
ATOM     33  C   UNL A   1      34.097  33.304  30.434  1.00  0.00     0.014 A 
ATOM     34  C   UNL A   1      35.650  34.430  28.959  1.00  0.00     0.014 A 
ATOM     35  C   UNL A   1      35.170  32.736  31.124  1.00  0.00     0.010 A 
ATOM     36  C   UNL A   1      36.717  33.805  29.602  1.00  0.00     0.010 A 
ATOM     37  C   UNL A   1      36.489  32.960  30.698  1.00  0.00    -0.014 A 
BRANCH  37  38
ATOM     38  C   UNL A   1      37.632  32.304  31.381  1.00  0.00     0.031 A 
ATOM     39  C   UNL A   1      38.360  31.159  30.732  1.00  0.00     0.074 A 
ATOM     40  C   UNL A   1      37.969  32.692  32.627  1.00  0.00     0.049 A 
ATOM     41  N   UNL A   1      39.369  30.460  31.187  1.00  0.00    -0.248 NA
ATOM     42  C   UNL A   1      37.877  30.723  29.412  1.00  0.00     0.031 C 
ATOM     43  C   UNL A   1      37.279  33.725  33.402  1.00  0.00     0.029 A 
ATOM     44  N   UNL A   1      38.957  32.248  33.469  1.00  0.00    -0.354 N 
ATOM     45  C   UNL A   1      39.624  29.488  30.227  1.00  0.00     0.074 A 
ATOM     46  C   UNL A   1      38.635  29.660  29.184  1.00  0.00     0.031 C 
ATOM     47  C   UNL A   1      37.865  33.836  34.604  1.00  0.00     0.029 A 
ATOM     48  C   UNL A   1      38.955  32.868  34.694  1.00  0.00     0.049 A 
ATOM     49  H   UNL A   1      39.606  31.552  33.218  1.00  0.00     0.167 HD
ATOM     50  C   UNL A   1      40.608  28.559  30.196  1.00  0.00     0.034 A 
ATOM     51  C   UNL A   1      39.736  32.678  35.776  1.00  0.00     0.034 A 
ATOM     52  C   UNL A   1      41.608  28.411  31.221  1.00  0.00     0.049 A 
ATOM     53  C   UNL A   1      40.855  31.677  35.703  1.00  0.00     0.074 A 
ATOM     54  C   UNL A   1      42.702  27.564  31.242  1.00  0.00     0.029 A 
ATOM     55  N   UNL A   1      41.631  29.120  32.413  1.00  0.00    -0.354 N 
ATOM     56  N   UNL A   1      41.187  30.886  34.713  1.00  0.00    -0.248 NA
ATOM     57  C   UNL A   1      41.731  31.572  36.877  1.00  0.00     0.031 C 
ATOM     58  C   UNL A   1      43.370  27.742  32.459  1.00  0.00     0.029 A 
ATOM     59  C   UNL A   1      42.710  28.721  33.184  1.00  0.00     0.049 A 
ATOM     60  H   UNL A   1      40.975  29.806  32.673  1.00  0.00     0.167 HD
ATOM     61  C   UNL A   1      42.324  30.204  35.134  1.00  0.00     0.074 A 
ATOM     62  C   UNL A   1      42.638  30.699  36.459  1.00  0.00     0.031 C 
ATOM     63  C   UNL A   1      43.033  29.245  34.487  1.00  0.00     0.034 A 
BRANCH  50  64
ATOM     64  C   UNL A   1      40.681  27.665  28.984  1.00  0.00     0.023 A 
ATOM     65  C   UNL A   1      39.775  26.591  28.858  1.00  0.00     0.012 A 
ATOM     66  C   UNL A   1      41.620  27.897  27.959  1.00  0.00     0.148 A 
ATOM     67  C   UNL A   1      39.830  25.736  27.758  1.00  0.00     0.002 A 
ATOM     68  C   UNL A   1      41.638  27.068  26.843  1.00  0.00     0.091 A 
ATOM     69  F   UNL A   1      42.489  28.907  28.102  1.00  0.00    -0.205 F 
ATOM     70  C   UNL A   1      40.755  25.979  26.747  1.00  0.00     0.022 A 
BRANCH  68  71
ATOM     71  S   UNL A   1      42.740  27.348  25.451  1.00  0.00     0.127 S 
ATOM     72  O   UNL A   1      42.614  26.089  24.717  1.00  0.00    -0.237 OA
ATOM     73  O   UNL A   1      42.122  28.500  24.794  1.00  0.00    -0.237 OA
ATOM     74  O   UNL A   1      44.049  27.613  26.028  1.00  0.00    -0.744 OA
ENDBRANCH  68  71
ENDBRANCH  50  64
BRANCH  51  75
ATOM     75  C   UNL A   1      39.514  33.509  36.991  1.00  0.00     0.023 A 
ATOM     76  C   UNL A   1      39.954  34.846  37.010  1.00  0.00     0.012 A 
ATOM     77  C   UNL A   1      38.807  33.001  38.098  1.00  0.00     0.148 A 
ATOM     78  C   UNL A   1      39.710  35.658  38.120  1.00  0.00     0.002 A 
ATOM     79  C   UNL A   1      38.515  33.831  39.173  1.00  0.00     0.091 A 
ATOM     80  F   UNL A   1      38.406  31.722  38.060  1.00  0.00    -0.205 F 
ATOM     81  C   UNL A   1      38.980  35.155  39.194  1.00  0.00     0.022 A 
BRANCH  79  82
ATOM     82  S   UNL A   1      37.453  33.312  40.526  1.00  0.00     0.127 S 
ATOM     83  O   UNL A   1      36.232  32.932  39.819  1.00  0.00    -0.237 OA
ATOM     84  O   UNL A   1      38.211  32.197  41.093  1.00  0.00    -0.237 OA
ATOM     85  O   UNL A   1      37.342  34.467  41.406  1.00  0.00    -0.744 OA
ENDBRANCH  79  82
ENDBRANCH  51  75
BRANCH  63  86
ATOM     86  C   UNL A   1      44.230  28.670  35.199  1.00  0.00     0.023 A 
ATOM     87  C   UNL A   1      45.513  29.200  34.953  1.00  0.00     0.012 A 
ATOM     88  C   UNL A   1      44.079  27.647  36.158  1.00  0.00     0.148 A 
ATOM     89  C   UNL A   1      46.629  28.699  35.621  1.00  0.00     0.002 A 
ATOM     90  C   UNL A   1      45.189  27.187  36.855  1.00  0.00     0.091 A 
ATOM     91  F   UNL A   1      42.854  27.141  36.365  1.00  0.00    -0.205 F 
ATOM     92  C   UNL A   1      46.466  27.703  36.580  1.00  0.00     0.022 A 
BRANCH  90  93
ATOM     93  S   UNL A   1      45.062  25.972  38.172  1.00  0.00     0.127 S 
ATOM     94  O   UNL A   1      44.137  26.627  39.095  1.00  0.00    -0.237 OA
ATOM     95  O   UNL A   1      44.507  24.812  37.473  1.00  0.00    -0.237 OA
ATOM     96  O   UNL A   1      46.417  25.781  38.673  1.00  0.00    -0.744 OA
ENDBRANCH  90  93
ENDBRANCH  63  86
ENDBRANCH  37  38
ENDBRANCH  29  32
ENDBRANCH  27  28
ENDBRANCH  26  27
ENDBRANCH  25  26
ENDBRANCH   1  25
TORSDOF 20
ENDMDL
