MODEL 1
REMARK VINA RESULT:     -11.0      0.000      0.000
REMARK SMILES CC(C)[C@H](NC(=O)CCNC(=O)c1ccoc1)C(=O)NCCCCCCNC(=O)c1ccc(-c2c3nc(c(-c4cccc(S(=O)(=O)[O-])c4F)c4ccc([nH]4)c(-c4cccc(S(=O)(=O)[O-])c4F)c4nc(c(-c5cccc(S(=O)(=O)[O-])c5F)c5ccc2[nH]5)C=C4)C=C3)cc1
REMARK SMILES IDX 22 1 21 2 20 3 18 4 19 5 4 7 2 8 1 9 3 10 5 11 6 12 7 14
REMARK SMILES IDX 8 15 9 16 10 17 11 18 12 20 13 21 14 22 17 23 15 24 16 25
REMARK SMILES IDX 23 26 24 27 25 28 26 29 27 30 28 31 29 33 30 34 31 35 92 36
REMARK SMILES IDX 32 37 91 38 33 39 34 40 35 41 85 42 36 43 90 44 84 45 86 46
REMARK SMILES IDX 37 47 89 48 83 49 82 50 38 52 70 53 50 54 69 55 51 56 54 57
REMARK SMILES IDX 68 58 87 59 52 60 53 61 67 63 88 64 55 65 39 66 40 67 48 68
REMARK SMILES IDX 41 69 43 70 49 71 42 72 44 73 45 74 46 75 47 76 71 77 72 78
REMARK SMILES IDX 80 79 73 80 75 81 81 82 74 83 76 84 77 85 78 86 79 87 56 88
REMARK SMILES IDX 57 89 65 90 58 91 60 92 66 93 59 94 61 95 62 96 63 97 64 98
REMARK H PARENT 20 6 5 13 10 19 27 32 86 51 54 62
REMARK Flexibility Score: inf
ROOT
ATOM      1  C   UNL A   1      31.804  25.445  25.785  1.00  0.00     0.021 C 
ENDROOT
BRANCH   1   2
ATOM      2  C   UNL A   1      31.606  24.217  26.702  1.00  0.00     0.116 C 
BRANCH   2   3
ATOM      3  N   UNL A   1      32.497  23.050  26.361  1.00  0.00    -0.354 N 
ATOM      4  C   UNL A   1      33.887  22.939  26.506  1.00  0.00     0.242 C 
ATOM      5  O   UNL A   1      34.289  22.454  27.575  1.00  0.00    -0.273 OA
ATOM      6  H   UNL A   1      32.042  22.260  25.988  1.00  0.00     0.163 HD
BRANCH   4   7
ATOM      7  C   UNL A   1      34.942  23.105  25.258  1.00  0.00     0.173 C 
BRANCH   7   8
ATOM      8  C   UNL A   1      36.484  22.675  25.255  1.00  0.00     0.015 C 
ATOM      9  C   UNL A   1      37.009  22.363  23.843  1.00  0.00     0.010 C 
ATOM     10  C   UNL A   1      37.494  23.681  25.848  1.00  0.00     0.010 C 
ENDBRANCH   7   8
BRANCH   7  11
ATOM     11  N   UNL A   1      34.601  24.171  24.312  1.00  0.00    -0.344 N 
ATOM     12  C   UNL A   1      33.979  24.240  23.120  1.00  0.00     0.222 C 
ATOM     13  H   UNL A   1      34.900  25.056  24.627  1.00  0.00     0.164 HD
ATOM     14  O   UNL A   1      33.817  25.384  22.676  1.00  0.00    -0.275 OA
BRANCH  12  15
ATOM     15  C   UNL A   1      33.423  23.046  22.347  1.00  0.00     0.121 C 
BRANCH  15  16
ATOM     16  C   UNL A   1      32.330  22.244  23.029  1.00  0.00     0.126 C 
BRANCH  16  17
ATOM     17  N   UNL A   1      32.074  20.813  22.816  1.00  0.00    -0.351 N 
ATOM     18  C   UNL A   1      32.274  19.912  23.865  1.00  0.00     0.254 C 
ATOM     19  H   UNL A   1      31.764  20.491  21.939  1.00  0.00     0.163 HD
ATOM     20  O   UNL A   1      32.017  20.156  25.028  1.00  0.00    -0.269 OA
BRANCH  18  21
ATOM     21  C   UNL A   1      33.036  18.713  23.622  1.00  0.00     0.077 A 
ATOM     22  C   UNL A   1      33.992  18.168  24.539  1.00  0.00     0.056 A 
ATOM     23  C   UNL A   1      32.837  17.738  22.678  1.00  0.00     0.208 A 
ATOM     24  C   UNL A   1      34.358  16.944  24.046  1.00  0.00     0.195 A 
ATOM     25  O   UNL A   1      33.654  16.672  22.917  1.00  0.00    -0.472 OA
ENDBRANCH  18  21
ENDBRANCH  16  17
ENDBRANCH  15  16
ENDBRANCH  12  15
ENDBRANCH   7  11
ENDBRANCH   4   7
ENDBRANCH   2   3
ENDBRANCH   1   2
BRANCH   1  26
ATOM     26  C   UNL A   1      30.877  26.652  26.055  1.00  0.00     0.002 C 
BRANCH  26  27
ATOM     27  C   UNL A   1      31.488  28.043  26.296  1.00  0.00     0.002 C 
BRANCH  27  28
ATOM     28  C   UNL A   1      32.429  28.637  25.240  1.00  0.00     0.021 C 
BRANCH  28  29
ATOM     29  C   UNL A   1      33.633  29.428  25.743  1.00  0.00     0.116 C 
BRANCH  29  30
ATOM     30  N   UNL A   1      33.273  30.742  26.249  1.00  0.00    -0.352 N 
ATOM     31  C   UNL A   1      33.808  31.467  27.284  1.00  0.00     0.251 C 
ATOM     32  H   UNL A   1      32.531  31.182  25.774  1.00  0.00     0.163 HD
ATOM     33  O   UNL A   1      33.259  32.505  27.646  1.00  0.00    -0.269 OA
BRANCH  31  34
ATOM     34  C   UNL A   1      35.030  31.002  27.975  1.00  0.00     0.039 A 
ATOM     35  C   UNL A   1      35.008  29.766  28.631  1.00  0.00     0.014 A 
ATOM     36  C   UNL A   1      36.181  31.793  28.010  1.00  0.00     0.014 A 
ATOM     37  C   UNL A   1      36.155  29.303  29.280  1.00  0.00     0.010 A 
ATOM     38  C   UNL A   1      37.343  31.300  28.599  1.00  0.00     0.010 A 
ATOM     39  C   UNL A   1      37.338  30.058  29.251  1.00  0.00    -0.014 A 
BRANCH  39  40
ATOM     40  C   UNL A   1      38.575  29.575  29.914  1.00  0.00     0.031 A 
ATOM     41  C   UNL A   1      38.983  30.142  31.248  1.00  0.00     0.074 A 
ATOM     42  C   UNL A   1      39.371  28.694  29.278  1.00  0.00     0.049 A 
ATOM     43  N   UNL A   1      40.052  29.894  31.958  1.00  0.00    -0.248 NA
ATOM     44  C   UNL A   1      38.084  31.142  31.850  1.00  0.00     0.031 C 
ATOM     45  C   UNL A   1      39.119  28.137  27.947  1.00  0.00     0.029 A 
ATOM     46  N   UNL A   1      40.565  28.132  29.652  1.00  0.00    -0.354 N 
ATOM     47  C   UNL A   1      39.975  30.730  33.067  1.00  0.00     0.074 A 
ATOM     48  C   UNL A   1      38.773  31.520  32.917  1.00  0.00     0.031 C 
ATOM     49  C   UNL A   1      40.126  27.312  27.617  1.00  0.00     0.029 A 
ATOM     50  C   UNL A   1      41.105  27.298  28.699  1.00  0.00     0.049 A 
ATOM     51  H   UNL A   1      40.995  28.308  30.520  1.00  0.00     0.167 HD
ATOM     52  C   UNL A   1      40.811  30.810  34.129  1.00  0.00     0.034 A 
ATOM     53  C   UNL A   1      42.260  26.604  28.700  1.00  0.00     0.034 A 
ATOM     54  C   UNL A   1      41.976  29.985  34.292  1.00  0.00     0.049 A 
ATOM     55  C   UNL A   1      43.143  26.669  29.918  1.00  0.00     0.074 A 
ATOM     56  C   UNL A   1      42.842  29.920  35.369  1.00  0.00     0.029 A 
ATOM     57  N   UNL A   1      42.439  29.080  33.350  1.00  0.00    -0.354 N 
ATOM     58  N   UNL A   1      42.971  27.347  31.025  1.00  0.00    -0.248 NA
ATOM     59  C   UNL A   1      44.359  25.843  29.901  1.00  0.00     0.031 C 
ATOM     60  C   UNL A   1      43.840  28.986  35.069  1.00  0.00     0.029 A 
ATOM     61  C   UNL A   1      43.582  28.454  33.817  1.00  0.00     0.049 A 
ATOM     62  H   UNL A   1      42.017  28.907  32.477  1.00  0.00     0.167 HD
ATOM     63  C   UNL A   1      44.034  27.005  31.853  1.00  0.00     0.074 A 
ATOM     64  C   UNL A   1      44.833  26.041  31.124  1.00  0.00     0.031 C 
ATOM     65  C   UNL A   1      44.332  27.456  33.097  1.00  0.00     0.034 A 
BRANCH  52  66
ATOM     66  C   UNL A   1      40.459  31.784  35.225  1.00  0.00     0.023 A 
ATOM     67  C   UNL A   1      41.203  32.975  35.361  1.00  0.00     0.012 A 
ATOM     68  C   UNL A   1      39.370  31.549  36.086  1.00  0.00     0.148 A 
ATOM     69  C   UNL A   1      40.894  33.898  36.359  1.00  0.00     0.002 A 
ATOM     70  C   UNL A   1      39.039  32.497  37.050  1.00  0.00     0.091 A 
ATOM     71  F   UNL A   1      38.687  30.404  35.958  1.00  0.00    -0.205 F 
ATOM     72  C   UNL A   1      39.808  33.663  37.196  1.00  0.00     0.022 A 
BRANCH  70  73
ATOM     73  S   UNL A   1      37.612  32.327  38.128  1.00  0.00     0.127 S 
ATOM     74  O   UNL A   1      36.587  33.051  37.378  1.00  0.00    -0.237 OA
ATOM     75  O   UNL A   1      37.428  30.876  38.167  1.00  0.00    -0.237 OA
ATOM     76  O   UNL A   1      37.996  32.924  39.399  1.00  0.00    -0.744 OA
ENDBRANCH  70  73
ENDBRANCH  52  66
BRANCH  53  77
ATOM     77  C   UNL A   1      42.604  25.729  27.544  1.00  0.00     0.023 A 
ATOM     78  C   UNL A   1      43.443  26.224  26.528  1.00  0.00     0.012 A 
ATOM     79  C   UNL A   1      42.138  24.401  27.462  1.00  0.00     0.148 A 
ATOM     80  C   UNL A   1      43.786  25.428  25.434  1.00  0.00     0.002 A 
ATOM     81  C   UNL A   1      42.529  23.595  26.398  1.00  0.00     0.091 A 
ATOM     82  F   UNL A   1      41.332  23.949  28.432  1.00  0.00    -0.205 F 
ATOM     83  C   UNL A   1      43.338  24.111  25.374  1.00  0.00     0.022 A 
BRANCH  81  84
ATOM     84  S   UNL A   1      42.111  21.849  26.313  1.00  0.00     0.127 S 
ATOM     85  O   UNL A   1      42.418  21.401  27.668  1.00  0.00    -0.237 OA
ATOM     86  O   UNL A   1      40.684  21.895  25.986  1.00  0.00    -0.237 OA
ATOM     87  O   UNL A   1      42.947  21.298  25.254  1.00  0.00    -0.744 OA
ENDBRANCH  81  84
ENDBRANCH  53  77
BRANCH  65  88
ATOM     88  C   UNL A   1      45.555  26.891  33.768  1.00  0.00     0.023 A 
ATOM     89  C   UNL A   1      46.782  27.576  33.677  1.00  0.00     0.012 A 
ATOM     90  C   UNL A   1      45.468  25.727  34.556  1.00  0.00     0.148 A 
ATOM     91  C   UNL A   1      47.912  27.093  34.335  1.00  0.00     0.002 A 
ATOM     92  C   UNL A   1      46.584  25.279  35.248  1.00  0.00     0.091 A 
ATOM     93  F   UNL A   1      44.293  25.080  34.612  1.00  0.00    -0.205 F 
ATOM     94  C   UNL A   1      47.811  25.952  35.130  1.00  0.00     0.022 A 
BRANCH  92  95
ATOM     95  S   UNL A   1      46.521  23.877  36.372  1.00  0.00     0.127 S 
ATOM     96  O   UNL A   1      46.400  22.756  35.442  1.00  0.00    -0.237 OA
ATOM     97  O   UNL A   1      47.812  23.969  37.054  1.00  0.00    -0.237 OA
ATOM     98  O   UNL A   1      45.368  24.106  37.231  1.00  0.00    -0.744 OA
ENDBRANCH  92  95
ENDBRANCH  65  88
ENDBRANCH  39  40
ENDBRANCH  31  34
ENDBRANCH  29  30
ENDBRANCH  28  29
ENDBRANCH  27  28
ENDBRANCH  26  27
ENDBRANCH   1  26
TORSDOF 22
ENDMDL
MODEL 2
REMARK VINA RESULT:     -10.8      2.202      3.643
REMARK SMILES CC(C)[C@H](NC(=O)CCNC(=O)c1ccoc1)C(=O)NCCCCCCNC(=O)c1ccc(-c2c3nc(c(-c4cccc(S(=O)(=O)[O-])c4F)c4ccc([nH]4)c(-c4cccc(S(=O)(=O)[O-])c4F)c4nc(c(-c5cccc(S(=O)(=O)[O-])c5F)c5ccc2[nH]5)C=C4)C=C3)cc1
REMARK SMILES IDX 22 1 21 2 20 3 18 4 19 5 4 7 2 8 1 9 3 10 5 11 6 12 7 14
REMARK SMILES IDX 8 15 9 16 10 17 11 18 12 20 13 21 14 22 17 23 15 24 16 25
REMARK SMILES IDX 23 26 24 27 25 28 26 29 27 30 28 31 29 33 30 34 31 35 92 36
REMARK SMILES IDX 32 37 91 38 33 39 34 40 35 41 85 42 36 43 90 44 84 45 86 46
REMARK SMILES IDX 37 47 89 48 83 49 82 50 38 52 70 53 50 54 69 55 51 56 54 57
REMARK SMILES IDX 68 58 87 59 52 60 53 61 67 63 88 64 55 65 39 66 40 67 48 68
REMARK SMILES IDX 41 69 43 70 49 71 42 72 44 73 45 74 46 75 47 76 71 77 72 78
REMARK SMILES IDX 80 79 73 80 75 81 81 82 74 83 76 84 77 85 78 86 79 87 56 88
REMARK SMILES IDX 57 89 65 90 58 91 60 92 66 93 59 94 61 95 62 96 63 97 64 98
REMARK H PARENT 20 6 5 13 10 19 27 32 86 51 54 62
REMARK Flexibility Score: inf
ROOT
ATOM      1  C   UNL A   1      30.589  24.708  25.605  1.00  0.00     0.021 C 
ENDROOT
BRANCH   1   2
ATOM      2  C   UNL A   1      30.096  23.616  26.580  1.00  0.00     0.116 C 
BRANCH   2   3
ATOM      3  N   UNL A   1      31.068  22.479  26.766  1.00  0.00    -0.354 N 
ATOM      4  C   UNL A   1      32.434  22.539  27.077  1.00  0.00     0.242 C 
ATOM      5  O   UNL A   1      32.724  22.491  28.283  1.00  0.00    -0.273 OA
ATOM      6  H   UNL A   1      30.695  21.574  26.655  1.00  0.00     0.163 HD
BRANCH   4   7
ATOM      7  C   UNL A   1      33.625  22.345  25.963  1.00  0.00     0.173 C 
BRANCH   7   8
ATOM      8  C   UNL A   1      34.601  21.083  25.826  1.00  0.00     0.015 C 
ATOM      9  C   UNL A   1      34.037  19.997  24.893  1.00  0.00     0.010 C 
ATOM     10  C   UNL A   1      36.031  21.354  25.311  1.00  0.00     0.010 C 
ENDBRANCH   7   8
BRANCH   7  11
ATOM     11  N   UNL A   1      34.162  23.597  25.424  1.00  0.00    -0.344 N 
ATOM     12  C   UNL A   1      34.342  24.120  24.197  1.00  0.00     0.222 C 
ATOM     13  H   UNL A   1      34.466  24.206  26.136  1.00  0.00     0.164 HD
ATOM     14  O   UNL A   1      34.768  25.282  24.178  1.00  0.00    -0.275 OA
BRANCH  12  15
ATOM     15  C   UNL A   1      34.004  23.420  22.882  1.00  0.00     0.121 C 
BRANCH  15  16
ATOM     16  C   UNL A   1      32.545  23.427  22.466  1.00  0.00     0.126 C 
BRANCH  16  17
ATOM     17  N   UNL A   1      31.740  24.634  22.226  1.00  0.00    -0.351 N 
ATOM     18  C   UNL A   1      32.337  25.761  21.656  1.00  0.00     0.254 C 
ATOM     19  H   UNL A   1      30.786  24.648  22.467  1.00  0.00     0.163 HD
ATOM     20  O   UNL A   1      33.185  25.713  20.785  1.00  0.00    -0.269 OA
BRANCH  18  21
ATOM     21  C   UNL A   1      32.131  27.048  22.270  1.00  0.00     0.077 A 
ATOM     22  C   UNL A   1      30.876  27.498  22.794  1.00  0.00     0.056 A 
ATOM     23  C   UNL A   1      33.061  27.951  22.721  1.00  0.00     0.208 A 
ATOM     24  C   UNL A   1      31.123  28.672  23.454  1.00  0.00     0.195 A 
ATOM     25  O   UNL A   1      32.451  28.951  23.421  1.00  0.00    -0.472 OA
ENDBRANCH  18  21
ENDBRANCH  16  17
ENDBRANCH  15  16
ENDBRANCH  12  15
ENDBRANCH   7  11
ENDBRANCH   4   7
ENDBRANCH   2   3
ENDBRANCH   1   2
BRANCH   1  26
ATOM     26  C   UNL A   1      30.912  26.084  26.232  1.00  0.00     0.002 C 
BRANCH  26  27
ATOM     27  C   UNL A   1      32.374  26.553  26.326  1.00  0.00     0.002 C 
BRANCH  27  28
ATOM     28  C   UNL A   1      32.673  27.957  26.867  1.00  0.00     0.021 C 
BRANCH  28  29
ATOM     29  C   UNL A   1      34.044  28.549  26.553  1.00  0.00     0.116 C 
BRANCH  29  30
ATOM     30  N   UNL A   1      34.080  29.995  26.695  1.00  0.00    -0.352 N 
ATOM     31  C   UNL A   1      34.966  30.794  27.375  1.00  0.00     0.251 C 
ATOM     32  H   UNL A   1      33.358  30.477  26.232  1.00  0.00     0.163 HD
ATOM     33  O   UNL A   1      34.734  31.994  27.493  1.00  0.00    -0.269 OA
BRANCH  31  34
ATOM     34  C   UNL A   1      36.189  30.218  27.977  1.00  0.00     0.039 A 
ATOM     35  C   UNL A   1      36.116  29.669  29.262  1.00  0.00     0.014 A 
ATOM     36  C   UNL A   1      37.408  30.251  27.298  1.00  0.00     0.014 A 
ATOM     37  C   UNL A   1      37.256  29.110  29.845  1.00  0.00     0.010 A 
ATOM     38  C   UNL A   1      38.527  29.634  27.851  1.00  0.00     0.010 A 
ATOM     39  C   UNL A   1      38.466  29.070  29.135  1.00  0.00    -0.014 A 
BRANCH  39  40
ATOM     40  C   UNL A   1      39.684  28.461  29.725  1.00  0.00     0.031 A 
ATOM     41  C   UNL A   1      40.430  29.179  30.818  1.00  0.00     0.074 A 
ATOM     42  C   UNL A   1      40.164  27.308  29.219  1.00  0.00     0.049 A 
ATOM     43  N   UNL A   1      41.540  28.842  31.419  1.00  0.00    -0.248 NA
ATOM     44  C   UNL A   1      39.867  30.461  31.277  1.00  0.00     0.031 C 
ATOM     45  C   UNL A   1      39.572  26.563  28.105  1.00  0.00     0.029 A 
ATOM     46  N   UNL A   1      41.273  26.575  29.555  1.00  0.00    -0.354 N 
ATOM     47  C   UNL A   1      41.830  29.882  32.295  1.00  0.00     0.074 A 
ATOM     48  C   UNL A   1      40.798  30.880  32.121  1.00  0.00     0.031 C 
ATOM     49  C   UNL A   1      40.321  25.478  27.853  1.00  0.00     0.029 A 
ATOM     50  C   UNL A   1      41.458  25.461  28.767  1.00  0.00     0.049 A 
ATOM     51  H   UNL A   1      41.879  26.820  30.291  1.00  0.00     0.167 HD
ATOM     52  C   UNL A   1      42.844  29.982  33.187  1.00  0.00     0.034 A 
ATOM     53  C   UNL A   1      42.436  24.534  28.781  1.00  0.00     0.034 A 
ATOM     54  C   UNL A   1      43.835  28.962  33.388  1.00  0.00     0.049 A 
ATOM     55  C   UNL A   1      43.521  24.641  29.820  1.00  0.00     0.074 A 
ATOM     56  C   UNL A   1      44.852  28.921  34.325  1.00  0.00     0.029 A 
ATOM     57  N   UNL A   1      43.934  27.800  32.637  1.00  0.00    -0.354 N 
ATOM     58  N   UNL A   1      43.688  25.553  30.746  1.00  0.00    -0.248 NA
ATOM     59  C   UNL A   1      44.528  23.572  29.842  1.00  0.00     0.031 C 
ATOM     60  C   UNL A   1      45.578  27.741  34.128  1.00  0.00     0.029 A 
ATOM     61  C   UNL A   1      44.998  27.037  33.085  1.00  0.00     0.049 A 
ATOM     62  H   UNL A   1      43.336  27.555  31.894  1.00  0.00     0.167 HD
ATOM     63  C   UNL A   1      44.795  25.151  31.484  1.00  0.00     0.074 A 
ATOM     64  C   UNL A   1      45.245  23.900  30.908  1.00  0.00     0.031 C 
ATOM     65  C   UNL A   1      45.396  25.767  32.532  1.00  0.00     0.034 A 
BRANCH  52  66
ATOM     66  C   UNL A   1      42.893  31.215  34.055  1.00  0.00     0.023 A 
ATOM     67  C   UNL A   1      43.533  32.376  33.575  1.00  0.00     0.012 A 
ATOM     68  C   UNL A   1      42.270  31.242  35.317  1.00  0.00     0.148 A 
ATOM     69  C   UNL A   1      43.586  33.533  34.351  1.00  0.00     0.002 A 
ATOM     70  C   UNL A   1      42.287  32.415  36.067  1.00  0.00     0.091 A 
ATOM     71  F   UNL A   1      41.685  30.124  35.768  1.00  0.00    -0.205 F 
ATOM     72  C   UNL A   1      42.956  33.555  35.591  1.00  0.00     0.022 A 
BRANCH  70  73
ATOM     73  S   UNL A   1      41.439  32.571  37.642  1.00  0.00     0.127 S 
ATOM     74  O   UNL A   1      42.147  31.586  38.458  1.00  0.00    -0.237 OA
ATOM     75  O   UNL A   1      41.709  33.964  38.000  1.00  0.00    -0.237 OA
ATOM     76  O   UNL A   1      40.039  32.274  37.377  1.00  0.00    -0.744 OA
ENDBRANCH  70  73
ENDBRANCH  52  66
BRANCH  53  77
ATOM     77  C   UNL A   1      42.387  23.385  27.834  1.00  0.00     0.023 A 
ATOM     78  C   UNL A   1      41.319  22.471  27.911  1.00  0.00     0.012 A 
ATOM     79  C   UNL A   1      43.368  23.211  26.837  1.00  0.00     0.148 A 
ATOM     80  C   UNL A   1      41.244  21.386  27.036  1.00  0.00     0.002 A 
ATOM     81  C   UNL A   1      43.257  22.160  25.933  1.00  0.00     0.091 A 
ATOM     82  F   UNL A   1      44.384  24.084  26.785  1.00  0.00    -0.205 F 
ATOM     83  C   UNL A   1      42.207  21.236  26.041  1.00  0.00     0.022 A 
BRANCH  81  84
ATOM     84  S   UNL A   1      44.375  21.972  24.538  1.00  0.00     0.127 S 
ATOM     85  O   UNL A   1      43.764  22.849  23.544  1.00  0.00    -0.237 OA
ATOM     86  O   UNL A   1      45.640  22.457  25.096  1.00  0.00    -0.237 OA
ATOM     87  O   UNL A   1      44.370  20.549  24.222  1.00  0.00    -0.744 OA
ENDBRANCH  81  84
ENDBRANCH  53  77
BRANCH  65  88
ATOM     88  C   UNL A   1      46.586  25.085  33.152  1.00  0.00     0.023 A 
ATOM     89  C   UNL A   1      47.887  25.468  32.774  1.00  0.00     0.012 A 
ATOM     90  C   UNL A   1      46.414  24.123  34.166  1.00  0.00     0.148 A 
ATOM     91  C   UNL A   1      49.000  24.881  33.375  1.00  0.00     0.002 A 
ATOM     92  C   UNL A   1      47.525  23.579  34.795  1.00  0.00     0.091 A 
ATOM     93  F   UNL A   1      45.165  23.759  34.497  1.00  0.00    -0.205 F 
ATOM     94  C   UNL A   1      48.820  23.947  34.393  1.00  0.00     0.022 A 
BRANCH  92  95
ATOM     95  S   UNL A   1      47.387  22.443  36.181  1.00  0.00     0.127 S 
ATOM     96  O   UNL A   1      48.766  22.392  36.663  1.00  0.00    -0.237 OA
ATOM     97  O   UNL A   1      46.457  23.146  37.066  1.00  0.00    -0.237 OA
ATOM     98  O   UNL A   1      46.870  21.199  35.629  1.00  0.00    -0.744 OA
ENDBRANCH  92  95
ENDBRANCH  65  88
ENDBRANCH  39  40
ENDBRANCH  31  34
ENDBRANCH  29  30
ENDBRANCH  28  29
ENDBRANCH  27  28
ENDBRANCH  26  27
ENDBRANCH   1  26
TORSDOF 22
ENDMDL
MODEL 3
REMARK VINA RESULT:     -10.5      1.859      8.219
REMARK SMILES CC(C)[C@H](NC(=O)CCNC(=O)c1ccoc1)C(=O)NCCCCCCNC(=O)c1ccc(-c2c3nc(c(-c4cccc(S(=O)(=O)[O-])c4F)c4ccc([nH]4)c(-c4cccc(S(=O)(=O)[O-])c4F)c4nc(c(-c5cccc(S(=O)(=O)[O-])c5F)c5ccc2[nH]5)C=C4)C=C3)cc1
REMARK SMILES IDX 22 1 21 2 20 3 18 4 19 5 4 7 2 8 1 9 3 10 5 11 6 12 7 14
REMARK SMILES IDX 8 15 9 16 10 17 11 18 12 20 13 21 14 22 17 23 15 24 16 25
REMARK SMILES IDX 23 26 24 27 25 28 26 29 27 30 28 31 29 33 30 34 31 35 92 36
REMARK SMILES IDX 32 37 91 38 33 39 34 40 35 41 85 42 36 43 90 44 84 45 86 46
REMARK SMILES IDX 37 47 89 48 83 49 82 50 38 52 70 53 50 54 69 55 51 56 54 57
REMARK SMILES IDX 68 58 87 59 52 60 53 61 67 63 88 64 55 65 39 66 40 67 48 68
REMARK SMILES IDX 41 69 43 70 49 71 42 72 44 73 45 74 46 75 47 76 71 77 72 78
REMARK SMILES IDX 80 79 73 80 75 81 81 82 74 83 76 84 77 85 78 86 79 87 56 88
REMARK SMILES IDX 57 89 65 90 58 91 60 92 66 93 59 94 61 95 62 96 63 97 64 98
REMARK H PARENT 20 6 5 13 10 19 27 32 86 51 54 62
REMARK Flexibility Score: inf
ROOT
ATOM      1  C   UNL A   1      30.799  24.221  25.818  1.00  0.00     0.021 C 
ENDROOT
BRANCH   1   2
ATOM      2  C   UNL A   1      31.506  23.587  27.037  1.00  0.00     0.116 C 
BRANCH   2   3
ATOM      3  N   UNL A   1      31.972  22.173  26.805  1.00  0.00    -0.354 N 
ATOM      4  C   UNL A   1      33.272  21.711  26.554  1.00  0.00     0.242 C 
ATOM      5  O   UNL A   1      33.934  21.371  27.547  1.00  0.00    -0.273 OA
ATOM      6  H   UNL A   1      31.271  21.482  26.835  1.00  0.00     0.163 HD
BRANCH   4   7
ATOM      7  C   UNL A   1      33.815  21.307  25.057  1.00  0.00     0.173 C 
BRANCH   7   8
ATOM      8  C   UNL A   1      33.287  20.098  24.150  1.00  0.00     0.015 C 
ATOM      9  C   UNL A   1      32.701  18.944  24.984  1.00  0.00     0.010 C 
ATOM     10  C   UNL A   1      32.204  20.429  23.102  1.00  0.00     0.010 C 
ENDBRANCH   7   8
BRANCH   7  11
ATOM     11  N   UNL A   1      35.189  21.731  24.775  1.00  0.00    -0.344 N 
ATOM     12  C   UNL A   1      35.770  22.657  23.991  1.00  0.00     0.222 C 
ATOM     13  H   UNL A   1      35.850  21.209  25.286  1.00  0.00     0.164 HD
ATOM     14  O   UNL A   1      36.999  22.751  24.108  1.00  0.00    -0.275 OA
BRANCH  12  15
ATOM     15  C   UNL A   1      35.028  23.608  23.053  1.00  0.00     0.121 C 
BRANCH  15  16
ATOM     16  C   UNL A   1      33.871  24.386  23.651  1.00  0.00     0.126 C 
BRANCH  16  17
ATOM     17  N   UNL A   1      32.755  24.961  22.888  1.00  0.00    -0.351 N 
ATOM     18  C   UNL A   1      32.931  26.172  22.213  1.00  0.00     0.254 C 
ATOM     19  H   UNL A   1      31.888  24.497  22.853  1.00  0.00     0.163 HD
ATOM     20  O   UNL A   1      33.958  26.489  21.645  1.00  0.00    -0.269 OA
BRANCH  18  21
ATOM     21  C   UNL A   1      31.949  27.214  22.375  1.00  0.00     0.077 A 
ATOM     22  C   UNL A   1      30.604  26.990  22.814  1.00  0.00     0.056 A 
ATOM     23  C   UNL A   1      32.129  28.573  22.426  1.00  0.00     0.208 A 
ATOM     24  C   UNL A   1      30.047  28.223  23.024  1.00  0.00     0.195 A 
ATOM     25  O   UNL A   1      30.971  29.192  22.797  1.00  0.00    -0.472 OA
ENDBRANCH  18  21
ENDBRANCH  16  17
ENDBRANCH  15  16
ENDBRANCH  12  15
ENDBRANCH   7  11
ENDBRANCH   4   7
ENDBRANCH   2   3
ENDBRANCH   1   2
BRANCH   1  26
ATOM     26  C   UNL A   1      30.671  25.762  25.831  1.00  0.00     0.002 C 
BRANCH  26  27
ATOM     27  C   UNL A   1      31.810  26.615  26.416  1.00  0.00     0.002 C 
BRANCH  27  28
ATOM     28  C   UNL A   1      31.588  28.120  26.614  1.00  0.00     0.021 C 
BRANCH  28  29
ATOM     29  C   UNL A   1      32.550  29.067  25.903  1.00  0.00     0.116 C 
BRANCH  29  30
ATOM     30  N   UNL A   1      32.220  30.467  26.110  1.00  0.00    -0.352 N 
ATOM     31  C   UNL A   1      32.821  31.408  26.908  1.00  0.00     0.251 C 
ATOM     32  H   UNL A   1      31.445  30.792  25.597  1.00  0.00     0.163 HD
ATOM     33  O   UNL A   1      32.294  32.508  27.053  1.00  0.00    -0.269 OA
BRANCH  31  34
ATOM     34  C   UNL A   1      34.091  31.103  27.604  1.00  0.00     0.039 A 
ATOM     35  C   UNL A   1      34.999  32.140  27.839  1.00  0.00     0.014 A 
ATOM     36  C   UNL A   1      34.404  29.798  27.989  1.00  0.00     0.014 A 
ATOM     37  C   UNL A   1      36.199  31.877  28.504  1.00  0.00     0.010 A 
ATOM     38  C   UNL A   1      35.568  29.548  28.711  1.00  0.00     0.010 A 
ATOM     39  C   UNL A   1      36.483  30.581  28.964  1.00  0.00    -0.014 A 
BRANCH  39  40
ATOM     40  C   UNL A   1      37.741  30.282  29.693  1.00  0.00     0.031 A 
ATOM     41  C   UNL A   1      38.753  29.343  29.091  1.00  0.00     0.074 A 
ATOM     42  C   UNL A   1      37.931  30.787  30.927  1.00  0.00     0.049 A 
ATOM     43  N   UNL A   1      39.880  28.912  29.595  1.00  0.00    -0.248 NA
ATOM     44  C   UNL A   1      38.442  28.792  27.761  1.00  0.00     0.031 C 
ATOM     45  C   UNL A   1      36.984  31.643  31.644  1.00  0.00     0.029 A 
ATOM     46  N   UNL A   1      38.970  30.632  31.809  1.00  0.00    -0.354 N 
ATOM     47  C   UNL A   1      40.393  28.015  28.665  1.00  0.00     0.074 A 
ATOM     48  C   UNL A   1      39.436  27.933  27.584  1.00  0.00     0.031 C 
ATOM     49  C   UNL A   1      37.487  31.941  32.853  1.00  0.00     0.029 A 
ATOM     50  C   UNL A   1      38.778  31.279  33.008  1.00  0.00     0.049 A 
ATOM     51  H   UNL A   1      39.779  30.109  31.603  1.00  0.00     0.167 HD
ATOM     52  C   UNL A   1      41.569  27.344  28.692  1.00  0.00     0.034 A 
ATOM     53  C   UNL A   1      39.555  31.329  34.108  1.00  0.00     0.034 A 
ATOM     54  C   UNL A   1      42.536  27.470  29.748  1.00  0.00     0.049 A 
ATOM     55  C   UNL A   1      40.883  30.619  34.090  1.00  0.00     0.074 A 
ATOM     56  C   UNL A   1      43.797  26.908  29.833  1.00  0.00     0.029 A 
ATOM     57  N   UNL A   1      42.349  28.213  30.904  1.00  0.00    -0.354 N 
ATOM     58  N   UNL A   1      41.421  29.902  33.134  1.00  0.00    -0.248 NA
ATOM     59  C   UNL A   1      41.727  30.757  35.284  1.00  0.00     0.031 C 
ATOM     60  C   UNL A   1      44.365  27.296  31.051  1.00  0.00     0.029 A 
ATOM     61  C   UNL A   1      43.468  28.119  31.712  1.00  0.00     0.049 A 
ATOM     62  H   UNL A   1      41.539  28.730  31.118  1.00  0.00     0.167 HD
ATOM     63  C   UNL A   1      42.679  29.533  33.594  1.00  0.00     0.074 A 
ATOM     64  C   UNL A   1      42.830  30.125  34.908  1.00  0.00     0.031 C 
ATOM     65  C   UNL A   1      43.619  28.762  32.993  1.00  0.00     0.034 A 
BRANCH  52  66
ATOM     66  C   UNL A   1      41.899  26.460  27.516  1.00  0.00     0.023 A 
ATOM     67  C   UNL A   1      42.551  27.012  26.394  1.00  0.00     0.012 A 
ATOM     68  C   UNL A   1      41.611  25.082  27.538  1.00  0.00     0.148 A 
ATOM     69  C   UNL A   1      42.876  26.217  25.296  1.00  0.00     0.002 A 
ATOM     70  C   UNL A   1      41.980  24.285  26.457  1.00  0.00     0.091 A 
ATOM     71  F   UNL A   1      40.973  24.577  28.602  1.00  0.00    -0.205 F 
ATOM     72  C   UNL A   1      42.599  24.853  25.332  1.00  0.00     0.022 A 
BRANCH  70  73
ATOM     73  S   UNL A   1      41.739  22.506  26.437  1.00  0.00     0.127 S 
ATOM     74  O   UNL A   1      40.281  22.405  26.424  1.00  0.00    -0.237 OA
ATOM     75  O   UNL A   1      42.388  22.122  25.184  1.00  0.00    -0.237 OA
ATOM     76  O   UNL A   1      42.390  21.999  27.637  1.00  0.00    -0.744 OA
ENDBRANCH  70  73
ENDBRANCH  52  66
BRANCH  53  77
ATOM     77  C   UNL A   1      39.133  32.143  35.282  1.00  0.00     0.023 A 
ATOM     78  C   UNL A   1      38.262  31.582  36.235  1.00  0.00     0.012 A 
ATOM     79  C   UNL A   1      39.616  33.453  35.482  1.00  0.00     0.148 A 
ATOM     80  C   UNL A   1      37.851  32.319  37.347  1.00  0.00     0.002 A 
ATOM     81  C   UNL A   1      39.246  34.160  36.621  1.00  0.00     0.091 A 
ATOM     82  F   UNL A   1      40.436  33.975  34.559  1.00  0.00    -0.205 F 
ATOM     83  C   UNL A   1      38.351  33.602  37.546  1.00  0.00     0.022 A 
BRANCH  81  84
ATOM     84  S   UNL A   1      39.950  35.764  37.024  1.00  0.00     0.127 S 
ATOM     85  O   UNL A   1      41.371  35.448  37.137  1.00  0.00    -0.237 OA
ATOM     86  O   UNL A   1      39.586  36.559  35.848  1.00  0.00    -0.237 OA
ATOM     87  O   UNL A   1      39.290  36.183  38.253  1.00  0.00    -0.744 OA
ENDBRANCH  81  84
ENDBRANCH  53  77
BRANCH  65  88
ATOM     88  C   UNL A   1      44.913  28.538  33.731  1.00  0.00     0.023 A 
ATOM     89  C   UNL A   1      45.969  29.457  33.584  1.00  0.00     0.012 A 
ATOM     90  C   UNL A   1      45.048  27.463  34.631  1.00  0.00     0.148 A 
ATOM     91  C   UNL A   1      47.155  29.291  34.299  1.00  0.00     0.002 A 
ATOM     92  C   UNL A   1      46.212  27.333  35.377  1.00  0.00     0.091 A 
ATOM     93  F   UNL A   1      44.035  26.589  34.740  1.00  0.00    -0.205 F 
ATOM     94  C   UNL A   1      47.271  28.238  35.204  1.00  0.00     0.022 A 
BRANCH  92  95
ATOM     95  S   UNL A   1      46.410  26.065  36.635  1.00  0.00     0.127 S 
ATOM     96  O   UNL A   1      46.221  24.842  35.858  1.00  0.00    -0.237 OA
ATOM     97  O   UNL A   1      47.781  26.293  37.091  1.00  0.00    -0.237 OA
ATOM     98  O   UNL A   1      45.389  26.334  37.638  1.00  0.00    -0.744 OA
ENDBRANCH  92  95
ENDBRANCH  65  88
ENDBRANCH  39  40
ENDBRANCH  31  34
ENDBRANCH  29  30
ENDBRANCH  28  29
ENDBRANCH  27  28
ENDBRANCH  26  27
ENDBRANCH   1  26
TORSDOF 22
ENDMDL
