MODEL 1
REMARK VINA RESULT:     -11.3      0.000      0.000
REMARK SMILES Cn1ccnc1N1[C@@H]2CC[C@H]1C[C@H](CC(=O)NCCCCCCNC(=O)c1ccc(-c3c4nc(c(-c5cccc(S(=O)(=O)[O-])c5F)c5ccc([nH]5)c(-c5cccc(S(=O)(=O)[O-])c5F)c5nc(c(-c6cccc(S(=O)(=O)[O-])c6F)c6ccc3[nH]6)C=C5)C=C4)cc1)C2
REMARK SMILES IDX 21 1 20 2 19 3 18 4 17 5 15 6 16 7 14 9 13 10 7 11 8 12
REMARK SMILES IDX 11 13 9 14 90 15 10 16 12 17 6 18 1 19 2 20 3 21 4 22 5 23
REMARK SMILES IDX 22 24 23 25 24 26 25 27 26 29 27 30 28 31 89 32 29 33 88 34
REMARK SMILES IDX 30 35 31 36 32 37 82 38 33 39 87 40 81 41 83 42 34 43 86 44
REMARK SMILES IDX 80 45 79 46 35 48 67 49 47 50 66 51 48 52 51 53 65 54 84 55
REMARK SMILES IDX 49 56 50 57 64 59 85 60 52 61 36 62 37 63 45 64 38 65 40 66
REMARK SMILES IDX 46 67 39 68 41 69 42 70 43 71 44 72 68 73 69 74 77 75 70 76
REMARK SMILES IDX 72 77 78 78 71 79 73 80 74 81 75 82 76 83 53 84 54 85 62 86
REMARK SMILES IDX 55 87 57 88 63 89 56 90 58 91 59 92 60 93 61 94
REMARK H PARENT 17 8 24 28 83 47 51 58
REMARK Flexibility Score: inf
ROOT
ATOM      1  C   UNL A   1      31.820  26.851  26.356  1.00  0.00     0.002 C 
ENDROOT
BRANCH   1   2
ATOM      2  C   UNL A   1      30.447  26.962  25.694  1.00  0.00     0.002 C 
BRANCH   2   3
ATOM      3  C   UNL A   1      30.466  27.106  24.175  1.00  0.00     0.021 C 
BRANCH   3   4
ATOM      4  C   UNL A   1      31.643  27.910  23.608  1.00  0.00     0.116 C 
BRANCH   4   5
ATOM      5  N   UNL A   1      32.097  27.347  22.345  1.00  0.00    -0.356 N 
ATOM      6  C   UNL A   1      33.120  26.489  22.067  1.00  0.00     0.220 C 
ATOM      7  O   UNL A   1      33.345  26.223  20.884  1.00  0.00    -0.275 OA
ATOM      8  H   UNL A   1      31.580  27.635  21.559  1.00  0.00     0.163 HD
BRANCH   6   9
ATOM      9  C   UNL A   1      33.968  25.881  23.175  1.00  0.00     0.103 C 
BRANCH   9  10
ATOM     10  C   UNL A   1      33.205  24.845  24.021  1.00  0.00     0.002 C 
ATOM     11  N   UNL A   1      33.171  21.958  24.490  1.00  0.00    -0.336 N 
ATOM     12  C   UNL A   1      33.492  22.845  25.620  1.00  0.00     0.086 C 
ATOM     13  C   UNL A   1      31.993  22.570  23.878  1.00  0.00     0.086 C 
ATOM     14  C   UNL A   1      32.107  23.128  26.237  1.00  0.00     0.027 C 
ATOM     15  C   UNL A   1      34.133  24.125  25.028  1.00  0.00     0.029 C 
ATOM     16  C   UNL A   1      31.115  22.928  25.083  1.00  0.00     0.027 C 
ATOM     17  C   UNL A   1      32.477  23.819  23.138  1.00  0.00     0.029 C 
BRANCH  11  18
ATOM     18  C   UNL A   1      33.168  20.615  24.701  1.00  0.00     0.205 A 
ATOM     19  C   UNL A   1      35.679  20.344  24.925  1.00  0.00     0.153 C 
ATOM     20  N   UNL A   1      34.321  19.869  24.819  1.00  0.00    -0.320 N 
ATOM     21  C   UNL A   1      33.964  18.548  24.857  1.00  0.00     0.109 A 
ATOM     22  C   UNL A   1      32.592  18.553  24.852  1.00  0.00     0.133 A 
ATOM     23  N   UNL A   1      32.111  19.833  24.778  1.00  0.00    -0.221 NA
ENDBRANCH  11  18
ENDBRANCH   9  10
ENDBRANCH   6   9
ENDBRANCH   4   5
ENDBRANCH   3   4
ENDBRANCH   2   3
ENDBRANCH   1   2
BRANCH   1  24
ATOM     24  C   UNL A   1      32.175  27.962  27.352  1.00  0.00     0.021 C 
BRANCH  24  25
ATOM     25  C   UNL A   1      33.571  28.564  27.202  1.00  0.00     0.116 C 
BRANCH  25  26
ATOM     26  N   UNL A   1      33.561  30.013  27.321  1.00  0.00    -0.352 N 
ATOM     27  C   UNL A   1      34.449  30.854  27.943  1.00  0.00     0.251 C 
ATOM     28  H   UNL A   1      32.799  30.460  26.888  1.00  0.00     0.163 HD
ATOM     29  O   UNL A   1      34.140  32.030  28.123  1.00  0.00    -0.269 OA
BRANCH  27  30
ATOM     30  C   UNL A   1      35.765  30.360  28.402  1.00  0.00     0.039 A 
ATOM     31  C   UNL A   1      35.846  29.706  29.634  1.00  0.00     0.014 A 
ATOM     32  C   UNL A   1      36.926  30.587  27.655  1.00  0.00     0.014 A 
ATOM     33  C   UNL A   1      37.081  29.243  30.098  1.00  0.00     0.010 A 
ATOM     34  C   UNL A   1      38.146  30.068  28.089  1.00  0.00     0.010 A 
ATOM     35  C   UNL A   1      38.239  29.402  29.320  1.00  0.00    -0.014 A 
BRANCH  35  36
ATOM     36  C   UNL A   1      39.551  28.876  29.785  1.00  0.00     0.031 A 
ATOM     37  C   UNL A   1      40.300  29.563  30.897  1.00  0.00     0.074 A 
ATOM     38  C   UNL A   1      40.105  27.821  29.154  1.00  0.00     0.049 A 
ATOM     39  N   UNL A   1      41.462  29.262  31.413  1.00  0.00    -0.248 NA
ATOM     40  C   UNL A   1      39.676  30.758  31.490  1.00  0.00     0.031 C 
ATOM     41  C   UNL A   1      39.524  27.122  28.006  1.00  0.00     0.029 A 
ATOM     42  N   UNL A   1      41.294  27.169  29.370  1.00  0.00    -0.354 N 
ATOM     43  C   UNL A   1      41.728  30.246  32.359  1.00  0.00     0.074 A 
ATOM     44  C   UNL A   1      40.614  31.169  32.330  1.00  0.00     0.031 C 
ATOM     45  C   UNL A   1      40.358  26.144  27.616  1.00  0.00     0.029 A 
ATOM     46  C   UNL A   1      41.541  26.156  28.471  1.00  0.00     0.049 A 
ATOM     47  H   UNL A   1      41.912  27.404  30.099  1.00  0.00     0.167 HD
ATOM     48  C   UNL A   1      42.787  30.357  33.193  1.00  0.00     0.034 A 
ATOM     49  C   UNL A   1      42.601  25.333  28.347  1.00  0.00     0.034 A 
ATOM     50  C   UNL A   1      43.862  29.403  33.266  1.00  0.00     0.049 A 
ATOM     51  C   UNL A   1      43.729  25.437  29.339  1.00  0.00     0.074 A 
ATOM     52  C   UNL A   1      44.917  29.366  34.160  1.00  0.00     0.029 A 
ATOM     53  N   UNL A   1      44.020  28.324  32.414  1.00  0.00    -0.354 N 
ATOM     54  N   UNL A   1      43.865  26.259  30.350  1.00  0.00    -0.248 NA
ATOM     55  C   UNL A   1      44.829  24.471  29.201  1.00  0.00     0.031 C 
ATOM     56  C   UNL A   1      45.728  28.274  33.835  1.00  0.00     0.029 A 
ATOM     57  C   UNL A   1      45.163  27.619  32.752  1.00  0.00     0.049 A 
ATOM     58  H   UNL A   1      43.411  28.091  31.676  1.00  0.00     0.167 HD
ATOM     59  C   UNL A   1      45.041  25.888  30.989  1.00  0.00     0.074 A 
ATOM     60  C   UNL A   1      45.569  24.750  30.266  1.00  0.00     0.031 C 
ATOM     61  C   UNL A   1      45.643  26.449  32.066  1.00  0.00     0.034 A 
BRANCH  48  62
ATOM     62  C   UNL A   1      42.823  31.519  34.151  1.00  0.00     0.023 A 
ATOM     63  C   UNL A   1      43.368  32.749  33.728  1.00  0.00     0.012 A 
ATOM     64  C   UNL A   1      42.226  31.427  35.423  1.00  0.00     0.148 A 
ATOM     65  C   UNL A   1      43.333  33.864  34.564  1.00  0.00     0.002 A 
ATOM     66  C   UNL A   1      42.157  32.554  36.233  1.00  0.00     0.091 A 
ATOM     67  F   UNL A   1      41.729  30.243  35.810  1.00  0.00    -0.205 F 
ATOM     68  C   UNL A   1      42.717  33.770  35.809  1.00  0.00     0.022 A 
BRANCH  66  69
ATOM     69  S   UNL A   1      41.318  32.561  37.821  1.00  0.00     0.127 S 
ATOM     70  O   UNL A   1      42.156  31.651  38.602  1.00  0.00    -0.237 OA
ATOM     71  O   UNL A   1      41.414  33.967  38.213  1.00  0.00    -0.237 OA
ATOM     72  O   UNL A   1      39.963  32.089  37.564  1.00  0.00    -0.744 OA
ENDBRANCH  66  69
ENDBRANCH  48  62
BRANCH  49  73
ATOM     73  C   UNL A   1      42.623  24.295  27.277  1.00  0.00     0.023 A 
ATOM     74  C   UNL A   1      43.277  24.567  26.059  1.00  0.00     0.012 A 
ATOM     75  C   UNL A   1      42.007  23.043  27.460  1.00  0.00     0.148 A 
ATOM     76  C   UNL A   1      43.280  23.626  25.028  1.00  0.00     0.002 A 
ATOM     77  C   UNL A   1      42.064  22.088  26.450  1.00  0.00     0.091 A 
ATOM     78  F   UNL A   1      41.374  22.806  28.617  1.00  0.00    -0.205 F 
ATOM     79  C   UNL A   1      42.684  22.384  25.226  1.00  0.00     0.022 A 
BRANCH  77  80
ATOM     80  S   UNL A   1      41.442  20.420  26.688  1.00  0.00     0.127 S 
ATOM     81  O   UNL A   1      42.249  19.956  27.812  1.00  0.00    -0.237 OA
ATOM     82  O   UNL A   1      40.031  20.658  26.998  1.00  0.00    -0.237 OA
ATOM     83  O   UNL A   1      41.664  19.745  25.415  1.00  0.00    -0.744 OA
ENDBRANCH  77  80
ENDBRANCH  49  73
BRANCH  61  84
ATOM     84  C   UNL A   1      46.920  25.826  32.562  1.00  0.00     0.023 A 
ATOM     85  C   UNL A   1      48.157  26.256  32.041  1.00  0.00     0.012 A 
ATOM     86  C   UNL A   1      46.900  24.874  33.601  1.00  0.00     0.148 A 
ATOM     87  C   UNL A   1      49.351  25.726  32.526  1.00  0.00     0.002 A 
ATOM     88  C   UNL A   1      48.096  24.387  34.112  1.00  0.00     0.091 A 
ATOM     89  F   UNL A   1      45.712  24.464  34.069  1.00  0.00    -0.205 F 
ATOM     90  C   UNL A   1      49.322  24.803  33.568  1.00  0.00     0.022 A 
BRANCH  88  91
ATOM     91  S   UNL A   1      48.155  23.269  35.517  1.00  0.00     0.127 S 
ATOM     92  O   UNL A   1      47.482  22.086  34.986  1.00  0.00    -0.237 OA
ATOM     93  O   UNL A   1      49.594  23.110  35.729  1.00  0.00    -0.237 OA
ATOM     94  O   UNL A   1      47.461  23.953  36.601  1.00  0.00    -0.744 OA
ENDBRANCH  88  91
ENDBRANCH  61  84
ENDBRANCH  35  36
ENDBRANCH  27  30
ENDBRANCH  25  26
ENDBRANCH  24  25
ENDBRANCH   1  24
TORSDOF 18
ENDMDL
MODEL 2
REMARK VINA RESULT:     -11.1      1.719      2.270
REMARK SMILES Cn1ccnc1N1[C@@H]2CC[C@H]1C[C@H](CC(=O)NCCCCCCNC(=O)c1ccc(-c3c4nc(c(-c5cccc(S(=O)(=O)[O-])c5F)c5ccc([nH]5)c(-c5cccc(S(=O)(=O)[O-])c5F)c5nc(c(-c6cccc(S(=O)(=O)[O-])c6F)c6ccc3[nH]6)C=C5)C=C4)cc1)C2
REMARK SMILES IDX 21 1 20 2 19 3 18 4 17 5 15 6 16 7 14 9 13 10 7 11 8 12
REMARK SMILES IDX 11 13 9 14 90 15 10 16 12 17 6 18 1 19 2 20 3 21 4 22 5 23
REMARK SMILES IDX 22 24 23 25 24 26 25 27 26 29 27 30 28 31 89 32 29 33 88 34
REMARK SMILES IDX 30 35 31 36 32 37 82 38 33 39 87 40 81 41 83 42 34 43 86 44
REMARK SMILES IDX 80 45 79 46 35 48 67 49 47 50 66 51 48 52 51 53 65 54 84 55
REMARK SMILES IDX 49 56 50 57 64 59 85 60 52 61 36 62 37 63 45 64 38 65 40 66
REMARK SMILES IDX 46 67 39 68 41 69 42 70 43 71 44 72 68 73 69 74 77 75 70 76
REMARK SMILES IDX 72 77 78 78 71 79 73 80 74 81 75 82 76 83 53 84 54 85 62 86
REMARK SMILES IDX 55 87 57 88 63 89 56 90 58 91 59 92 60 93 61 94
REMARK H PARENT 17 8 24 28 83 47 51 58
REMARK Flexibility Score: inf
ROOT
ATOM      1  C   UNL A   1      32.240  29.209  24.356  1.00  0.00     0.002 C 
ENDROOT
BRANCH   1   2
ATOM      2  C   UNL A   1      30.835  28.666  24.614  1.00  0.00     0.002 C 
BRANCH   2   3
ATOM      3  C   UNL A   1      30.196  27.930  23.439  1.00  0.00     0.021 C 
BRANCH   3   4
ATOM      4  C   UNL A   1      30.131  26.404  23.578  1.00  0.00     0.116 C 
BRANCH   4   5
ATOM      5  N   UNL A   1      29.451  26.021  24.806  1.00  0.00    -0.356 N 
ATOM      6  C   UNL A   1      29.937  25.500  25.969  1.00  0.00     0.220 C 
ATOM      7  O   UNL A   1      29.127  25.188  26.845  1.00  0.00    -0.275 OA
ATOM      8  H   UNL A   1      28.477  26.161  24.796  1.00  0.00     0.163 HD
BRANCH   6   9
ATOM      9  C   UNL A   1      31.430  25.298  26.186  1.00  0.00     0.103 C 
BRANCH   9  10
ATOM     10  C   UNL A   1      31.951  23.971  25.604  1.00  0.00     0.002 C 
ATOM     11  N   UNL A   1      34.458  22.482  25.380  1.00  0.00    -0.336 N 
ATOM     12  C   UNL A   1      33.350  21.873  26.134  1.00  0.00     0.086 C 
ATOM     13  C   UNL A   1      33.832  22.966  24.150  1.00  0.00     0.086 C 
ATOM     14  C   UNL A   1      32.592  21.082  25.048  1.00  0.00     0.027 C 
ATOM     15  C   UNL A   1      32.497  23.032  26.706  1.00  0.00     0.029 C 
ATOM     16  C   UNL A   1      32.927  21.800  23.733  1.00  0.00     0.027 C 
ATOM     17  C   UNL A   1      33.020  24.207  24.525  1.00  0.00     0.029 C 
BRANCH  11  18
ATOM     18  C   UNL A   1      35.630  21.799  25.284  1.00  0.00     0.205 A 
ATOM     19  C   UNL A   1      37.160  23.774  25.717  1.00  0.00     0.153 C 
ATOM     20  N   UNL A   1      36.864  22.408  25.359  1.00  0.00    -0.320 N 
ATOM     21  C   UNL A   1      37.815  21.468  25.063  1.00  0.00     0.109 A 
ATOM     22  C   UNL A   1      37.117  20.298  24.908  1.00  0.00     0.133 A 
ATOM     23  N   UNL A   1      35.773  20.508  25.069  1.00  0.00    -0.221 NA
ENDBRANCH  11  18
ENDBRANCH   9  10
ENDBRANCH   6   9
ENDBRANCH   4   5
ENDBRANCH   3   4
ENDBRANCH   2   3
ENDBRANCH   1   2
BRANCH   1  24
ATOM     24  C   UNL A   1      33.398  28.310  24.807  1.00  0.00     0.021 C 
BRANCH  24  25
ATOM     25  C   UNL A   1      33.947  28.589  26.206  1.00  0.00     0.116 C 
BRANCH  25  26
ATOM     26  N   UNL A   1      33.859  29.995  26.561  1.00  0.00    -0.352 N 
ATOM     27  C   UNL A   1      34.613  30.734  27.439  1.00  0.00     0.251 C 
ATOM     28  H   UNL A   1      33.148  30.497  26.101  1.00  0.00     0.163 HD
ATOM     29  O   UNL A   1      34.233  31.856  27.765  1.00  0.00    -0.269 OA
BRANCH  27  30
ATOM     30  C   UNL A   1      35.871  30.191  27.998  1.00  0.00     0.039 A 
ATOM     31  C   UNL A   1      35.852  29.637  29.281  1.00  0.00     0.014 A 
ATOM     32  C   UNL A   1      37.074  30.276  27.292  1.00  0.00     0.014 A 
ATOM     33  C   UNL A   1      37.031  29.131  29.838  1.00  0.00     0.010 A 
ATOM     34  C   UNL A   1      38.235  29.714  27.823  1.00  0.00     0.010 A 
ATOM     35  C   UNL A   1      38.229  29.147  29.106  1.00  0.00    -0.014 A 
BRANCH  35  36
ATOM     36  C   UNL A   1      39.479  28.574  29.674  1.00  0.00     0.031 A 
ATOM     37  C   UNL A   1      40.125  29.196  30.884  1.00  0.00     0.074 A 
ATOM     38  C   UNL A   1      40.075  27.536  29.053  1.00  0.00     0.049 A 
ATOM     39  N   UNL A   1      41.225  28.848  31.499  1.00  0.00    -0.248 NA
ATOM     40  C   UNL A   1      39.464  30.376  31.467  1.00  0.00     0.031 C 
ATOM     41  C   UNL A   1      39.600  26.900  27.822  1.00  0.00     0.029 A 
ATOM     42  N   UNL A   1      41.226  26.850  29.355  1.00  0.00    -0.354 N 
ATOM     43  C   UNL A   1      41.412  29.784  32.510  1.00  0.00     0.074 A 
ATOM     44  C   UNL A   1      40.321  30.730  32.414  1.00  0.00     0.031 C 
ATOM     45  C   UNL A   1      40.452  25.923  27.472  1.00  0.00     0.029 A 
ATOM     46  C   UNL A   1      41.544  25.873  28.439  1.00  0.00     0.049 A 
ATOM     47  H   UNL A   1      41.772  27.041  30.152  1.00  0.00     0.167 HD
ATOM     48  C   UNL A   1      42.384  29.835  33.449  1.00  0.00     0.034 A 
ATOM     49  C   UNL A   1      42.599  25.034  28.383  1.00  0.00     0.034 A 
ATOM     50  C   UNL A   1      43.430  28.857  33.584  1.00  0.00     0.049 A 
ATOM     51  C   UNL A   1      43.623  25.071  29.485  1.00  0.00     0.074 A 
ATOM     52  C   UNL A   1      44.391  28.758  34.575  1.00  0.00     0.029 A 
ATOM     53  N   UNL A   1      43.654  27.813  32.703  1.00  0.00    -0.354 N 
ATOM     54  N   UNL A   1      43.671  25.845  30.541  1.00  0.00    -0.248 NA
ATOM     55  C   UNL A   1      44.716  24.089  29.412  1.00  0.00     0.031 C 
ATOM     56  C   UNL A   1      45.212  27.665  34.281  1.00  0.00     0.029 A 
ATOM     57  C   UNL A   1      44.747  27.071  33.119  1.00  0.00     0.049 A 
ATOM     58  H   UNL A   1      43.118  27.626  31.899  1.00  0.00     0.167 HD
ATOM     59  C   UNL A   1      44.772  25.421  31.275  1.00  0.00     0.074 A 
ATOM     60  C   UNL A   1      45.351  24.305  30.556  1.00  0.00     0.031 C 
ATOM     61  C   UNL A   1      45.273  25.922  32.431  1.00  0.00     0.034 A 
BRANCH  48  62
ATOM     62  C   UNL A   1      42.344  30.953  34.458  1.00  0.00     0.023 A 
ATOM     63  C   UNL A   1      41.709  30.743  35.699  1.00  0.00     0.012 A 
ATOM     64  C   UNL A   1      43.022  32.165  34.222  1.00  0.00     0.148 A 
ATOM     65  C   UNL A   1      41.735  31.731  36.683  1.00  0.00     0.002 A 
ATOM     66  C   UNL A   1      43.079  33.127  35.224  1.00  0.00     0.091 A 
ATOM     67  F   UNL A   1      43.604  32.348  33.028  1.00  0.00    -0.205 F 
ATOM     68  C   UNL A   1      42.429  32.915  36.451  1.00  0.00     0.022 A 
BRANCH  66  69
ATOM     69  S   UNL A   1      44.011  34.653  35.055  1.00  0.00     0.127 S 
ATOM     70  O   UNL A   1      43.757  35.298  36.344  1.00  0.00    -0.237 OA
ATOM     71  O   UNL A   1      45.377  34.160  34.880  1.00  0.00    -0.237 OA
ATOM     72  O   UNL A   1      43.455  35.340  33.897  1.00  0.00    -0.744 OA
ENDBRANCH  66  69
ENDBRANCH  48  62
BRANCH  49  73
ATOM     73  C   UNL A   1      42.709  24.044  27.274  1.00  0.00     0.023 A 
ATOM     74  C   UNL A   1      43.356  24.411  26.078  1.00  0.00     0.012 A 
ATOM     75  C   UNL A   1      42.185  22.743  27.399  1.00  0.00     0.148 A 
ATOM     76  C   UNL A   1      43.441  23.515  25.011  1.00  0.00     0.002 A 
ATOM     77  C   UNL A   1      42.325  21.837  26.354  1.00  0.00     0.091 A 
ATOM     78  F   UNL A   1      41.558  22.415  28.537  1.00  0.00    -0.205 F 
ATOM     79  C   UNL A   1      42.935  22.226  25.152  1.00  0.00     0.022 A 
BRANCH  77  80
ATOM     80  S   UNL A   1      41.825  20.119  26.517  1.00  0.00     0.127 S 
ATOM     81  O   UNL A   1      40.369  20.232  26.542  1.00  0.00    -0.237 OA
ATOM     82  O   UNL A   1      42.376  19.520  25.301  1.00  0.00    -0.237 OA
ATOM     83  O   UNL A   1      42.454  19.653  27.746  1.00  0.00    -0.744 OA
ENDBRANCH  77  80
ENDBRANCH  49  73
BRANCH  61  84
ATOM     84  C   UNL A   1      46.484  25.251  33.022  1.00  0.00     0.023 A 
ATOM     85  C   UNL A   1      47.771  25.741  32.723  1.00  0.00     0.012 A 
ATOM     86  C   UNL A   1      46.343  24.188  33.936  1.00  0.00     0.148 A 
ATOM     87  C   UNL A   1      48.900  25.164  33.302  1.00  0.00     0.002 A 
ATOM     88  C   UNL A   1      47.470  23.650  34.545  1.00  0.00     0.091 A 
ATOM     89  F   UNL A   1      45.111  23.723  34.192  1.00  0.00    -0.205 F 
ATOM     90  C   UNL A   1      48.749  24.129  34.221  1.00  0.00     0.022 A 
BRANCH  88  91
ATOM     91  S   UNL A   1      47.361  22.381  35.812  1.00  0.00     0.127 S 
ATOM     92  O   UNL A   1      46.952  21.215  35.033  1.00  0.00    -0.237 OA
ATOM     93  O   UNL A   1      48.734  22.326  36.317  1.00  0.00    -0.237 OA
ATOM     94  O   UNL A   1      46.384  22.864  36.779  1.00  0.00    -0.744 OA
ENDBRANCH  88  91
ENDBRANCH  61  84
ENDBRANCH  35  36
ENDBRANCH  27  30
ENDBRANCH  25  26
ENDBRANCH  24  25
ENDBRANCH   1  24
TORSDOF 18
ENDMDL
MODEL 3
REMARK VINA RESULT:     -10.7      5.478      8.736
REMARK SMILES Cn1ccnc1N1[C@@H]2CC[C@H]1C[C@H](CC(=O)NCCCCCCNC(=O)c1ccc(-c3c4nc(c(-c5cccc(S(=O)(=O)[O-])c5F)c5ccc([nH]5)c(-c5cccc(S(=O)(=O)[O-])c5F)c5nc(c(-c6cccc(S(=O)(=O)[O-])c6F)c6ccc3[nH]6)C=C5)C=C4)cc1)C2
REMARK SMILES IDX 21 1 20 2 19 3 18 4 17 5 15 6 16 7 14 9 13 10 7 11 8 12
REMARK SMILES IDX 11 13 9 14 90 15 10 16 12 17 6 18 1 19 2 20 3 21 4 22 5 23
REMARK SMILES IDX 22 24 23 25 24 26 25 27 26 29 27 30 28 31 89 32 29 33 88 34
REMARK SMILES IDX 30 35 31 36 32 37 82 38 33 39 87 40 81 41 83 42 34 43 86 44
REMARK SMILES IDX 80 45 79 46 35 48 67 49 47 50 66 51 48 52 51 53 65 54 84 55
REMARK SMILES IDX 49 56 50 57 64 59 85 60 52 61 36 62 37 63 45 64 38 65 40 66
REMARK SMILES IDX 46 67 39 68 41 69 42 70 43 71 44 72 68 73 69 74 77 75 70 76
REMARK SMILES IDX 72 77 78 78 71 79 73 80 74 81 75 82 76 83 53 84 54 85 62 86
REMARK SMILES IDX 55 87 57 88 63 89 56 90 58 91 59 92 60 93 61 94
REMARK H PARENT 17 8 24 28 83 47 51 58
REMARK Flexibility Score: inf
ROOT
ATOM      1  C   UNL A   1      36.946  20.842  24.537  1.00  0.00     0.002 C 
ENDROOT
BRANCH   1   2
ATOM      2  C   UNL A   1      35.613  20.847  25.285  1.00  0.00     0.002 C 
BRANCH   2   3
ATOM      3  C   UNL A   1      34.594  19.818  24.805  1.00  0.00     0.021 C 
BRANCH   3   4
ATOM      4  C   UNL A   1      33.337  19.685  25.675  1.00  0.00     0.116 C 
BRANCH   4   5
ATOM      5  N   UNL A   1      33.391  20.594  26.810  1.00  0.00    -0.356 N 
ATOM      6  C   UNL A   1      32.945  21.875  26.949  1.00  0.00     0.220 C 
ATOM      7  O   UNL A   1      33.187  22.459  28.008  1.00  0.00    -0.275 OA
ATOM      8  H   UNL A   1      33.823  20.221  27.612  1.00  0.00     0.163 HD
BRANCH   6   9
ATOM      9  C   UNL A   1      32.180  22.574  25.834  1.00  0.00     0.103 C 
BRANCH   9  10
ATOM     10  C   UNL A   1      32.265  24.110  25.915  1.00  0.00     0.002 C 
ATOM     11  N   UNL A   1      31.208  26.462  24.536  1.00  0.00    -0.336 N 
ATOM     12  C   UNL A   1      30.864  26.272  25.955  1.00  0.00     0.086 C 
ATOM     13  C   UNL A   1      32.649  26.222  24.481  1.00  0.00     0.086 C 
ATOM     14  C   UNL A   1      32.006  27.009  26.685  1.00  0.00     0.027 C 
ATOM     15  C   UNL A   1      30.891  24.748  26.230  1.00  0.00     0.029 C 
ATOM     16  C   UNL A   1      33.182  26.987  25.698  1.00  0.00     0.027 C 
ATOM     17  C   UNL A   1      32.851  24.712  24.628  1.00  0.00     0.029 C 
BRANCH  11  18
ATOM     18  C   UNL A   1      30.707  27.548  23.888  1.00  0.00     0.205 A 
ATOM     19  C   UNL A   1      28.305  26.745  23.778  1.00  0.00     0.153 C 
ATOM     20  N   UNL A   1      29.396  27.637  23.472  1.00  0.00    -0.320 N 
ATOM     21  C   UNL A   1      29.271  28.774  22.718  1.00  0.00     0.109 A 
ATOM     22  C   UNL A   1      30.501  29.377  22.785  1.00  0.00     0.133 A 
ATOM     23  N   UNL A   1      31.373  28.625  23.527  1.00  0.00    -0.221 NA
ENDBRANCH  11  18
ENDBRANCH   9  10
ENDBRANCH   6   9
ENDBRANCH   4   5
ENDBRANCH   3   4
ENDBRANCH   2   3
ENDBRANCH   1   2
BRANCH   1  24
ATOM     24  C   UNL A   1      37.962  19.784  24.985  1.00  0.00     0.021 C 
BRANCH  24  25
ATOM     25  C   UNL A   1      39.086  20.286  25.890  1.00  0.00     0.116 C 
BRANCH  25  26
ATOM     26  N   UNL A   1      40.181  19.336  25.987  1.00  0.00    -0.352 N 
ATOM     27  C   UNL A   1      41.531  19.552  26.101  1.00  0.00     0.251 C 
ATOM     28  H   UNL A   1      39.912  18.389  25.968  1.00  0.00     0.163 HD
ATOM     29  O   UNL A   1      42.308  18.613  25.942  1.00  0.00    -0.269 OA
BRANCH  27  30
ATOM     30  C   UNL A   1      42.058  20.900  26.407  1.00  0.00     0.039 A 
ATOM     31  C   UNL A   1      42.285  21.789  25.352  1.00  0.00     0.014 A 
ATOM     32  C   UNL A   1      42.382  21.272  27.715  1.00  0.00     0.014 A 
ATOM     33  C   UNL A   1      42.798  23.063  25.613  1.00  0.00     0.010 A 
ATOM     34  C   UNL A   1      42.833  22.566  27.980  1.00  0.00     0.010 A 
ATOM     35  C   UNL A   1      43.057  23.470  26.932  1.00  0.00    -0.014 A 
BRANCH  35  36
ATOM     36  C   UNL A   1      43.563  24.838  27.224  1.00  0.00     0.031 A 
ATOM     37  C   UNL A   1      42.638  25.896  27.767  1.00  0.00     0.074 A 
ATOM     38  C   UNL A   1      44.841  25.150  26.931  1.00  0.00     0.049 A 
ATOM     39  N   UNL A   1      42.897  27.144  28.056  1.00  0.00    -0.248 NA
ATOM     40  C   UNL A   1      41.234  25.512  27.991  1.00  0.00     0.031 C 
ATOM     41  C   UNL A   1      45.815  24.243  26.319  1.00  0.00     0.029 A 
ATOM     42  N   UNL A   1      45.536  26.326  27.080  1.00  0.00    -0.354 N 
ATOM     43  C   UNL A   1      41.689  27.704  28.456  1.00  0.00     0.074 A 
ATOM     44  C   UNL A   1      40.688  26.664  28.351  1.00  0.00     0.031 C 
ATOM     45  C   UNL A   1      46.976  24.894  26.141  1.00  0.00     0.029 A 
ATOM     46  C   UNL A   1      46.827  26.270  26.607  1.00  0.00     0.049 A 
ATOM     47  H   UNL A   1      45.146  27.133  27.487  1.00  0.00     0.167 HD
ATOM     48  C   UNL A   1      41.439  28.959  28.896  1.00  0.00     0.034 A 
ATOM     49  C   UNL A   1      47.782  27.220  26.551  1.00  0.00     0.034 A 
ATOM     50  C   UNL A   1      42.447  29.972  29.062  1.00  0.00     0.049 A 
ATOM     51  C   UNL A   1      47.493  28.584  27.117  1.00  0.00     0.074 A 
ATOM     52  C   UNL A   1      42.312  31.235  29.612  1.00  0.00     0.029 A 
ATOM     53  N   UNL A   1      43.770  29.842  28.677  1.00  0.00    -0.354 N 
ATOM     54  N   UNL A   1      46.391  29.031  27.669  1.00  0.00    -0.248 NA
ATOM     55  C   UNL A   1      48.590  29.562  27.093  1.00  0.00     0.031 C 
ATOM     56  C   UNL A   1      43.551  31.877  29.541  1.00  0.00     0.029 A 
ATOM     57  C   UNL A   1      44.463  31.005  28.967  1.00  0.00     0.049 A 
ATOM     58  H   UNL A   1      44.162  29.041  28.259  1.00  0.00     0.167 HD
ATOM     59  C   UNL A   1      46.674  30.324  28.090  1.00  0.00     0.074 A 
ATOM     60  C   UNL A   1      48.058  30.582  27.753  1.00  0.00     0.031 C 
ATOM     61  C   UNL A   1      45.857  31.226  28.687  1.00  0.00     0.034 A 
BRANCH  48  62
ATOM     62  C   UNL A   1      40.029  29.309  29.295  1.00  0.00     0.023 A 
ATOM     63  C   UNL A   1      39.071  29.570  28.294  1.00  0.00     0.012 A 
ATOM     64  C   UNL A   1      39.630  29.273  30.645  1.00  0.00     0.148 A 
ATOM     65  C   UNL A   1      37.740  29.809  28.633  1.00  0.00     0.002 A 
ATOM     66  C   UNL A   1      38.293  29.470  30.971  1.00  0.00     0.091 A 
ATOM     67  F   UNL A   1      40.561  29.039  31.580  1.00  0.00    -0.205 F 
ATOM     68  C   UNL A   1      37.350  29.747  29.968  1.00  0.00     0.022 A 
BRANCH  66  69
ATOM     69  S   UNL A   1      37.671  29.334  32.650  1.00  0.00     0.127 S 
ATOM     70  O   UNL A   1      36.314  29.861  32.506  1.00  0.00    -0.237 OA
ATOM     71  O   UNL A   1      37.744  27.893  32.889  1.00  0.00    -0.237 OA
ATOM     72  O   UNL A   1      38.563  30.137  33.478  1.00  0.00    -0.744 OA
ENDBRANCH  66  69
ENDBRANCH  48  62
BRANCH  49  73
ATOM     73  C   UNL A   1      49.126  26.898  25.991  1.00  0.00     0.023 A 
ATOM     74  C   UNL A   1      50.044  26.163  26.767  1.00  0.00     0.012 A 
ATOM     75  C   UNL A   1      49.497  27.308  24.696  1.00  0.00     0.148 A 
ATOM     76  C   UNL A   1      51.321  25.881  26.281  1.00  0.00     0.002 A 
ATOM     77  C   UNL A   1      50.750  26.972  24.196  1.00  0.00     0.091 A 
ATOM     78  F   UNL A   1      48.619  28.021  23.977  1.00  0.00    -0.205 F 
ATOM     79  C   UNL A   1      51.672  26.276  24.993  1.00  0.00     0.022 A 
BRANCH  77  80
ATOM     80  S   UNL A   1      51.217  27.324  22.497  1.00  0.00     0.127 S 
ATOM     81  O   UNL A   1      51.217  28.784  22.482  1.00  0.00    -0.237 OA
ATOM     82  O   UNL A   1      52.540  26.706  22.406  1.00  0.00    -0.237 OA
ATOM     83  O   UNL A   1      50.201  26.673  21.679  1.00  0.00    -0.744 OA
ENDBRANCH  77  80
ENDBRANCH  49  73
BRANCH  61  84
ATOM     84  C   UNL A   1      46.436  32.567  29.053  1.00  0.00     0.023 A 
ATOM     85  C   UNL A   1      47.068  32.738  30.300  1.00  0.00     0.012 A 
ATOM     86  C   UNL A   1      46.426  33.630  28.128  1.00  0.00     0.148 A 
ATOM     87  C   UNL A   1      47.655  33.958  30.633  1.00  0.00     0.002 A 
ATOM     88  C   UNL A   1      47.056  34.827  28.449  1.00  0.00     0.091 A 
ATOM     89  F   UNL A   1      45.803  33.452  26.954  1.00  0.00    -0.205 F 
ATOM     90  C   UNL A   1      47.660  34.996  29.705  1.00  0.00     0.022 A 
BRANCH  88  91
ATOM     91  S   UNL A   1      47.194  36.182  27.278  1.00  0.00     0.127 S 
ATOM     92  O   UNL A   1      47.684  37.264  28.130  1.00  0.00    -0.237 OA
ATOM     93  O   UNL A   1      48.175  35.668  26.321  1.00  0.00    -0.237 OA
ATOM     94  O   UNL A   1      45.859  36.372  26.727  1.00  0.00    -0.744 OA
ENDBRANCH  88  91
ENDBRANCH  61  84
ENDBRANCH  35  36
ENDBRANCH  27  30
ENDBRANCH  25  26
ENDBRANCH  24  25
ENDBRANCH   1  24
TORSDOF 18
ENDMDL
