MODEL 1
REMARK VINA RESULT:     -11.8      0.000      0.000
REMARK SMILES O=C(CC[NH+]1CCC(n2nccc2NC(=O)c2ccccc2Cl)CC1)NCCCCCCNC(=O)c1ccc(-c2c3nc(c(-c4cccc(S(=O)(=O)[O-])c4F)c4ccc([nH]4)c(-c4cccc(S(=O)(=O)[O-])c4F)c4nc(c(-c5cccc(S(=O)(=O)[O-])c5F)c5ccc2[nH]5)C=C4)C=C3)cc1
REMARK SMILES IDX 28 1 27 2 26 3 1 4 2 5 3 7 4 8 5 9 6 10 25 11 7 13 24 14
REMARK SMILES IDX 8 15 9 16 10 17 13 18 11 19 12 20 14 21 15 22 16 24 17 25
REMARK SMILES IDX 18 26 22 27 19 28 21 29 23 30 20 31 29 32 30 33 31 34 32 35
REMARK SMILES IDX 33 36 34 37 35 39 36 40 37 41 98 42 38 43 97 44 39 45 40 46
REMARK SMILES IDX 41 47 91 48 42 49 96 50 90 51 92 52 43 53 95 54 89 55 88 56
REMARK SMILES IDX 44 58 76 59 56 60 75 61 57 62 60 63 74 64 93 65 58 66 59 67
REMARK SMILES IDX 73 69 94 70 61 71 45 72 46 73 54 74 47 75 49 76 55 77 48 78
REMARK SMILES IDX 50 79 51 80 52 81 53 82 77 83 78 84 86 85 79 86 81 87 87 88
REMARK SMILES IDX 80 89 82 90 83 91 84 92 85 93 62 94 63 95 71 96 64 97 66 98
REMARK SMILES IDX 72 99 65 100 67 101 68 102 69 103 70 104
REMARK H PARENT 26 6 5 12 14 23 33 38 92 57 60 68
REMARK Flexibility Score: inf
ROOT
ATOM      1  C   UNL A   1      33.900  28.775  26.026  1.00  0.00     0.021 C 
ENDROOT
BRANCH   1   2
ATOM      2  C   UNL A   1      33.002  29.446  24.986  1.00  0.00     0.116 C 
BRANCH   2   3
ATOM      3  N   UNL A   1      32.430  28.525  24.022  1.00  0.00    -0.356 N 
ATOM      4  O   UNL A   1      34.220  28.638  22.581  1.00  0.00    -0.275 OA
ATOM      5  C   UNL A   1      33.120  28.179  22.877  1.00  0.00     0.225 C 
ATOM      6  H   UNL A   1      31.539  28.141  24.186  1.00  0.00     0.163 HD
BRANCH   5   7
ATOM      7  C   UNL A   1      32.465  27.101  22.043  1.00  0.00     0.161 C 
BRANCH   7   8
ATOM      8  C   UNL A   1      31.519  26.226  22.887  1.00  0.00     0.272 C 
BRANCH   8   9
ATOM      9  N   UNL A   1      31.996  24.913  23.383  1.00  0.00    -0.334 N 
ATOM     10  C   UNL A   1      30.945  24.196  24.110  1.00  0.00     0.264 C 
ATOM     11  C   UNL A   1      32.636  24.122  22.337  1.00  0.00     0.264 C 
ATOM     12  H   UNL A   1      32.733  25.091  24.065  1.00  0.00     0.348 HD
ATOM     13  C   UNL A   1      31.420  22.852  24.646  1.00  0.00     0.089 C 
ATOM     14  C   UNL A   1      33.169  22.797  22.873  1.00  0.00     0.089 C 
ATOM     15  C   UNL A   1      32.044  22.000  23.531  1.00  0.00     0.121 C 
BRANCH  15  16
ATOM     16  N   UNL A   1      32.349  20.659  24.023  1.00  0.00    -0.246 N 
ATOM     17  N   UNL A   1      32.371  19.678  23.085  1.00  0.00    -0.179 NA
ATOM     18  C   UNL A   1      32.657  20.184  25.288  1.00  0.00     0.131 A 
ATOM     19  C   UNL A   1      32.586  18.563  23.769  1.00  0.00     0.137 A 
ATOM     20  C   UNL A   1      32.697  18.812  25.143  1.00  0.00     0.069 A 
BRANCH  18  21
ATOM     21  N   UNL A   1      32.856  20.934  26.441  1.00  0.00    -0.307 N 
ATOM     22  C   UNL A   1      33.925  21.809  26.791  1.00  0.00     0.258 C 
ATOM     23  H   UNL A   1      32.150  20.846  27.121  1.00  0.00     0.171 HD
ATOM     24  O   UNL A   1      33.878  22.274  27.922  1.00  0.00    -0.269 OA
BRANCH  22  25
ATOM     25  C   UNL A   1      35.054  22.071  25.910  1.00  0.00     0.058 A 
ATOM     26  C   UNL A   1      35.853  20.977  25.556  1.00  0.00     0.015 A 
ATOM     27  C   UNL A   1      35.291  23.341  25.381  1.00  0.00     0.053 A 
ATOM     28  C   UNL A   1      36.851  21.143  24.599  1.00  0.00     0.001 A 
ATOM     29  C   UNL A   1      36.284  23.496  24.414  1.00  0.00     0.021 A 
ATOM     30  Cl  UNL A   1      34.356  24.715  25.837  1.00  0.00    -0.083 Cl
ATOM     31  C   UNL A   1      37.051  22.395  24.015  1.00  0.00     0.002 A 
ENDBRANCH  22  25
ENDBRANCH  18  21
ENDBRANCH  15  16
ENDBRANCH   8   9
ENDBRANCH   7   8
ENDBRANCH   5   7
ENDBRANCH   2   3
ENDBRANCH   1   2
BRANCH   1  32
ATOM     32  C   UNL A   1      33.765  29.279  27.467  1.00  0.00     0.002 C 
BRANCH  32  33
ATOM     33  C   UNL A   1      34.024  30.770  27.708  1.00  0.00     0.002 C 
BRANCH  33  34
ATOM     34  C   UNL A   1      32.837  31.735  27.663  1.00  0.00     0.021 C 
BRANCH  34  35
ATOM     35  C   UNL A   1      33.151  33.101  27.063  1.00  0.00     0.116 C 
BRANCH  35  36
ATOM     36  N   UNL A   1      32.615  34.218  27.853  1.00  0.00    -0.352 N 
ATOM     37  C   UNL A   1      33.028  34.645  29.102  1.00  0.00     0.251 C 
ATOM     38  H   UNL A   1      31.874  34.721  27.445  1.00  0.00     0.163 HD
ATOM     39  O   UNL A   1      32.323  35.358  29.807  1.00  0.00    -0.269 OA
BRANCH  37  40
ATOM     40  C   UNL A   1      34.371  34.236  29.544  1.00  0.00     0.039 A 
ATOM     41  C   UNL A   1      34.571  33.445  30.679  1.00  0.00     0.014 A 
ATOM     42  C   UNL A   1      35.422  34.550  28.688  1.00  0.00     0.014 A 
ATOM     43  C   UNL A   1      35.828  32.874  30.882  1.00  0.00     0.010 A 
ATOM     44  C   UNL A   1      36.604  33.866  28.811  1.00  0.00     0.010 A 
ATOM     45  C   UNL A   1      36.836  33.056  29.924  1.00  0.00    -0.014 A 
BRANCH  45  46
ATOM     46  C   UNL A   1      38.099  32.318  30.003  1.00  0.00     0.031 A 
ATOM     47  C   UNL A   1      38.117  30.954  29.394  1.00  0.00     0.074 A 
ATOM     48  C   UNL A   1      39.260  32.914  30.358  1.00  0.00     0.049 A 
ATOM     49  N   UNL A   1      38.338  29.824  29.986  1.00  0.00    -0.248 NA
ATOM     50  C   UNL A   1      37.772  30.818  27.971  1.00  0.00     0.031 C 
ATOM     51  C   UNL A   1      39.491  34.334  30.663  1.00  0.00     0.029 A 
ATOM     52  N   UNL A   1      40.521  32.401  30.352  1.00  0.00    -0.354 N 
ATOM     53  C   UNL A   1      38.378  28.859  28.976  1.00  0.00     0.074 A 
ATOM     54  C   UNL A   1      37.855  29.497  27.795  1.00  0.00     0.031 C 
ATOM     55  C   UNL A   1      40.803  34.615  30.520  1.00  0.00     0.029 A 
ATOM     56  C   UNL A   1      41.517  33.369  30.326  1.00  0.00     0.049 A 
ATOM     57  H   UNL A   1      40.710  31.435  30.365  1.00  0.00     0.167 HD
ATOM     58  C   UNL A   1      39.044  27.679  29.134  1.00  0.00     0.034 A 
ATOM     59  C   UNL A   1      42.840  33.173  30.127  1.00  0.00     0.034 A 
ATOM     60  C   UNL A   1      39.389  27.446  30.511  1.00  0.00     0.049 A 
ATOM     61  C   UNL A   1      43.124  31.758  30.446  1.00  0.00     0.074 A 
ATOM     62  C   UNL A   1      38.693  27.328  31.698  1.00  0.00     0.029 A 
ATOM     63  N   UNL A   1      40.700  27.651  30.865  1.00  0.00    -0.354 N 
ATOM     64  N   UNL A   1      43.007  31.254  31.643  1.00  0.00    -0.248 NA
ATOM     65  C   UNL A   1      43.154  30.796  29.360  1.00  0.00     0.031 C 
ATOM     66  C   UNL A   1      39.527  27.955  32.671  1.00  0.00     0.029 A 
ATOM     67  C   UNL A   1      40.698  28.368  32.030  1.00  0.00     0.049 A 
ATOM     68  H   UNL A   1      41.493  27.341  30.372  1.00  0.00     0.167 HD
ATOM     69  C   UNL A   1      42.499  29.980  31.433  1.00  0.00     0.074 A 
ATOM     70  C   UNL A   1      42.742  29.708  30.018  1.00  0.00     0.031 C 
ATOM     71  C   UNL A   1      41.671  29.391  32.348  1.00  0.00     0.034 A 
BRANCH  58  72
ATOM     72  C   UNL A   1      39.708  26.874  28.032  1.00  0.00     0.023 A 
ATOM     73  C   UNL A   1      39.365  25.504  27.931  1.00  0.00     0.012 A 
ATOM     74  C   UNL A   1      40.833  27.302  27.293  1.00  0.00     0.148 A 
ATOM     75  C   UNL A   1      40.135  24.599  27.190  1.00  0.00     0.002 A 
ATOM     76  C   UNL A   1      41.547  26.414  26.491  1.00  0.00     0.091 A 
ATOM     77  F   UNL A   1      41.314  28.537  27.459  1.00  0.00    -0.205 F 
ATOM     78  C   UNL A   1      41.225  25.057  26.463  1.00  0.00     0.022 A 
BRANCH  76  79
ATOM     79  S   UNL A   1      42.926  26.973  25.484  1.00  0.00     0.127 S 
ATOM     80  O   UNL A   1      43.847  27.472  26.500  1.00  0.00    -0.237 OA
ATOM     81  O   UNL A   1      43.341  25.734  24.824  1.00  0.00    -0.237 OA
ATOM     82  O   UNL A   1      42.360  27.966  24.578  1.00  0.00    -0.744 OA
ENDBRANCH  76  79
ENDBRANCH  58  72
BRANCH  59  83
ATOM     83  C   UNL A   1      43.837  34.072  29.511  1.00  0.00     0.023 A 
ATOM     84  C   UNL A   1      44.651  34.878  30.326  1.00  0.00     0.012 A 
ATOM     85  C   UNL A   1      44.167  33.950  28.141  1.00  0.00     0.148 A 
ATOM     86  C   UNL A   1      45.780  35.518  29.803  1.00  0.00     0.002 A 
ATOM     87  C   UNL A   1      45.287  34.593  27.624  1.00  0.00     0.091 A 
ATOM     88  F   UNL A   1      43.433  33.136  27.371  1.00  0.00    -0.205 F 
ATOM     89  C   UNL A   1      46.104  35.368  28.456  1.00  0.00     0.022 A 
BRANCH  87  90
ATOM     90  S   UNL A   1      45.771  34.432  25.899  1.00  0.00     0.127 S 
ATOM     91  O   UNL A   1      46.503  35.679  25.671  1.00  0.00    -0.237 OA
ATOM     92  O   UNL A   1      46.600  33.231  25.927  1.00  0.00    -0.237 OA
ATOM     93  O   UNL A   1      44.529  34.326  25.143  1.00  0.00    -0.744 OA
ENDBRANCH  87  90
ENDBRANCH  59  83
BRANCH  71  94
ATOM     94  C   UNL A   1      41.537  30.029  33.709  1.00  0.00     0.023 A 
ATOM     95  C   UNL A   1      42.498  29.839  34.725  1.00  0.00     0.012 A 
ATOM     96  C   UNL A   1      40.529  30.988  33.905  1.00  0.00     0.148 A 
ATOM     97  C   UNL A   1      42.441  30.569  35.915  1.00  0.00     0.002 A 
ATOM     98  C   UNL A   1      40.504  31.747  35.069  1.00  0.00     0.091 A 
ATOM     99  F   UNL A   1      39.624  31.167  32.929  1.00  0.00    -0.205 F 
ATOM    100  C   UNL A   1      41.453  31.534  36.081  1.00  0.00     0.022 A 
BRANCH  98 101
ATOM    101  S   UNL A   1      39.341  33.097  35.283  1.00  0.00     0.127 S 
ATOM    102  O   UNL A   1      38.063  32.447  35.000  1.00  0.00    -0.237 OA
ATOM    103  O   UNL A   1      39.542  33.466  36.686  1.00  0.00    -0.237 OA
ATOM    104  O   UNL A   1      39.749  34.128  34.336  1.00  0.00    -0.744 OA
ENDBRANCH  98 101
ENDBRANCH  71  94
ENDBRANCH  45  46
ENDBRANCH  37  40
ENDBRANCH  35  36
ENDBRANCH  34  35
ENDBRANCH  33  34
ENDBRANCH  32  33
ENDBRANCH   1  32
TORSDOF 21
ENDMDL
MODEL 2
REMARK VINA RESULT:     -10.8      3.819      9.534
REMARK SMILES O=C(CC[NH+]1CCC(n2nccc2NC(=O)c2ccccc2Cl)CC1)NCCCCCCNC(=O)c1ccc(-c2c3nc(c(-c4cccc(S(=O)(=O)[O-])c4F)c4ccc([nH]4)c(-c4cccc(S(=O)(=O)[O-])c4F)c4nc(c(-c5cccc(S(=O)(=O)[O-])c5F)c5ccc2[nH]5)C=C4)C=C3)cc1
REMARK SMILES IDX 28 1 27 2 26 3 1 4 2 5 3 7 4 8 5 9 6 10 25 11 7 13 24 14
REMARK SMILES IDX 8 15 9 16 10 17 13 18 11 19 12 20 14 21 15 22 16 24 17 25
REMARK SMILES IDX 18 26 22 27 19 28 21 29 23 30 20 31 29 32 30 33 31 34 32 35
REMARK SMILES IDX 33 36 34 37 35 39 36 40 37 41 98 42 38 43 97 44 39 45 40 46
REMARK SMILES IDX 41 47 91 48 42 49 96 50 90 51 92 52 43 53 95 54 89 55 88 56
REMARK SMILES IDX 44 58 76 59 56 60 75 61 57 62 60 63 74 64 93 65 58 66 59 67
REMARK SMILES IDX 73 69 94 70 61 71 45 72 46 73 54 74 47 75 49 76 55 77 48 78
REMARK SMILES IDX 50 79 51 80 52 81 53 82 77 83 78 84 86 85 79 86 81 87 87 88
REMARK SMILES IDX 80 89 82 90 83 91 84 92 85 93 62 94 63 95 71 96 64 97 66 98
REMARK SMILES IDX 72 99 65 100 67 101 68 102 69 103 70 104
REMARK H PARENT 26 6 5 12 14 23 33 38 92 57 60 68
REMARK Flexibility Score: inf
ROOT
ATOM      1  C   UNL A   1      36.784  21.244  25.044  1.00  0.00     0.021 C 
ENDROOT
BRANCH   1   2
ATOM      2  C   UNL A   1      35.588  22.108  25.445  1.00  0.00     0.116 C 
BRANCH   2   3
ATOM      3  N   UNL A   1      34.375  21.814  24.705  1.00  0.00    -0.356 N 
ATOM      4  O   UNL A   1      33.144  21.292  26.576  1.00  0.00    -0.275 OA
ATOM      5  C   UNL A   1      33.220  21.436  25.359  1.00  0.00     0.225 C 
ATOM      6  H   UNL A   1      34.376  21.885  23.723  1.00  0.00     0.163 HD
BRANCH   5   7
ATOM      7  C   UNL A   1      32.002  21.306  24.472  1.00  0.00     0.161 C 
BRANCH   7   8
ATOM      8  C   UNL A   1      32.240  21.932  23.085  1.00  0.00     0.272 C 
BRANCH   8   9
ATOM      9  N   UNL A   1      31.586  23.220  22.750  1.00  0.00    -0.334 N 
ATOM     10  C   UNL A   1      30.699  23.672  23.826  1.00  0.00     0.264 C 
ATOM     11  C   UNL A   1      32.542  24.231  22.309  1.00  0.00     0.264 C 
ATOM     12  H   UNL A   1      30.984  23.058  21.943  1.00  0.00     0.348 HD
ATOM     13  C   UNL A   1      30.001  24.984  23.493  1.00  0.00     0.089 C 
ATOM     14  C   UNL A   1      31.850  25.533  21.917  1.00  0.00     0.089 C 
ATOM     15  C   UNL A   1      31.015  26.062  23.081  1.00  0.00     0.121 C 
BRANCH  15  16
ATOM     16  N   UNL A   1      30.351  27.352  22.920  1.00  0.00    -0.246 N 
ATOM     17  N   UNL A   1      29.008  27.352  23.115  1.00  0.00    -0.179 NA
ATOM     18  C   UNL A   1      30.839  28.616  22.627  1.00  0.00     0.131 A 
ATOM     19  C   UNL A   1      28.627  28.592  22.841  1.00  0.00     0.137 A 
ATOM     20  C   UNL A   1      29.711  29.394  22.464  1.00  0.00     0.069 A 
BRANCH  18  21
ATOM     21  N   UNL A   1      32.170  28.994  22.507  1.00  0.00    -0.307 N 
ATOM     22  C   UNL A   1      33.173  29.150  23.508  1.00  0.00     0.258 C 
ATOM     23  H   UNL A   1      32.468  29.184  21.588  1.00  0.00     0.171 HD
ATOM     24  O   UNL A   1      34.248  29.582  23.116  1.00  0.00    -0.269 OA
BRANCH  22  25
ATOM     25  C   UNL A   1      32.924  28.906  24.922  1.00  0.00     0.058 A 
ATOM     26  C   UNL A   1      32.270  29.917  25.637  1.00  0.00     0.015 A 
ATOM     27  C   UNL A   1      33.255  27.691  25.524  1.00  0.00     0.053 A 
ATOM     28  C   UNL A   1      31.872  29.676  26.950  1.00  0.00     0.001 A 
ATOM     29  C   UNL A   1      32.841  27.453  26.835  1.00  0.00     0.021 A 
ATOM     30  Cl  UNL A   1      34.103  26.449  24.683  1.00  0.00    -0.083 Cl
ATOM     31  C   UNL A   1      32.140  28.439  27.539  1.00  0.00     0.002 A 
ENDBRANCH  22  25
ENDBRANCH  18  21
ENDBRANCH  15  16
ENDBRANCH   8   9
ENDBRANCH   7   8
ENDBRANCH   5   7
ENDBRANCH   2   3
ENDBRANCH   1   2
BRANCH   1  32
ATOM     32  C   UNL A   1      38.171  21.854  25.274  1.00  0.00     0.002 C 
BRANCH  32  33
ATOM     33  C   UNL A   1      39.168  21.025  26.091  1.00  0.00     0.002 C 
BRANCH  33  34
ATOM     34  C   UNL A   1      39.592  19.656  25.555  1.00  0.00     0.021 C 
BRANCH  34  35
ATOM     35  C   UNL A   1      40.578  18.905  26.443  1.00  0.00     0.116 C 
BRANCH  35  36
ATOM     36  N   UNL A   1      41.946  18.893  25.909  1.00  0.00    -0.352 N 
ATOM     37  C   UNL A   1      42.787  19.975  25.712  1.00  0.00     0.251 C 
ATOM     38  H   UNL A   1      42.309  18.012  25.662  1.00  0.00     0.163 HD
ATOM     39  O   UNL A   1      43.762  19.909  24.974  1.00  0.00    -0.269 OA
BRANCH  37  40
ATOM     40  C   UNL A   1      42.481  21.209  26.455  1.00  0.00     0.039 A 
ATOM     41  C   UNL A   1      42.249  21.207  27.833  1.00  0.00     0.014 A 
ATOM     42  C   UNL A   1      42.585  22.397  25.741  1.00  0.00     0.014 A 
ATOM     43  C   UNL A   1      42.237  22.428  28.510  1.00  0.00     0.010 A 
ATOM     44  C   UNL A   1      42.723  23.575  26.430  1.00  0.00     0.010 A 
ATOM     45  C   UNL A   1      42.512  23.612  27.810  1.00  0.00    -0.014 A 
BRANCH  45  46
ATOM     46  C   UNL A   1      42.699  24.882  28.514  1.00  0.00     0.031 A 
ATOM     47  C   UNL A   1      41.640  25.918  28.319  1.00  0.00     0.074 A 
ATOM     48  C   UNL A   1      43.619  25.035  29.493  1.00  0.00     0.049 A 
ATOM     49  N   UNL A   1      41.769  27.098  27.803  1.00  0.00    -0.248 NA
ATOM     50  C   UNL A   1      40.253  25.574  28.669  1.00  0.00     0.031 C 
ATOM     51  C   UNL A   1      44.521  24.017  30.052  1.00  0.00     0.029 A 
ATOM     52  N   UNL A   1      43.822  26.098  30.319  1.00  0.00    -0.354 N 
ATOM     53  C   UNL A   1      40.531  27.728  27.962  1.00  0.00     0.074 A 
ATOM     54  C   UNL A   1      39.603  26.693  28.337  1.00  0.00     0.031 C 
ATOM     55  C   UNL A   1      44.939  24.411  31.274  1.00  0.00     0.029 A 
ATOM     56  C   UNL A   1      44.509  25.778  31.483  1.00  0.00     0.049 A 
ATOM     57  H   UNL A   1      43.509  27.009  30.111  1.00  0.00     0.167 HD
ATOM     58  C   UNL A   1      40.414  29.087  27.990  1.00  0.00     0.034 A 
ATOM     59  C   UNL A   1      44.692  26.567  32.565  1.00  0.00     0.034 A 
ATOM     60  C   UNL A   1      41.615  29.731  27.527  1.00  0.00     0.049 A 
ATOM     61  C   UNL A   1      44.495  27.964  32.124  1.00  0.00     0.074 A 
ATOM     62  C   UNL A   1      42.359  29.719  26.364  1.00  0.00     0.029 A 
ATOM     63  N   UNL A   1      42.428  30.287  28.484  1.00  0.00    -0.354 N 
ATOM     64  N   UNL A   1      45.283  28.569  31.279  1.00  0.00    -0.248 NA
ATOM     65  C   UNL A   1      43.191  28.572  32.312  1.00  0.00     0.031 C 
ATOM     66  C   UNL A   1      43.714  29.804  26.799  1.00  0.00     0.029 A 
ATOM     67  C   UNL A   1      43.712  29.916  28.192  1.00  0.00     0.049 A 
ATOM     68  H   UNL A   1      42.140  30.848  29.241  1.00  0.00     0.167 HD
ATOM     69  C   UNL A   1      44.429  29.344  30.506  1.00  0.00     0.074 A 
ATOM     70  C   UNL A   1      43.188  29.412  31.273  1.00  0.00     0.031 C 
ATOM     71  C   UNL A   1      44.709  29.608  29.194  1.00  0.00     0.034 A 
BRANCH  58  72
ATOM     72  C   UNL A   1      39.367  29.877  28.751  1.00  0.00     0.023 A 
ATOM     73  C   UNL A   1      39.488  29.929  30.161  1.00  0.00     0.012 A 
ATOM     74  C   UNL A   1      38.142  30.320  28.204  1.00  0.00     0.148 A 
ATOM     75  C   UNL A   1      38.430  30.335  30.983  1.00  0.00     0.002 A 
ATOM     76  C   UNL A   1      37.122  30.802  29.021  1.00  0.00     0.091 A 
ATOM     77  F   UNL A   1      37.890  30.155  26.903  1.00  0.00    -0.205 F 
ATOM     78  C   UNL A   1      37.246  30.780  30.411  1.00  0.00     0.022 A 
BRANCH  76  79
ATOM     79  S   UNL A   1      35.596  31.445  28.323  1.00  0.00     0.127 S 
ATOM     80  O   UNL A   1      35.120  30.300  27.554  1.00  0.00    -0.237 OA
ATOM     81  O   UNL A   1      34.819  31.753  29.525  1.00  0.00    -0.237 OA
ATOM     82  O   UNL A   1      35.992  32.621  27.556  1.00  0.00    -0.744 OA
ENDBRANCH  76  79
ENDBRANCH  58  72
BRANCH  59  83
ATOM     83  C   UNL A   1      44.848  26.189  33.984  1.00  0.00     0.023 A 
ATOM     84  C   UNL A   1      46.133  26.086  34.544  1.00  0.00     0.012 A 
ATOM     85  C   UNL A   1      43.732  26.180  34.853  1.00  0.00     0.148 A 
ATOM     86  C   UNL A   1      46.307  26.009  35.931  1.00  0.00     0.002 A 
ATOM     87  C   UNL A   1      43.909  26.097  36.230  1.00  0.00     0.091 A 
ATOM     88  F   UNL A   1      42.508  26.338  34.332  1.00  0.00    -0.205 F 
ATOM     89  C   UNL A   1      45.198  26.025  36.774  1.00  0.00     0.022 A 
BRANCH  87  90
ATOM     90  S   UNL A   1      42.524  26.126  37.377  1.00  0.00     0.127 S 
ATOM     91  O   UNL A   1      41.873  24.844  37.102  1.00  0.00    -0.237 OA
ATOM     92  O   UNL A   1      43.200  26.206  38.668  1.00  0.00    -0.237 OA
ATOM     93  O   UNL A   1      41.724  27.289  37.009  1.00  0.00    -0.744 OA
ENDBRANCH  87  90
ENDBRANCH  59  83
BRANCH  71  94
ATOM     94  C   UNL A   1      46.086  29.275  28.673  1.00  0.00     0.023 A 
ATOM     95  C   UNL A   1      47.193  30.125  28.884  1.00  0.00     0.012 A 
ATOM     96  C   UNL A   1      46.309  27.998  28.132  1.00  0.00     0.148 A 
ATOM     97  C   UNL A   1      48.486  29.721  28.541  1.00  0.00     0.002 A 
ATOM     98  C   UNL A   1      47.602  27.581  27.838  1.00  0.00     0.091 A 
ATOM     99  F   UNL A   1      45.251  27.194  27.943  1.00  0.00    -0.205 F 
ATOM    100  C   UNL A   1      48.693  28.443  28.031  1.00  0.00     0.022 A 
BRANCH  98 101
ATOM    101  S   UNL A   1      47.947  25.901  27.309  1.00  0.00     0.127 S 
ATOM    102  O   UNL A   1      47.276  25.845  26.012  1.00  0.00    -0.237 OA
ATOM    103  O   UNL A   1      49.410  25.886  27.242  1.00  0.00    -0.237 OA
ATOM    104  O   UNL A   1      47.394  25.036  28.344  1.00  0.00    -0.744 OA
ENDBRANCH  98 101
ENDBRANCH  71  94
ENDBRANCH  45  46
ENDBRANCH  37  40
ENDBRANCH  35  36
ENDBRANCH  34  35
ENDBRANCH  33  34
ENDBRANCH  32  33
ENDBRANCH   1  32
TORSDOF 21
ENDMDL
MODEL 3
REMARK VINA RESULT:     -10.5      2.944      8.566
REMARK SMILES O=C(CC[NH+]1CCC(n2nccc2NC(=O)c2ccccc2Cl)CC1)NCCCCCCNC(=O)c1ccc(-c2c3nc(c(-c4cccc(S(=O)(=O)[O-])c4F)c4ccc([nH]4)c(-c4cccc(S(=O)(=O)[O-])c4F)c4nc(c(-c5cccc(S(=O)(=O)[O-])c5F)c5ccc2[nH]5)C=C4)C=C3)cc1
REMARK SMILES IDX 28 1 27 2 26 3 1 4 2 5 3 7 4 8 5 9 6 10 25 11 7 13 24 14
REMARK SMILES IDX 8 15 9 16 10 17 13 18 11 19 12 20 14 21 15 22 16 24 17 25
REMARK SMILES IDX 18 26 22 27 19 28 21 29 23 30 20 31 29 32 30 33 31 34 32 35
REMARK SMILES IDX 33 36 34 37 35 39 36 40 37 41 98 42 38 43 97 44 39 45 40 46
REMARK SMILES IDX 41 47 91 48 42 49 96 50 90 51 92 52 43 53 95 54 89 55 88 56
REMARK SMILES IDX 44 58 76 59 56 60 75 61 57 62 60 63 74 64 93 65 58 66 59 67
REMARK SMILES IDX 73 69 94 70 61 71 45 72 46 73 54 74 47 75 49 76 55 77 48 78
REMARK SMILES IDX 50 79 51 80 52 81 53 82 77 83 78 84 86 85 79 86 81 87 87 88
REMARK SMILES IDX 80 89 82 90 83 91 84 92 85 93 62 94 63 95 71 96 64 97 66 98
REMARK SMILES IDX 72 99 65 100 67 101 68 102 69 103 70 104
REMARK H PARENT 26 6 5 12 14 23 33 38 92 57 60 68
REMARK Flexibility Score: inf
ROOT
ATOM      1  C   UNL A   1      43.871  22.926  25.246  1.00  0.00     0.021 C 
ENDROOT
BRANCH   1   2
ATOM      2  C   UNL A   1      42.884  22.038  26.004  1.00  0.00     0.116 C 
BRANCH   2   3
ATOM      3  N   UNL A   1      41.493  22.304  25.691  1.00  0.00    -0.356 N 
ATOM      4  O   UNL A   1      40.860  22.563  27.887  1.00  0.00    -0.275 OA
ATOM      5  C   UNL A   1      40.579  22.568  26.692  1.00  0.00     0.225 C 
ATOM      6  H   UNL A   1      41.196  22.297  24.753  1.00  0.00     0.163 HD
BRANCH   5   7
ATOM      7  C   UNL A   1      39.205  22.972  26.206  1.00  0.00     0.161 C 
BRANCH   7   8
ATOM      8  C   UNL A   1      38.429  21.770  25.634  1.00  0.00     0.272 C 
BRANCH   8   9
ATOM      9  N   UNL A   1      37.079  21.987  25.062  1.00  0.00    -0.334 N 
ATOM     10  C   UNL A   1      36.025  21.555  25.984  1.00  0.00     0.264 C 
ATOM     11  C   UNL A   1      36.901  23.343  24.554  1.00  0.00     0.264 C 
ATOM     12  H   UNL A   1      36.993  21.387  24.241  1.00  0.00     0.348 HD
ATOM     13  C   UNL A   1      34.629  21.750  25.407  1.00  0.00     0.089 C 
ATOM     14  C   UNL A   1      35.526  23.536  23.920  1.00  0.00     0.089 C 
ATOM     15  C   UNL A   1      34.427  23.194  24.923  1.00  0.00     0.121 C 
BRANCH  15  16
ATOM     16  N   UNL A   1      33.039  23.407  24.521  1.00  0.00    -0.246 N 
ATOM     17  N   UNL A   1      32.100  22.832  25.316  1.00  0.00    -0.179 NA
ATOM     18  C   UNL A   1      32.476  24.123  23.476  1.00  0.00     0.131 A 
ATOM     19  C   UNL A   1      30.947  23.092  24.717  1.00  0.00     0.137 A 
ATOM     20  C   UNL A   1      31.130  23.825  23.537  1.00  0.00     0.069 A 
BRANCH  18  21
ATOM     21  N   UNL A   1      33.137  24.938  22.566  1.00  0.00    -0.307 N 
ATOM     22  C   UNL A   1      33.382  26.341  22.602  1.00  0.00     0.258 C 
ATOM     23  H   UNL A   1      33.490  24.474  21.773  1.00  0.00     0.171 HD
ATOM     24  O   UNL A   1      33.921  26.809  21.608  1.00  0.00    -0.269 OA
BRANCH  22  25
ATOM     25  C   UNL A   1      32.944  27.193  23.698  1.00  0.00     0.058 A 
ATOM     26  C   UNL A   1      33.837  27.373  24.762  1.00  0.00     0.015 A 
ATOM     27  C   UNL A   1      31.718  27.860  23.662  1.00  0.00     0.053 A 
ATOM     28  C   UNL A   1      33.531  28.294  25.760  1.00  0.00     0.001 A 
ATOM     29  C   UNL A   1      31.426  28.791  24.659  1.00  0.00     0.021 A 
ATOM     30  Cl  UNL A   1      30.578  27.620  22.391  1.00  0.00    -0.083 Cl
ATOM     31  C   UNL A   1      32.338  29.016  25.697  1.00  0.00     0.002 A 
ENDBRANCH  22  25
ENDBRANCH  18  21
ENDBRANCH  15  16
ENDBRANCH   8   9
ENDBRANCH   7   8
ENDBRANCH   5   7
ENDBRANCH   2   3
ENDBRANCH   1   2
BRANCH   1  32
ATOM     32  C   UNL A   1      43.384  24.335  24.893  1.00  0.00     0.002 C 
BRANCH  32  33
ATOM     33  C   UNL A   1      43.421  25.384  26.011  1.00  0.00     0.002 C 
BRANCH  33  34
ATOM     34  C   UNL A   1      44.726  26.142  26.260  1.00  0.00     0.021 C 
BRANCH  34  35
ATOM     35  C   UNL A   1      45.403  25.820  27.587  1.00  0.00     0.116 C 
BRANCH  35  36
ATOM     36  N   UNL A   1      44.846  24.632  28.249  1.00  0.00    -0.352 N 
ATOM     37  C   UNL A   1      44.105  24.584  29.416  1.00  0.00     0.251 C 
ATOM     38  H   UNL A   1      45.020  23.769  27.809  1.00  0.00     0.163 HD
ATOM     39  O   UNL A   1      43.968  23.545  30.051  1.00  0.00    -0.269 OA
BRANCH  37  40
ATOM     40  C   UNL A   1      43.455  25.831  29.854  1.00  0.00     0.039 A 
ATOM     41  C   UNL A   1      44.012  26.653  30.837  1.00  0.00     0.014 A 
ATOM     42  C   UNL A   1      42.335  26.225  29.131  1.00  0.00     0.014 A 
ATOM     43  C   UNL A   1      43.493  27.937  31.007  1.00  0.00     0.010 A 
ATOM     44  C   UNL A   1      41.931  27.534  29.197  1.00  0.00     0.010 A 
ATOM     45  C   UNL A   1      42.473  28.391  30.156  1.00  0.00    -0.014 A 
BRANCH  45  46
ATOM     46  C   UNL A   1      42.038  29.789  30.175  1.00  0.00     0.031 A 
ATOM     47  C   UNL A   1      43.025  30.803  29.693  1.00  0.00     0.074 A 
ATOM     48  C   UNL A   1      40.745  30.139  30.356  1.00  0.00     0.049 A 
ATOM     49  N   UNL A   1      43.543  31.785  30.358  1.00  0.00    -0.248 NA
ATOM     50  C   UNL A   1      43.559  30.666  28.329  1.00  0.00     0.031 C 
ATOM     51  C   UNL A   1      39.581  29.253  30.507  1.00  0.00     0.029 A 
ATOM     52  N   UNL A   1      40.172  31.371  30.270  1.00  0.00    -0.354 N 
ATOM     53  C   UNL A   1      44.299  32.519  29.440  1.00  0.00     0.074 A 
ATOM     54  C   UNL A   1      44.410  31.693  28.265  1.00  0.00     0.031 C 
ATOM     55  C   UNL A   1      38.456  29.935  30.208  1.00  0.00     0.029 A 
ATOM     56  C   UNL A   1      38.800  31.335  30.056  1.00  0.00     0.049 A 
ATOM     57  H   UNL A   1      40.682  32.209  30.350  1.00  0.00     0.167 HD
ATOM     58  C   UNL A   1      44.585  33.838  29.636  1.00  0.00     0.034 A 
ATOM     59  C   UNL A   1      37.995  32.375  29.743  1.00  0.00     0.034 A 
ATOM     60  C   UNL A   1      44.304  34.246  30.987  1.00  0.00     0.049 A 
ATOM     61  C   UNL A   1      38.696  33.608  30.158  1.00  0.00     0.074 A 
ATOM     62  C   UNL A   1      44.730  33.864  32.244  1.00  0.00     0.029 A 
ATOM     63  N   UNL A   1      43.164  34.985  31.187  1.00  0.00    -0.354 N 
ATOM     64  N   UNL A   1      38.958  33.902  31.402  1.00  0.00    -0.248 NA
ATOM     65  C   UNL A   1      39.467  34.334  29.166  1.00  0.00     0.031 C 
ATOM     66  C   UNL A   1      43.571  33.970  33.067  1.00  0.00     0.029 A 
ATOM     67  C   UNL A   1      42.527  34.459  32.277  1.00  0.00     0.049 A 
ATOM     68  H   UNL A   1      42.862  35.750  30.646  1.00  0.00     0.167 HD
ATOM     69  C   UNL A   1      40.213  34.494  31.359  1.00  0.00     0.074 A 
ATOM     70  C   UNL A   1      40.409  34.855  29.958  1.00  0.00     0.031 C 
ATOM     71  C   UNL A   1      41.088  34.368  32.402  1.00  0.00     0.034 A 
BRANCH  58  72
ATOM     72  C   UNL A   1      44.791  34.878  28.550  1.00  0.00     0.023 A 
ATOM     73  C   UNL A   1      46.048  34.897  27.897  1.00  0.00     0.012 A 
ATOM     74  C   UNL A   1      43.949  35.992  28.336  1.00  0.00     0.148 A 
ATOM     75  C   UNL A   1      46.470  35.991  27.131  1.00  0.00     0.002 A 
ATOM     76  C   UNL A   1      44.340  37.039  27.505  1.00  0.00     0.091 A 
ATOM     77  F   UNL A   1      42.820  36.123  29.037  1.00  0.00    -0.205 F 
ATOM     78  C   UNL A   1      45.610  37.061  26.928  1.00  0.00     0.022 A 
BRANCH  76  79
ATOM     79  S   UNL A   1      43.238  38.417  27.163  1.00  0.00     0.127 S 
ATOM     80  O   UNL A   1      42.104  37.738  26.542  1.00  0.00    -0.237 OA
ATOM     81  O   UNL A   1      42.987  38.945  28.505  1.00  0.00    -0.237 OA
ATOM     82  O   UNL A   1      44.003  39.315  26.305  1.00  0.00    -0.744 OA
ENDBRANCH  76  79
ENDBRANCH  58  72
BRANCH  59  83
ATOM     83  C   UNL A   1      36.748  32.389  28.952  1.00  0.00     0.023 A 
ATOM     84  C   UNL A   1      36.350  31.236  28.252  1.00  0.00     0.012 A 
ATOM     85  C   UNL A   1      35.820  33.447  29.090  1.00  0.00     0.148 A 
ATOM     86  C   UNL A   1      35.055  31.124  27.733  1.00  0.00     0.002 A 
ATOM     87  C   UNL A   1      34.536  33.333  28.567  1.00  0.00     0.091 A 
ATOM     88  F   UNL A   1      36.171  34.523  29.807  1.00  0.00    -0.205 F 
ATOM     89  C   UNL A   1      34.146  32.167  27.899  1.00  0.00     0.022 A 
BRANCH  87  90
ATOM     90  S   UNL A   1      33.307  34.634  28.756  1.00  0.00     0.127 S 
ATOM     91  O   UNL A   1      32.226  34.158  27.892  1.00  0.00    -0.237 OA
ATOM     92  O   UNL A   1      33.021  34.576  30.186  1.00  0.00    -0.237 OA
ATOM     93  O   UNL A   1      33.946  35.858  28.287  1.00  0.00    -0.744 OA
ENDBRANCH  87  90
ENDBRANCH  59  83
BRANCH  71  94
ATOM     94  C   UNL A   1      40.573  33.810  33.707  1.00  0.00     0.023 A 
ATOM     95  C   UNL A   1      39.853  34.600  34.629  1.00  0.00     0.012 A 
ATOM     96  C   UNL A   1      40.648  32.424  33.921  1.00  0.00     0.148 A 
ATOM     97  C   UNL A   1      39.244  34.026  35.747  1.00  0.00     0.002 A 
ATOM     98  C   UNL A   1      40.000  31.849  35.008  1.00  0.00     0.091 A 
ATOM     99  F   UNL A   1      41.328  31.680  33.035  1.00  0.00    -0.205 F 
ATOM    100  C   UNL A   1      39.305  32.648  35.930  1.00  0.00     0.022 A 
BRANCH  98 101
ATOM    101  S   UNL A   1      39.926  30.070  35.222  1.00  0.00     0.127 S 
ATOM    102  O   UNL A   1      41.310  29.744  35.561  1.00  0.00    -0.237 OA
ATOM    103  O   UNL A   1      38.975  29.923  36.326  1.00  0.00    -0.237 OA
ATOM    104  O   UNL A   1      39.445  29.536  33.953  1.00  0.00    -0.744 OA
ENDBRANCH  98 101
ENDBRANCH  71  94
ENDBRANCH  45  46
ENDBRANCH  37  40
ENDBRANCH  35  36
ENDBRANCH  34  35
ENDBRANCH  33  34
ENDBRANCH  32  33
ENDBRANCH   1  32
TORSDOF 21
ENDMDL
