MODEL 1
REMARK VINA RESULT:     -12.8      0.000      0.000
REMARK SMILES Cc1nn(-c2ccc(Cl)c(F)c2)cc1C(=O)NCCCCCCNC(=O)c1ccc(-c2c3nc(c(-c4cccc(S(=O)(=O)[O-])c4F)c4ccc([nH]4)c(-c4cccc(S(=O)(=O)[O-])c4F)c4nc(c(-c5cccc(S(=O)(=O)[O-])c5F)c5ccc2[nH]5)C=C4)C=C3)cc1
REMARK SMILES IDX 21 1 20 2 19 3 18 4 17 5 15 6 16 7 14 9 1 10 2 11 3 12 4 13
REMARK SMILES IDX 13 14 5 15 6 16 12 17 7 18 10 19 8 20 11 21 9 22 22 23 23 24
REMARK SMILES IDX 24 25 25 26 26 28 27 29 28 30 89 31 29 32 88 33 30 34 31 35
REMARK SMILES IDX 32 36 82 37 33 38 87 39 81 40 83 41 34 42 86 43 80 44 79 45
REMARK SMILES IDX 35 47 67 48 47 49 66 50 48 51 51 52 65 53 84 54 49 55 50 56
REMARK SMILES IDX 64 58 85 59 52 60 36 61 37 62 45 63 38 64 40 65 46 66 39 67
REMARK SMILES IDX 41 68 42 69 43 70 44 71 68 72 69 73 77 74 70 75 72 76 78 77
REMARK SMILES IDX 71 78 73 79 74 80 75 81 76 82 53 83 54 84 62 85 55 86 57 87
REMARK SMILES IDX 63 88 56 89 58 90 59 91 60 92 61 93
REMARK H PARENT 17 8 24 27 83 46 51 57
REMARK Flexibility Score: inf
ROOT
ATOM      1  C   UNL A   1      33.098  27.745  25.804  1.00  0.00     0.002 C 
ENDROOT
BRANCH   1   2
ATOM      2  C   UNL A   1      33.374  26.255  26.056  1.00  0.00     0.002 C 
BRANCH   2   3
ATOM      3  C   UNL A   1      34.583  25.674  25.321  1.00  0.00     0.021 C 
BRANCH   3   4
ATOM      4  C   UNL A   1      34.498  24.173  25.063  1.00  0.00     0.116 C 
BRANCH   4   5
ATOM      5  N   UNL A   1      34.315  23.853  23.662  1.00  0.00    -0.352 N 
ATOM      6  C   UNL A   1      33.349  24.154  22.737  1.00  0.00     0.254 C 
ATOM      7  O   UNL A   1      33.521  23.682  21.610  1.00  0.00    -0.269 OA
ATOM      8  H   UNL A   1      35.043  23.301  23.294  1.00  0.00     0.163 HD
BRANCH   6   9
ATOM      9  C   UNL A   1      32.182  24.977  23.034  1.00  0.00     0.081 A 
ATOM     10  C   UNL A   1      30.868  23.347  24.609  1.00  0.00     0.069 C 
ATOM     11  C   UNL A   1      31.100  24.640  23.912  1.00  0.00     0.073 A 
ATOM     12  N   UNL A   1      30.227  25.650  24.074  1.00  0.00    -0.173 NA
ATOM     13  N   UNL A   1      30.643  26.583  23.199  1.00  0.00    -0.240 N 
ATOM     14  C   UNL A   1      31.790  26.202  22.548  1.00  0.00     0.129 A 
BRANCH  13  15
ATOM     15  C   UNL A   1      29.941  27.784  22.952  1.00  0.00     0.068 A 
ATOM     16  C   UNL A   1      30.600  28.889  22.405  1.00  0.00     0.030 A 
ATOM     17  C   UNL A   1      28.561  27.829  23.198  1.00  0.00     0.069 A 
ATOM     18  C   UNL A   1      29.856  30.024  22.056  1.00  0.00     0.026 A 
ATOM     19  C   UNL A   1      27.847  28.980  22.896  1.00  0.00     0.143 A 
ATOM     20  C   UNL A   1      28.482  30.072  22.312  1.00  0.00     0.076 A 
ATOM     21  F   UNL A   1      26.538  29.012  23.191  1.00  0.00    -0.205 F 
ATOM     22  Cl  UNL A   1      27.588  31.489  21.918  1.00  0.00    -0.081 Cl
ENDBRANCH  13  15
ENDBRANCH   6   9
ENDBRANCH   4   5
ENDBRANCH   3   4
ENDBRANCH   2   3
ENDBRANCH   1   2
BRANCH   1  23
ATOM     23  C   UNL A   1      33.229  28.677  27.020  1.00  0.00     0.021 C 
BRANCH  23  24
ATOM     24  C   UNL A   1      34.431  29.605  26.948  1.00  0.00     0.116 C 
BRANCH  24  25
ATOM     25  N   UNL A   1      34.192  30.844  27.680  1.00  0.00    -0.352 N 
ATOM     26  C   UNL A   1      34.880  31.348  28.763  1.00  0.00     0.251 C 
ATOM     27  H   UNL A   1      33.442  31.392  27.358  1.00  0.00     0.163 HD
ATOM     28  O   UNL A   1      34.376  32.205  29.469  1.00  0.00    -0.269 OA
BRANCH  26  29
ATOM     29  C   UNL A   1      36.226  30.824  29.062  1.00  0.00     0.039 A 
ATOM     30  C   UNL A   1      36.395  29.466  29.344  1.00  0.00     0.014 A 
ATOM     31  C   UNL A   1      37.316  31.695  29.056  1.00  0.00     0.014 A 
ATOM     32  C   UNL A   1      37.681  28.975  29.545  1.00  0.00     0.010 A 
ATOM     33  C   UNL A   1      38.593  31.191  29.148  1.00  0.00     0.010 A 
ATOM     34  C   UNL A   1      38.780  29.839  29.424  1.00  0.00    -0.014 A 
BRANCH  34  35
ATOM     35  C   UNL A   1      40.133  29.292  29.436  1.00  0.00     0.031 A 
ATOM     36  C   UNL A   1      40.696  29.077  30.798  1.00  0.00     0.074 A 
ATOM     37  C   UNL A   1      40.750  28.815  28.335  1.00  0.00     0.049 A 
ATOM     38  N   UNL A   1      41.706  29.678  31.337  1.00  0.00    -0.248 NA
ATOM     39  C   UNL A   1      39.965  28.196  31.723  1.00  0.00     0.031 C 
ATOM     40  C   UNL A   1      40.185  28.676  26.987  1.00  0.00     0.029 A 
ATOM     41  N   UNL A   1      41.962  28.201  28.219  1.00  0.00    -0.354 N 
ATOM     42  C   UNL A   1      41.888  29.065  32.577  1.00  0.00     0.074 A 
ATOM     43  C   UNL A   1      40.679  28.333  32.841  1.00  0.00     0.031 C 
ATOM     44  C   UNL A   1      40.924  27.795  26.281  1.00  0.00     0.029 A 
ATOM     45  C   UNL A   1      42.094  27.439  27.061  1.00  0.00     0.049 A 
ATOM     46  H   UNL A   1      42.676  28.288  28.891  1.00  0.00     0.167 HD
ATOM     47  C   UNL A   1      43.123  28.989  33.147  1.00  0.00     0.034 A 
ATOM     48  C   UNL A   1      43.062  26.532  26.790  1.00  0.00     0.034 A 
ATOM     49  C   UNL A   1      44.046  29.901  32.514  1.00  0.00     0.049 A 
ATOM     50  C   UNL A   1      44.215  26.847  27.661  1.00  0.00     0.074 A 
ATOM     51  C   UNL A   1      44.093  31.262  32.291  1.00  0.00     0.029 A 
ATOM     52  N   UNL A   1      44.961  29.344  31.655  1.00  0.00    -0.354 N 
ATOM     53  N   UNL A   1      44.924  27.934  27.551  1.00  0.00    -0.248 NA
ATOM     54  C   UNL A   1      44.347  26.138  28.923  1.00  0.00     0.031 C 
ATOM     55  C   UNL A   1      44.689  31.404  31.002  1.00  0.00     0.029 A 
ATOM     56  C   UNL A   1      45.031  30.130  30.539  1.00  0.00     0.049 A 
ATOM     57  H   UNL A   1      45.478  28.521  31.815  1.00  0.00     0.167 HD
ATOM     58  C   UNL A   1      45.193  28.297  28.861  1.00  0.00     0.074 A 
ATOM     59  C   UNL A   1      44.946  27.089  29.644  1.00  0.00     0.031 C 
ATOM     60  C   UNL A   1      45.293  29.614  29.214  1.00  0.00     0.034 A 
BRANCH  47  61
ATOM     61  C   UNL A   1      43.634  27.826  33.979  1.00  0.00     0.023 A 
ATOM     62  C   UNL A   1      44.007  26.653  33.278  1.00  0.00     0.012 A 
ATOM     63  C   UNL A   1      43.487  27.705  35.380  1.00  0.00     0.148 A 
ATOM     64  C   UNL A   1      44.134  25.416  33.921  1.00  0.00     0.002 A 
ATOM     65  C   UNL A   1      43.693  26.490  36.025  1.00  0.00     0.091 A 
ATOM     66  F   UNL A   1      43.020  28.726  36.100  1.00  0.00    -0.205 F 
ATOM     67  C   UNL A   1      43.977  25.334  35.297  1.00  0.00     0.022 A 
BRANCH  65  68
ATOM     68  S   UNL A   1      43.551  26.336  37.811  1.00  0.00     0.127 S 
ATOM     69  O   UNL A   1      42.103  26.368  37.991  1.00  0.00    -0.237 OA
ATOM     70  O   UNL A   1      44.179  25.036  38.048  1.00  0.00    -0.237 OA
ATOM     71  O   UNL A   1      44.291  27.465  38.360  1.00  0.00    -0.744 OA
ENDBRANCH  65  68
ENDBRANCH  47  61
BRANCH  48  72
ATOM     72  C   UNL A   1      42.988  25.269  26.020  1.00  0.00     0.023 A 
ATOM     73  C   UNL A   1      43.963  24.996  25.039  1.00  0.00     0.012 A 
ATOM     74  C   UNL A   1      42.152  24.212  26.440  1.00  0.00     0.148 A 
ATOM     75  C   UNL A   1      44.132  23.702  24.530  1.00  0.00     0.002 A 
ATOM     76  C   UNL A   1      42.318  22.929  25.927  1.00  0.00     0.091 A 
ATOM     77  F   UNL A   1      41.261  24.438  27.413  1.00  0.00    -0.205 F 
ATOM     78  C   UNL A   1      43.318  22.668  24.981  1.00  0.00     0.022 A 
BRANCH  76  79
ATOM     79  S   UNL A   1      41.319  21.544  26.488  1.00  0.00     0.127 S 
ATOM     80  O   UNL A   1      41.609  21.521  27.923  1.00  0.00    -0.237 OA
ATOM     81  O   UNL A   1      39.970  21.983  26.142  1.00  0.00    -0.237 OA
ATOM     82  O   UNL A   1      41.811  20.379  25.762  1.00  0.00    -0.744 OA
ENDBRANCH  76  79
ENDBRANCH  48  72
BRANCH  60  83
ATOM     83  C   UNL A   1      45.427  30.633  28.110  1.00  0.00     0.023 A 
ATOM     84  C   UNL A   1      44.318  31.137  27.398  1.00  0.00     0.012 A 
ATOM     85  C   UNL A   1      46.691  31.206  27.887  1.00  0.00     0.148 A 
ATOM     86  C   UNL A   1      44.472  32.162  26.460  1.00  0.00     0.002 A 
ATOM     87  C   UNL A   1      46.833  32.259  26.991  1.00  0.00     0.091 A 
ATOM     88  F   UNL A   1      47.737  30.722  28.573  1.00  0.00    -0.205 F 
ATOM     89  C   UNL A   1      45.728  32.732  26.267  1.00  0.00     0.022 A 
BRANCH  87  90
ATOM     90  S   UNL A   1      48.398  33.111  26.795  1.00  0.00     0.127 S 
ATOM     91  O   UNL A   1      49.299  32.017  26.437  1.00  0.00    -0.237 OA
ATOM     92  O   UNL A   1      48.114  34.051  25.709  1.00  0.00    -0.237 OA
ATOM     93  O   UNL A   1      48.665  33.752  28.078  1.00  0.00    -0.744 OA
ENDBRANCH  87  90
ENDBRANCH  60  83
ENDBRANCH  34  35
ENDBRANCH  26  29
ENDBRANCH  24  25
ENDBRANCH  23  24
ENDBRANCH   1  23
TORSDOF 17
ENDMDL
MODEL 2
REMARK VINA RESULT:     -12.8      3.065      4.668
REMARK SMILES Cc1nn(-c2ccc(Cl)c(F)c2)cc1C(=O)NCCCCCCNC(=O)c1ccc(-c2c3nc(c(-c4cccc(S(=O)(=O)[O-])c4F)c4ccc([nH]4)c(-c4cccc(S(=O)(=O)[O-])c4F)c4nc(c(-c5cccc(S(=O)(=O)[O-])c5F)c5ccc2[nH]5)C=C4)C=C3)cc1
REMARK SMILES IDX 21 1 20 2 19 3 18 4 17 5 15 6 16 7 14 9 1 10 2 11 3 12 4 13
REMARK SMILES IDX 13 14 5 15 6 16 12 17 7 18 10 19 8 20 11 21 9 22 22 23 23 24
REMARK SMILES IDX 24 25 25 26 26 28 27 29 28 30 89 31 29 32 88 33 30 34 31 35
REMARK SMILES IDX 32 36 82 37 33 38 87 39 81 40 83 41 34 42 86 43 80 44 79 45
REMARK SMILES IDX 35 47 67 48 47 49 66 50 48 51 51 52 65 53 84 54 49 55 50 56
REMARK SMILES IDX 64 58 85 59 52 60 36 61 37 62 45 63 38 64 40 65 46 66 39 67
REMARK SMILES IDX 41 68 42 69 43 70 44 71 68 72 69 73 77 74 70 75 72 76 78 77
REMARK SMILES IDX 71 78 73 79 74 80 75 81 76 82 53 83 54 84 62 85 55 86 57 87
REMARK SMILES IDX 63 88 56 89 58 90 59 91 60 92 61 93
REMARK H PARENT 17 8 24 27 83 46 51 57
REMARK Flexibility Score: inf
ROOT
ATOM      1  C   UNL A   1      31.684  28.003  26.508  1.00  0.00     0.002 C 
ENDROOT
BRANCH   1   2
ATOM      2  C   UNL A   1      32.364  26.915  25.663  1.00  0.00     0.002 C 
BRANCH   2   3
ATOM      3  C   UNL A   1      31.884  25.485  25.916  1.00  0.00     0.021 C 
BRANCH   3   4
ATOM      4  C   UNL A   1      32.942  24.415  25.668  1.00  0.00     0.116 C 
BRANCH   4   5
ATOM      5  N   UNL A   1      33.405  24.391  24.295  1.00  0.00    -0.352 N 
ATOM      6  C   UNL A   1      34.053  23.458  23.526  1.00  0.00     0.254 C 
ATOM      7  O   UNL A   1      34.310  23.802  22.370  1.00  0.00    -0.269 OA
ATOM      8  H   UNL A   1      33.214  25.226  23.809  1.00  0.00     0.163 HD
BRANCH   6   9
ATOM      9  C   UNL A   1      34.425  22.136  24.015  1.00  0.00     0.081 A 
ATOM     10  C   UNL A   1      36.980  22.518  24.455  1.00  0.00     0.069 C 
ATOM     11  C   UNL A   1      35.719  21.729  24.480  1.00  0.00     0.073 A 
ATOM     12  N   UNL A   1      35.724  20.480  24.978  1.00  0.00    -0.173 NA
ATOM     13  N   UNL A   1      34.492  20.015  24.704  1.00  0.00    -0.240 N 
ATOM     14  C   UNL A   1      33.703  20.968  24.111  1.00  0.00     0.129 A 
BRANCH  13  15
ATOM     15  C   UNL A   1      34.090  18.684  24.956  1.00  0.00     0.068 A 
ATOM     16  C   UNL A   1      32.758  18.393  25.261  1.00  0.00     0.030 A 
ATOM     17  C   UNL A   1      35.033  17.653  24.827  1.00  0.00     0.069 A 
ATOM     18  C   UNL A   1      32.362  17.054  25.385  1.00  0.00     0.026 A 
ATOM     19  C   UNL A   1      34.635  16.334  25.004  1.00  0.00     0.143 A 
ATOM     20  C   UNL A   1      33.304  16.027  25.267  1.00  0.00     0.076 A 
ATOM     21  F   UNL A   1      35.569  15.374  24.927  1.00  0.00    -0.205 F 
ATOM     22  Cl  UNL A   1      32.813  14.390  25.464  1.00  0.00    -0.081 Cl
ENDBRANCH  13  15
ENDBRANCH   6   9
ENDBRANCH   4   5
ENDBRANCH   3   4
ENDBRANCH   2   3
ENDBRANCH   1   2
BRANCH   1  23
ATOM     23  C   UNL A   1      32.591  28.779  27.476  1.00  0.00     0.021 C 
BRANCH  23  24
ATOM     24  C   UNL A   1      33.838  29.350  26.817  1.00  0.00     0.116 C 
BRANCH  24  25
ATOM     25  N   UNL A   1      33.896  30.801  26.952  1.00  0.00    -0.352 N 
ATOM     26  C   UNL A   1      34.786  31.560  27.681  1.00  0.00     0.251 C 
ATOM     27  H   UNL A   1      33.209  31.304  26.459  1.00  0.00     0.163 HD
ATOM     28  O   UNL A   1      34.519  32.714  27.970  1.00  0.00    -0.269 OA
BRANCH  26  29
ATOM     29  C   UNL A   1      36.056  30.950  28.118  1.00  0.00     0.039 A 
ATOM     30  C   UNL A   1      36.261  29.579  27.947  1.00  0.00     0.014 A 
ATOM     31  C   UNL A   1      37.039  31.755  28.694  1.00  0.00     0.014 A 
ATOM     32  C   UNL A   1      37.495  29.035  28.291  1.00  0.00     0.010 A 
ATOM     33  C   UNL A   1      38.292  31.239  28.933  1.00  0.00     0.010 A 
ATOM     34  C   UNL A   1      38.515  29.875  28.763  1.00  0.00    -0.014 A 
BRANCH  34  35
ATOM     35  C   UNL A   1      39.865  29.345  28.934  1.00  0.00     0.031 A 
ATOM     36  C   UNL A   1      40.277  29.161  30.354  1.00  0.00     0.074 A 
ATOM     37  C   UNL A   1      40.604  28.856  27.916  1.00  0.00     0.049 A 
ATOM     38  N   UNL A   1      41.215  29.784  30.989  1.00  0.00    -0.248 NA
ATOM     39  C   UNL A   1      39.457  28.288  31.210  1.00  0.00     0.031 C 
ATOM     40  C   UNL A   1      40.192  28.686  26.518  1.00  0.00     0.029 A 
ATOM     41  N   UNL A   1      41.828  28.255  27.947  1.00  0.00    -0.354 N 
ATOM     42  C   UNL A   1      41.266  29.196  32.252  1.00  0.00     0.074 A 
ATOM     43  C   UNL A   1      40.043  28.454  32.397  1.00  0.00     0.031 C 
ATOM     44  C   UNL A   1      41.014  27.801  25.915  1.00  0.00     0.029 A 
ATOM     45  C   UNL A   1      42.094  27.474  26.825  1.00  0.00     0.049 A 
ATOM     46  H   UNL A   1      42.462  28.363  28.691  1.00  0.00     0.167 HD
ATOM     47  C   UNL A   1      42.431  29.146  32.956  1.00  0.00     0.034 A 
ATOM     48  C   UNL A   1      43.096  26.574  26.679  1.00  0.00     0.034 A 
ATOM     49  C   UNL A   1      43.409  30.057  32.411  1.00  0.00     0.049 A 
ATOM     50  C   UNL A   1      44.142  26.920  27.666  1.00  0.00     0.074 A 
ATOM     51  C   UNL A   1      43.466  31.415  32.168  1.00  0.00     0.029 A 
ATOM     52  N   UNL A   1      44.419  29.497  31.669  1.00  0.00    -0.354 N 
ATOM     53  N   UNL A   1      44.848  28.013  27.613  1.00  0.00    -0.248 NA
ATOM     54  C   UNL A   1      44.143  26.235  28.947  1.00  0.00     0.031 C 
ATOM     55  C   UNL A   1      44.199  31.541  30.950  1.00  0.00     0.029 A 
ATOM     56  C   UNL A   1      44.603  30.264  30.552  1.00  0.00     0.049 A 
ATOM     57  H   UNL A   1      44.923  28.683  31.900  1.00  0.00     0.167 HD
ATOM     58  C   UNL A   1      44.967  28.403  28.938  1.00  0.00     0.074 A 
ATOM     59  C   UNL A   1      44.648  27.206  29.711  1.00  0.00     0.031 C 
ATOM     60  C   UNL A   1      45.014  29.727  29.274  1.00  0.00     0.034 A 
BRANCH  47  61
ATOM     61  C   UNL A   1      42.860  28.004  33.861  1.00  0.00     0.023 A 
ATOM     62  C   UNL A   1      43.712  27.024  33.296  1.00  0.00     0.012 A 
ATOM     63  C   UNL A   1      42.255  27.678  35.097  1.00  0.00     0.148 A 
ATOM     64  C   UNL A   1      43.876  25.761  33.878  1.00  0.00     0.002 A 
ATOM     65  C   UNL A   1      42.485  26.451  35.712  1.00  0.00     0.091 A 
ATOM     66  F   UNL A   1      41.345  28.490  35.638  1.00  0.00    -0.205 F 
ATOM     67  C   UNL A   1      43.262  25.475  35.088  1.00  0.00     0.022 A 
BRANCH  65  68
ATOM     68  S   UNL A   1      41.754  26.046  37.304  1.00  0.00     0.127 S 
ATOM     69  O   UNL A   1      42.844  26.375  38.217  1.00  0.00    -0.237 OA
ATOM     70  O   UNL A   1      40.610  26.958  37.346  1.00  0.00    -0.237 OA
ATOM     71  O   UNL A   1      41.391  24.637  37.220  1.00  0.00    -0.744 OA
ENDBRANCH  65  68
ENDBRANCH  47  61
BRANCH  48  72
ATOM     72  C   UNL A   1      43.120  25.297  25.930  1.00  0.00     0.023 A 
ATOM     73  C   UNL A   1      44.151  25.058  24.999  1.00  0.00     0.012 A 
ATOM     74  C   UNL A   1      42.320  24.206  26.332  1.00  0.00     0.148 A 
ATOM     75  C   UNL A   1      44.408  23.766  24.522  1.00  0.00     0.002 A 
ATOM     76  C   UNL A   1      42.573  22.925  25.850  1.00  0.00     0.091 A 
ATOM     77  F   UNL A   1      41.374  24.402  27.260  1.00  0.00    -0.205 F 
ATOM     78  C   UNL A   1      43.626  22.699  24.955  1.00  0.00     0.022 A 
BRANCH  76  79
ATOM     79  S   UNL A   1      41.620  21.500  26.392  1.00  0.00     0.127 S 
ATOM     80  O   UNL A   1      42.181  20.427  25.570  1.00  0.00    -0.237 OA
ATOM     81  O   UNL A   1      41.962  21.429  27.810  1.00  0.00    -0.237 OA
ATOM     82  O   UNL A   1      40.229  21.816  26.092  1.00  0.00    -0.744 OA
ENDBRANCH  76  79
ENDBRANCH  48  72
BRANCH  60  83
ATOM     83  C   UNL A   1      45.258  30.728  28.171  1.00  0.00     0.023 A 
ATOM     84  C   UNL A   1      44.211  31.339  27.451  1.00  0.00     0.012 A 
ATOM     85  C   UNL A   1      46.574  31.172  27.959  1.00  0.00     0.148 A 
ATOM     86  C   UNL A   1      44.474  32.345  26.516  1.00  0.00     0.002 A 
ATOM     87  C   UNL A   1      46.828  32.206  27.066  1.00  0.00     0.091 A 
ATOM     88  F   UNL A   1      47.562  30.587  28.654  1.00  0.00    -0.205 F 
ATOM     89  C   UNL A   1      45.782  32.787  26.334  1.00  0.00     0.022 A 
BRANCH  87  90
ATOM     90  S   UNL A   1      48.471  32.897  26.884  1.00  0.00     0.127 S 
ATOM     91  O   UNL A   1      49.253  31.729  26.483  1.00  0.00    -0.237 OA
ATOM     92  O   UNL A   1      48.281  33.896  25.831  1.00  0.00    -0.237 OA
ATOM     93  O   UNL A   1      48.810  33.466  28.184  1.00  0.00    -0.744 OA
ENDBRANCH  87  90
ENDBRANCH  60  83
ENDBRANCH  34  35
ENDBRANCH  26  29
ENDBRANCH  24  25
ENDBRANCH  23  24
ENDBRANCH   1  23
TORSDOF 17
ENDMDL
MODEL 3
REMARK VINA RESULT:     -12.7      2.846      4.112
REMARK SMILES Cc1nn(-c2ccc(Cl)c(F)c2)cc1C(=O)NCCCCCCNC(=O)c1ccc(-c2c3nc(c(-c4cccc(S(=O)(=O)[O-])c4F)c4ccc([nH]4)c(-c4cccc(S(=O)(=O)[O-])c4F)c4nc(c(-c5cccc(S(=O)(=O)[O-])c5F)c5ccc2[nH]5)C=C4)C=C3)cc1
REMARK SMILES IDX 21 1 20 2 19 3 18 4 17 5 15 6 16 7 14 9 1 10 2 11 3 12 4 13
REMARK SMILES IDX 13 14 5 15 6 16 12 17 7 18 10 19 8 20 11 21 9 22 22 23 23 24
REMARK SMILES IDX 24 25 25 26 26 28 27 29 28 30 89 31 29 32 88 33 30 34 31 35
REMARK SMILES IDX 32 36 82 37 33 38 87 39 81 40 83 41 34 42 86 43 80 44 79 45
REMARK SMILES IDX 35 47 67 48 47 49 66 50 48 51 51 52 65 53 84 54 49 55 50 56
REMARK SMILES IDX 64 58 85 59 52 60 36 61 37 62 45 63 38 64 40 65 46 66 39 67
REMARK SMILES IDX 41 68 42 69 43 70 44 71 68 72 69 73 77 74 70 75 72 76 78 77
REMARK SMILES IDX 71 78 73 79 74 80 75 81 76 82 53 83 54 84 62 85 55 86 57 87
REMARK SMILES IDX 63 88 56 89 58 90 59 91 60 92 61 93
REMARK H PARENT 17 8 24 27 83 46 51 57
REMARK Flexibility Score: inf
ROOT
ATOM      1  C   UNL A   1      32.855  29.173  25.157  1.00  0.00     0.002 C 
ENDROOT
BRANCH   1   2
ATOM      2  C   UNL A   1      31.479  28.719  24.645  1.00  0.00     0.002 C 
BRANCH   2   3
ATOM      3  C   UNL A   1      31.492  27.900  23.353  1.00  0.00     0.021 C 
BRANCH   3   4
ATOM      4  C   UNL A   1      30.832  26.531  23.472  1.00  0.00     0.116 C 
BRANCH   4   5
ATOM      5  N   UNL A   1      30.528  26.171  24.842  1.00  0.00    -0.352 N 
ATOM      6  C   UNL A   1      30.953  25.172  25.680  1.00  0.00     0.254 C 
ATOM      7  O   UNL A   1      30.451  25.167  26.807  1.00  0.00    -0.269 OA
ATOM      8  H   UNL A   1      29.875  26.776  25.264  1.00  0.00     0.163 HD
BRANCH   6   9
ATOM      9  C   UNL A   1      31.934  24.165  25.293  1.00  0.00     0.081 A 
ATOM     10  C   UNL A   1      34.061  25.675  25.046  1.00  0.00     0.069 C 
ATOM     11  C   UNL A   1      33.333  24.378  25.061  1.00  0.00     0.073 A 
ATOM     12  N   UNL A   1      34.003  23.235  24.832  1.00  0.00    -0.173 NA
ATOM     13  N   UNL A   1      33.038  22.301  24.761  1.00  0.00    -0.240 N 
ATOM     14  C   UNL A   1      31.794  22.826  25.007  1.00  0.00     0.129 A 
BRANCH  13  15
ATOM     15  C   UNL A   1      33.286  20.953  24.419  1.00  0.00     0.068 A 
ATOM     16  C   UNL A   1      34.350  20.260  25.001  1.00  0.00     0.030 A 
ATOM     17  C   UNL A   1      32.407  20.300  23.541  1.00  0.00     0.069 A 
ATOM     18  C   UNL A   1      34.500  18.891  24.739  1.00  0.00     0.026 A 
ATOM     19  C   UNL A   1      32.600  18.956  23.250  1.00  0.00     0.143 A 
ATOM     20  C   UNL A   1      33.631  18.244  23.855  1.00  0.00     0.076 A 
ATOM     21  F   UNL A   1      31.776  18.373  22.367  1.00  0.00    -0.205 F 
ATOM     22  Cl  UNL A   1      33.852  16.573  23.508  1.00  0.00    -0.081 Cl
ENDBRANCH  13  15
ENDBRANCH   6   9
ENDBRANCH   4   5
ENDBRANCH   3   4
ENDBRANCH   2   3
ENDBRANCH   1   2
BRANCH   1  23
ATOM     23  C   UNL A   1      32.984  29.370  26.676  1.00  0.00     0.021 C 
BRANCH  23  24
ATOM     24  C   UNL A   1      34.311  29.981  27.099  1.00  0.00     0.116 C 
BRANCH  24  25
ATOM     25  N   UNL A   1      34.114  31.211  27.857  1.00  0.00    -0.352 N 
ATOM     26  C   UNL A   1      34.804  31.658  28.963  1.00  0.00     0.251 C 
ATOM     27  H   UNL A   1      33.393  31.799  27.538  1.00  0.00     0.163 HD
ATOM     28  O   UNL A   1      34.326  32.520  29.682  1.00  0.00    -0.269 OA
BRANCH  26  29
ATOM     29  C   UNL A   1      36.121  31.070  29.270  1.00  0.00     0.039 A 
ATOM     30  C   UNL A   1      36.223  29.705  29.550  1.00  0.00     0.014 A 
ATOM     31  C   UNL A   1      37.252  31.888  29.274  1.00  0.00     0.014 A 
ATOM     32  C   UNL A   1      37.482  29.152  29.758  1.00  0.00     0.010 A 
ATOM     33  C   UNL A   1      38.503  31.323  29.373  1.00  0.00     0.010 A 
ATOM     34  C   UNL A   1      38.622  29.963  29.647  1.00  0.00    -0.014 A 
BRANCH  34  35
ATOM     35  C   UNL A   1      39.948  29.351  29.666  1.00  0.00     0.031 A 
ATOM     36  C   UNL A   1      40.509  29.147  31.031  1.00  0.00     0.074 A 
ATOM     37  C   UNL A   1      40.533  28.815  28.575  1.00  0.00     0.049 A 
ATOM     38  N   UNL A   1      41.550  29.712  31.548  1.00  0.00    -0.248 NA
ATOM     39  C   UNL A   1      39.742  28.327  31.984  1.00  0.00     0.031 C 
ATOM     40  C   UNL A   1      39.953  28.666  27.235  1.00  0.00     0.029 A 
ATOM     41  N   UNL A   1      41.713  28.140  28.470  1.00  0.00    -0.354 N 
ATOM     42  C   UNL A   1      41.711  29.125  32.803  1.00  0.00     0.074 A 
ATOM     43  C   UNL A   1      40.470  28.460  33.094  1.00  0.00     0.031 C 
ATOM     44  C   UNL A   1      40.644  27.731  26.550  1.00  0.00     0.029 A 
ATOM     45  C   UNL A   1      41.800  27.340  27.333  1.00  0.00     0.049 A 
ATOM     46  H   UNL A   1      42.435  28.210  29.136  1.00  0.00     0.167 HD
ATOM     47  C   UNL A   1      42.945  29.005  33.368  1.00  0.00     0.034 A 
ATOM     48  C   UNL A   1      42.722  26.380  27.082  1.00  0.00     0.034 A 
ATOM     49  C   UNL A   1      43.906  29.853  32.705  1.00  0.00     0.049 A 
ATOM     50  C   UNL A   1      43.894  26.663  27.938  1.00  0.00     0.074 A 
ATOM     51  C   UNL A   1      44.018  31.204  32.443  1.00  0.00     0.029 A 
ATOM     52  N   UNL A   1      44.788  29.229  31.857  1.00  0.00    -0.354 N 
ATOM     53  N   UNL A   1      44.654  27.710  27.793  1.00  0.00    -0.248 NA
ATOM     54  C   UNL A   1      44.001  25.983  29.218  1.00  0.00     0.031 C 
ATOM     55  C   UNL A   1      44.612  31.281  31.148  1.00  0.00     0.029 A 
ATOM     56  C   UNL A   1      44.888  29.981  30.719  1.00  0.00     0.049 A 
ATOM     57  H   UNL A   1      45.265  28.387  32.036  1.00  0.00     0.167 HD
ATOM     58  C   UNL A   1      44.949  28.096  29.092  1.00  0.00     0.074 A 
ATOM     59  C   UNL A   1      44.650  26.923  29.909  1.00  0.00     0.031 C 
ATOM     60  C   UNL A   1      45.115  29.416  29.407  1.00  0.00     0.034 A 
BRANCH  47  61
ATOM     61  C   UNL A   1      43.405  27.842  34.229  1.00  0.00     0.023 A 
ATOM     62  C   UNL A   1      44.037  28.163  35.454  1.00  0.00     0.012 A 
ATOM     63  C   UNL A   1      43.529  26.504  33.786  1.00  0.00     0.148 A 
ATOM     64  C   UNL A   1      44.823  27.235  36.148  1.00  0.00     0.002 A 
ATOM     65  C   UNL A   1      44.244  25.564  34.520  1.00  0.00     0.091 A 
ATOM     66  F   UNL A   1      43.070  26.146  32.586  1.00  0.00    -0.205 F 
ATOM     67  C   UNL A   1      44.926  25.933  35.681  1.00  0.00     0.022 A 
BRANCH  65  68
ATOM     68  S   UNL A   1      44.371  23.852  33.987  1.00  0.00     0.127 S 
ATOM     69  O   UNL A   1      44.782  24.010  32.596  1.00  0.00    -0.237 OA
ATOM     70  O   UNL A   1      45.403  23.336  34.888  1.00  0.00    -0.237 OA
ATOM     71  O   UNL A   1      43.050  23.276  34.204  1.00  0.00    -0.744 OA
ENDBRANCH  65  68
ENDBRANCH  47  61
BRANCH  48  72
ATOM     72  C   UNL A   1      42.581  25.102  26.347  1.00  0.00     0.023 A 
ATOM     73  C   UNL A   1      43.565  24.729  25.409  1.00  0.00     0.012 A 
ATOM     74  C   UNL A   1      41.658  24.121  26.770  1.00  0.00     0.148 A 
ATOM     75  C   UNL A   1      43.656  23.411  24.945  1.00  0.00     0.002 A 
ATOM     76  C   UNL A   1      41.747  22.813  26.301  1.00  0.00     0.091 A 
ATOM     77  F   UNL A   1      40.755  24.441  27.705  1.00  0.00    -0.205 F 
ATOM     78  C   UNL A   1      42.755  22.451  25.399  1.00  0.00     0.022 A 
BRANCH  76  79
ATOM     79  S   UNL A   1      40.634  21.521  26.870  1.00  0.00     0.127 S 
ATOM     80  O   UNL A   1      39.330  22.037  26.451  1.00  0.00    -0.237 OA
ATOM     81  O   UNL A   1      41.106  20.362  26.117  1.00  0.00    -0.237 OA
ATOM     82  O   UNL A   1      40.812  21.452  28.315  1.00  0.00    -0.744 OA
ENDBRANCH  76  79
ENDBRANCH  48  72
BRANCH  60  83
ATOM     83  C   UNL A   1      45.292  30.397  28.274  1.00  0.00     0.023 A 
ATOM     84  C   UNL A   1      44.203  30.938  27.559  1.00  0.00     0.012 A 
ATOM     85  C   UNL A   1      46.581  30.896  28.024  1.00  0.00     0.148 A 
ATOM     86  C   UNL A   1      44.401  31.929  26.592  1.00  0.00     0.002 A 
ATOM     87  C   UNL A   1      46.768  31.915  27.099  1.00  0.00     0.091 A 
ATOM     88  F   UNL A   1      47.607  30.377  28.715  1.00  0.00    -0.205 F 
ATOM     89  C   UNL A   1      45.682  32.427  26.372  1.00  0.00     0.022 A 
BRANCH  87  90
ATOM     90  S   UNL A   1      48.373  32.678  26.866  1.00  0.00     0.127 S 
ATOM     91  O   UNL A   1      48.642  33.239  28.189  1.00  0.00    -0.237 OA
ATOM     92  O   UNL A   1      49.217  31.538  26.502  1.00  0.00    -0.237 OA
ATOM     93  O   UNL A   1      48.200  33.651  25.794  1.00  0.00    -0.744 OA
ENDBRANCH  87  90
ENDBRANCH  60  83
ENDBRANCH  34  35
ENDBRANCH  26  29
ENDBRANCH  24  25
ENDBRANCH  23  24
ENDBRANCH   1  23
TORSDOF 17
ENDMDL
