MODEL 1
REMARK VINA RESULT:     -11.7      0.000      0.000
REMARK SMILES Cc1ccc2c(c1C)O[C@@H](C(=O)NCCCCCCNC(=O)c1ccc(-c3c4nc(c(-c5cccc(S(=O)(=O)[O-])c5F)c5ccc([nH]5)c(-c5cccc(S(=O)(=O)[O-])c5F)c5nc(c(-c6cccc(S(=O)(=O)[O-])c6F)c6ccc3[nH]6)C=C5)C=C4)cc1)CC2=O
REMARK SMILES IDX 18 1 17 2 16 3 15 4 14 5 13 6 11 7 12 8 10 10 1 11 2 12 3 13
REMARK SMILES IDX 7 14 4 15 6 16 8 17 5 18 9 19 87 20 86 21 88 22 19 23 20 24
REMARK SMILES IDX 21 25 22 27 23 28 24 29 85 30 25 31 84 32 26 33 27 34 28 35
REMARK SMILES IDX 78 36 29 37 83 38 77 39 79 40 30 41 82 42 76 43 75 44 31 46
REMARK SMILES IDX 63 47 43 48 62 49 44 50 47 51 61 52 80 53 45 54 46 55 60 57
REMARK SMILES IDX 81 58 48 59 32 60 33 61 41 62 34 63 36 64 42 65 35 66 37 67
REMARK SMILES IDX 38 68 39 69 40 70 64 71 65 72 73 73 66 74 68 75 74 76 67 77
REMARK SMILES IDX 69 78 70 79 71 80 72 81 49 82 50 83 58 84 51 85 53 86 59 87
REMARK SMILES IDX 52 88 54 89 55 90 56 91 57 92
REMARK H PARENT 13 9 20 26 79 45 47 56
REMARK Flexibility Score: inf
ROOT
ATOM      1  C   UNL A   1      31.409  32.138  27.080  1.00  0.00     0.021 C 
ENDROOT
BRANCH   1   2
ATOM      2  C   UNL A   1      31.290  31.290  25.812  1.00  0.00     0.002 C 
BRANCH   2   3
ATOM      3  C   UNL A   1      31.879  29.875  25.911  1.00  0.00     0.002 C 
BRANCH   3   4
ATOM      4  C   UNL A   1      31.600  28.970  24.707  1.00  0.00     0.021 C 
BRANCH   4   5
ATOM      5  C   UNL A   1      32.841  28.729  23.850  1.00  0.00     0.116 C 
BRANCH   5   6
ATOM      6  N   UNL A   1      32.884  27.396  23.295  1.00  0.00    -0.353 N 
ATOM      7  C   UNL A   1      33.121  26.181  23.851  1.00  0.00     0.261 C 
ATOM      8  O   UNL A   1      32.913  25.206  23.115  1.00  0.00    -0.271 OA
ATOM      9  H   UNL A   1      32.707  27.363  22.327  1.00  0.00     0.163 HD
BRANCH   7  10
ATOM     10  C   UNL A   1      33.690  25.956  25.280  1.00  0.00     0.269 C 
ATOM     11  C   UNL A   1      36.199  20.438  25.021  1.00  0.00     0.045 C 
ATOM     12  C   UNL A   1      35.317  21.528  25.573  1.00  0.00    -0.044 A 
ATOM     13  C   UNL A   1      34.120  21.119  26.191  1.00  0.00     0.005 A 
ATOM     14  C   UNL A   1      35.608  22.906  25.472  1.00  0.00    -0.005 A 
ATOM     15  C   UNL A   1      33.188  22.050  26.642  1.00  0.00     0.016 A 
ATOM     16  C   UNL A   1      34.609  23.836  25.835  1.00  0.00     0.134 A 
ATOM     17  C   UNL A   1      36.905  23.424  24.907  1.00  0.00     0.049 C 
ATOM     18  C   UNL A   1      33.421  23.408  26.432  1.00  0.00     0.060 A 
ATOM     19  O   UNL A   1      34.829  25.131  25.457  1.00  0.00    -0.479 OA
ATOM     20  C   UNL A   1      32.346  24.380  26.688  1.00  0.00     0.170 C 
ATOM     21  C   UNL A   1      32.608  25.809  26.334  1.00  0.00     0.136 C 
ATOM     22  O   UNL A   1      31.277  24.027  27.178  1.00  0.00    -0.294 OA
ENDBRANCH   7  10
ENDBRANCH   5   6
ENDBRANCH   4   5
ENDBRANCH   3   4
ENDBRANCH   2   3
ENDBRANCH   1   2
BRANCH   1  23
ATOM     23  C   UNL A   1      32.764  32.814  27.254  1.00  0.00     0.116 C 
BRANCH  23  24
ATOM     24  N   UNL A   1      32.614  34.210  27.644  1.00  0.00    -0.352 N 
ATOM     25  C   UNL A   1      33.167  34.870  28.709  1.00  0.00     0.251 C 
ATOM     26  H   UNL A   1      32.035  34.753  27.062  1.00  0.00     0.163 HD
ATOM     27  O   UNL A   1      32.732  35.968  29.055  1.00  0.00    -0.269 OA
BRANCH  25  28
ATOM     28  C   UNL A   1      34.290  34.251  29.436  1.00  0.00     0.039 A 
ATOM     29  C   UNL A   1      34.026  33.429  30.533  1.00  0.00     0.014 A 
ATOM     30  C   UNL A   1      35.604  34.499  29.028  1.00  0.00     0.014 A 
ATOM     31  C   UNL A   1      35.086  32.819  31.201  1.00  0.00     0.010 A 
ATOM     32  C   UNL A   1      36.655  33.845  29.659  1.00  0.00     0.010 A 
ATOM     33  C   UNL A   1      36.405  33.014  30.761  1.00  0.00    -0.014 A 
BRANCH  33  34
ATOM     34  C   UNL A   1      37.545  32.394  31.472  1.00  0.00     0.031 A 
ATOM     35  C   UNL A   1      38.278  31.246  30.839  1.00  0.00     0.074 A 
ATOM     36  C   UNL A   1      37.888  32.830  32.699  1.00  0.00     0.049 A 
ATOM     37  N   UNL A   1      39.285  30.557  31.309  1.00  0.00    -0.248 NA
ATOM     38  C   UNL A   1      37.814  30.803  29.512  1.00  0.00     0.031 C 
ATOM     39  C   UNL A   1      37.216  33.903  33.434  1.00  0.00     0.029 A 
ATOM     40  N   UNL A   1      38.876  32.408  33.552  1.00  0.00    -0.354 N 
ATOM     41  C   UNL A   1      39.559  29.592  30.350  1.00  0.00     0.074 A 
ATOM     42  C   UNL A   1      38.599  29.760  29.284  1.00  0.00     0.031 C 
ATOM     43  C   UNL A   1      37.816  34.059  34.625  1.00  0.00     0.029 A 
ATOM     44  C   UNL A   1      38.898  33.086  34.748  1.00  0.00     0.049 A 
ATOM     45  H   UNL A   1      39.509  31.688  33.329  1.00  0.00     0.167 HD
ATOM     46  C   UNL A   1      40.547  28.669  30.344  1.00  0.00     0.034 A 
ATOM     47  C   UNL A   1      39.700  32.938  35.820  1.00  0.00     0.034 A 
ATOM     48  C   UNL A   1      41.525  28.530  31.384  1.00  0.00     0.049 A 
ATOM     49  C   UNL A   1      40.795  31.910  35.787  1.00  0.00     0.074 A 
ATOM     50  C   UNL A   1      42.607  27.669  31.432  1.00  0.00     0.029 A 
ATOM     51  N   UNL A   1      41.541  29.262  32.559  1.00  0.00    -0.354 N 
ATOM     52  N   UNL A   1      41.116  31.086  34.818  1.00  0.00    -0.248 NA
ATOM     53  C   UNL A   1      41.656  31.806  36.973  1.00  0.00     0.031 C 
ATOM     54  C   UNL A   1      43.268  27.869  32.646  1.00  0.00     0.029 A 
ATOM     55  C   UNL A   1      42.608  28.868  33.344  1.00  0.00     0.049 A 
ATOM     56  H   UNL A   1      40.889  29.960  32.800  1.00  0.00     0.167 HD
ATOM     57  C   UNL A   1      42.229  30.384  35.267  1.00  0.00     0.074 A 
ATOM     58  C   UNL A   1      42.534  30.885  36.592  1.00  0.00     0.031 C 
ATOM     59  C   UNL A   1      42.927  29.408  34.640  1.00  0.00     0.034 A 
BRANCH  46  60
ATOM     60  C   UNL A   1      40.667  27.772  29.146  1.00  0.00     0.023 A 
ATOM     61  C   UNL A   1      39.821  26.651  29.041  1.00  0.00     0.012 A 
ATOM     62  C   UNL A   1      41.532  28.095  28.084  1.00  0.00     0.148 A 
ATOM     63  C   UNL A   1      39.838  25.857  27.896  1.00  0.00     0.002 A 
ATOM     64  C   UNL A   1      41.522  27.317  26.933  1.00  0.00     0.091 A 
ATOM     65  F   UNL A   1      42.336  29.159  28.218  1.00  0.00    -0.205 F 
ATOM     66  C   UNL A   1      40.679  26.196  26.840  1.00  0.00     0.022 A 
BRANCH  64  67
ATOM     67  S   UNL A   1      42.527  27.695  25.494  1.00  0.00     0.127 S 
ATOM     68  O   UNL A   1      42.308  26.511  24.663  1.00  0.00    -0.237 OA
ATOM     69  O   UNL A   1      41.895  28.917  24.995  1.00  0.00    -0.237 OA
ATOM     70  O   UNL A   1      43.888  27.862  25.982  1.00  0.00    -0.744 OA
ENDBRANCH  64  67
ENDBRANCH  46  60
BRANCH  47  71
ATOM     71  C   UNL A   1      39.530  33.846  36.988  1.00  0.00     0.023 A 
ATOM     72  C   UNL A   1      39.935  35.189  36.877  1.00  0.00     0.012 A 
ATOM     73  C   UNL A   1      38.907  33.405  38.170  1.00  0.00     0.148 A 
ATOM     74  C   UNL A   1      39.731  36.079  37.932  1.00  0.00     0.002 A 
ATOM     75  C   UNL A   1      38.674  34.305  39.203  1.00  0.00     0.091 A 
ATOM     76  F   UNL A   1      38.529  32.122  38.246  1.00  0.00    -0.205 F 
ATOM     77  C   UNL A   1      39.094  35.640  39.090  1.00  0.00     0.022 A 
BRANCH  75  78
ATOM     78  S   UNL A   1      37.772  33.862  40.692  1.00  0.00     0.127 S 
ATOM     79  O   UNL A   1      38.706  32.950  41.347  1.00  0.00    -0.237 OA
ATOM     80  O   UNL A   1      37.618  35.163  41.344  1.00  0.00    -0.237 OA
ATOM     81  O   UNL A   1      36.526  33.260  40.239  1.00  0.00    -0.744 OA
ENDBRANCH  75  78
ENDBRANCH  47  71
BRANCH  59  82
ATOM     82  C   UNL A   1      44.108  28.806  35.347  1.00  0.00     0.023 A 
ATOM     83  C   UNL A   1      45.364  29.433  35.252  1.00  0.00     0.012 A 
ATOM     84  C   UNL A   1      43.935  27.716  36.224  1.00  0.00     0.148 A 
ATOM     85  C   UNL A   1      46.437  28.982  36.020  1.00  0.00     0.002 A 
ATOM     86  C   UNL A   1      44.999  27.295  37.012  1.00  0.00     0.091 A 
ATOM     87  F   UNL A   1      42.728  27.138  36.291  1.00  0.00    -0.205 F 
ATOM     88  C   UNL A   1      46.251  27.924  36.908  1.00  0.00     0.022 A 
BRANCH  86  89
ATOM     89  S   UNL A   1      44.841  25.992  38.239  1.00  0.00     0.127 S 
ATOM     90  O   UNL A   1      43.799  26.531  39.112  1.00  0.00    -0.237 OA
ATOM     91  O   UNL A   1      44.424  24.851  37.424  1.00  0.00    -0.237 OA
ATOM     92  O   UNL A   1      46.153  25.855  38.856  1.00  0.00    -0.744 OA
ENDBRANCH  86  89
ENDBRANCH  59  82
ENDBRANCH  33  34
ENDBRANCH  25  28
ENDBRANCH  23  24
ENDBRANCH   1  23
TORSDOF 16
ENDMDL
MODEL 2
REMARK VINA RESULT:     -11.7      1.013      8.007
REMARK SMILES Cc1ccc2c(c1C)O[C@@H](C(=O)NCCCCCCNC(=O)c1ccc(-c3c4nc(c(-c5cccc(S(=O)(=O)[O-])c5F)c5ccc([nH]5)c(-c5cccc(S(=O)(=O)[O-])c5F)c5nc(c(-c6cccc(S(=O)(=O)[O-])c6F)c6ccc3[nH]6)C=C5)C=C4)cc1)CC2=O
REMARK SMILES IDX 18 1 17 2 16 3 15 4 14 5 13 6 11 7 12 8 10 10 1 11 2 12 3 13
REMARK SMILES IDX 7 14 4 15 6 16 8 17 5 18 9 19 87 20 86 21 88 22 19 23 20 24
REMARK SMILES IDX 21 25 22 27 23 28 24 29 85 30 25 31 84 32 26 33 27 34 28 35
REMARK SMILES IDX 78 36 29 37 83 38 77 39 79 40 30 41 82 42 76 43 75 44 31 46
REMARK SMILES IDX 63 47 43 48 62 49 44 50 47 51 61 52 80 53 45 54 46 55 60 57
REMARK SMILES IDX 81 58 48 59 32 60 33 61 41 62 34 63 36 64 42 65 35 66 37 67
REMARK SMILES IDX 38 68 39 69 40 70 64 71 65 72 73 73 66 74 68 75 74 76 67 77
REMARK SMILES IDX 69 78 70 79 71 80 72 81 49 82 50 83 58 84 51 85 53 86 59 87
REMARK SMILES IDX 52 88 54 89 55 90 56 91 57 92
REMARK H PARENT 13 9 20 26 79 45 47 56
REMARK Flexibility Score: inf
ROOT
ATOM      1  C   UNL A   1      31.472  32.482  26.760  1.00  0.00     0.021 C 
ENDROOT
BRANCH   1   2
ATOM      2  C   UNL A   1      31.473  30.982  26.458  1.00  0.00     0.002 C 
BRANCH   2   3
ATOM      3  C   UNL A   1      32.722  30.220  26.924  1.00  0.00     0.002 C 
BRANCH   3   4
ATOM      4  C   UNL A   1      33.423  29.399  25.838  1.00  0.00     0.021 C 
BRANCH   4   5
ATOM      5  C   UNL A   1      32.748  29.526  24.474  1.00  0.00     0.116 C 
BRANCH   5   6
ATOM      6  N   UNL A   1      33.574  29.033  23.395  1.00  0.00    -0.353 N 
ATOM      7  C   UNL A   1      33.414  28.015  22.513  1.00  0.00     0.261 C 
ATOM      8  O   UNL A   1      34.243  27.968  21.593  1.00  0.00    -0.271 OA
ATOM      9  H   UNL A   1      34.413  29.534  23.277  1.00  0.00     0.163 HD
BRANCH   7  10
ATOM     10  C   UNL A   1      32.335  26.901  22.629  1.00  0.00     0.269 C 
ATOM     11  C   UNL A   1      34.678  22.983  26.625  1.00  0.00     0.045 C 
ATOM     12  C   UNL A   1      34.049  23.419  25.327  1.00  0.00    -0.044 A 
ATOM     13  C   UNL A   1      34.405  22.690  24.176  1.00  0.00     0.005 A 
ATOM     14  C   UNL A   1      33.171  24.518  25.206  1.00  0.00    -0.005 A 
ATOM     15  C   UNL A   1      33.960  23.075  22.914  1.00  0.00     0.016 A 
ATOM     16  C   UNL A   1      32.815  24.960  23.913  1.00  0.00     0.134 A 
ATOM     17  C   UNL A   1      32.670  25.294  26.397  1.00  0.00     0.049 C 
ATOM     18  C   UNL A   1      33.192  24.231  22.783  1.00  0.00     0.060 A 
ATOM     19  O   UNL A   1      32.203  26.180  23.842  1.00  0.00    -0.479 OA
ATOM     20  C   UNL A   1      32.917  24.774  21.443  1.00  0.00     0.170 C 
ATOM     21  C   UNL A   1      32.191  26.079  21.362  1.00  0.00     0.136 C 
ATOM     22  O   UNL A   1      33.269  24.173  20.432  1.00  0.00    -0.294 OA
ENDBRANCH   7  10
ENDBRANCH   5   6
ENDBRANCH   4   5
ENDBRANCH   3   4
ENDBRANCH   2   3
ENDBRANCH   1   2
BRANCH   1  23
ATOM     23  C   UNL A   1      32.783  33.003  27.340  1.00  0.00     0.116 C 
BRANCH  23  24
ATOM     24  N   UNL A   1      32.618  34.335  27.909  1.00  0.00    -0.352 N 
ATOM     25  C   UNL A   1      33.201  34.871  29.027  1.00  0.00     0.251 C 
ATOM     26  H   UNL A   1      32.003  34.929  27.424  1.00  0.00     0.163 HD
ATOM     27  O   UNL A   1      32.758  35.904  29.525  1.00  0.00    -0.269 OA
BRANCH  25  28
ATOM     28  C   UNL A   1      34.368  34.197  29.623  1.00  0.00     0.039 A 
ATOM     29  C   UNL A   1      35.643  34.460  29.119  1.00  0.00     0.014 A 
ATOM     30  C   UNL A   1      34.188  33.296  30.678  1.00  0.00     0.014 A 
ATOM     31  C   UNL A   1      36.750  33.845  29.704  1.00  0.00     0.010 A 
ATOM     32  C   UNL A   1      35.297  32.730  31.296  1.00  0.00     0.010 A 
ATOM     33  C   UNL A   1      36.584  32.987  30.802  1.00  0.00    -0.014 A 
BRANCH  33  34
ATOM     34  C   UNL A   1      37.744  32.307  31.420  1.00  0.00     0.031 A 
ATOM     35  C   UNL A   1      38.283  32.805  32.731  1.00  0.00     0.074 A 
ATOM     36  C   UNL A   1      38.338  31.280  30.783  1.00  0.00     0.049 A 
ATOM     37  N   UNL A   1      39.301  32.361  33.420  1.00  0.00    -0.248 NA
ATOM     38  C   UNL A   1      37.602  33.959  33.342  1.00  0.00     0.031 C 
ATOM     39  C   UNL A   1      37.934  30.744  29.483  1.00  0.00     0.029 A 
ATOM     40  N   UNL A   1      39.422  30.517  31.137  1.00  0.00    -0.354 N 
ATOM     41  C   UNL A   1      39.394  33.189  34.529  1.00  0.00     0.074 A 
ATOM     42  C   UNL A   1      38.351  34.183  34.412  1.00  0.00     0.031 C 
ATOM     43  C   UNL A   1      38.755  29.735  29.151  1.00  0.00     0.029 A 
ATOM     44  C   UNL A   1      39.755  29.566  30.202  1.00  0.00     0.049 A 
ATOM     45  H   UNL A   1      39.914  30.639  31.980  1.00  0.00     0.167 HD
ATOM     46  C   UNL A   1      40.251  33.108  35.571  1.00  0.00     0.034 A 
ATOM     47  C   UNL A   1      40.754  28.662  30.194  1.00  0.00     0.034 A 
ATOM     48  C   UNL A   1      41.260  32.097  35.707  1.00  0.00     0.049 A 
ATOM     49  C   UNL A   1      41.690  28.587  31.368  1.00  0.00     0.074 A 
ATOM     50  C   UNL A   1      42.129  31.893  36.763  1.00  0.00     0.029 A 
ATOM     51  N   UNL A   1      41.538  31.126  34.761  1.00  0.00    -0.354 N 
ATOM     52  N   UNL A   1      41.686  29.303  32.466  1.00  0.00    -0.248 NA
ATOM     53  C   UNL A   1      42.748  27.568  31.319  1.00  0.00     0.031 C 
ATOM     54  C   UNL A   1      42.948  30.807  36.447  1.00  0.00     0.029 A 
ATOM     55  C   UNL A   1      42.574  30.324  35.203  1.00  0.00     0.049 A 
ATOM     56  H   UNL A   1      41.070  31.022  33.901  1.00  0.00     0.167 HD
ATOM     57  C   UNL A   1      42.721  28.805  33.250  1.00  0.00     0.074 A 
ATOM     58  C   UNL A   1      43.326  27.720  32.505  1.00  0.00     0.031 C 
ATOM     59  C   UNL A   1      43.135  29.218  34.471  1.00  0.00     0.034 A 
BRANCH  46  60
ATOM     60  C   UNL A   1      40.101  34.102  36.687  1.00  0.00     0.023 A 
ATOM     61  C   UNL A   1      40.425  35.452  36.452  1.00  0.00     0.012 A 
ATOM     62  C   UNL A   1      39.544  33.723  37.923  1.00  0.00     0.148 A 
ATOM     63  C   UNL A   1      40.202  36.414  37.435  1.00  0.00     0.002 A 
ATOM     64  C   UNL A   1      39.296  34.692  38.887  1.00  0.00     0.091 A 
ATOM     65  F   UNL A   1      39.258  32.428  38.124  1.00  0.00    -0.205 F 
ATOM     66  C   UNL A   1      39.628  36.036  38.645  1.00  0.00     0.022 A 
BRANCH  64  67
ATOM     67  S   UNL A   1      38.512  34.322  40.459  1.00  0.00     0.127 S 
ATOM     68  O   UNL A   1      39.566  33.575  41.145  1.00  0.00    -0.237 OA
ATOM     69  O   UNL A   1      38.263  35.660  40.997  1.00  0.00    -0.237 OA
ATOM     70  O   UNL A   1      37.316  33.554  40.145  1.00  0.00    -0.744 OA
ENDBRANCH  64  67
ENDBRANCH  46  60
BRANCH  47  71
ATOM     71  C   UNL A   1      40.865  27.709  29.057  1.00  0.00     0.023 A 
ATOM     72  C   UNL A   1      40.018  26.585  29.018  1.00  0.00     0.012 A 
ATOM     73  C   UNL A   1      41.747  27.948  27.987  1.00  0.00     0.148 A 
ATOM     74  C   UNL A   1      40.056  25.708  27.933  1.00  0.00     0.002 A 
ATOM     75  C   UNL A   1      41.754  27.091  26.893  1.00  0.00     0.091 A 
ATOM     76  F   UNL A   1      42.539  29.028  28.050  1.00  0.00    -0.205 F 
ATOM     77  C   UNL A   1      40.916  25.965  26.869  1.00  0.00     0.022 A 
BRANCH  75  78
ATOM     78  S   UNL A   1      42.751  27.391  25.430  1.00  0.00     0.127 S 
ATOM     79  O   UNL A   1      42.582  26.142  24.692  1.00  0.00    -0.237 OA
ATOM     80  O   UNL A   1      42.079  28.551  24.845  1.00  0.00    -0.237 OA
ATOM     81  O   UNL A   1      44.100  27.651  25.915  1.00  0.00    -0.744 OA
ENDBRANCH  75  78
ENDBRANCH  47  71
BRANCH  59  82
ATOM     82  C   UNL A   1      44.289  28.503  35.115  1.00  0.00     0.023 A 
ATOM     83  C   UNL A   1      45.602  28.947  34.869  1.00  0.00     0.012 A 
ATOM     84  C   UNL A   1      44.060  27.498  36.076  1.00  0.00     0.148 A 
ATOM     85  C   UNL A   1      46.674  28.399  35.572  1.00  0.00     0.002 A 
ATOM     86  C   UNL A   1      45.129  26.982  36.797  1.00  0.00     0.091 A 
ATOM     87  F   UNL A   1      42.799  27.094  36.286  1.00  0.00    -0.205 F 
ATOM     88  C   UNL A   1      46.437  27.429  36.544  1.00  0.00     0.022 A 
BRANCH  86  89
ATOM     89  S   UNL A   1      44.919  25.785  38.120  1.00  0.00     0.127 S 
ATOM     90  O   UNL A   1      46.306  25.505  38.489  1.00  0.00    -0.237 OA
ATOM     91  O   UNL A   1      44.166  26.552  39.113  1.00  0.00    -0.237 OA
ATOM     92  O   UNL A   1      44.196  24.662  37.540  1.00  0.00    -0.744 OA
ENDBRANCH  86  89
ENDBRANCH  59  82
ENDBRANCH  33  34
ENDBRANCH  25  28
ENDBRANCH  23  24
ENDBRANCH   1  23
TORSDOF 16
ENDMDL
MODEL 3
REMARK VINA RESULT:     -11.7      6.424     11.501
REMARK SMILES Cc1ccc2c(c1C)O[C@@H](C(=O)NCCCCCCNC(=O)c1ccc(-c3c4nc(c(-c5cccc(S(=O)(=O)[O-])c5F)c5ccc([nH]5)c(-c5cccc(S(=O)(=O)[O-])c5F)c5nc(c(-c6cccc(S(=O)(=O)[O-])c6F)c6ccc3[nH]6)C=C5)C=C4)cc1)CC2=O
REMARK SMILES IDX 18 1 17 2 16 3 15 4 14 5 13 6 11 7 12 8 10 10 1 11 2 12 3 13
REMARK SMILES IDX 7 14 4 15 6 16 8 17 5 18 9 19 87 20 86 21 88 22 19 23 20 24
REMARK SMILES IDX 21 25 22 27 23 28 24 29 85 30 25 31 84 32 26 33 27 34 28 35
REMARK SMILES IDX 78 36 29 37 83 38 77 39 79 40 30 41 82 42 76 43 75 44 31 46
REMARK SMILES IDX 63 47 43 48 62 49 44 50 47 51 61 52 80 53 45 54 46 55 60 57
REMARK SMILES IDX 81 58 48 59 32 60 33 61 41 62 34 63 36 64 42 65 35 66 37 67
REMARK SMILES IDX 38 68 39 69 40 70 64 71 65 72 73 73 66 74 68 75 74 76 67 77
REMARK SMILES IDX 69 78 70 79 71 80 72 81 49 82 50 83 58 84 51 85 53 86 59 87
REMARK SMILES IDX 52 88 54 89 55 90 56 91 57 92
REMARK H PARENT 13 9 20 26 79 45 47 56
REMARK Flexibility Score: inf
ROOT
ATOM      1  C   UNL A   1      37.406  19.596  24.919  1.00  0.00     0.021 C 
ENDROOT
BRANCH   1   2
ATOM      2  C   UNL A   1      36.104  20.394  25.023  1.00  0.00     0.002 C 
BRANCH   2   3
ATOM      3  C   UNL A   1      34.818  19.578  24.824  1.00  0.00     0.002 C 
BRANCH   3   4
ATOM      4  C   UNL A   1      33.632  20.016  25.689  1.00  0.00     0.021 C 
BRANCH   4   5
ATOM      5  C   UNL A   1      32.819  21.141  25.051  1.00  0.00     0.116 C 
BRANCH   5   6
ATOM      6  N   UNL A   1      32.263  20.770  23.770  1.00  0.00    -0.353 N 
ATOM      7  C   UNL A   1      32.267  21.384  22.559  1.00  0.00     0.261 C 
ATOM      8  O   UNL A   1      31.840  20.705  21.614  1.00  0.00    -0.271 OA
ATOM      9  H   UNL A   1      31.792  19.906  23.776  1.00  0.00     0.163 HD
BRANCH   7  10
ATOM     10  C   UNL A   1      32.690  22.859  22.314  1.00  0.00     0.269 C 
ATOM     11  C   UNL A   1      37.573  23.607  25.836  1.00  0.00     0.045 C 
ATOM     12  C   UNL A   1      36.211  23.932  25.278  1.00  0.00    -0.044 A 
ATOM     13  C   UNL A   1      35.297  24.541  26.159  1.00  0.00     0.005 A 
ATOM     14  C   UNL A   1      35.806  23.632  23.959  1.00  0.00    -0.005 A 
ATOM     15  C   UNL A   1      33.981  24.788  25.774  1.00  0.00     0.016 A 
ATOM     16  C   UNL A   1      34.445  23.789  23.618  1.00  0.00     0.134 A 
ATOM     17  C   UNL A   1      36.748  23.064  22.928  1.00  0.00     0.049 C 
ATOM     18  C   UNL A   1      33.550  24.381  24.512  1.00  0.00     0.060 A 
ATOM     19  O   UNL A   1      34.053  23.225  22.435  1.00  0.00    -0.479 OA
ATOM     20  C   UNL A   1      32.117  24.422  24.184  1.00  0.00     0.170 C 
ATOM     21  C   UNL A   1      31.693  23.863  22.864  1.00  0.00     0.136 C 
ATOM     22  O   UNL A   1      31.302  24.903  24.967  1.00  0.00    -0.294 OA
ENDBRANCH   7  10
ENDBRANCH   5   6
ENDBRANCH   4   5
ENDBRANCH   3   4
ENDBRANCH   2   3
ENDBRANCH   1   2
BRANCH   1  23
ATOM     23  C   UNL A   1      38.613  20.289  25.543  1.00  0.00     0.116 C 
BRANCH  23  24
ATOM     24  N   UNL A   1      39.656  19.330  25.885  1.00  0.00    -0.352 N 
ATOM     25  C   UNL A   1      40.978  19.558  26.160  1.00  0.00     0.251 C 
ATOM     26  H   UNL A   1      39.370  18.389  25.922  1.00  0.00     0.163 HD
ATOM     27  O   UNL A   1      41.782  18.628  26.164  1.00  0.00    -0.269 OA
BRANCH  25  28
ATOM     28  C   UNL A   1      41.426  20.931  26.453  1.00  0.00     0.039 A 
ATOM     29  C   UNL A   1      41.625  21.318  27.780  1.00  0.00     0.014 A 
ATOM     30  C   UNL A   1      41.636  21.834  25.406  1.00  0.00     0.014 A 
ATOM     31  C   UNL A   1      42.078  22.608  28.055  1.00  0.00     0.010 A 
ATOM     32  C   UNL A   1      42.142  23.099  25.679  1.00  0.00     0.010 A 
ATOM     33  C   UNL A   1      42.350  23.500  27.007  1.00  0.00    -0.014 A 
BRANCH  33  34
ATOM     34  C   UNL A   1      42.808  24.881  27.280  1.00  0.00     0.031 A 
ATOM     35  C   UNL A   1      41.870  25.859  27.929  1.00  0.00     0.074 A 
ATOM     36  C   UNL A   1      44.042  25.266  26.903  1.00  0.00     0.049 A 
ATOM     37  N   UNL A   1      42.074  27.114  28.230  1.00  0.00    -0.248 NA
ATOM     38  C   UNL A   1      40.523  25.370  28.272  1.00  0.00     0.031 C 
ATOM     39  C   UNL A   1      45.021  24.419  26.220  1.00  0.00     0.029 A 
ATOM     40  N   UNL A   1      44.675  26.477  27.025  1.00  0.00    -0.354 N 
ATOM     41  C   UNL A   1      40.882  27.568  28.776  1.00  0.00     0.074 A 
ATOM     42  C   UNL A   1      39.946  26.467  28.741  1.00  0.00     0.031 C 
ATOM     43  C   UNL A   1      46.133  25.134  25.989  1.00  0.00     0.029 A 
ATOM     44  C   UNL A   1      45.940  26.494  26.486  1.00  0.00     0.049 A 
ATOM     45  H   UNL A   1      44.263  27.259  27.457  1.00  0.00     0.167 HD
ATOM     46  C   UNL A   1      40.602  28.785  29.293  1.00  0.00     0.034 A 
ATOM     47  C   UNL A   1      46.840  27.492  26.403  1.00  0.00     0.034 A 
ATOM     48  C   UNL A   1      41.544  29.865  29.365  1.00  0.00     0.049 A 
ATOM     49  C   UNL A   1      46.509  28.835  26.992  1.00  0.00     0.074 A 
ATOM     50  C   UNL A   1      41.373  31.113  29.936  1.00  0.00     0.029 A 
ATOM     51  N   UNL A   1      42.828  29.830  28.848  1.00  0.00    -0.354 N 
ATOM     52  N   UNL A   1      45.417  29.210  27.614  1.00  0.00    -0.248 NA
ATOM     53  C   UNL A   1      47.535  29.883  26.895  1.00  0.00     0.031 C 
ATOM     54  C   UNL A   1      42.550  31.842  29.748  1.00  0.00     0.029 A 
ATOM     55  C   UNL A   1      43.459  31.039  29.078  1.00  0.00     0.049 A 
ATOM     56  H   UNL A   1      43.232  29.060  28.385  1.00  0.00     0.167 HD
ATOM     57  C   UNL A   1      45.634  30.526  28.006  1.00  0.00     0.074 A 
ATOM     58  C   UNL A   1      46.965  30.883  27.558  1.00  0.00     0.031 C 
ATOM     59  C   UNL A   1      44.800  31.363  28.668  1.00  0.00     0.034 A 
BRANCH  46  60
ATOM     60  C   UNL A   1      39.240  29.004  29.885  1.00  0.00     0.023 A 
ATOM     61  C   UNL A   1      38.957  28.488  31.164  1.00  0.00     0.012 A 
ATOM     62  C   UNL A   1      38.286  29.804  29.228  1.00  0.00     0.148 A 
ATOM     63  C   UNL A   1      37.737  28.758  31.781  1.00  0.00     0.002 A 
ATOM     64  C   UNL A   1      37.085  30.095  29.863  1.00  0.00     0.091 A 
ATOM     65  F   UNL A   1      38.577  30.270  28.006  1.00  0.00    -0.205 F 
ATOM     66  C   UNL A   1      36.808  29.570  31.137  1.00  0.00     0.022 A 
BRANCH  64  67
ATOM     67  S   UNL A   1      35.841  31.172  29.144  1.00  0.00     0.127 S 
ATOM     68  O   UNL A   1      35.114  31.616  30.334  1.00  0.00    -0.237 OA
ATOM     69  O   UNL A   1      36.661  32.204  28.509  1.00  0.00    -0.237 OA
ATOM     70  O   UNL A   1      35.071  30.346  28.225  1.00  0.00    -0.744 OA
ENDBRANCH  64  67
ENDBRANCH  46  60
BRANCH  47  71
ATOM     71  C   UNL A   1      48.172  27.225  25.795  1.00  0.00     0.023 A 
ATOM     72  C   UNL A   1      49.191  26.670  26.592  1.00  0.00     0.012 A 
ATOM     73  C   UNL A   1      48.407  27.448  24.426  1.00  0.00     0.148 A 
ATOM     74  C   UNL A   1      50.429  26.350  26.034  1.00  0.00     0.002 A 
ATOM     75  C   UNL A   1      49.630  27.092  23.869  1.00  0.00     0.091 A 
ATOM     76  F   UNL A   1      47.417  27.974  23.691  1.00  0.00    -0.205 F 
ATOM     77  C   UNL A   1      50.646  26.553  24.674  1.00  0.00     0.022 A 
BRANCH  75  78
ATOM     78  S   UNL A   1      49.971  27.221  22.110  1.00  0.00     0.127 S 
ATOM     79  O   UNL A   1      48.940  26.355  21.542  1.00  0.00    -0.237 OA
ATOM     80  O   UNL A   1      49.776  28.651  21.874  1.00  0.00    -0.237 OA
ATOM     81  O   UNL A   1      51.341  26.757  21.935  1.00  0.00    -0.744 OA
ENDBRANCH  75  78
ENDBRANCH  47  71
BRANCH  59  82
ATOM     82  C   UNL A   1      45.281  32.753  28.978  1.00  0.00     0.023 A 
ATOM     83  C   UNL A   1      46.005  32.985  30.162  1.00  0.00     0.012 A 
ATOM     84  C   UNL A   1      45.148  33.784  28.026  1.00  0.00     0.148 A 
ATOM     85  C   UNL A   1      46.591  34.229  30.397  1.00  0.00     0.002 A 
ATOM     86  C   UNL A   1      45.763  35.008  28.251  1.00  0.00     0.091 A 
ATOM     87  F   UNL A   1      44.449  33.533  26.910  1.00  0.00    -0.205 F 
ATOM     88  C   UNL A   1      46.482  35.233  29.437  1.00  0.00     0.022 A 
BRANCH  86  89
ATOM     89  S   UNL A   1      45.744  36.339  27.044  1.00  0.00     0.127 S 
ATOM     90  O   UNL A   1      44.314  36.626  26.941  1.00  0.00    -0.237 OA
ATOM     91  O   UNL A   1      46.527  37.375  27.717  1.00  0.00    -0.237 OA
ATOM     92  O   UNL A   1      46.355  35.800  25.836  1.00  0.00    -0.744 OA
ENDBRANCH  86  89
ENDBRANCH  59  82
ENDBRANCH  33  34
ENDBRANCH  25  28
ENDBRANCH  23  24
ENDBRANCH   1  23
TORSDOF 16
ENDMDL
