MODEL 1
REMARK VINA RESULT:     -12.3      0.000      0.000
REMARK SMILES CCCc1cc2c(cc1Cl)C=C(C(=O)NCCCCCCNC(=O)c1ccc(-c3c4nc(c(-c5cccc(S(=O)(=O)[O-])c5F)c5ccc([nH]5)c(-c5cccc(S(=O)(=O)[O-])c5F)c5nc(c(-c6cccc(S(=O)(=O)[O-])c6F)c6ccc3[nH]6)C=C5)C=C4)cc1)[C@@H](C(F)(F)F)O2
REMARK SMILES IDX 19 1 18 2 17 3 16 4 15 5 13 6 14 7 12 9 4 10 5 11 9 12 6 13
REMARK SMILES IDX 8 14 10 15 7 16 93 17 11 18 88 19 3 20 2 21 1 22 89 23 90 24
REMARK SMILES IDX 91 25 92 26 20 27 21 28 22 29 23 30 24 32 25 33 26 34 87 35
REMARK SMILES IDX 27 36 86 37 28 38 29 39 30 40 80 41 31 42 85 43 79 44 81 45
REMARK SMILES IDX 32 46 84 47 78 48 77 49 33 51 65 52 45 53 64 54 46 55 49 56
REMARK SMILES IDX 63 57 82 58 47 59 48 60 62 62 83 63 50 64 34 65 35 66 43 67
REMARK SMILES IDX 36 68 38 69 44 70 37 71 39 72 40 73 41 74 42 75 66 76 67 77
REMARK SMILES IDX 75 78 68 79 70 80 76 81 69 82 71 83 72 84 73 85 74 86 51 87
REMARK SMILES IDX 52 88 60 89 53 90 55 91 61 92 54 93 56 94 57 95 58 96 59 97
REMARK H PARENT 15 8 22 31 81 50 49 61
REMARK Flexibility Score: inf
ROOT
ATOM      1  C   UNL A   1      35.574  23.080  25.834  1.00  0.00     0.002 C 
ENDROOT
BRANCH   1   2
ATOM      2  C   UNL A   1      35.386  24.225  24.831  1.00  0.00     0.002 C 
BRANCH   2   3
ATOM      3  C   UNL A   1      34.437  25.344  25.270  1.00  0.00     0.021 C 
BRANCH   3   4
ATOM      4  C   UNL A   1      33.800  26.118  24.118  1.00  0.00     0.116 C 
BRANCH   4   5
ATOM      5  N   UNL A   1      32.352  26.000  24.126  1.00  0.00    -0.352 N 
ATOM      6  C   UNL A   1      31.432  25.046  24.396  1.00  0.00     0.251 C 
ATOM      7  O   UNL A   1      30.256  25.415  24.295  1.00  0.00    -0.270 OA
ATOM      8  H   UNL A   1      31.922  26.847  23.863  1.00  0.00     0.163 HD
BRANCH   6   9
ATOM      9  C   UNL A   1      31.727  23.635  24.788  1.00  0.00     0.067 C 
ATOM     10  C   UNL A   1      32.885  18.706  24.668  1.00  0.00    -0.026 A 
ATOM     11  C   UNL A   1      32.865  19.695  25.666  1.00  0.00     0.052 A 
ATOM     12  C   UNL A   1      32.520  19.077  23.363  1.00  0.00     0.045 A 
ATOM     13  C   UNL A   1      32.509  21.008  25.364  1.00  0.00     0.128 A 
ATOM     14  C   UNL A   1      32.200  20.407  23.058  1.00  0.00     0.032 A 
ATOM     15  Cl  UNL A   1      32.426  17.930  22.074  1.00  0.00    -0.084 Cl
ATOM     16  C   UNL A   1      32.201  21.380  24.060  1.00  0.00     0.019 A 
ATOM     17  O   UNL A   1      32.525  21.898  26.397  1.00  0.00    -0.475 OA
ATOM     18  C   UNL A   1      31.924  22.780  23.766  1.00  0.00     0.025 C 
ATOM     19  C   UNL A   1      31.771  23.128  26.204  1.00  0.00     0.314 C 
BRANCH  10  20
ATOM     20  C   UNL A   1      33.299  17.306  25.062  1.00  0.00     0.037 C 
BRANCH  20  21
ATOM     21  C   UNL A   1      34.609  16.801  24.442  1.00  0.00     0.001 C 
ATOM     22  C   UNL A   1      35.397  15.853  25.334  1.00  0.00     0.004 C 
ENDBRANCH  20  21
ENDBRANCH  10  20
BRANCH  19  23
ATOM     23  C   UNL A   1      30.364  22.969  26.811  1.00  0.00     0.429 C 
ATOM     24  F   UNL A   1      30.442  22.555  28.099  1.00  0.00    -0.167 F 
ATOM     25  F   UNL A   1      29.674  24.134  26.822  1.00  0.00    -0.167 F 
ATOM     26  F   UNL A   1      29.608  22.072  26.137  1.00  0.00    -0.167 F 
ENDBRANCH  19  23
ENDBRANCH   6   9
ENDBRANCH   4   5
ENDBRANCH   3   4
ENDBRANCH   2   3
ENDBRANCH   1   2
BRANCH   1  27
ATOM     27  C   UNL A   1      36.068  21.755  25.248  1.00  0.00     0.021 C 
BRANCH  27  28
ATOM     28  C   UNL A   1      37.504  21.769  24.737  1.00  0.00     0.116 C 
BRANCH  28  29
ATOM     29  N   UNL A   1      38.306  20.689  25.285  1.00  0.00    -0.352 N 
ATOM     30  C   UNL A   1      39.411  20.762  26.101  1.00  0.00     0.251 C 
ATOM     31  H   UNL A   1      38.020  19.780  25.039  1.00  0.00     0.163 HD
ATOM     32  O   UNL A   1      40.055  19.749  26.358  1.00  0.00    -0.269 OA
BRANCH  30  33
ATOM     33  C   UNL A   1      39.834  22.076  26.633  1.00  0.00     0.039 A 
ATOM     34  C   UNL A   1      39.262  23.255  26.148  1.00  0.00     0.014 A 
ATOM     35  C   UNL A   1      40.844  22.126  27.596  1.00  0.00     0.014 A 
ATOM     36  C   UNL A   1      39.807  24.483  26.509  1.00  0.00     0.010 A 
ATOM     37  C   UNL A   1      41.341  23.365  28.011  1.00  0.00     0.010 A 
ATOM     38  C   UNL A   1      40.862  24.551  27.435  1.00  0.00    -0.014 A 
BRANCH  38  39
ATOM     39  C   UNL A   1      41.455  25.870  27.778  1.00  0.00     0.031 A 
ATOM     40  C   UNL A   1      42.836  26.239  27.306  1.00  0.00     0.074 A 
ATOM     41  C   UNL A   1      40.730  26.753  28.493  1.00  0.00     0.049 A 
ATOM     42  N   UNL A   1      43.504  27.346  27.512  1.00  0.00    -0.248 NA
ATOM     43  C   UNL A   1      43.565  25.244  26.502  1.00  0.00     0.031 C 
ATOM     44  C   UNL A   1      39.386  26.507  29.019  1.00  0.00     0.029 A 
ATOM     45  N   UNL A   1      41.017  28.033  28.893  1.00  0.00    -0.354 N 
ATOM     46  C   UNL A   1      44.741  27.165  26.905  1.00  0.00     0.074 A 
ATOM     47  C   UNL A   1      44.734  25.842  26.319  1.00  0.00     0.031 C 
ATOM     48  C   UNL A   1      38.950  27.613  29.640  1.00  0.00     0.029 A 
ATOM     49  C   UNL A   1      39.998  28.628  29.599  1.00  0.00     0.049 A 
ATOM     50  H   UNL A   1      41.869  28.483  28.693  1.00  0.00     0.167 HD
ATOM     51  C   UNL A   1      45.778  28.030  26.823  1.00  0.00     0.034 A 
ATOM     52  C   UNL A   1      39.917  29.849  30.162  1.00  0.00     0.034 A 
ATOM     53  C   UNL A   1      45.765  29.367  27.351  1.00  0.00     0.049 A 
ATOM     54  C   UNL A   1      41.078  30.792  30.046  1.00  0.00     0.074 A 
ATOM     55  C   UNL A   1      46.755  30.331  27.268  1.00  0.00     0.029 A 
ATOM     56  N   UNL A   1      44.712  29.932  28.051  1.00  0.00    -0.354 N 
ATOM     57  N   UNL A   1      42.207  30.627  29.403  1.00  0.00    -0.248 NA
ATOM     58  C   UNL A   1      40.952  32.091  30.721  1.00  0.00     0.031 C 
ATOM     59  C   UNL A   1      46.300  31.481  27.920  1.00  0.00     0.029 A 
ATOM     60  C   UNL A   1      45.027  31.231  28.408  1.00  0.00     0.049 A 
ATOM     61  H   UNL A   1      43.866  29.476  28.263  1.00  0.00     0.167 HD
ATOM     62  C   UNL A   1      42.926  31.800  29.592  1.00  0.00     0.074 A 
ATOM     63  C   UNL A   1      42.094  32.680  30.387  1.00  0.00     0.031 C 
ATOM     64  C   UNL A   1      44.173  32.110  29.163  1.00  0.00     0.034 A 
BRANCH  51  65
ATOM     65  C   UNL A   1      47.012  27.586  26.086  1.00  0.00     0.023 A 
ATOM     66  C   UNL A   1      47.983  26.828  26.768  1.00  0.00     0.012 A 
ATOM     67  C   UNL A   1      47.161  27.831  24.707  1.00  0.00     0.148 A 
ATOM     68  C   UNL A   1      49.091  26.325  26.090  1.00  0.00     0.002 A 
ATOM     69  C   UNL A   1      48.256  27.303  24.031  1.00  0.00     0.091 A 
ATOM     70  F   UNL A   1      46.229  28.567  24.085  1.00  0.00    -0.205 F 
ATOM     71  C   UNL A   1      49.223  26.553  24.723  1.00  0.00     0.022 A 
BRANCH  69  72
ATOM     72  S   UNL A   1      48.494  27.493  22.262  1.00  0.00     0.127 S 
ATOM     73  O   UNL A   1      47.204  28.043  21.849  1.00  0.00    -0.237 OA
ATOM     74  O   UNL A   1      49.607  28.441  22.202  1.00  0.00    -0.237 OA
ATOM     75  O   UNL A   1      48.793  26.164  21.749  1.00  0.00    -0.744 OA
ENDBRANCH  69  72
ENDBRANCH  51  65
BRANCH  52  76
ATOM     76  C   UNL A   1      38.656  30.251  30.842  1.00  0.00     0.023 A 
ATOM     77  C   UNL A   1      38.512  30.001  32.220  1.00  0.00     0.012 A 
ATOM     78  C   UNL A   1      37.649  30.953  30.154  1.00  0.00     0.148 A 
ATOM     79  C   UNL A   1      37.378  30.442  32.902  1.00  0.00     0.002 A 
ATOM     80  C   UNL A   1      36.545  31.428  30.850  1.00  0.00     0.091 A 
ATOM     81  F   UNL A   1      37.811  31.170  28.842  1.00  0.00    -0.205 F 
ATOM     82  C   UNL A   1      36.403  31.166  32.221  1.00  0.00     0.022 A 
BRANCH  80  83
ATOM     83  S   UNL A   1      35.295  32.469  30.086  1.00  0.00     0.127 S 
ATOM     84  O   UNL A   1      34.807  31.609  29.011  1.00  0.00    -0.237 OA
ATOM     85  O   UNL A   1      34.357  32.667  31.192  1.00  0.00    -0.237 OA
ATOM     86  O   UNL A   1      35.990  33.675  29.660  1.00  0.00    -0.744 OA
ENDBRANCH  80  83
ENDBRANCH  52  76
BRANCH  64  87
ATOM     87  C   UNL A   1      44.734  33.451  29.542  1.00  0.00     0.023 A 
ATOM     88  C   UNL A   1      45.498  33.565  30.718  1.00  0.00     0.012 A 
ATOM     89  C   UNL A   1      44.602  34.560  28.684  1.00  0.00     0.148 A 
ATOM     90  C   UNL A   1      46.120  34.770  31.042  1.00  0.00     0.002 A 
ATOM     91  C   UNL A   1      45.252  35.748  28.997  1.00  0.00     0.091 A 
ATOM     92  F   UNL A   1      43.860  34.425  27.576  1.00  0.00    -0.205 F 
ATOM     93  C   UNL A   1      46.007  35.855  30.177  1.00  0.00     0.022 A 
BRANCH  91  94
ATOM     94  S   UNL A   1      45.226  37.179  27.911  1.00  0.00     0.127 S 
ATOM     95  O   UNL A   1      45.968  36.685  26.752  1.00  0.00    -0.237 OA
ATOM     96  O   UNL A   1      43.794  37.369  27.683  1.00  0.00    -0.237 OA
ATOM     97  O   UNL A   1      45.872  38.256  28.648  1.00  0.00    -0.744 OA
ENDBRANCH  91  94
ENDBRANCH  64  87
ENDBRANCH  38  39
ENDBRANCH  30  33
ENDBRANCH  28  29
ENDBRANCH  27  28
ENDBRANCH   1  27
TORSDOF 19
ENDMDL
MODEL 2
REMARK VINA RESULT:     -11.9      1.879      2.301
REMARK SMILES CCCc1cc2c(cc1Cl)C=C(C(=O)NCCCCCCNC(=O)c1ccc(-c3c4nc(c(-c5cccc(S(=O)(=O)[O-])c5F)c5ccc([nH]5)c(-c5cccc(S(=O)(=O)[O-])c5F)c5nc(c(-c6cccc(S(=O)(=O)[O-])c6F)c6ccc3[nH]6)C=C5)C=C4)cc1)[C@@H](C(F)(F)F)O2
REMARK SMILES IDX 19 1 18 2 17 3 16 4 15 5 13 6 14 7 12 9 4 10 5 11 9 12 6 13
REMARK SMILES IDX 8 14 10 15 7 16 93 17 11 18 88 19 3 20 2 21 1 22 89 23 90 24
REMARK SMILES IDX 91 25 92 26 20 27 21 28 22 29 23 30 24 32 25 33 26 34 87 35
REMARK SMILES IDX 27 36 86 37 28 38 29 39 30 40 80 41 31 42 85 43 79 44 81 45
REMARK SMILES IDX 32 46 84 47 78 48 77 49 33 51 65 52 45 53 64 54 46 55 49 56
REMARK SMILES IDX 63 57 82 58 47 59 48 60 62 62 83 63 50 64 34 65 35 66 43 67
REMARK SMILES IDX 36 68 38 69 44 70 37 71 39 72 40 73 41 74 42 75 66 76 67 77
REMARK SMILES IDX 75 78 68 79 70 80 76 81 69 82 71 83 72 84 73 85 74 86 51 87
REMARK SMILES IDX 52 88 60 89 53 90 55 91 61 92 54 93 56 94 57 95 58 96 59 97
REMARK H PARENT 15 8 22 31 81 50 49 61
REMARK Flexibility Score: inf
ROOT
ATOM      1  C   UNL A   1      35.311  23.034  26.318  1.00  0.00     0.002 C 
ENDROOT
BRANCH   1   2
ATOM      2  C   UNL A   1      35.201  24.434  25.699  1.00  0.00     0.002 C 
BRANCH   2   3
ATOM      3  C   UNL A   1      33.943  25.227  26.068  1.00  0.00     0.021 C 
BRANCH   3   4
ATOM      4  C   UNL A   1      33.520  26.258  25.024  1.00  0.00     0.116 C 
BRANCH   4   5
ATOM      5  N   UNL A   1      32.097  26.183  24.739  1.00  0.00    -0.352 N 
ATOM      6  C   UNL A   1      31.225  25.268  24.258  1.00  0.00     0.251 C 
ATOM      7  O   UNL A   1      30.048  25.646  24.211  1.00  0.00    -0.270 OA
ATOM      8  H   UNL A   1      31.644  27.030  24.956  1.00  0.00     0.163 HD
BRANCH   6   9
ATOM      9  C   UNL A   1      31.571  23.891  23.795  1.00  0.00     0.067 C 
ATOM     10  C   UNL A   1      32.491  18.913  23.634  1.00  0.00    -0.026 A 
ATOM     11  C   UNL A   1      32.228  19.903  22.672  1.00  0.00     0.052 A 
ATOM     12  C   UNL A   1      32.519  19.295  24.986  1.00  0.00     0.045 A 
ATOM     13  C   UNL A   1      31.987  21.223  23.052  1.00  0.00     0.128 A 
ATOM     14  C   UNL A   1      32.239  20.615  25.364  1.00  0.00     0.032 A 
ATOM     15  Cl  UNL A   1      32.916  18.183  26.247  1.00  0.00    -0.084 Cl
ATOM     16  C   UNL A   1      31.964  21.583  24.395  1.00  0.00     0.019 A 
ATOM     17  O   UNL A   1      31.736  22.111  22.049  1.00  0.00    -0.475 OA
ATOM     18  C   UNL A   1      31.617  22.950  24.759  1.00  0.00     0.025 C 
ATOM     19  C   UNL A   1      31.902  23.519  22.374  1.00  0.00     0.314 C 
BRANCH  10  20
ATOM     20  C   UNL A   1      32.726  17.499  23.153  1.00  0.00     0.037 C 
BRANCH  20  21
ATOM     21  C   UNL A   1      34.189  17.038  23.133  1.00  0.00     0.001 C 
ATOM     22  C   UNL A   1      34.559  16.084  24.259  1.00  0.00     0.004 C 
ENDBRANCH  20  21
ENDBRANCH  10  20
BRANCH  19  23
ATOM     23  C   UNL A   1      33.314  23.978  21.966  1.00  0.00     0.429 C 
ATOM     24  F   UNL A   1      33.646  23.481  20.749  1.00  0.00    -0.167 F 
ATOM     25  F   UNL A   1      33.410  25.326  21.869  1.00  0.00    -0.167 F 
ATOM     26  F   UNL A   1      34.263  23.580  22.843  1.00  0.00    -0.167 F 
ENDBRANCH  19  23
ENDBRANCH   6   9
ENDBRANCH   4   5
ENDBRANCH   3   4
ENDBRANCH   2   3
ENDBRANCH   1   2
BRANCH   1  27
ATOM     27  C   UNL A   1      35.645  21.901  25.347  1.00  0.00     0.021 C 
BRANCH  27  28
ATOM     28  C   UNL A   1      37.055  21.939  24.767  1.00  0.00     0.116 C 
BRANCH  28  29
ATOM     29  N   UNL A   1      37.876  20.828  25.216  1.00  0.00    -0.352 N 
ATOM     30  C   UNL A   1      39.037  20.856  25.953  1.00  0.00     0.251 C 
ATOM     31  H   UNL A   1      37.558  19.933  24.958  1.00  0.00     0.163 HD
ATOM     32  O   UNL A   1      39.681  19.825  26.125  1.00  0.00    -0.269 OA
BRANCH  30  33
ATOM     33  C   UNL A   1      39.518  22.142  26.501  1.00  0.00     0.039 A 
ATOM     34  C   UNL A   1      38.934  23.346  26.100  1.00  0.00     0.014 A 
ATOM     35  C   UNL A   1      40.593  22.142  27.393  1.00  0.00     0.014 A 
ATOM     36  C   UNL A   1      39.523  24.552  26.467  1.00  0.00     0.010 A 
ATOM     37  C   UNL A   1      41.138  23.357  27.817  1.00  0.00     0.010 A 
ATOM     38  C   UNL A   1      40.641  24.571  27.318  1.00  0.00    -0.014 A 
BRANCH  38  39
ATOM     39  C   UNL A   1      41.278  25.867  27.668  1.00  0.00     0.031 A 
ATOM     40  C   UNL A   1      42.673  26.189  27.201  1.00  0.00     0.074 A 
ATOM     41  C   UNL A   1      40.582  26.773  28.382  1.00  0.00     0.049 A 
ATOM     42  N   UNL A   1      43.378  27.271  27.412  1.00  0.00    -0.248 NA
ATOM     43  C   UNL A   1      43.369  25.171  26.396  1.00  0.00     0.031 C 
ATOM     44  C   UNL A   1      39.228  26.573  28.903  1.00  0.00     0.029 A 
ATOM     45  N   UNL A   1      40.912  28.041  28.786  1.00  0.00    -0.354 N 
ATOM     46  C   UNL A   1      44.610  27.049  26.808  1.00  0.00     0.074 A 
ATOM     47  C   UNL A   1      44.560  25.729  26.219  1.00  0.00     0.031 C 
ATOM     48  C   UNL A   1      38.829  27.692  29.526  1.00  0.00     0.029 A 
ATOM     49  C   UNL A   1      39.913  28.670  29.491  1.00  0.00     0.049 A 
ATOM     50  H   UNL A   1      41.780  28.462  28.590  1.00  0.00     0.167 HD
ATOM     51  C   UNL A   1      45.677  27.878  26.733  1.00  0.00     0.034 A 
ATOM     52  C   UNL A   1      39.872  29.892  30.056  1.00  0.00     0.034 A 
ATOM     53  C   UNL A   1      45.709  29.213  27.264  1.00  0.00     0.049 A 
ATOM     54  C   UNL A   1      41.065  30.794  29.946  1.00  0.00     0.074 A 
ATOM     55  C   UNL A   1      46.732  30.142  27.186  1.00  0.00     0.029 A 
ATOM     56  N   UNL A   1      44.674  29.813  27.962  1.00  0.00    -0.354 N 
ATOM     57  N   UNL A   1      42.190  30.591  29.307  1.00  0.00    -0.248 NA
ATOM     58  C   UNL A   1      40.982  32.095  30.625  1.00  0.00     0.031 C 
ATOM     59  C   UNL A   1      46.316  31.305  27.840  1.00  0.00     0.029 A 
ATOM     60  C   UNL A   1      45.033  31.099  28.323  1.00  0.00     0.049 A 
ATOM     61  H   UNL A   1      43.811  29.386  28.169  1.00  0.00     0.167 HD
ATOM     62  C   UNL A   1      42.949  31.738  29.501  1.00  0.00     0.074 A 
ATOM     63  C   UNL A   1      42.145  32.644  30.296  1.00  0.00     0.031 C 
ATOM     64  C   UNL A   1      44.207  32.005  29.077  1.00  0.00     0.034 A 
BRANCH  51  65
ATOM     65  C   UNL A   1      46.898  27.393  25.998  1.00  0.00     0.023 A 
ATOM     66  C   UNL A   1      47.042  27.700  24.632  1.00  0.00     0.012 A 
ATOM     67  C   UNL A   1      47.937  26.729  26.677  1.00  0.00     0.148 A 
ATOM     68  C   UNL A   1      48.202  27.345  23.946  1.00  0.00     0.002 A 
ATOM     69  C   UNL A   1      49.103  26.402  25.994  1.00  0.00     0.091 A 
ATOM     70  F   UNL A   1      47.769  26.437  27.974  1.00  0.00    -0.205 F 
ATOM     71  C   UNL A   1      49.235  26.706  24.628  1.00  0.00     0.022 A 
BRANCH  69  72
ATOM     72  S   UNL A   1      50.514  25.625  26.787  1.00  0.00     0.127 S 
ATOM     73  O   UNL A   1      50.937  26.668  27.721  1.00  0.00    -0.237 OA
ATOM     74  O   UNL A   1      49.905  24.454  27.419  1.00  0.00    -0.237 OA
ATOM     75  O   UNL A   1      51.461  25.324  25.724  1.00  0.00    -0.744 OA
ENDBRANCH  69  72
ENDBRANCH  51  65
BRANCH  52  76
ATOM     76  C   UNL A   1      38.624  30.336  30.734  1.00  0.00     0.023 A 
ATOM     77  C   UNL A   1      38.486  30.129  32.119  1.00  0.00     0.012 A 
ATOM     78  C   UNL A   1      37.623  31.034  30.032  1.00  0.00     0.148 A 
ATOM     79  C   UNL A   1      37.365  30.611  32.796  1.00  0.00     0.002 A 
ATOM     80  C   UNL A   1      36.532  31.549  30.721  1.00  0.00     0.091 A 
ATOM     81  F   UNL A   1      37.779  31.208  28.713  1.00  0.00    -0.205 F 
ATOM     82  C   UNL A   1      36.397  31.331  32.100  1.00  0.00     0.022 A 
BRANCH  80  83
ATOM     83  S   UNL A   1      35.295  32.588  29.936  1.00  0.00     0.127 S 
ATOM     84  O   UNL A   1      36.114  33.664  29.384  1.00  0.00    -0.237 OA
ATOM     85  O   UNL A   1      34.725  31.675  28.943  1.00  0.00    -0.237 OA
ATOM     86  O   UNL A   1      34.375  32.979  30.995  1.00  0.00    -0.744 OA
ENDBRANCH  80  83
ENDBRANCH  52  76
BRANCH  64  87
ATOM     87  C   UNL A   1      44.813  33.325  29.462  1.00  0.00     0.023 A 
ATOM     88  C   UNL A   1      45.624  33.397  30.610  1.00  0.00     0.012 A 
ATOM     89  C   UNL A   1      44.675  34.455  28.633  1.00  0.00     0.148 A 
ATOM     90  C   UNL A   1      46.286  34.580  30.934  1.00  0.00     0.002 A 
ATOM     91  C   UNL A   1      45.363  35.621  28.944  1.00  0.00     0.091 A 
ATOM     92  F   UNL A   1      43.888  34.360  27.551  1.00  0.00    -0.205 F 
ATOM     93  C   UNL A   1      46.165  35.686  30.096  1.00  0.00     0.022 A 
BRANCH  91  94
ATOM     94  S   UNL A   1      45.330  37.075  27.890  1.00  0.00     0.127 S 
ATOM     95  O   UNL A   1      43.893  37.267  27.695  1.00  0.00    -0.237 OA
ATOM     96  O   UNL A   1      45.972  38.083  28.731  1.00  0.00    -0.237 OA
ATOM     97  O   UNL A   1      46.076  36.720  26.690  1.00  0.00    -0.744 OA
ENDBRANCH  91  94
ENDBRANCH  64  87
ENDBRANCH  38  39
ENDBRANCH  30  33
ENDBRANCH  28  29
ENDBRANCH  27  28
ENDBRANCH   1  27
TORSDOF 19
ENDMDL
MODEL 3
REMARK VINA RESULT:     -11.8      1.278      7.462
REMARK SMILES CCCc1cc2c(cc1Cl)C=C(C(=O)NCCCCCCNC(=O)c1ccc(-c3c4nc(c(-c5cccc(S(=O)(=O)[O-])c5F)c5ccc([nH]5)c(-c5cccc(S(=O)(=O)[O-])c5F)c5nc(c(-c6cccc(S(=O)(=O)[O-])c6F)c6ccc3[nH]6)C=C5)C=C4)cc1)[C@@H](C(F)(F)F)O2
REMARK SMILES IDX 19 1 18 2 17 3 16 4 15 5 13 6 14 7 12 9 4 10 5 11 9 12 6 13
REMARK SMILES IDX 8 14 10 15 7 16 93 17 11 18 88 19 3 20 2 21 1 22 89 23 90 24
REMARK SMILES IDX 91 25 92 26 20 27 21 28 22 29 23 30 24 32 25 33 26 34 87 35
REMARK SMILES IDX 27 36 86 37 28 38 29 39 30 40 80 41 31 42 85 43 79 44 81 45
REMARK SMILES IDX 32 46 84 47 78 48 77 49 33 51 65 52 45 53 64 54 46 55 49 56
REMARK SMILES IDX 63 57 82 58 47 59 48 60 62 62 83 63 50 64 34 65 35 66 43 67
REMARK SMILES IDX 36 68 38 69 44 70 37 71 39 72 40 73 41 74 42 75 66 76 67 77
REMARK SMILES IDX 75 78 68 79 70 80 76 81 69 82 71 83 72 84 73 85 74 86 51 87
REMARK SMILES IDX 52 88 60 89 53 90 55 91 61 92 54 93 56 94 57 95 58 96 59 97
REMARK H PARENT 15 8 22 31 81 50 49 61
REMARK Flexibility Score: inf
ROOT
ATOM      1  C   UNL A   1      35.307  23.004  23.594  1.00  0.00     0.002 C 
ENDROOT
BRANCH   1   2
ATOM      2  C   UNL A   1      35.510  24.458  24.040  1.00  0.00     0.002 C 
BRANCH   2   3
ATOM      3  C   UNL A   1      34.362  25.072  24.847  1.00  0.00     0.021 C 
BRANCH   3   4
ATOM      4  C   UNL A   1      33.683  26.262  24.171  1.00  0.00     0.116 C 
BRANCH   4   5
ATOM      5  N   UNL A   1      32.243  26.089  24.097  1.00  0.00    -0.352 N 
ATOM      6  C   UNL A   1      31.349  25.090  24.277  1.00  0.00     0.251 C 
ATOM      7  O   UNL A   1      30.165  25.418  24.129  1.00  0.00    -0.270 OA
ATOM      8  H   UNL A   1      31.794  26.929  23.848  1.00  0.00     0.163 HD
BRANCH   6   9
ATOM      9  C   UNL A   1      31.679  23.675  24.623  1.00  0.00     0.067 C 
ATOM     10  C   UNL A   1      32.853  18.756  24.340  1.00  0.00    -0.026 A 
ATOM     11  C   UNL A   1      32.901  19.729  25.353  1.00  0.00     0.052 A 
ATOM     12  C   UNL A   1      32.393  19.145  23.070  1.00  0.00     0.045 A 
ATOM     13  C   UNL A   1      32.516  21.044  25.099  1.00  0.00     0.128 A 
ATOM     14  C   UNL A   1      32.044  20.478  22.812  1.00  0.00     0.032 A 
ATOM     15  Cl  UNL A   1      32.213  18.018  21.774  1.00  0.00    -0.084 Cl
ATOM     16  C   UNL A   1      32.112  21.435  23.826  1.00  0.00     0.019 A 
ATOM     17  O   UNL A   1      32.601  21.918  26.142  1.00  0.00    -0.475 OA
ATOM     18  C   UNL A   1      31.807  22.837  23.576  1.00  0.00     0.025 C 
ATOM     19  C   UNL A   1      31.829  23.145  26.024  1.00  0.00     0.314 C 
BRANCH  10  20
ATOM     20  C   UNL A   1      33.303  17.353  24.680  1.00  0.00     0.037 C 
BRANCH  20  21
ATOM     21  C   UNL A   1      34.801  17.073  24.503  1.00  0.00     0.001 C 
ATOM     22  C   UNL A   1      35.336  15.953  25.384  1.00  0.00     0.004 C 
ENDBRANCH  20  21
ENDBRANCH  10  20
BRANCH  19  23
ATOM     23  C   UNL A   1      30.470  22.967  26.728  1.00  0.00     0.429 C 
ATOM     24  F   UNL A   1      30.643  22.536  28.001  1.00  0.00    -0.167 F 
ATOM     25  F   UNL A   1      29.775  24.127  26.806  1.00  0.00    -0.167 F 
ATOM     26  F   UNL A   1      29.674  22.075  26.098  1.00  0.00    -0.167 F 
ENDBRANCH  19  23
ENDBRANCH   6   9
ENDBRANCH   4   5
ENDBRANCH   3   4
ENDBRANCH   2   3
ENDBRANCH   1   2
BRANCH   1  27
ATOM     27  C   UNL A   1      36.470  22.051  23.881  1.00  0.00     0.021 C 
BRANCH  27  28
ATOM     28  C   UNL A   1      36.675  21.704  25.352  1.00  0.00     0.116 C 
BRANCH  28  29
ATOM     29  N   UNL A   1      37.669  20.663  25.549  1.00  0.00    -0.352 N 
ATOM     30  C   UNL A   1      38.964  20.780  25.998  1.00  0.00     0.251 C 
ATOM     31  H   UNL A   1      37.376  19.749  25.331  1.00  0.00     0.163 HD
ATOM     32  O   UNL A   1      39.715  19.809  25.970  1.00  0.00    -0.269 OA
BRANCH  30  33
ATOM     33  C   UNL A   1      39.451  22.092  26.476  1.00  0.00     0.039 A 
ATOM     34  C   UNL A   1      38.909  23.276  25.971  1.00  0.00     0.014 A 
ATOM     35  C   UNL A   1      40.489  22.133  27.409  1.00  0.00     0.014 A 
ATOM     36  C   UNL A   1      39.509  24.493  26.278  1.00  0.00     0.010 A 
ATOM     37  C   UNL A   1      41.043  23.364  27.771  1.00  0.00     0.010 A 
ATOM     38  C   UNL A   1      40.592  24.550  27.172  1.00  0.00    -0.014 A 
BRANCH  38  39
ATOM     39  C   UNL A   1      41.242  25.855  27.458  1.00  0.00     0.031 A 
ATOM     40  C   UNL A   1      40.544  26.896  28.291  1.00  0.00     0.074 A 
ATOM     41  C   UNL A   1      42.484  26.090  26.990  1.00  0.00     0.049 A 
ATOM     42  N   UNL A   1      40.965  28.085  28.640  1.00  0.00    -0.248 NA
ATOM     43  C   UNL A   1      39.201  26.567  28.800  1.00  0.00     0.031 C 
ATOM     44  C   UNL A   1      43.259  25.166  26.160  1.00  0.00     0.029 A 
ATOM     45  N   UNL A   1      43.313  27.170  27.152  1.00  0.00    -0.354 N 
ATOM     46  C   UNL A   1      39.930  28.661  29.367  1.00  0.00     0.074 A 
ATOM     47  C   UNL A   1      38.857  27.692  29.413  1.00  0.00     0.031 C 
ATOM     48  C   UNL A   1      44.464  25.702  25.916  1.00  0.00     0.029 A 
ATOM     49  C   UNL A   1      44.531  27.025  26.530  1.00  0.00     0.049 A 
ATOM     50  H   UNL A   1      43.062  27.972  27.665  1.00  0.00     0.167 HD
ATOM     51  C   UNL A   1      39.886  29.876  29.960  1.00  0.00     0.034 A 
ATOM     52  C   UNL A   1      45.581  27.864  26.450  1.00  0.00     0.034 A 
ATOM     53  C   UNL A   1      40.972  30.817  29.968  1.00  0.00     0.049 A 
ATOM     54  C   UNL A   1      45.510  29.200  27.127  1.00  0.00     0.074 A 
ATOM     55  C   UNL A   1      41.033  32.052  30.589  1.00  0.00     0.029 A 
ATOM     56  N   UNL A   1      42.189  30.627  29.333  1.00  0.00    -0.354 N 
ATOM     57  N   UNL A   1      44.550  29.692  27.871  1.00  0.00    -0.248 NA
ATOM     58  C   UNL A   1      46.665  30.094  26.965  1.00  0.00     0.031 C 
ATOM     59  C   UNL A   1      42.287  32.611  30.329  1.00  0.00     0.029 A 
ATOM     60  C   UNL A   1      43.007  31.722  29.546  1.00  0.00     0.049 A 
ATOM     61  H   UNL A   1      42.434  29.831  28.809  1.00  0.00     0.167 HD
ATOM     62  C   UNL A   1      44.985  30.950  28.270  1.00  0.00     0.074 A 
ATOM     63  C   UNL A   1      46.307  31.135  27.707  1.00  0.00     0.031 C 
ATOM     64  C   UNL A   1      44.336  31.875  29.016  1.00  0.00     0.034 A 
BRANCH  51  65
ATOM     65  C   UNL A   1      38.636  30.253  30.708  1.00  0.00     0.023 A 
ATOM     66  C   UNL A   1      38.522  29.911  32.069  1.00  0.00     0.012 A 
ATOM     67  C   UNL A   1      37.629  31.025  30.097  1.00  0.00     0.148 A 
ATOM     68  C   UNL A   1      37.419  30.325  32.812  1.00  0.00     0.002 A 
ATOM     69  C   UNL A   1      36.544  31.458  30.851  1.00  0.00     0.091 A 
ATOM     70  F   UNL A   1      37.755  31.325  28.797  1.00  0.00    -0.205 F 
ATOM     71  C   UNL A   1      36.436  31.105  32.208  1.00  0.00     0.022 A 
BRANCH  69  72
ATOM     72  S   UNL A   1      35.250  32.509  30.185  1.00  0.00     0.127 S 
ATOM     73  O   UNL A   1      34.339  32.611  31.325  1.00  0.00    -0.237 OA
ATOM     74  O   UNL A   1      35.980  33.738  29.877  1.00  0.00    -0.237 OA
ATOM     75  O   UNL A   1      34.715  31.807  29.027  1.00  0.00    -0.744 OA
ENDBRANCH  69  72
ENDBRANCH  51  65
BRANCH  52  76
ATOM     76  C   UNL A   1      46.808  27.423  25.733  1.00  0.00     0.023 A 
ATOM     77  C   UNL A   1      46.951  27.730  24.368  1.00  0.00     0.012 A 
ATOM     78  C   UNL A   1      47.861  26.785  26.416  1.00  0.00     0.148 A 
ATOM     79  C   UNL A   1      48.127  27.405  23.691  1.00  0.00     0.002 A 
ATOM     80  C   UNL A   1      49.045  26.505  25.746  1.00  0.00     0.091 A 
ATOM     81  F   UNL A   1      47.693  26.498  27.714  1.00  0.00    -0.205 F 
ATOM     82  C   UNL A   1      49.177  26.805  24.382  1.00  0.00     0.022 A 
BRANCH  80  83
ATOM     83  S   UNL A   1      50.493  25.842  26.577  1.00  0.00     0.127 S 
ATOM     84  O   UNL A   1      51.458  25.769  25.482  1.00  0.00    -0.237 OA
ATOM     85  O   UNL A   1      50.767  26.879  27.572  1.00  0.00    -0.237 OA
ATOM     86  O   UNL A   1      50.079  24.562  27.135  1.00  0.00    -0.744 OA
ENDBRANCH  80  83
ENDBRANCH  52  76
BRANCH  64  87
ATOM     87  C   UNL A   1      45.030  33.183  29.272  1.00  0.00     0.023 A 
ATOM     88  C   UNL A   1      45.843  33.313  30.414  1.00  0.00     0.012 A 
ATOM     89  C   UNL A   1      44.969  34.232  28.335  1.00  0.00     0.148 A 
ATOM     90  C   UNL A   1      46.584  34.475  30.625  1.00  0.00     0.002 A 
ATOM     91  C   UNL A   1      45.735  35.374  28.535  1.00  0.00     0.091 A 
ATOM     92  F   UNL A   1      44.178  34.084  27.263  1.00  0.00    -0.205 F 
ATOM     93  C   UNL A   1      46.539  35.498  29.681  1.00  0.00     0.022 A 
BRANCH  91  94
ATOM     94  S   UNL A   1      45.801  36.715  27.342  1.00  0.00     0.127 S 
ATOM     95  O   UNL A   1      44.392  37.096  27.246  1.00  0.00    -0.237 OA
ATOM     96  O   UNL A   1      46.652  37.692  28.020  1.00  0.00    -0.237 OA
ATOM     97  O   UNL A   1      46.374  36.149  26.129  1.00  0.00    -0.744 OA
ENDBRANCH  91  94
ENDBRANCH  64  87
ENDBRANCH  38  39
ENDBRANCH  30  33
ENDBRANCH  28  29
ENDBRANCH  27  28
ENDBRANCH   1  27
TORSDOF 19
ENDMDL
