MODEL 1
REMARK VINA RESULT:     -12.2      0.000      0.000
REMARK SMILES Cc1cccc(NS(=O)(=O)c2ccc(Br)c(C(=O)NCCCCCCNC(=O)c3ccc(-c4c5nc(c(-c6cccc(S(=O)(=O)[O-])c6F)c6ccc([nH]6)c(-c6cccc(S(=O)(=O)[O-])c6F)c6nc(c(-c7cccc(S(=O)(=O)[O-])c7F)c7ccc4[nH]7)C=C6)C=C5)cc3)c2)c1
REMARK SMILES IDX 22 1 21 2 20 3 19 4 17 5 18 6 16 8 11 9 12 10 92 11 13 12
REMARK SMILES IDX 14 13 15 14 8 15 9 16 10 17 7 18 6 20 1 21 2 22 3 23 93 24
REMARK SMILES IDX 4 25 5 26 23 27 24 28 25 29 26 30 27 31 28 33 29 34 30 35
REMARK SMILES IDX 91 36 31 37 90 38 32 39 33 40 34 41 84 42 35 43 89 44 83 45
REMARK SMILES IDX 85 46 36 47 88 48 82 49 81 50 37 52 69 53 49 54 68 55 50 56
REMARK SMILES IDX 53 57 67 58 86 59 51 60 52 61 66 63 87 64 54 65 38 66 39 67
REMARK SMILES IDX 47 68 40 69 42 70 48 71 41 72 43 73 44 74 45 75 46 76 70 77
REMARK SMILES IDX 71 78 79 79 72 80 74 81 80 82 73 83 75 84 76 85 77 86 78 87
REMARK SMILES IDX 55 88 56 89 64 90 57 91 59 92 65 93 58 94 60 95 61 96 62 97
REMARK SMILES IDX 63 98
REMARK H PARENT 19 7 7 19 26 32 85 51 53 62
REMARK Flexibility Score: inf
ROOT
ATOM      1  C   UNL A   1      36.022  21.867  24.686  1.00  0.00     0.002 C 
ENDROOT
BRANCH   1   2
ATOM      2  C   UNL A   1      34.949  21.929  25.770  1.00  0.00     0.021 C 
BRANCH   2   3
ATOM      3  C   UNL A   1      33.913  20.820  25.801  1.00  0.00     0.116 C 
BRANCH   3   4
ATOM      4  N   UNL A   1      32.564  21.155  26.205  1.00  0.00    -0.352 N 
ATOM      5  C   UNL A   1      31.610  21.878  25.509  1.00  0.00     0.252 C 
ATOM      6  O   UNL A   1      30.458  21.912  25.940  1.00  0.00    -0.269 OA
ATOM      7  H   UNL A   1      32.288  20.825  27.091  1.00  0.00     0.163 HD
BRANCH   5   8
ATOM      8  C   UNL A   1      31.978  22.748  24.350  1.00  0.00     0.055 A 
ATOM      9  C   UNL A   1      32.375  25.012  23.571  1.00  0.00     0.088 A 
ATOM     10  C   UNL A   1      33.373  24.547  22.723  1.00  0.00     0.023 A 
ATOM     11  C   UNL A   1      31.770  24.127  24.476  1.00  0.00     0.037 A 
ATOM     12  C   UNL A   1      33.413  23.180  22.460  1.00  0.00     0.018 A 
ATOM     13  C   UNL A   1      32.586  22.311  23.175  1.00  0.00     0.030 A 
ATOM     14  Br  UNL A   1      32.006  20.742  22.259  1.00  0.00    -0.050 Br
BRANCH   9  15
ATOM     15  S   UNL A   1      31.686  26.639  23.392  1.00  0.00     0.261 S 
ATOM     16  O   UNL A   1      30.652  26.762  24.382  1.00  0.00    -0.201 OA
ATOM     17  O   UNL A   1      31.372  26.804  21.975  1.00  0.00    -0.201 OA
BRANCH  15  18
ATOM     18  N   UNL A   1      32.791  27.874  23.748  1.00  0.00    -0.280 N 
ATOM     19  H   UNL A   1      33.429  28.102  23.033  1.00  0.00     0.180 HD
BRANCH  18  20
ATOM     20  C   UNL A   1      32.911  28.627  24.960  1.00  0.00     0.049 A 
ATOM     21  C   UNL A   1      31.239  31.757  26.392  1.00  0.00     0.044 C 
ATOM     22  C   UNL A   1      32.068  30.511  26.273  1.00  0.00    -0.049 A 
ATOM     23  C   UNL A   1      32.840  30.086  27.354  1.00  0.00     0.003 A 
ATOM     24  C   UNL A   1      32.087  29.755  25.091  1.00  0.00     0.030 A 
ATOM     25  C   UNL A   1      33.754  29.049  27.183  1.00  0.00     0.002 A 
ATOM     26  C   UNL A   1      33.855  28.389  25.952  1.00  0.00     0.027 A 
ENDBRANCH  18  20
ENDBRANCH  15  18
ENDBRANCH   9  15
ENDBRANCH   5   8
ENDBRANCH   3   4
ENDBRANCH   2   3
ENDBRANCH   1   2
BRANCH   1  27
ATOM     27  C   UNL A   1      36.961  20.653  24.652  1.00  0.00     0.002 C 
BRANCH  27  28
ATOM     28  C   UNL A   1      38.260  20.717  25.450  1.00  0.00     0.021 C 
BRANCH  28  29
ATOM     29  C   UNL A   1      38.658  22.094  25.931  1.00  0.00     0.116 C 
BRANCH  29  30
ATOM     30  N   UNL A   1      39.714  22.070  26.915  1.00  0.00    -0.352 N 
ATOM     31  C   UNL A   1      40.506  23.103  27.372  1.00  0.00     0.251 C 
ATOM     32  H   UNL A   1      39.894  21.190  27.319  1.00  0.00     0.163 HD
ATOM     33  O   UNL A   1      41.555  22.807  27.939  1.00  0.00    -0.269 OA
BRANCH  31  34
ATOM     34  C   UNL A   1      40.004  24.507  27.370  1.00  0.00     0.039 A 
ATOM     35  C   UNL A   1      40.743  25.414  26.599  1.00  0.00     0.014 A 
ATOM     36  C   UNL A   1      39.164  24.988  28.368  1.00  0.00     0.014 A 
ATOM     37  C   UNL A   1      40.930  26.708  27.064  1.00  0.00     0.010 A 
ATOM     38  C   UNL A   1      39.430  26.221  28.899  1.00  0.00     0.010 A 
ATOM     39  C   UNL A   1      40.398  27.025  28.299  1.00  0.00    -0.014 A 
BRANCH  39  40
ATOM     40  C   UNL A   1      40.686  28.214  29.063  1.00  0.00     0.031 A 
ATOM     41  C   UNL A   1      39.774  29.355  28.885  1.00  0.00     0.074 A 
ATOM     42  C   UNL A   1      41.502  28.057  30.132  1.00  0.00     0.049 A 
ATOM     43  N   UNL A   1      39.881  30.460  29.525  1.00  0.00    -0.248 NA
ATOM     44  C   UNL A   1      38.646  29.334  27.951  1.00  0.00     0.031 C 
ATOM     45  C   UNL A   1      41.480  28.808  31.382  1.00  0.00     0.029 A 
ATOM     46  N   UNL A   1      42.565  27.181  30.344  1.00  0.00    -0.354 N 
ATOM     47  C   UNL A   1      38.700  31.144  29.348  1.00  0.00     0.074 A 
ATOM     48  C   UNL A   1      38.042  30.487  28.251  1.00  0.00     0.031 C 
ATOM     49  C   UNL A   1      42.625  28.577  32.051  1.00  0.00     0.029 A 
ATOM     50  C   UNL A   1      43.496  27.863  31.137  1.00  0.00     0.049 A 
ATOM     51  H   UNL A   1      42.645  26.261  30.003  1.00  0.00     0.167 HD
ATOM     52  C   UNL A   1      38.370  32.081  30.276  1.00  0.00     0.034 A 
ATOM     53  C   UNL A   1      44.675  28.378  30.654  1.00  0.00     0.034 A 
ATOM     54  C   UNL A   1      39.526  32.338  31.154  1.00  0.00     0.049 A 
ATOM     55  C   UNL A   1      44.742  29.904  30.746  1.00  0.00     0.074 A 
ATOM     56  C   UNL A   1      39.861  31.922  32.431  1.00  0.00     0.029 A 
ATOM     57  N   UNL A   1      40.697  32.836  30.586  1.00  0.00    -0.354 N 
ATOM     58  N   UNL A   1      43.720  30.671  31.018  1.00  0.00    -0.248 NA
ATOM     59  C   UNL A   1      45.964  30.685  30.554  1.00  0.00     0.031 C 
ATOM     60  C   UNL A   1      41.274  32.061  32.574  1.00  0.00     0.029 A 
ATOM     61  C   UNL A   1      41.789  32.612  31.411  1.00  0.00     0.049 A 
ATOM     62  H   UNL A   1      40.743  33.288  29.712  1.00  0.00     0.167 HD
ATOM     63  C   UNL A   1      44.067  31.992  30.925  1.00  0.00     0.074 A 
ATOM     64  C   UNL A   1      45.507  31.941  30.716  1.00  0.00     0.031 C 
ATOM     65  C   UNL A   1      43.135  33.000  30.976  1.00  0.00     0.034 A 
BRANCH  52  66
ATOM     66  C   UNL A   1      36.979  32.632  30.549  1.00  0.00     0.023 A 
ATOM     67  C   UNL A   1      36.438  32.368  31.826  1.00  0.00     0.012 A 
ATOM     68  C   UNL A   1      36.115  33.294  29.638  1.00  0.00     0.148 A 
ATOM     69  C   UNL A   1      35.128  32.718  32.178  1.00  0.00     0.002 A 
ATOM     70  C   UNL A   1      34.825  33.692  30.006  1.00  0.00     0.091 A 
ATOM     71  F   UNL A   1      36.485  33.485  28.372  1.00  0.00    -0.205 F 
ATOM     72  C   UNL A   1      34.323  33.392  31.272  1.00  0.00     0.022 A 
BRANCH  70  73
ATOM     73  S   UNL A   1      33.728  34.600  28.894  1.00  0.00     0.127 S 
ATOM     74  O   UNL A   1      34.586  35.698  28.446  1.00  0.00    -0.237 OA
ATOM     75  O   UNL A   1      33.430  33.605  27.866  1.00  0.00    -0.237 OA
ATOM     76  O   UNL A   1      32.576  35.007  29.691  1.00  0.00    -0.744 OA
ENDBRANCH  70  73
ENDBRANCH  52  66
BRANCH  53  77
ATOM     77  C   UNL A   1      45.260  27.550  29.553  1.00  0.00     0.023 A 
ATOM     78  C   UNL A   1      45.361  26.159  29.803  1.00  0.00     0.012 A 
ATOM     79  C   UNL A   1      45.226  27.998  28.221  1.00  0.00     0.148 A 
ATOM     80  C   UNL A   1      45.182  25.239  28.770  1.00  0.00     0.002 A 
ATOM     81  C   UNL A   1      45.064  27.072  27.193  1.00  0.00     0.091 A 
ATOM     82  F   UNL A   1      45.279  29.315  27.984  1.00  0.00    -0.205 F 
ATOM     83  C   UNL A   1      44.974  25.698  27.474  1.00  0.00     0.022 A 
BRANCH  81  84
ATOM     84  S   UNL A   1      44.832  27.603  25.490  1.00  0.00     0.127 S 
ATOM     85  O   UNL A   1      43.454  28.088  25.517  1.00  0.00    -0.237 OA
ATOM     86  O   UNL A   1      45.843  28.647  25.335  1.00  0.00    -0.237 OA
ATOM     87  O   UNL A   1      45.079  26.411  24.691  1.00  0.00    -0.744 OA
ENDBRANCH  81  84
ENDBRANCH  53  77
BRANCH  65  88
ATOM     88  C   UNL A   1      43.394  34.458  30.607  1.00  0.00     0.023 A 
ATOM     89  C   UNL A   1      43.748  35.431  31.561  1.00  0.00     0.012 A 
ATOM     90  C   UNL A   1      43.421  34.880  29.249  1.00  0.00     0.148 A 
ATOM     91  C   UNL A   1      44.028  36.757  31.211  1.00  0.00     0.002 A 
ATOM     92  C   UNL A   1      43.835  36.163  28.896  1.00  0.00     0.091 A 
ATOM     93  F   UNL A   1      43.018  34.050  28.277  1.00  0.00    -0.205 F 
ATOM     94  C   UNL A   1      44.096  37.119  29.876  1.00  0.00     0.022 A 
BRANCH  92  95
ATOM     95  S   UNL A   1      44.207  36.588  27.188  1.00  0.00     0.127 S 
ATOM     96  O   UNL A   1      45.233  35.606  26.848  1.00  0.00    -0.237 OA
ATOM     97  O   UNL A   1      42.917  36.375  26.528  1.00  0.00    -0.237 OA
ATOM     98  O   UNL A   1      44.635  37.979  27.222  1.00  0.00    -0.744 OA
ENDBRANCH  92  95
ENDBRANCH  65  88
ENDBRANCH  39  40
ENDBRANCH  31  34
ENDBRANCH  29  30
ENDBRANCH  28  29
ENDBRANCH  27  28
ENDBRANCH   1  27
TORSDOF 19
ENDMDL
MODEL 2
REMARK VINA RESULT:     -11.9      4.239      9.743
REMARK SMILES Cc1cccc(NS(=O)(=O)c2ccc(Br)c(C(=O)NCCCCCCNC(=O)c3ccc(-c4c5nc(c(-c6cccc(S(=O)(=O)[O-])c6F)c6ccc([nH]6)c(-c6cccc(S(=O)(=O)[O-])c6F)c6nc(c(-c7cccc(S(=O)(=O)[O-])c7F)c7ccc4[nH]7)C=C6)C=C5)cc3)c2)c1
REMARK SMILES IDX 22 1 21 2 20 3 19 4 17 5 18 6 16 8 11 9 12 10 92 11 13 12
REMARK SMILES IDX 14 13 15 14 8 15 9 16 10 17 7 18 6 20 1 21 2 22 3 23 93 24
REMARK SMILES IDX 4 25 5 26 23 27 24 28 25 29 26 30 27 31 28 33 29 34 30 35
REMARK SMILES IDX 91 36 31 37 90 38 32 39 33 40 34 41 84 42 35 43 89 44 83 45
REMARK SMILES IDX 85 46 36 47 88 48 82 49 81 50 37 52 69 53 49 54 68 55 50 56
REMARK SMILES IDX 53 57 67 58 86 59 51 60 52 61 66 63 87 64 54 65 38 66 39 67
REMARK SMILES IDX 47 68 40 69 42 70 48 71 41 72 43 73 44 74 45 75 46 76 70 77
REMARK SMILES IDX 71 78 79 79 72 80 74 81 80 82 73 83 75 84 76 85 77 86 78 87
REMARK SMILES IDX 55 88 56 89 64 90 57 91 59 92 65 93 58 94 60 95 61 96 62 97
REMARK SMILES IDX 63 98
REMARK H PARENT 19 7 7 19 26 32 85 51 53 62
REMARK Flexibility Score: inf
ROOT
ATOM      1  C   UNL A   1      33.296  30.153  26.350  1.00  0.00     0.002 C 
ENDROOT
BRANCH   1   2
ATOM      2  C   UNL A   1      32.538  29.388  25.269  1.00  0.00     0.021 C 
BRANCH   2   3
ATOM      3  C   UNL A   1      31.133  29.849  24.932  1.00  0.00     0.116 C 
BRANCH   3   4
ATOM      4  N   UNL A   1      30.749  29.912  23.538  1.00  0.00    -0.352 N 
ATOM      5  C   UNL A   1      30.288  28.893  22.722  1.00  0.00     0.252 C 
ATOM      6  O   UNL A   1      29.845  29.175  21.609  1.00  0.00    -0.269 OA
ATOM      7  H   UNL A   1      30.825  30.798  23.112  1.00  0.00     0.163 HD
BRANCH   5   8
ATOM      8  C   UNL A   1      30.466  27.454  23.091  1.00  0.00     0.055 A 
ATOM      9  C   UNL A   1      31.974  25.553  23.132  1.00  0.00     0.088 A 
ATOM     10  C   UNL A   1      31.416  25.134  24.333  1.00  0.00     0.023 A 
ATOM     11  C   UNL A   1      31.585  26.784  22.581  1.00  0.00     0.037 A 
ATOM     12  C   UNL A   1      30.189  25.681  24.702  1.00  0.00     0.018 A 
ATOM     13  C   UNL A   1      29.652  26.739  23.966  1.00  0.00     0.030 A 
ATOM     14  Br  UNL A   1      27.749  26.841  23.890  1.00  0.00    -0.050 Br
BRANCH   9  15
ATOM     15  S   UNL A   1      33.001  24.479  22.158  1.00  0.00     0.261 S 
ATOM     16  O   UNL A   1      34.214  24.278  22.902  1.00  0.00    -0.201 OA
ATOM     17  O   UNL A   1      33.047  25.054  20.816  1.00  0.00    -0.201 OA
BRANCH  15  18
ATOM     18  N   UNL A   1      32.342  22.931  21.955  1.00  0.00    -0.280 N 
ATOM     19  H   UNL A   1      31.893  22.762  21.095  1.00  0.00     0.180 HD
BRANCH  18  20
ATOM     20  C   UNL A   1      32.358  21.838  22.880  1.00  0.00     0.049 A 
ATOM     21  C   UNL A   1      32.246  18.025  22.585  1.00  0.00     0.044 C 
ATOM     22  C   UNL A   1      32.385  19.407  23.153  1.00  0.00    -0.049 A 
ATOM     23  C   UNL A   1      32.611  19.576  24.519  1.00  0.00     0.003 A 
ATOM     24  C   UNL A   1      32.292  20.545  22.338  1.00  0.00     0.030 A 
ATOM     25  C   UNL A   1      32.546  20.851  25.076  1.00  0.00     0.002 A 
ATOM     26  C   UNL A   1      32.318  21.969  24.263  1.00  0.00     0.027 A 
ENDBRANCH  18  20
ENDBRANCH  15  18
ENDBRANCH   9  15
ENDBRANCH   5   8
ENDBRANCH   3   4
ENDBRANCH   2   3
ENDBRANCH   1   2
BRANCH   1  27
ATOM     27  C   UNL A   1      34.256  29.377  27.263  1.00  0.00     0.002 C 
BRANCH  27  28
ATOM     28  C   UNL A   1      35.120  30.165  28.245  1.00  0.00     0.021 C 
BRANCH  28  29
ATOM     29  C   UNL A   1      35.595  31.513  27.753  1.00  0.00     0.116 C 
BRANCH  29  30
ATOM     30  N   UNL A   1      34.735  32.601  28.156  1.00  0.00    -0.352 N 
ATOM     31  C   UNL A   1      34.718  33.309  29.340  1.00  0.00     0.251 C 
ATOM     32  H   UNL A   1      34.064  32.877  27.489  1.00  0.00     0.163 HD
ATOM     33  O   UNL A   1      33.700  33.943  29.608  1.00  0.00    -0.269 OA
BRANCH  31  34
ATOM     34  C   UNL A   1      35.960  33.471  30.149  1.00  0.00     0.039 A 
ATOM     35  C   UNL A   1      37.110  33.823  29.431  1.00  0.00     0.014 A 
ATOM     36  C   UNL A   1      36.093  32.905  31.412  1.00  0.00     0.014 A 
ATOM     37  C   UNL A   1      38.333  33.276  29.792  1.00  0.00     0.010 A 
ATOM     38  C   UNL A   1      37.265  32.266  31.714  1.00  0.00     0.010 A 
ATOM     39  C   UNL A   1      38.343  32.370  30.835  1.00  0.00    -0.014 A 
BRANCH  39  40
ATOM     40  C   UNL A   1      39.444  31.512  31.198  1.00  0.00     0.031 A 
ATOM     41  C   UNL A   1      39.497  30.192  30.553  1.00  0.00     0.074 A 
ATOM     42  C   UNL A   1      40.510  32.117  31.774  1.00  0.00     0.049 A 
ATOM     43  N   UNL A   1      40.436  29.341  30.746  1.00  0.00    -0.248 NA
ATOM     44  C   UNL A   1      38.472  29.720  29.619  1.00  0.00     0.031 C 
ATOM     45  C   UNL A   1      41.911  31.728  31.672  1.00  0.00     0.029 A 
ATOM     46  N   UNL A   1      40.583  33.231  32.607  1.00  0.00    -0.354 N 
ATOM     47  C   UNL A   1      40.327  28.389  29.758  1.00  0.00     0.074 A 
ATOM     48  C   UNL A   1      39.018  28.578  29.191  1.00  0.00     0.031 C 
ATOM     49  C   UNL A   1      42.614  32.372  32.623  1.00  0.00     0.029 A 
ATOM     50  C   UNL A   1      41.641  33.001  33.495  1.00  0.00     0.049 A 
ATOM     51  H   UNL A   1      40.003  34.027  32.577  1.00  0.00     0.167 HD
ATOM     52  C   UNL A   1      41.441  27.674  29.447  1.00  0.00     0.034 A 
ATOM     53  C   UNL A   1      41.467  32.655  34.813  1.00  0.00     0.034 A 
ATOM     54  C   UNL A   1      42.483  27.915  30.460  1.00  0.00     0.049 A 
ATOM     55  C   UNL A   1      42.001  31.258  35.139  1.00  0.00     0.074 A 
ATOM     56  C   UNL A   1      43.616  28.710  30.488  1.00  0.00     0.029 A 
ATOM     57  N   UNL A   1      42.223  27.561  31.783  1.00  0.00    -0.354 N 
ATOM     58  N   UNL A   1      42.362  30.379  34.242  1.00  0.00    -0.248 NA
ATOM     59  C   UNL A   1      42.186  30.746  36.496  1.00  0.00     0.031 C 
ATOM     60  C   UNL A   1      43.957  28.929  31.856  1.00  0.00     0.029 A 
ATOM     61  C   UNL A   1      43.070  28.227  32.656  1.00  0.00     0.049 A 
ATOM     62  H   UNL A   1      41.528  26.921  32.061  1.00  0.00     0.167 HD
ATOM     63  C   UNL A   1      42.694  29.191  34.833  1.00  0.00     0.074 A 
ATOM     64  C   UNL A   1      42.647  29.504  36.254  1.00  0.00     0.031 C 
ATOM     65  C   UNL A   1      42.924  28.048  34.105  1.00  0.00     0.034 A 
BRANCH  52  66
ATOM     66  C   UNL A   1      41.697  26.917  28.153  1.00  0.00     0.023 A 
ATOM     67  C   UNL A   1      41.502  27.637  26.954  1.00  0.00     0.012 A 
ATOM     68  C   UNL A   1      42.011  25.542  28.001  1.00  0.00     0.148 A 
ATOM     69  C   UNL A   1      41.593  27.040  25.691  1.00  0.00     0.002 A 
ATOM     70  C   UNL A   1      42.155  24.955  26.738  1.00  0.00     0.091 A 
ATOM     71  F   UNL A   1      42.098  24.746  29.067  1.00  0.00    -0.205 F 
ATOM     72  C   UNL A   1      41.932  25.700  25.580  1.00  0.00     0.022 A 
BRANCH  70  73
ATOM     73  S   UNL A   1      42.624  23.225  26.512  1.00  0.00     0.127 S 
ATOM     74  O   UNL A   1      42.775  23.137  25.059  1.00  0.00    -0.237 OA
ATOM     75  O   UNL A   1      43.879  23.140  27.258  1.00  0.00    -0.237 OA
ATOM     76  O   UNL A   1      41.538  22.426  27.066  1.00  0.00    -0.744 OA
ENDBRANCH  70  73
ENDBRANCH  52  66
BRANCH  53  77
ATOM     77  C   UNL A   1      40.250  33.280  35.420  1.00  0.00     0.023 A 
ATOM     78  C   UNL A   1      39.085  32.475  35.457  1.00  0.00     0.012 A 
ATOM     79  C   UNL A   1      40.369  34.342  36.333  1.00  0.00     0.148 A 
ATOM     80  C   UNL A   1      38.192  32.569  36.524  1.00  0.00     0.002 A 
ATOM     81  C   UNL A   1      39.462  34.441  37.387  1.00  0.00     0.091 A 
ATOM     82  F   UNL A   1      41.396  35.191  36.204  1.00  0.00    -0.205 F 
ATOM     83  C   UNL A   1      38.414  33.514  37.520  1.00  0.00     0.022 A 
BRANCH  81  84
ATOM     84  S   UNL A   1      39.673  35.668  38.685  1.00  0.00     0.127 S 
ATOM     85  O   UNL A   1      41.022  35.369  39.158  1.00  0.00    -0.237 OA
ATOM     86  O   UNL A   1      39.548  36.932  37.960  1.00  0.00    -0.237 OA
ATOM     87  O   UNL A   1      38.590  35.410  39.622  1.00  0.00    -0.744 OA
ENDBRANCH  81  84
ENDBRANCH  53  77
BRANCH  65  88
ATOM     88  C   UNL A   1      43.023  26.640  34.684  1.00  0.00     0.023 A 
ATOM     89  C   UNL A   1      41.894  25.912  35.107  1.00  0.00     0.012 A 
ATOM     90  C   UNL A   1      44.258  25.936  34.701  1.00  0.00     0.148 A 
ATOM     91  C   UNL A   1      41.986  24.604  35.597  1.00  0.00     0.002 A 
ATOM     92  C   UNL A   1      44.322  24.590  35.057  1.00  0.00     0.091 A 
ATOM     93  F   UNL A   1      45.400  26.569  34.396  1.00  0.00    -0.205 F 
ATOM     94  C   UNL A   1      43.196  23.933  35.549  1.00  0.00     0.022 A 
BRANCH  92  95
ATOM     95  S   UNL A   1      45.798  23.610  34.746  1.00  0.00     0.127 S 
ATOM     96  O   UNL A   1      45.247  22.261  34.636  1.00  0.00    -0.237 OA
ATOM     97  O   UNL A   1      46.284  24.174  33.485  1.00  0.00    -0.237 OA
ATOM     98  O   UNL A   1      46.672  23.857  35.884  1.00  0.00    -0.744 OA
ENDBRANCH  92  95
ENDBRANCH  65  88
ENDBRANCH  39  40
ENDBRANCH  31  34
ENDBRANCH  29  30
ENDBRANCH  28  29
ENDBRANCH  27  28
ENDBRANCH   1  27
TORSDOF 19
ENDMDL
MODEL 3
REMARK VINA RESULT:     -11.5      4.203      9.658
REMARK SMILES Cc1cccc(NS(=O)(=O)c2ccc(Br)c(C(=O)NCCCCCCNC(=O)c3ccc(-c4c5nc(c(-c6cccc(S(=O)(=O)[O-])c6F)c6ccc([nH]6)c(-c6cccc(S(=O)(=O)[O-])c6F)c6nc(c(-c7cccc(S(=O)(=O)[O-])c7F)c7ccc4[nH]7)C=C6)C=C5)cc3)c2)c1
REMARK SMILES IDX 22 1 21 2 20 3 19 4 17 5 18 6 16 8 11 9 12 10 92 11 13 12
REMARK SMILES IDX 14 13 15 14 8 15 9 16 10 17 7 18 6 20 1 21 2 22 3 23 93 24
REMARK SMILES IDX 4 25 5 26 23 27 24 28 25 29 26 30 27 31 28 33 29 34 30 35
REMARK SMILES IDX 91 36 31 37 90 38 32 39 33 40 34 41 84 42 35 43 89 44 83 45
REMARK SMILES IDX 85 46 36 47 88 48 82 49 81 50 37 52 69 53 49 54 68 55 50 56
REMARK SMILES IDX 53 57 67 58 86 59 51 60 52 61 66 63 87 64 54 65 38 66 39 67
REMARK SMILES IDX 47 68 40 69 42 70 48 71 41 72 43 73 44 74 45 75 46 76 70 77
REMARK SMILES IDX 71 78 79 79 72 80 74 81 80 82 73 83 75 84 76 85 77 86 78 87
REMARK SMILES IDX 55 88 56 89 64 90 57 91 59 92 65 93 58 94 60 95 61 96 62 97
REMARK SMILES IDX 63 98
REMARK H PARENT 19 7 7 19 26 32 85 51 53 62
REMARK Flexibility Score: inf
ROOT
ATOM      1  C   UNL A   1      33.751  29.724  25.681  1.00  0.00     0.002 C 
ENDROOT
BRANCH   1   2
ATOM      2  C   UNL A   1      33.483  28.991  24.370  1.00  0.00     0.021 C 
BRANCH   2   3
ATOM      3  C   UNL A   1      32.080  29.060  23.796  1.00  0.00     0.116 C 
BRANCH   3   4
ATOM      4  N   UNL A   1      31.797  28.315  22.587  1.00  0.00    -0.352 N 
ATOM      5  C   UNL A   1      31.647  26.948  22.432  1.00  0.00     0.252 C 
ATOM      6  O   UNL A   1      31.235  26.513  21.357  1.00  0.00    -0.269 OA
ATOM      7  H   UNL A   1      31.698  28.852  21.767  1.00  0.00     0.163 HD
BRANCH   5   8
ATOM      8  C   UNL A   1      32.125  25.985  23.471  1.00  0.00     0.055 A 
ATOM      9  C   UNL A   1      33.861  24.420  24.126  1.00  0.00     0.088 A 
ATOM     10  C   UNL A   1      33.694  24.788  25.455  1.00  0.00     0.023 A 
ATOM     11  C   UNL A   1      33.166  25.114  23.124  1.00  0.00     0.037 A 
ATOM     12  C   UNL A   1      32.533  25.479  25.794  1.00  0.00     0.018 A 
ATOM     13  C   UNL A   1      31.675  25.929  24.788  1.00  0.00     0.030 A 
ATOM     14  Br  UNL A   1      29.821  26.018  25.228  1.00  0.00    -0.050 Br
BRANCH   9  15
ATOM     15  S   UNL A   1      34.756  22.954  23.672  1.00  0.00     0.261 S 
ATOM     16  O   UNL A   1      35.803  23.368  22.779  1.00  0.00    -0.201 OA
ATOM     17  O   UNL A   1      33.760  21.977  23.237  1.00  0.00    -0.201 OA
BRANCH  15  18
ATOM     18  N   UNL A   1      35.550  22.226  24.981  1.00  0.00    -0.280 N 
ATOM     19  H   UNL A   1      35.102  21.443  25.377  1.00  0.00     0.180 HD
BRANCH  18  20
ATOM     20  C   UNL A   1      36.792  22.608  25.581  1.00  0.00     0.049 A 
ATOM     21  C   UNL A   1      40.136  20.873  26.251  1.00  0.00     0.044 C 
ATOM     22  C   UNL A   1      39.079  21.931  26.128  1.00  0.00    -0.049 A 
ATOM     23  C   UNL A   1      39.362  23.243  26.509  1.00  0.00     0.003 A 
ATOM     24  C   UNL A   1      37.799  21.632  25.636  1.00  0.00     0.030 A 
ATOM     25  C   UNL A   1      38.332  24.178  26.580  1.00  0.00     0.002 A 
ATOM     26  C   UNL A   1      37.028  23.825  26.210  1.00  0.00     0.027 A 
ENDBRANCH  18  20
ENDBRANCH  15  18
ENDBRANCH   9  15
ENDBRANCH   5   8
ENDBRANCH   3   4
ENDBRANCH   2   3
ENDBRANCH   1   2
BRANCH   1  27
ATOM     27  C   UNL A   1      34.361  28.939  26.850  1.00  0.00     0.002 C 
BRANCH  27  28
ATOM     28  C   UNL A   1      34.890  29.719  28.051  1.00  0.00     0.021 C 
BRANCH  28  29
ATOM     29  C   UNL A   1      35.665  30.974  27.718  1.00  0.00     0.116 C 
BRANCH  29  30
ATOM     30  N   UNL A   1      34.890  32.181  27.879  1.00  0.00    -0.352 N 
ATOM     31  C   UNL A   1      34.866  33.070  28.934  1.00  0.00     0.251 C 
ATOM     32  H   UNL A   1      34.291  32.401  27.128  1.00  0.00     0.163 HD
ATOM     33  O   UNL A   1      33.899  33.823  29.021  1.00  0.00    -0.269 OA
BRANCH  31  34
ATOM     34  C   UNL A   1      36.065  33.256  29.801  1.00  0.00     0.039 A 
ATOM     35  C   UNL A   1      37.241  33.632  29.138  1.00  0.00     0.014 A 
ATOM     36  C   UNL A   1      36.150  32.691  31.068  1.00  0.00     0.014 A 
ATOM     37  C   UNL A   1      38.455  33.108  29.557  1.00  0.00     0.010 A 
ATOM     38  C   UNL A   1      37.318  32.075  31.426  1.00  0.00     0.010 A 
ATOM     39  C   UNL A   1      38.434  32.202  30.599  1.00  0.00    -0.014 A 
BRANCH  39  40
ATOM     40  C   UNL A   1      39.533  31.366  31.014  1.00  0.00     0.031 A 
ATOM     41  C   UNL A   1      39.601  30.019  30.427  1.00  0.00     0.074 A 
ATOM     42  C   UNL A   1      40.589  32.000  31.578  1.00  0.00     0.049 A 
ATOM     43  N   UNL A   1      40.540  29.181  30.670  1.00  0.00    -0.248 NA
ATOM     44  C   UNL A   1      38.590  29.503  29.501  1.00  0.00     0.031 C 
ATOM     45  C   UNL A   1      41.993  31.613  31.511  1.00  0.00     0.029 A 
ATOM     46  N   UNL A   1      40.646  33.149  32.363  1.00  0.00    -0.354 N 
ATOM     47  C   UNL A   1      40.449  28.187  29.722  1.00  0.00     0.074 A 
ATOM     48  C   UNL A   1      39.147  28.346  29.130  1.00  0.00     0.031 C 
ATOM     49  C   UNL A   1      42.681  32.301  32.443  1.00  0.00     0.029 A 
ATOM     50  C   UNL A   1      41.693  32.963  33.273  1.00  0.00     0.049 A 
ATOM     51  H   UNL A   1      40.064  33.940  32.290  1.00  0.00     0.167 HD
ATOM     52  C   UNL A   1      41.569  27.465  29.458  1.00  0.00     0.034 A 
ATOM     53  C   UNL A   1      41.502  32.673  34.603  1.00  0.00     0.034 A 
ATOM     54  C   UNL A   1      42.597  27.754  30.474  1.00  0.00     0.049 A 
ATOM     55  C   UNL A   1      42.038  31.294  34.996  1.00  0.00     0.074 A 
ATOM     56  C   UNL A   1      43.727  28.554  30.482  1.00  0.00     0.029 A 
ATOM     57  N   UNL A   1      42.320  27.456  31.807  1.00  0.00    -0.354 N 
ATOM     58  N   UNL A   1      42.414  30.379  34.143  1.00  0.00    -0.248 NA
ATOM     59  C   UNL A   1      42.206  30.842  36.377  1.00  0.00     0.031 C 
ATOM     60  C   UNL A   1      44.047  28.835  31.844  1.00  0.00     0.029 A 
ATOM     61  C   UNL A   1      43.152  28.163  32.662  1.00  0.00     0.049 A 
ATOM     62  H   UNL A   1      41.624  26.826  32.103  1.00  0.00     0.167 HD
ATOM     63  C   UNL A   1      42.743  29.219  34.790  1.00  0.00     0.074 A 
ATOM     64  C   UNL A   1      42.675  29.594  36.195  1.00  0.00     0.031 C 
ATOM     65  C   UNL A   1      42.987  28.047  34.115  1.00  0.00     0.034 A 
BRANCH  52  66
ATOM     66  C   UNL A   1      41.846  26.653  28.202  1.00  0.00     0.023 A 
ATOM     67  C   UNL A   1      41.240  27.111  27.011  1.00  0.00     0.012 A 
ATOM     68  C   UNL A   1      42.559  25.430  28.099  1.00  0.00     0.148 A 
ATOM     69  C   UNL A   1      41.316  26.405  25.805  1.00  0.00     0.002 A 
ATOM     70  C   UNL A   1      42.681  24.750  26.882  1.00  0.00     0.091 A 
ATOM     71  F   UNL A   1      43.067  24.850  29.186  1.00  0.00    -0.205 F 
ATOM     72  C   UNL A   1      42.047  25.228  25.735  1.00  0.00     0.022 A 
BRANCH  70  73
ATOM     73  S   UNL A   1      43.641  23.231  26.703  1.00  0.00     0.127 S 
ATOM     74  O   UNL A   1      44.968  23.652  27.155  1.00  0.00    -0.237 OA
ATOM     75  O   UNL A   1      42.953  22.316  27.613  1.00  0.00    -0.237 OA
ATOM     76  O   UNL A   1      43.562  22.854  25.297  1.00  0.00    -0.744 OA
ENDBRANCH  70  73
ENDBRANCH  52  66
BRANCH  53  77
ATOM     77  C   UNL A   1      40.275  33.318  35.166  1.00  0.00     0.023 A 
ATOM     78  C   UNL A   1      39.081  32.559  35.097  1.00  0.00     0.012 A 
ATOM     79  C   UNL A   1      40.377  34.334  36.132  1.00  0.00     0.148 A 
ATOM     80  C   UNL A   1      38.129  32.642  36.113  1.00  0.00     0.002 A 
ATOM     81  C   UNL A   1      39.412  34.422  37.135  1.00  0.00     0.091 A 
ATOM     82  F   UNL A   1      41.441  35.147  36.103  1.00  0.00    -0.205 F 
ATOM     83  C   UNL A   1      38.325  33.532  37.163  1.00  0.00     0.022 A 
BRANCH  81  84
ATOM     84  S   UNL A   1      39.589  35.582  38.498  1.00  0.00     0.127 S 
ATOM     85  O   UNL A   1      40.936  35.275  38.974  1.00  0.00    -0.237 OA
ATOM     86  O   UNL A   1      39.457  36.880  37.839  1.00  0.00    -0.237 OA
ATOM     87  O   UNL A   1      38.497  35.261  39.405  1.00  0.00    -0.744 OA
ENDBRANCH  81  84
ENDBRANCH  53  77
BRANCH  65  88
ATOM     88  C   UNL A   1      43.084  26.666  34.756  1.00  0.00     0.023 A 
ATOM     89  C   UNL A   1      41.949  25.897  35.078  1.00  0.00     0.012 A 
ATOM     90  C   UNL A   1      44.340  26.025  34.939  1.00  0.00     0.148 A 
ATOM     91  C   UNL A   1      42.044  24.612  35.625  1.00  0.00     0.002 A 
ATOM     92  C   UNL A   1      44.425  24.697  35.352  1.00  0.00     0.091 A 
ATOM     93  F   UNL A   1      45.479  26.704  34.739  1.00  0.00    -0.205 F 
ATOM     94  C   UNL A   1      43.282  24.001  35.740  1.00  0.00     0.022 A 
BRANCH  92  95
ATOM     95  S   UNL A   1      45.970  23.781  35.247  1.00  0.00     0.127 S 
ATOM     96  O   UNL A   1      46.844  24.562  36.119  1.00  0.00    -0.237 OA
ATOM     97  O   UNL A   1      45.590  22.471  35.780  1.00  0.00    -0.237 OA
ATOM     98  O   UNL A   1      46.316  23.771  33.833  1.00  0.00    -0.744 OA
ENDBRANCH  92  95
ENDBRANCH  65  88
ENDBRANCH  39  40
ENDBRANCH  31  34
ENDBRANCH  29  30
ENDBRANCH  28  29
ENDBRANCH  27  28
ENDBRANCH   1  27
TORSDOF 19
ENDMDL
