MODEL 1
REMARK VINA RESULT:     -13.2      0.000      0.000
REMARK SMILES Cc1cc(C(=O)NCCCCCCNC(=O)c2ccc(-c3c4nc(c(-c5cccc(S(=O)(=O)[O-])c5F)c5ccc([nH]5)c(-c5cccc(S(=O)(=O)[O-])c5F)c5nc(c(-c6cccc(S(=O)(=O)[O-])c6F)c6ccc3[nH]6)C=C5)C=C4)cc2)ccc1NS(=O)(=O)c1ccc2c(c1)CCC2
REMARK SMILES IDX 10 1 9 2 8 3 7 4 5 5 6 6 4 8 1 9 2 10 3 11 82 12 81 13 80 14
REMARK SMILES IDX 83 15 84 17 85 18 86 19 87 20 88 21 92 22 89 23 91 24 90 25
REMARK SMILES IDX 93 26 95 27 94 28 11 29 12 30 13 31 14 32 15 33 16 35 17 36
REMARK SMILES IDX 18 37 79 38 19 39 78 40 20 41 21 42 22 43 72 44 23 45 77 46
REMARK SMILES IDX 71 47 73 48 24 49 76 50 70 51 69 52 25 54 57 55 37 56 56 57
REMARK SMILES IDX 38 58 41 59 55 60 74 61 39 62 40 63 54 65 75 66 42 67 26 68
REMARK SMILES IDX 27 69 35 70 28 71 30 72 36 73 29 74 31 75 32 76 33 77 34 78
REMARK SMILES IDX 58 79 59 80 67 81 60 82 62 83 68 84 61 85 63 86 64 87 65 88
REMARK SMILES IDX 66 89 43 90 44 91 52 92 45 93 47 94 53 95 46 96 48 97 49 98
REMARK SMILES IDX 50 99 51 100
REMARK H PARENT 7 7 83 16 14 34 73 53 41 64
REMARK Flexibility Score: inf
ROOT
ATOM      1  C   UNL A   1      35.913  23.178  25.546  1.00  0.00     0.002 C 
ENDROOT
BRANCH   1   2
ATOM      2  C   UNL A   1      35.514  21.801  26.087  1.00  0.00     0.021 C 
BRANCH   2   3
ATOM      3  C   UNL A   1      35.395  20.657  25.080  1.00  0.00     0.116 C 
BRANCH   3   4
ATOM      4  N   UNL A   1      34.417  19.641  25.427  1.00  0.00    -0.352 N 
ATOM      5  C   UNL A   1      33.070  19.587  25.143  1.00  0.00     0.251 C 
ATOM      6  O   UNL A   1      32.398  18.646  25.559  1.00  0.00    -0.269 OA
ATOM      7  H   UNL A   1      34.768  18.878  25.939  1.00  0.00     0.163 HD
BRANCH   5   8
ATOM      8  C   UNL A   1      32.393  20.697  24.421  1.00  0.00     0.040 A 
ATOM      9  C   UNL A   1      30.970  24.082  25.362  1.00  0.00     0.046 C 
ATOM     10  C   UNL A   1      31.549  22.975  24.523  1.00  0.00    -0.026 A 
ATOM     11  C   UNL A   1      31.964  21.798  25.166  1.00  0.00     0.019 A 
ATOM     12  C   UNL A   1      31.665  23.057  23.127  1.00  0.00     0.052 A 
ATOM     13  C   UNL A   1      31.794  21.874  22.396  1.00  0.00     0.028 A 
ATOM     14  C   UNL A   1      32.176  20.693  23.044  1.00  0.00     0.016 A 
BRANCH  12  15
ATOM     15  N   UNL A   1      31.920  24.342  22.564  1.00  0.00    -0.279 N 
ATOM     16  H   UNL A   1      31.124  24.902  22.417  1.00  0.00     0.180 HD
BRANCH  15  17
ATOM     17  S   UNL A   1      33.370  25.035  22.120  1.00  0.00     0.261 S 
ATOM     18  O   UNL A   1      34.433  24.136  22.569  1.00  0.00    -0.201 OA
ATOM     19  O   UNL A   1      33.221  25.368  20.735  1.00  0.00    -0.201 OA
BRANCH  17  20
ATOM     20  C   UNL A   1      33.608  26.570  23.002  1.00  0.00     0.088 A 
ATOM     21  C   UNL A   1      33.445  27.829  22.402  1.00  0.00     0.022 A 
ATOM     22  C   UNL A   1      33.743  26.461  24.393  1.00  0.00     0.026 A 
ATOM     23  C   UNL A   1      33.139  28.944  23.191  1.00  0.00     0.005 A 
ATOM     24  C   UNL A   1      33.502  27.586  25.158  1.00  0.00    -0.043 A 
ATOM     25  C   UNL A   1      33.100  28.786  24.564  1.00  0.00    -0.045 A 
ATOM     26  C   UNL A   1      33.564  27.739  26.645  1.00  0.00     0.036 C 
ATOM     27  C   UNL A   1      32.646  29.765  25.604  1.00  0.00     0.036 C 
ATOM     28  C   UNL A   1      32.533  28.854  26.842  1.00  0.00     0.010 C 
ENDBRANCH  17  20
ENDBRANCH  15  17
ENDBRANCH  12  15
ENDBRANCH   5   8
ENDBRANCH   3   4
ENDBRANCH   2   3
ENDBRANCH   1   2
BRANCH   1  29
ATOM     29  C   UNL A   1      37.382  23.600  25.687  1.00  0.00     0.002 C 
BRANCH  29  30
ATOM     30  C   UNL A   1      38.440  22.555  25.340  1.00  0.00     0.021 C 
BRANCH  30  31
ATOM     31  C   UNL A   1      39.162  21.944  26.530  1.00  0.00     0.116 C 
BRANCH  31  32
ATOM     32  N   UNL A   1      40.582  22.229  26.578  1.00  0.00    -0.352 N 
ATOM     33  C   UNL A   1      41.236  23.449  26.566  1.00  0.00     0.251 C 
ATOM     34  H   UNL A   1      41.168  21.439  26.626  1.00  0.00     0.163 HD
ATOM     35  O   UNL A   1      42.447  23.457  26.361  1.00  0.00    -0.269 OA
BRANCH  33  36
ATOM     36  C   UNL A   1      40.515  24.693  26.949  1.00  0.00     0.039 A 
ATOM     37  C   UNL A   1      40.741  25.838  26.171  1.00  0.00     0.014 A 
ATOM     38  C   UNL A   1      39.851  24.815  28.164  1.00  0.00     0.014 A 
ATOM     39  C   UNL A   1      40.581  27.101  26.740  1.00  0.00     0.010 A 
ATOM     40  C   UNL A   1      39.781  26.049  28.765  1.00  0.00     0.010 A 
ATOM     41  C   UNL A   1      40.234  27.176  28.083  1.00  0.00    -0.014 A 
BRANCH  41  42
ATOM     42  C   UNL A   1      40.291  28.370  28.905  1.00  0.00     0.031 A 
ATOM     43  C   UNL A   1      39.315  29.450  28.663  1.00  0.00     0.074 A 
ATOM     44  C   UNL A   1      41.064  28.345  30.016  1.00  0.00     0.049 A 
ATOM     45  N   UNL A   1      39.331  30.583  29.267  1.00  0.00    -0.248 NA
ATOM     46  C   UNL A   1      38.225  29.318  27.706  1.00  0.00     0.031 C 
ATOM     47  C   UNL A   1      40.986  29.232  31.172  1.00  0.00     0.029 A 
ATOM     48  N   UNL A   1      42.215  27.590  30.279  1.00  0.00    -0.354 N 
ATOM     49  C   UNL A   1      38.150  31.234  28.982  1.00  0.00     0.074 A 
ATOM     50  C   UNL A   1      37.531  30.433  27.952  1.00  0.00     0.031 C 
ATOM     51  C   UNL A   1      42.165  29.202  31.817  1.00  0.00     0.029 A 
ATOM     52  C   UNL A   1      43.079  28.470  30.960  1.00  0.00     0.049 A 
ATOM     53  H   UNL A   1      42.383  26.650  30.041  1.00  0.00     0.167 HD
ATOM     54  C   UNL A   1      37.806  32.308  29.748  1.00  0.00     0.034 A 
ATOM     55  C   UNL A   1      44.210  29.001  30.391  1.00  0.00     0.034 A 
ATOM     56  C   UNL A   1      38.925  32.685  30.633  1.00  0.00     0.049 A 
ATOM     57  C   UNL A   1      44.201  30.533  30.311  1.00  0.00     0.074 A 
ATOM     58  C   UNL A   1      39.265  32.434  31.953  1.00  0.00     0.029 A 
ATOM     59  N   UNL A   1      40.069  33.189  30.040  1.00  0.00    -0.354 N 
ATOM     60  N   UNL A   1      43.224  31.294  30.730  1.00  0.00    -0.248 NA
ATOM     61  C   UNL A   1      45.257  31.316  29.661  1.00  0.00     0.031 C 
ATOM     62  C   UNL A   1      40.659  32.720  32.110  1.00  0.00     0.029 A 
ATOM     63  C   UNL A   1      41.153  33.179  30.900  1.00  0.00     0.049 A 
ATOM     64  H   UNL A   1      40.107  33.517  29.113  1.00  0.00     0.167 HD
ATOM     65  C   UNL A   1      43.407  32.574  30.275  1.00  0.00     0.074 A 
ATOM     66  C   UNL A   1      44.717  32.547  29.646  1.00  0.00     0.031 C 
ATOM     67  C   UNL A   1      42.459  33.558  30.370  1.00  0.00     0.034 A 
BRANCH  54  68
ATOM     68  C   UNL A   1      36.420  32.920  29.867  1.00  0.00     0.023 A 
ATOM     69  C   UNL A   1      35.782  33.296  28.662  1.00  0.00     0.012 A 
ATOM     70  C   UNL A   1      35.710  33.221  31.054  1.00  0.00     0.148 A 
ATOM     71  C   UNL A   1      34.566  33.990  28.634  1.00  0.00     0.002 A 
ATOM     72  C   UNL A   1      34.522  33.959  31.033  1.00  0.00     0.091 A 
ATOM     73  F   UNL A   1      36.131  32.747  32.224  1.00  0.00    -0.205 F 
ATOM     74  C   UNL A   1      33.948  34.348  29.822  1.00  0.00     0.022 A 
BRANCH  72  75
ATOM     75  S   UNL A   1      33.695  34.511  32.539  1.00  0.00     0.127 S 
ATOM     76  O   UNL A   1      34.734  35.321  33.177  1.00  0.00    -0.237 OA
ATOM     77  O   UNL A   1      32.565  35.276  32.016  1.00  0.00    -0.237 OA
ATOM     78  O   UNL A   1      33.342  33.307  33.282  1.00  0.00    -0.744 OA
ENDBRANCH  72  75
ENDBRANCH  54  68
BRANCH  55  79
ATOM     79  C   UNL A   1      44.830  28.098  29.366  1.00  0.00     0.023 A 
ATOM     80  C   UNL A   1      45.288  26.835  29.817  1.00  0.00     0.012 A 
ATOM     81  C   UNL A   1      44.608  28.279  27.991  1.00  0.00     0.148 A 
ATOM     82  C   UNL A   1      45.302  25.734  28.959  1.00  0.00     0.002 A 
ATOM     83  C   UNL A   1      44.667  27.185  27.133  1.00  0.00     0.091 A 
ATOM     84  F   UNL A   1      44.285  29.497  27.537  1.00  0.00    -0.205 F 
ATOM     85  C   UNL A   1      44.945  25.901  27.626  1.00  0.00     0.022 A 
BRANCH  83  86
ATOM     86  S   UNL A   1      44.285  27.373  25.387  1.00  0.00     0.127 S 
ATOM     87  O   UNL A   1      43.902  26.011  25.025  1.00  0.00    -0.237 OA
ATOM     88  O   UNL A   1      43.186  28.337  25.399  1.00  0.00    -0.237 OA
ATOM     89  O   UNL A   1      45.515  27.882  24.799  1.00  0.00    -0.744 OA
ENDBRANCH  83  86
ENDBRANCH  55  79
BRANCH  67  90
ATOM     90  C   UNL A   1      42.724  34.988  29.943  1.00  0.00     0.023 A 
ATOM     91  C   UNL A   1      42.411  35.400  28.631  1.00  0.00     0.012 A 
ATOM     92  C   UNL A   1      43.421  35.915  30.756  1.00  0.00     0.148 A 
ATOM     93  C   UNL A   1      42.712  36.686  28.170  1.00  0.00     0.002 A 
ATOM     94  C   UNL A   1      43.818  37.152  30.257  1.00  0.00     0.091 A 
ATOM     95  F   UNL A   1      43.659  35.629  32.041  1.00  0.00    -0.205 F 
ATOM     96  C   UNL A   1      43.435  37.555  28.975  1.00  0.00     0.022 A 
BRANCH  94  97
ATOM     97  S   UNL A   1      44.946  38.228  31.155  1.00  0.00     0.127 S 
ATOM     98  O   UNL A   1      46.007  37.295  31.541  1.00  0.00    -0.237 OA
ATOM     99  O   UNL A   1      45.327  39.191  30.124  1.00  0.00    -0.237 OA
ATOM    100  O   UNL A   1      44.181  38.758  32.275  1.00  0.00    -0.744 OA
ENDBRANCH  94  97
ENDBRANCH  67  90
ENDBRANCH  41  42
ENDBRANCH  33  36
ENDBRANCH  31  32
ENDBRANCH  30  31
ENDBRANCH  29  30
ENDBRANCH   1  29
TORSDOF 19
ENDMDL
MODEL 2
REMARK VINA RESULT:     -12.6      2.042      2.428
REMARK SMILES Cc1cc(C(=O)NCCCCCCNC(=O)c2ccc(-c3c4nc(c(-c5cccc(S(=O)(=O)[O-])c5F)c5ccc([nH]5)c(-c5cccc(S(=O)(=O)[O-])c5F)c5nc(c(-c6cccc(S(=O)(=O)[O-])c6F)c6ccc3[nH]6)C=C5)C=C4)cc2)ccc1NS(=O)(=O)c1ccc2c(c1)CCC2
REMARK SMILES IDX 10 1 9 2 8 3 7 4 5 5 6 6 4 8 1 9 2 10 3 11 82 12 81 13 80 14
REMARK SMILES IDX 83 15 84 17 85 18 86 19 87 20 88 21 92 22 89 23 91 24 90 25
REMARK SMILES IDX 93 26 95 27 94 28 11 29 12 30 13 31 14 32 15 33 16 35 17 36
REMARK SMILES IDX 18 37 79 38 19 39 78 40 20 41 21 42 22 43 72 44 23 45 77 46
REMARK SMILES IDX 71 47 73 48 24 49 76 50 70 51 69 52 25 54 57 55 37 56 56 57
REMARK SMILES IDX 38 58 41 59 55 60 74 61 39 62 40 63 54 65 75 66 42 67 26 68
REMARK SMILES IDX 27 69 35 70 28 71 30 72 36 73 29 74 31 75 32 76 33 77 34 78
REMARK SMILES IDX 58 79 59 80 67 81 60 82 62 83 68 84 61 85 63 86 64 87 65 88
REMARK SMILES IDX 66 89 43 90 44 91 52 92 45 93 47 94 53 95 46 96 48 97 49 98
REMARK SMILES IDX 50 99 51 100
REMARK H PARENT 7 7 83 16 14 34 73 53 41 64
REMARK Flexibility Score: inf
ROOT
ATOM      1  C   UNL A   1      36.402  22.839  25.406  1.00  0.00     0.002 C 
ENDROOT
BRANCH   1   2
ATOM      2  C   UNL A   1      35.716  21.569  25.919  1.00  0.00     0.021 C 
BRANCH   2   3
ATOM      3  C   UNL A   1      35.440  20.460  24.903  1.00  0.00     0.116 C 
BRANCH   3   4
ATOM      4  N   UNL A   1      34.463  19.474  25.330  1.00  0.00    -0.352 N 
ATOM      5  C   UNL A   1      33.106  19.426  25.099  1.00  0.00     0.251 C 
ATOM      6  O   UNL A   1      32.438  18.513  25.580  1.00  0.00    -0.269 OA
ATOM      7  H   UNL A   1      34.824  18.729  25.863  1.00  0.00     0.163 HD
BRANCH   5   8
ATOM      8  C   UNL A   1      32.417  20.512  24.353  1.00  0.00     0.040 A 
ATOM      9  C   UNL A   1      30.752  23.795  25.258  1.00  0.00     0.046 C 
ATOM     10  C   UNL A   1      31.444  22.739  24.440  1.00  0.00    -0.026 A 
ATOM     11  C   UNL A   1      31.881  21.573  25.088  1.00  0.00     0.019 A 
ATOM     12  C   UNL A   1      31.643  22.855  23.055  1.00  0.00     0.052 A 
ATOM     13  C   UNL A   1      31.883  21.696  22.314  1.00  0.00     0.028 A 
ATOM     14  C   UNL A   1      32.287  20.524  22.965  1.00  0.00     0.016 A 
BRANCH  12  15
ATOM     15  N   UNL A   1      31.862  24.164  22.533  1.00  0.00    -0.279 N 
ATOM     16  H   UNL A   1      31.117  24.539  22.011  1.00  0.00     0.180 HD
BRANCH  15  17
ATOM     17  S   UNL A   1      33.197  25.152  22.676  1.00  0.00     0.261 S 
ATOM     18  O   UNL A   1      34.182  24.432  23.485  1.00  0.00    -0.201 OA
ATOM     19  O   UNL A   1      33.503  25.570  21.341  1.00  0.00    -0.201 OA
BRANCH  17  20
ATOM     20  C   UNL A   1      32.772  26.622  23.598  1.00  0.00     0.088 A 
ATOM     21  C   UNL A   1      31.469  27.143  23.648  1.00  0.00     0.022 A 
ATOM     22  C   UNL A   1      33.762  27.108  24.463  1.00  0.00     0.026 A 
ATOM     23  C   UNL A   1      31.077  27.939  24.730  1.00  0.00     0.005 A 
ATOM     24  C   UNL A   1      33.372  27.946  25.490  1.00  0.00    -0.043 A 
ATOM     25  C   UNL A   1      32.025  28.269  25.680  1.00  0.00    -0.045 A 
ATOM     26  C   UNL A   1      34.214  28.588  26.546  1.00  0.00     0.036 C 
ATOM     27  C   UNL A   1      31.828  28.961  26.995  1.00  0.00     0.036 C 
ATOM     28  C   UNL A   1      33.186  28.699  27.675  1.00  0.00     0.010 C 
ENDBRANCH  17  20
ENDBRANCH  15  17
ENDBRANCH  12  15
ENDBRANCH   5   8
ENDBRANCH   3   4
ENDBRANCH   2   3
ENDBRANCH   1   2
BRANCH   1  29
ATOM     29  C   UNL A   1      37.876  23.052  25.777  1.00  0.00     0.002 C 
BRANCH  29  30
ATOM     30  C   UNL A   1      38.771  21.814  25.801  1.00  0.00     0.021 C 
BRANCH  30  31
ATOM     31  C   UNL A   1      39.856  21.819  26.866  1.00  0.00     0.116 C 
BRANCH  31  32
ATOM     32  N   UNL A   1      41.166  22.204  26.381  1.00  0.00    -0.352 N 
ATOM     33  C   UNL A   1      41.651  23.461  26.059  1.00  0.00     0.251 C 
ATOM     34  H   UNL A   1      41.805  21.465  26.264  1.00  0.00     0.163 HD
ATOM     35  O   UNL A   1      42.703  23.533  25.431  1.00  0.00    -0.269 OA
BRANCH  33  36
ATOM     36  C   UNL A   1      40.993  24.682  26.598  1.00  0.00     0.039 A 
ATOM     37  C   UNL A   1      41.242  25.895  25.940  1.00  0.00     0.014 A 
ATOM     38  C   UNL A   1      40.372  24.696  27.841  1.00  0.00     0.014 A 
ATOM     39  C   UNL A   1      41.152  27.094  26.645  1.00  0.00     0.010 A 
ATOM     40  C   UNL A   1      40.370  25.860  28.573  1.00  0.00     0.010 A 
ATOM     41  C   UNL A   1      40.849  27.037  28.000  1.00  0.00    -0.014 A 
BRANCH  41  42
ATOM     42  C   UNL A   1      40.979  28.131  28.943  1.00  0.00     0.031 A 
ATOM     43  C   UNL A   1      40.009  29.241  28.885  1.00  0.00     0.074 A 
ATOM     44  C   UNL A   1      41.822  27.975  29.991  1.00  0.00     0.049 A 
ATOM     45  N   UNL A   1      40.084  30.301  29.608  1.00  0.00    -0.248 NA
ATOM     46  C   UNL A   1      38.858  29.227  27.993  1.00  0.00     0.031 C 
ATOM     47  C   UNL A   1      41.834  28.729  31.240  1.00  0.00     0.029 A 
ATOM     48  N   UNL A   1      42.973  27.184  30.093  1.00  0.00    -0.354 N 
ATOM     49  C   UNL A   1      38.899  30.991  29.475  1.00  0.00     0.074 A 
ATOM     50  C   UNL A   1      38.201  30.316  28.406  1.00  0.00     0.031 C 
ATOM     51  C   UNL A   1      43.051  28.615  31.798  1.00  0.00     0.029 A 
ATOM     52  C   UNL A   1      43.895  27.973  30.808  1.00  0.00     0.049 A 
ATOM     53  H   UNL A   1      43.109  26.274  29.743  1.00  0.00     0.167 HD
ATOM     54  C   UNL A   1      38.624  31.977  30.376  1.00  0.00     0.034 A 
ATOM     55  C   UNL A   1      44.997  28.552  30.228  1.00  0.00     0.034 A 
ATOM     56  C   UNL A   1      39.804  32.242  31.221  1.00  0.00     0.049 A 
ATOM     57  C   UNL A   1      45.009  30.084  30.318  1.00  0.00     0.074 A 
ATOM     58  C   UNL A   1      40.223  31.842  32.479  1.00  0.00     0.029 A 
ATOM     59  N   UNL A   1      40.916  32.796  30.613  1.00  0.00    -0.354 N 
ATOM     60  N   UNL A   1      44.075  30.804  30.881  1.00  0.00    -0.248 NA
ATOM     61  C   UNL A   1      46.035  30.923  29.690  1.00  0.00     0.031 C 
ATOM     62  C   UNL A   1      41.630  32.095  32.575  1.00  0.00     0.029 A 
ATOM     63  C   UNL A   1      42.053  32.680  31.393  1.00  0.00     0.049 A 
ATOM     64  H   UNL A   1      40.901  33.225  29.727  1.00  0.00     0.167 HD
ATOM     65  C   UNL A   1      44.251  32.124  30.558  1.00  0.00     0.074 A 
ATOM     66  C   UNL A   1      45.517  32.153  29.845  1.00  0.00     0.031 C 
ATOM     67  C   UNL A   1      43.328  33.102  30.823  1.00  0.00     0.034 A 
BRANCH  54  68
ATOM     68  C   UNL A   1      37.259  32.586  30.652  1.00  0.00     0.023 A 
ATOM     69  C   UNL A   1      36.750  32.444  31.964  1.00  0.00     0.012 A 
ATOM     70  C   UNL A   1      36.400  33.230  29.730  1.00  0.00     0.148 A 
ATOM     71  C   UNL A   1      35.453  32.838  32.320  1.00  0.00     0.002 A 
ATOM     72  C   UNL A   1      35.087  33.578  30.066  1.00  0.00     0.091 A 
ATOM     73  F   UNL A   1      36.850  33.579  28.527  1.00  0.00    -0.205 F 
ATOM     74  C   UNL A   1      34.611  33.381  31.363  1.00  0.00     0.022 A 
BRANCH  72  75
ATOM     75  S   UNL A   1      33.916  34.232  28.860  1.00  0.00     0.127 S 
ATOM     76  O   UNL A   1      33.679  33.068  28.004  1.00  0.00    -0.237 OA
ATOM     77  O   UNL A   1      32.780  34.612  29.697  1.00  0.00    -0.237 OA
ATOM     78  O   UNL A   1      34.591  35.336  28.186  1.00  0.00    -0.744 OA
ENDBRANCH  72  75
ENDBRANCH  54  68
BRANCH  55  79
ATOM     79  C   UNL A   1      45.533  27.762  29.071  1.00  0.00     0.023 A 
ATOM     80  C   UNL A   1      44.991  28.048  27.793  1.00  0.00     0.012 A 
ATOM     81  C   UNL A   1      46.764  27.090  29.143  1.00  0.00     0.148 A 
ATOM     82  C   UNL A   1      45.757  27.875  26.640  1.00  0.00     0.002 A 
ATOM     83  C   UNL A   1      47.504  26.880  27.983  1.00  0.00     0.091 A 
ATOM     84  F   UNL A   1      47.233  26.714  30.339  1.00  0.00    -0.205 F 
ATOM     85  C   UNL A   1      47.034  27.334  26.741  1.00  0.00     0.022 A 
BRANCH  83  86
ATOM     86  S   UNL A   1      49.128  26.116  28.062  1.00  0.00     0.127 S 
ATOM     87  O   UNL A   1      49.842  26.841  27.015  1.00  0.00    -0.237 OA
ATOM     88  O   UNL A   1      49.563  26.422  29.424  1.00  0.00    -0.237 OA
ATOM     89  O   UNL A   1      48.877  24.703  27.821  1.00  0.00    -0.744 OA
ENDBRANCH  83  86
ENDBRANCH  55  79
BRANCH  67  90
ATOM     90  C   UNL A   1      43.591  34.568  30.539  1.00  0.00     0.023 A 
ATOM     91  C   UNL A   1      43.758  35.472  31.608  1.00  0.00     0.012 A 
ATOM     92  C   UNL A   1      43.528  35.120  29.237  1.00  0.00     0.148 A 
ATOM     93  C   UNL A   1      43.922  36.844  31.394  1.00  0.00     0.002 A 
ATOM     94  C   UNL A   1      43.579  36.496  29.038  1.00  0.00     0.091 A 
ATOM     95  F   UNL A   1      43.473  34.314  28.170  1.00  0.00    -0.205 F 
ATOM     96  C   UNL A   1      43.810  37.360  30.111  1.00  0.00     0.022 A 
BRANCH  94  97
ATOM     97  S   UNL A   1      43.214  37.246  27.443  1.00  0.00     0.127 S 
ATOM     98  O   UNL A   1      44.393  36.871  26.659  1.00  0.00    -0.237 OA
ATOM     99  O   UNL A   1      41.984  36.555  27.061  1.00  0.00    -0.237 OA
ATOM    100  O   UNL A   1      43.093  38.675  27.694  1.00  0.00    -0.744 OA
ENDBRANCH  94  97
ENDBRANCH  67  90
ENDBRANCH  41  42
ENDBRANCH  33  36
ENDBRANCH  31  32
ENDBRANCH  30  31
ENDBRANCH  29  30
ENDBRANCH   1  29
TORSDOF 19
ENDMDL
MODEL 3
REMARK VINA RESULT:     -12.5      3.643      9.604
REMARK SMILES Cc1cc(C(=O)NCCCCCCNC(=O)c2ccc(-c3c4nc(c(-c5cccc(S(=O)(=O)[O-])c5F)c5ccc([nH]5)c(-c5cccc(S(=O)(=O)[O-])c5F)c5nc(c(-c6cccc(S(=O)(=O)[O-])c6F)c6ccc3[nH]6)C=C5)C=C4)cc2)ccc1NS(=O)(=O)c1ccc2c(c1)CCC2
REMARK SMILES IDX 10 1 9 2 8 3 7 4 5 5 6 6 4 8 1 9 2 10 3 11 82 12 81 13 80 14
REMARK SMILES IDX 83 15 84 17 85 18 86 19 87 20 88 21 92 22 89 23 91 24 90 25
REMARK SMILES IDX 93 26 95 27 94 28 11 29 12 30 13 31 14 32 15 33 16 35 17 36
REMARK SMILES IDX 18 37 79 38 19 39 78 40 20 41 21 42 22 43 72 44 23 45 77 46
REMARK SMILES IDX 71 47 73 48 24 49 76 50 70 51 69 52 25 54 57 55 37 56 56 57
REMARK SMILES IDX 38 58 41 59 55 60 74 61 39 62 40 63 54 65 75 66 42 67 26 68
REMARK SMILES IDX 27 69 35 70 28 71 30 72 36 73 29 74 31 75 32 76 33 77 34 78
REMARK SMILES IDX 58 79 59 80 67 81 60 82 62 83 68 84 61 85 63 86 64 87 65 88
REMARK SMILES IDX 66 89 43 90 44 91 52 92 45 93 47 94 53 95 46 96 48 97 49 98
REMARK SMILES IDX 50 99 51 100
REMARK H PARENT 7 7 83 16 14 34 73 53 41 64
REMARK Flexibility Score: inf
ROOT
ATOM      1  C   UNL A   1      32.680  29.741  27.137  1.00  0.00     0.002 C 
ENDROOT
BRANCH   1   2
ATOM      2  C   UNL A   1      33.216  29.035  25.888  1.00  0.00     0.021 C 
BRANCH   2   3
ATOM      3  C   UNL A   1      32.557  29.374  24.550  1.00  0.00     0.116 C 
BRANCH   3   4
ATOM      4  N   UNL A   1      33.403  29.170  23.388  1.00  0.00    -0.352 N 
ATOM      5  C   UNL A   1      33.403  28.140  22.473  1.00  0.00     0.251 C 
ATOM      6  O   UNL A   1      34.231  28.132  21.565  1.00  0.00    -0.269 OA
ATOM      7  H   UNL A   1      34.074  29.872  23.229  1.00  0.00     0.163 HD
BRANCH   5   8
ATOM      8  C   UNL A   1      32.478  26.985  22.619  1.00  0.00     0.040 A 
ATOM      9  C   UNL A   1      32.809  23.210  22.521  1.00  0.00     0.046 C 
ATOM     10  C   UNL A   1      32.252  24.573  22.831  1.00  0.00    -0.026 A 
ATOM     11  C   UNL A   1      33.005  25.700  22.464  1.00  0.00     0.019 A 
ATOM     12  C   UNL A   1      31.004  24.766  23.441  1.00  0.00     0.052 A 
ATOM     13  C   UNL A   1      30.376  26.006  23.304  1.00  0.00     0.028 A 
ATOM     14  C   UNL A   1      31.121  27.123  22.907  1.00  0.00     0.016 A 
BRANCH  12  15
ATOM     15  N   UNL A   1      30.579  23.788  24.389  1.00  0.00    -0.279 N 
ATOM     16  H   UNL A   1      29.921  23.137  24.055  1.00  0.00     0.180 HD
BRANCH  15  17
ATOM     17  S   UNL A   1      31.035  23.586  25.979  1.00  0.00     0.261 S 
ATOM     18  O   UNL A   1      31.207  24.922  26.552  1.00  0.00    -0.201 OA
ATOM     19  O   UNL A   1      30.088  22.664  26.530  1.00  0.00    -0.201 OA
BRANCH  17  20
ATOM     20  C   UNL A   1      32.637  22.798  26.059  1.00  0.00     0.088 A 
ATOM     21  C   UNL A   1      32.830  21.433  25.798  1.00  0.00     0.022 A 
ATOM     22  C   UNL A   1      33.736  23.660  26.172  1.00  0.00     0.026 A 
ATOM     23  C   UNL A   1      34.083  20.974  25.377  1.00  0.00     0.005 A 
ATOM     24  C   UNL A   1      34.980  23.175  25.815  1.00  0.00    -0.043 A 
ATOM     25  C   UNL A   1      35.129  21.876  25.321  1.00  0.00    -0.045 A 
ATOM     26  C   UNL A   1      36.300  23.879  25.830  1.00  0.00     0.036 C 
ATOM     27  C   UNL A   1      36.504  21.678  24.758  1.00  0.00     0.036 C 
ATOM     28  C   UNL A   1      37.013  23.132  24.700  1.00  0.00     0.010 C 
ENDBRANCH  17  20
ENDBRANCH  15  17
ENDBRANCH  12  15
ENDBRANCH   5   8
ENDBRANCH   3   4
ENDBRANCH   2   3
ENDBRANCH   1   2
BRANCH   1  29
ATOM     29  C   UNL A   1      31.900  31.048  26.937  1.00  0.00     0.002 C 
BRANCH  29  30
ATOM     30  C   UNL A   1      32.610  32.345  27.322  1.00  0.00     0.021 C 
BRANCH  30  31
ATOM     31  C   UNL A   1      34.078  32.196  27.686  1.00  0.00     0.116 C 
BRANCH  31  32
ATOM     32  N   UNL A   1      34.395  32.569  29.051  1.00  0.00    -0.352 N 
ATOM     33  C   UNL A   1      35.113  31.874  30.010  1.00  0.00     0.251 C 
ATOM     34  H   UNL A   1      34.050  33.446  29.338  1.00  0.00     0.163 HD
ATOM     35  O   UNL A   1      35.049  32.259  31.174  1.00  0.00    -0.269 OA
BRANCH  33  36
ATOM     36  C   UNL A   1      36.054  30.794  29.609  1.00  0.00     0.039 A 
ATOM     37  C   UNL A   1      36.282  29.759  30.527  1.00  0.00     0.014 A 
ATOM     38  C   UNL A   1      36.881  30.913  28.497  1.00  0.00     0.014 A 
ATOM     39  C   UNL A   1      37.487  29.060  30.495  1.00  0.00     0.010 A 
ATOM     40  C   UNL A   1      38.110  30.297  28.512  1.00  0.00     0.010 A 
ATOM     41  C   UNL A   1      38.443  29.444  29.563  1.00  0.00    -0.014 A 
BRANCH  41  42
ATOM     42  C   UNL A   1      39.833  29.029  29.557  1.00  0.00     0.031 A 
ATOM     43  C   UNL A   1      40.159  27.633  29.210  1.00  0.00     0.074 A 
ATOM     44  C   UNL A   1      40.786  29.989  29.622  1.00  0.00     0.049 A 
ATOM     45  N   UNL A   1      41.342  27.136  29.262  1.00  0.00    -0.248 NA
ATOM     46  C   UNL A   1      39.149  26.682  28.763  1.00  0.00     0.031 C 
ATOM     47  C   UNL A   1      42.192  29.869  29.248  1.00  0.00     0.029 A 
ATOM     48  N   UNL A   1      40.723  31.264  30.198  1.00  0.00    -0.354 N 
ATOM     49  C   UNL A   1      41.315  25.906  28.641  1.00  0.00     0.074 A 
ATOM     50  C   UNL A   1      39.913  25.644  28.412  1.00  0.00     0.031 C 
ATOM     51  C   UNL A   1      42.886  30.835  29.874  1.00  0.00     0.029 A 
ATOM     52  C   UNL A   1      41.973  31.442  30.824  1.00  0.00     0.049 A 
ATOM     53  H   UNL A   1      39.971  31.898  30.171  1.00  0.00     0.167 HD
ATOM     54  C   UNL A   1      42.503  25.330  28.301  1.00  0.00     0.034 A 
ATOM     55  C   UNL A   1      42.138  31.423  32.188  1.00  0.00     0.034 A 
ATOM     56  C   UNL A   1      43.626  26.092  28.881  1.00  0.00     0.049 A 
ATOM     57  C   UNL A   1      43.078  30.315  32.681  1.00  0.00     0.074 A 
ATOM     58  C   UNL A   1      44.494  27.069  28.422  1.00  0.00     0.029 A 
ATOM     59  N   UNL A   1      43.759  26.088  30.258  1.00  0.00    -0.354 N 
ATOM     60  N   UNL A   1      43.678  29.449  31.907  1.00  0.00    -0.248 NA
ATOM     61  C   UNL A   1      43.334  30.042  34.099  1.00  0.00     0.031 C 
ATOM     62  C   UNL A   1      45.084  27.704  29.563  1.00  0.00     0.029 A 
ATOM     63  C   UNL A   1      44.603  27.088  30.706  1.00  0.00     0.049 A 
ATOM     64  H   UNL A   1      43.305  25.446  30.852  1.00  0.00     0.167 HD
ATOM     65  C   UNL A   1      44.219  28.445  32.668  1.00  0.00     0.074 A 
ATOM     66  C   UNL A   1      44.014  28.885  34.038  1.00  0.00     0.031 C 
ATOM     67  C   UNL A   1      44.734  27.289  32.146  1.00  0.00     0.034 A 
BRANCH  54  68
ATOM     68  C   UNL A   1      42.703  24.204  27.300  1.00  0.00     0.023 A 
ATOM     69  C   UNL A   1      43.322  24.542  26.074  1.00  0.00     0.012 A 
ATOM     70  C   UNL A   1      42.281  22.858  27.421  1.00  0.00     0.148 A 
ATOM     71  C   UNL A   1      43.446  23.635  25.013  1.00  0.00     0.002 A 
ATOM     72  C   UNL A   1      42.356  21.964  26.347  1.00  0.00     0.091 A 
ATOM     73  F   UNL A   1      41.859  22.393  28.594  1.00  0.00    -0.205 F 
ATOM     74  C   UNL A   1      42.937  22.352  25.140  1.00  0.00     0.022 A 
BRANCH  72  75
ATOM     75  S   UNL A   1      41.661  20.301  26.419  1.00  0.00     0.127 S 
ATOM     76  O   UNL A   1      40.223  20.570  26.372  1.00  0.00    -0.237 OA
ATOM     77  O   UNL A   1      42.203  19.681  25.211  1.00  0.00    -0.237 OA
ATOM     78  O   UNL A   1      42.116  19.717  27.676  1.00  0.00    -0.744 OA
ENDBRANCH  72  75
ENDBRANCH  54  68
BRANCH  55  79
ATOM     79  C   UNL A   1      40.930  31.909  32.932  1.00  0.00     0.023 A 
ATOM     80  C   UNL A   1      39.906  30.962  33.182  1.00  0.00     0.012 A 
ATOM     81  C   UNL A   1      40.959  33.084  33.701  1.00  0.00     0.148 A 
ATOM     82  C   UNL A   1      39.088  31.077  34.306  1.00  0.00     0.002 A 
ATOM     83  C   UNL A   1      40.108  33.213  34.795  1.00  0.00     0.091 A 
ATOM     84  F   UNL A   1      41.850  34.038  33.402  1.00  0.00    -0.205 F 
ATOM     85  C   UNL A   1      39.222  32.182  35.140  1.00  0.00     0.022 A 
BRANCH  83  86
ATOM     86  S   UNL A   1      40.200  34.660  35.856  1.00  0.00     0.127 S 
ATOM     87  O   UNL A   1      39.807  35.721  34.934  1.00  0.00    -0.237 OA
ATOM     88  O   UNL A   1      39.220  34.359  36.899  1.00  0.00    -0.237 OA
ATOM     89  O   UNL A   1      41.578  34.681  36.324  1.00  0.00    -0.744 OA
ENDBRANCH  83  86
ENDBRANCH  55  79
BRANCH  67  90
ATOM     90  C   UNL A   1      45.411  26.239  33.005  1.00  0.00     0.023 A 
ATOM     91  C   UNL A   1      46.801  26.028  32.893  1.00  0.00     0.012 A 
ATOM     92  C   UNL A   1      44.690  25.336  33.824  1.00  0.00     0.148 A 
ATOM     93  C   UNL A   1      47.453  25.016  33.606  1.00  0.00     0.002 A 
ATOM     94  C   UNL A   1      45.325  24.263  34.442  1.00  0.00     0.091 A 
ATOM     95  F   UNL A   1      43.388  25.538  34.057  1.00  0.00    -0.205 F 
ATOM     96  C   UNL A   1      46.712  24.120  34.364  1.00  0.00     0.022 A 
BRANCH  94  97
ATOM     97  S   UNL A   1      44.406  22.941  35.244  1.00  0.00     0.127 S 
ATOM     98  O   UNL A   1      44.835  21.769  34.477  1.00  0.00    -0.237 OA
ATOM     99  O   UNL A   1      44.925  22.999  36.609  1.00  0.00    -0.237 OA
ATOM    100  O   UNL A   1      43.000  23.278  35.080  1.00  0.00    -0.744 OA
ENDBRANCH  94  97
ENDBRANCH  67  90
ENDBRANCH  41  42
ENDBRANCH  33  36
ENDBRANCH  31  32
ENDBRANCH  30  31
ENDBRANCH  29  30
ENDBRANCH   1  29
TORSDOF 19
ENDMDL
