MODEL 1
REMARK VINA RESULT:     -10.9      0.000      0.000
REMARK SMILES CCSC(=S)N1[C@@H](C(=O)NCCCCCCNC(=O)c2ccc(-c3c4nc(c(-c5cccc(S(=O)(=O)[O-])c5F)c5ccc([nH]5)c(-c5cccc(S(=O)(=O)[O-])c5F)c5nc(c(-c6cccc(S(=O)(=O)[O-])c6F)c6ccc3[nH]6)C=C5)C=C4)cc2)CS[C@@H]1c1ccc(C)cc1
REMARK SMILES IDX 13 1 12 2 11 3 10 4 8 5 9 6 7 8 6 9 85 10 83 11 84 12 4 13
REMARK SMILES IDX 5 14 3 15 2 16 1 17 86 18 87 19 92 20 88 21 91 22 89 23
REMARK SMILES IDX 90 24 14 25 15 26 16 27 17 28 18 29 19 31 20 32 21 33 82 34
REMARK SMILES IDX 22 35 81 36 23 37 24 38 25 39 75 40 26 41 80 42 74 43 76 44
REMARK SMILES IDX 27 45 79 46 73 47 72 48 28 50 60 51 40 52 59 53 41 54 44 55
REMARK SMILES IDX 58 56 77 57 42 58 43 59 57 61 78 62 45 63 29 64 30 65 38 66
REMARK SMILES IDX 31 67 33 68 39 69 32 70 34 71 35 72 36 73 37 74 61 75 62 76
REMARK SMILES IDX 70 77 63 78 65 79 71 80 64 81 66 82 67 83 68 84 69 85 46 86
REMARK SMILES IDX 47 87 55 88 48 89 50 90 56 91 49 92 51 93 52 94 53 95 54 96
REMARK H PARENT 10 7 17 30 76 49 44 60
REMARK Flexibility Score: inf
ROOT
ATOM      1  C   UNL A   1      31.601  29.700  26.826  1.00  0.00     0.002 C 
ENDROOT
BRANCH   1   2
ATOM      2  C   UNL A   1      32.883  28.872  26.732  1.00  0.00     0.021 C 
BRANCH   2   3
ATOM      3  C   UNL A   1      32.752  27.458  27.277  1.00  0.00     0.116 C 
BRANCH   3   4
ATOM      4  N   UNL A   1      31.460  26.873  26.993  1.00  0.00    -0.354 N 
ATOM      5  C   UNL A   1      31.137  25.645  26.507  1.00  0.00     0.243 C 
ATOM      6  O   UNL A   1      29.938  25.432  26.284  1.00  0.00    -0.273 OA
ATOM      7  H   UNL A   1      30.691  27.459  27.180  1.00  0.00     0.163 HD
BRANCH   5   8
ATOM      8  C   UNL A   1      32.193  24.621  26.042  1.00  0.00     0.184 C 
ATOM      9  N   UNL A   1      32.334  24.416  24.580  1.00  0.00    -0.328 N 
ATOM     10  C   UNL A   1      32.413  22.992  24.199  1.00  0.00     0.173 C 
ATOM     11  C   UNL A   1      31.870  23.292  26.746  1.00  0.00     0.107 C 
ATOM     12  S   UNL A   1      31.368  22.147  25.451  1.00  0.00    -0.130 SA
BRANCH   9  13
ATOM     13  C   UNL A   1      32.646  25.465  23.699  1.00  0.00     0.138 C 
ATOM     14  S   UNL A   1      33.933  26.522  23.944  1.00  0.00    -0.053 S 
BRANCH  13  15
ATOM     15  S   UNL A   1      31.518  25.586  22.346  1.00  0.00    -0.097 SA
BRANCH  15  16
ATOM     16  C   UNL A   1      30.886  27.293  22.329  1.00  0.00     0.074 C 
ATOM     17  C   UNL A   1      30.185  27.761  23.597  1.00  0.00     0.016 C 
ENDBRANCH  15  16
ENDBRANCH  13  15
ENDBRANCH   9  13
BRANCH  10  18
ATOM     18  C   UNL A   1      33.830  22.407  24.272  1.00  0.00    -0.015 A 
ATOM     19  C   UNL A   1      34.064  21.241  25.026  1.00  0.00     0.007 A 
ATOM     20  C   UNL A   1      34.941  23.013  23.664  1.00  0.00     0.007 A 
ATOM     21  C   UNL A   1      35.359  20.747  25.212  1.00  0.00     0.004 A 
ATOM     22  C   UNL A   1      36.232  22.513  23.836  1.00  0.00     0.004 A 
ATOM     23  C   UNL A   1      36.454  21.386  24.626  1.00  0.00    -0.051 A 
ATOM     24  C   UNL A   1      37.845  20.878  24.853  1.00  0.00     0.044 C 
ENDBRANCH  10  18
ENDBRANCH   5   8
ENDBRANCH   3   4
ENDBRANCH   2   3
ENDBRANCH   1   2
BRANCH   1  25
ATOM     25  C   UNL A   1      31.544  30.916  25.895  1.00  0.00     0.002 C 
BRANCH  25  26
ATOM     26  C   UNL A   1      31.333  32.264  26.590  1.00  0.00     0.021 C 
BRANCH  26  27
ATOM     27  C   UNL A   1      32.563  32.817  27.299  1.00  0.00     0.116 C 
BRANCH  27  28
ATOM     28  N   UNL A   1      32.410  34.221  27.641  1.00  0.00    -0.352 N 
ATOM     29  C   UNL A   1      33.070  34.957  28.589  1.00  0.00     0.251 C 
ATOM     30  H   UNL A   1      31.736  34.713  27.117  1.00  0.00     0.163 HD
ATOM     31  O   UNL A   1      32.673  36.085  28.876  1.00  0.00    -0.269 OA
BRANCH  29  32
ATOM     32  C   UNL A   1      34.245  34.384  29.273  1.00  0.00     0.039 A 
ATOM     33  C   UNL A   1      34.056  33.675  30.461  1.00  0.00     0.014 A 
ATOM     34  C   UNL A   1      35.530  34.548  28.745  1.00  0.00     0.014 A 
ATOM     35  C   UNL A   1      35.153  33.088  31.094  1.00  0.00     0.010 A 
ATOM     36  C   UNL A   1      36.607  33.895  29.333  1.00  0.00     0.010 A 
ATOM     37  C   UNL A   1      36.433  33.170  30.521  1.00  0.00    -0.014 A 
BRANCH  37  38
ATOM     38  C   UNL A   1      37.598  32.495  31.146  1.00  0.00     0.031 A 
ATOM     39  C   UNL A   1      38.347  31.426  30.399  1.00  0.00     0.074 A 
ATOM     40  C   UNL A   1      37.927  32.786  32.420  1.00  0.00     0.049 A 
ATOM     41  N   UNL A   1      39.360  30.701  30.796  1.00  0.00    -0.248 NA
ATOM     42  C   UNL A   1      37.881  31.111  29.039  1.00  0.00     0.031 C 
ATOM     43  C   UNL A   1      37.222  33.742  33.276  1.00  0.00     0.029 A 
ATOM     44  N   UNL A   1      38.919  32.286  33.225  1.00  0.00    -0.354 N 
ATOM     45  C   UNL A   1      39.626  29.819  29.756  1.00  0.00     0.074 A 
ATOM     46  C   UNL A   1      38.646  30.077  28.724  1.00  0.00     0.031 C 
ATOM     47  C   UNL A   1      37.807  33.763  34.483  1.00  0.00     0.029 A 
ATOM     48  C   UNL A   1      38.902  32.799  34.500  1.00  0.00     0.049 A 
ATOM     49  H   UNL A   1      39.579  31.623  32.918  1.00  0.00     0.167 HD
ATOM     50  C   UNL A   1      40.611  28.894  29.657  1.00  0.00     0.034 A 
ATOM     51  C   UNL A   1      39.673  32.516  35.569  1.00  0.00     0.034 A 
ATOM     52  C   UNL A   1      41.601  28.665  30.675  1.00  0.00     0.049 A 
ATOM     53  C   UNL A   1      40.784  31.514  35.424  1.00  0.00     0.074 A 
ATOM     54  C   UNL A   1      42.699  27.824  30.632  1.00  0.00     0.029 A 
ATOM     55  N   UNL A   1      41.602  29.260  31.927  1.00  0.00    -0.354 N 
ATOM     56  N   UNL A   1      41.126  30.808  34.374  1.00  0.00    -0.248 NA
ATOM     57  C   UNL A   1      41.641  31.297  36.598  1.00  0.00     0.031 C 
ATOM     58  C   UNL A   1      43.340  27.880  31.875  1.00  0.00     0.029 A 
ATOM     59  C   UNL A   1      42.669  28.792  32.675  1.00  0.00     0.049 A 
ATOM     60  H   UNL A   1      40.942  29.921  32.239  1.00  0.00     0.167 HD
ATOM     61  C   UNL A   1      42.255  30.089  34.747  1.00  0.00     0.074 A 
ATOM     62  C   UNL A   1      42.550  30.460  36.116  1.00  0.00     0.031 C 
ATOM     63  C   UNL A   1      42.976  29.197  34.024  1.00  0.00     0.034 A 
BRANCH  50  64
ATOM     64  C   UNL A   1      40.682  28.083  28.388  1.00  0.00     0.023 A 
ATOM     65  C   UNL A   1      41.368  28.592  27.265  1.00  0.00     0.012 A 
ATOM     66  C   UNL A   1      40.100  26.802  28.317  1.00  0.00     0.148 A 
ATOM     67  C   UNL A   1      41.432  27.862  26.079  1.00  0.00     0.002 A 
ATOM     68  C   UNL A   1      40.212  26.059  27.148  1.00  0.00     0.091 A 
ATOM     69  F   UNL A   1      39.434  26.342  29.385  1.00  0.00    -0.205 F 
ATOM     70  C   UNL A   1      40.864  26.592  26.024  1.00  0.00     0.022 A 
BRANCH  68  71
ATOM     71  S   UNL A   1      39.588  24.381  27.006  1.00  0.00     0.127 S 
ATOM     72  O   UNL A   1      40.824  23.601  27.049  1.00  0.00    -0.237 OA
ATOM     73  O   UNL A   1      38.751  24.262  28.200  1.00  0.00    -0.237 OA
ATOM     74  O   UNL A   1      38.859  24.330  25.746  1.00  0.00    -0.744 OA
ENDBRANCH  68  71
ENDBRANCH  50  64
BRANCH  51  75
ATOM     75  C   UNL A   1      39.445  33.238  36.851  1.00  0.00     0.023 A 
ATOM     76  C   UNL A   1      39.992  34.524  37.033  1.00  0.00     0.012 A 
ATOM     77  C   UNL A   1      38.644  32.682  37.866  1.00  0.00     0.148 A 
ATOM     78  C   UNL A   1      39.766  35.230  38.214  1.00  0.00     0.002 A 
ATOM     79  C   UNL A   1      38.375  33.415  39.015  1.00  0.00     0.091 A 
ATOM     80  F   UNL A   1      38.137  31.455  37.673  1.00  0.00    -0.205 F 
ATOM     81  C   UNL A   1      38.950  34.681  39.199  1.00  0.00     0.022 A 
BRANCH  79  82
ATOM     82  S   UNL A   1      37.226  32.849  40.275  1.00  0.00     0.127 S 
ATOM     83  O   UNL A   1      35.975  32.766  39.524  1.00  0.00    -0.237 OA
ATOM     84  O   UNL A   1      37.808  31.559  40.650  1.00  0.00    -0.237 OA
ATOM     85  O   UNL A   1      37.263  33.855  41.327  1.00  0.00    -0.744 OA
ENDBRANCH  79  82
ENDBRANCH  51  75
BRANCH  63  86
ATOM     86  C   UNL A   1      44.185  28.579  34.679  1.00  0.00     0.023 A 
ATOM     87  C   UNL A   1      45.451  29.182  34.539  1.00  0.00     0.012 A 
ATOM     88  C   UNL A   1      44.048  27.440  35.497  1.00  0.00     0.148 A 
ATOM     89  C   UNL A   1      46.568  28.639  35.176  1.00  0.00     0.002 A 
ATOM     90  C   UNL A   1      45.154  26.937  36.172  1.00  0.00     0.091 A 
ATOM     91  F   UNL A   1      42.838  26.871  35.604  1.00  0.00    -0.205 F 
ATOM     92  C   UNL A   1      46.418  27.527  36.001  1.00  0.00     0.022 A 
BRANCH  90  93
ATOM     93  S   UNL A   1      45.037  25.572  37.333  1.00  0.00     0.127 S 
ATOM     94  O   UNL A   1      46.428  25.425  37.759  1.00  0.00    -0.237 OA
ATOM     95  O   UNL A   1      44.140  26.113  38.355  1.00  0.00    -0.237 OA
ATOM     96  O   UNL A   1      44.492  24.449  36.583  1.00  0.00    -0.744 OA
ENDBRANCH  90  93
ENDBRANCH  63  86
ENDBRANCH  37  38
ENDBRANCH  29  32
ENDBRANCH  27  28
ENDBRANCH  26  27
ENDBRANCH  25  26
ENDBRANCH   1  25
TORSDOF 20
ENDMDL
MODEL 2
REMARK VINA RESULT:     -10.8      5.858     11.478
REMARK SMILES CCSC(=S)N1[C@@H](C(=O)NCCCCCCNC(=O)c2ccc(-c3c4nc(c(-c5cccc(S(=O)(=O)[O-])c5F)c5ccc([nH]5)c(-c5cccc(S(=O)(=O)[O-])c5F)c5nc(c(-c6cccc(S(=O)(=O)[O-])c6F)c6ccc3[nH]6)C=C5)C=C4)cc2)CS[C@@H]1c1ccc(C)cc1
REMARK SMILES IDX 13 1 12 2 11 3 10 4 8 5 9 6 7 8 6 9 85 10 83 11 84 12 4 13
REMARK SMILES IDX 5 14 3 15 2 16 1 17 86 18 87 19 92 20 88 21 91 22 89 23
REMARK SMILES IDX 90 24 14 25 15 26 16 27 17 28 18 29 19 31 20 32 21 33 82 34
REMARK SMILES IDX 22 35 81 36 23 37 24 38 25 39 75 40 26 41 80 42 74 43 76 44
REMARK SMILES IDX 27 45 79 46 73 47 72 48 28 50 60 51 40 52 59 53 41 54 44 55
REMARK SMILES IDX 58 56 77 57 42 58 43 59 57 61 78 62 45 63 29 64 30 65 38 66
REMARK SMILES IDX 31 67 33 68 39 69 32 70 34 71 35 72 36 73 37 74 61 75 62 76
REMARK SMILES IDX 70 77 63 78 65 79 71 80 64 81 66 82 67 83 68 84 69 85 46 86
REMARK SMILES IDX 47 87 55 88 48 89 50 90 56 91 49 92 51 93 52 94 53 95 54 96
REMARK H PARENT 10 7 17 30 76 49 44 60
REMARK Flexibility Score: inf
ROOT
ATOM      1  C   UNL A   1      36.804  21.619  25.034  1.00  0.00     0.002 C 
ENDROOT
BRANCH   1   2
ATOM      2  C   UNL A   1      37.075  22.490  23.806  1.00  0.00     0.021 C 
BRANCH   2   3
ATOM      3  C   UNL A   1      35.990  23.516  23.519  1.00  0.00     0.116 C 
BRANCH   3   4
ATOM      4  N   UNL A   1      34.878  22.954  22.786  1.00  0.00    -0.354 N 
ATOM      5  C   UNL A   1      33.602  23.402  22.640  1.00  0.00     0.243 C 
ATOM      6  O   UNL A   1      32.824  22.673  22.011  1.00  0.00    -0.273 OA
ATOM      7  H   UNL A   1      35.075  22.111  22.317  1.00  0.00     0.163 HD
BRANCH   5   8
ATOM      8  C   UNL A   1      33.056  24.640  23.383  1.00  0.00     0.184 C 
ATOM      9  N   UNL A   1      32.124  24.391  24.510  1.00  0.00    -0.328 N 
ATOM     10  C   UNL A   1      30.939  25.272  24.486  1.00  0.00     0.173 C 
ATOM     11  C   UNL A   1      32.400  25.544  22.326  1.00  0.00     0.107 C 
ATOM     12  S   UNL A   1      30.638  25.551  22.695  1.00  0.00    -0.130 SA
BRANCH   9  13
ATOM     13  C   UNL A   1      32.477  23.608  25.621  1.00  0.00     0.138 C 
ATOM     14  S   UNL A   1      33.568  24.116  26.797  1.00  0.00    -0.053 S 
BRANCH  13  15
ATOM     15  S   UNL A   1      31.697  22.023  25.622  1.00  0.00    -0.097 SA
BRANCH  15  16
ATOM     16  C   UNL A   1      32.991  20.792  25.266  1.00  0.00     0.074 C 
ATOM     17  C   UNL A   1      32.529  19.513  24.583  1.00  0.00     0.016 C 
ENDBRANCH  15  16
ENDBRANCH  13  15
ENDBRANCH   9  13
BRANCH  10  18
ATOM     18  C   UNL A   1      31.164  26.632  25.160  1.00  0.00    -0.015 A 
ATOM     19  C   UNL A   1      31.112  27.808  24.389  1.00  0.00     0.007 A 
ATOM     20  C   UNL A   1      31.480  26.769  26.521  1.00  0.00     0.007 A 
ATOM     21  C   UNL A   1      31.426  29.053  24.943  1.00  0.00     0.004 A 
ATOM     22  C   UNL A   1      31.780  28.012  27.081  1.00  0.00     0.004 A 
ATOM     23  C   UNL A   1      31.773  29.161  26.293  1.00  0.00    -0.051 A 
ATOM     24  C   UNL A   1      32.144  30.489  26.880  1.00  0.00     0.044 C 
ENDBRANCH  10  18
ENDBRANCH   5   8
ENDBRANCH   3   4
ENDBRANCH   2   3
ENDBRANCH   1   2
BRANCH   1  25
ATOM     25  C   UNL A   1      36.634  20.124  24.744  1.00  0.00     0.002 C 
BRANCH  25  26
ATOM     26  C   UNL A   1      37.872  19.262  25.001  1.00  0.00     0.021 C 
BRANCH  26  27
ATOM     27  C   UNL A   1      38.963  19.938  25.823  1.00  0.00     0.116 C 
BRANCH  27  28
ATOM     28  N   UNL A   1      40.138  19.095  25.968  1.00  0.00    -0.352 N 
ATOM     29  C   UNL A   1      41.445  19.459  26.150  1.00  0.00     0.251 C 
ATOM     30  H   UNL A   1      39.971  18.125  25.929  1.00  0.00     0.163 HD
ATOM     31  O   UNL A   1      42.337  18.616  26.056  1.00  0.00    -0.269 OA
BRANCH  29  32
ATOM     32  C   UNL A   1      41.780  20.866  26.445  1.00  0.00     0.039 A 
ATOM     33  C   UNL A   1      42.079  21.229  27.759  1.00  0.00     0.014 A 
ATOM     34  C   UNL A   1      41.798  21.824  25.426  1.00  0.00     0.014 A 
ATOM     35  C   UNL A   1      42.443  22.545  28.044  1.00  0.00     0.010 A 
ATOM     36  C   UNL A   1      42.238  23.114  25.699  1.00  0.00     0.010 A 
ATOM     37  C   UNL A   1      42.552  23.493  27.012  1.00  0.00    -0.014 A 
BRANCH  37  38
ATOM     38  C   UNL A   1      43.003  24.879  27.289  1.00  0.00     0.031 A 
ATOM     39  C   UNL A   1      42.075  25.863  27.946  1.00  0.00     0.074 A 
ATOM     40  C   UNL A   1      44.221  25.276  26.870  1.00  0.00     0.049 A 
ATOM     41  N   UNL A   1      42.279  27.123  28.230  1.00  0.00    -0.248 NA
ATOM     42  C   UNL A   1      40.734  25.376  28.308  1.00  0.00     0.031 C 
ATOM     43  C   UNL A   1      45.178  24.438  26.145  1.00  0.00     0.029 A 
ATOM     44  N   UNL A   1      44.850  26.491  26.967  1.00  0.00    -0.354 N 
ATOM     45  C   UNL A   1      41.083  27.590  28.764  1.00  0.00     0.074 A 
ATOM     46  C   UNL A   1      40.149  26.486  28.732  1.00  0.00     0.031 C 
ATOM     47  C   UNL A   1      46.273  25.162  25.867  1.00  0.00     0.029 A 
ATOM     48  C   UNL A   1      46.084  26.522  26.362  1.00  0.00     0.049 A 
ATOM     49  H   UNL A   1      44.455  27.267  27.428  1.00  0.00     0.167 HD
ATOM     50  C   UNL A   1      40.796  28.818  29.257  1.00  0.00     0.034 A 
ATOM     51  C   UNL A   1      46.960  27.534  26.209  1.00  0.00     0.034 A 
ATOM     52  C   UNL A   1      41.739  29.901  29.313  1.00  0.00     0.049 A 
ATOM     53  C   UNL A   1      46.635  28.878  26.799  1.00  0.00     0.074 A 
ATOM     54  C   UNL A   1      41.580  31.152  29.884  1.00  0.00     0.029 A 
ATOM     55  N   UNL A   1      43.011  29.873  28.761  1.00  0.00    -0.354 N 
ATOM     56  N   UNL A   1      45.562  29.254  27.450  1.00  0.00    -0.248 NA
ATOM     57  C   UNL A   1      47.657  29.926  26.668  1.00  0.00     0.031 C 
ATOM     58  C   UNL A   1      42.740  31.894  29.640  1.00  0.00     0.029 A 
ATOM     59  C   UNL A   1      43.641  31.090  28.958  1.00  0.00     0.049 A 
ATOM     60  H   UNL A   1      43.409  29.101  28.298  1.00  0.00     0.167 HD
ATOM     61  C   UNL A   1      45.790  30.570  27.836  1.00  0.00     0.074 A 
ATOM     62  C   UNL A   1      47.113  30.919  27.360  1.00  0.00     0.031 C 
ATOM     63  C   UNL A   1      44.974  31.414  28.515  1.00  0.00     0.034 A 
BRANCH  50  64
ATOM     64  C   UNL A   1      39.408  29.042  29.804  1.00  0.00     0.023 A 
ATOM     65  C   UNL A   1      39.104  28.663  31.129  1.00  0.00     0.012 A 
ATOM     66  C   UNL A   1      38.415  29.661  29.021  1.00  0.00     0.148 A 
ATOM     67  C   UNL A   1      37.824  28.849  31.647  1.00  0.00     0.002 A 
ATOM     68  C   UNL A   1      37.156  29.891  29.561  1.00  0.00     0.091 A 
ATOM     69  F   UNL A   1      38.713  29.996  27.757  1.00  0.00    -0.205 F 
ATOM     70  C   UNL A   1      36.853  29.472  30.868  1.00  0.00     0.022 A 
BRANCH  68  71
ATOM     71  S   UNL A   1      35.864  30.761  28.667  1.00  0.00     0.127 S 
ATOM     72  O   UNL A   1      35.024  31.247  29.760  1.00  0.00    -0.237 OA
ATOM     73  O   UNL A   1      36.620  31.802  27.970  1.00  0.00    -0.237 OA
ATOM     74  O   UNL A   1      35.245  29.774  27.794  1.00  0.00    -0.744 OA
ENDBRANCH  68  71
ENDBRANCH  50  64
BRANCH  51  75
ATOM     75  C   UNL A   1      48.252  27.288  25.510  1.00  0.00     0.023 A 
ATOM     76  C   UNL A   1      49.362  26.822  26.241  1.00  0.00     0.012 A 
ATOM     77  C   UNL A   1      48.368  27.461  24.117  1.00  0.00     0.148 A 
ATOM     78  C   UNL A   1      50.572  26.556  25.601  1.00  0.00     0.002 A 
ATOM     79  C   UNL A   1      49.559  27.140  23.478  1.00  0.00     0.091 A 
ATOM     80  F   UNL A   1      47.300  27.910  23.442  1.00  0.00    -0.205 F 
ATOM     81  C   UNL A   1      50.668  26.704  24.219  1.00  0.00     0.022 A 
BRANCH  79  82
ATOM     82  S   UNL A   1      49.733  27.167  21.690  1.00  0.00     0.127 S 
ATOM     83  O   UNL A   1      48.662  26.266  21.271  1.00  0.00    -0.237 OA
ATOM     84  O   UNL A   1      49.503  28.581  21.390  1.00  0.00    -0.237 OA
ATOM     85  O   UNL A   1      51.087  26.707  21.416  1.00  0.00    -0.744 OA
ENDBRANCH  79  82
ENDBRANCH  51  75
BRANCH  63  86
ATOM     86  C   UNL A   1      45.496  32.794  28.824  1.00  0.00     0.023 A 
ATOM     87  C   UNL A   1      46.247  33.019  29.994  1.00  0.00     0.012 A 
ATOM     88  C   UNL A   1      45.303  33.850  27.912  1.00  0.00     0.148 A 
ATOM     89  C   UNL A   1      46.769  34.284  30.269  1.00  0.00     0.002 A 
ATOM     90  C   UNL A   1      45.871  35.093  28.165  1.00  0.00     0.091 A 
ATOM     91  F   UNL A   1      44.570  33.620  26.813  1.00  0.00    -0.205 F 
ATOM     92  C   UNL A   1      46.592  35.316  29.349  1.00  0.00     0.022 A 
BRANCH  90  93
ATOM     93  S   UNL A   1      45.781  36.450  26.992  1.00  0.00     0.127 S 
ATOM     94  O   UNL A   1      44.349  36.748  26.991  1.00  0.00    -0.237 OA
ATOM     95  O   UNL A   1      46.615  37.468  27.632  1.00  0.00    -0.237 OA
ATOM     96  O   UNL A   1      46.311  35.935  25.737  1.00  0.00    -0.744 OA
ENDBRANCH  90  93
ENDBRANCH  63  86
ENDBRANCH  37  38
ENDBRANCH  29  32
ENDBRANCH  27  28
ENDBRANCH  26  27
ENDBRANCH  25  26
ENDBRANCH   1  25
TORSDOF 20
ENDMDL
MODEL 3
REMARK VINA RESULT:     -10.7      5.870     11.161
REMARK SMILES CCSC(=S)N1[C@@H](C(=O)NCCCCCCNC(=O)c2ccc(-c3c4nc(c(-c5cccc(S(=O)(=O)[O-])c5F)c5ccc([nH]5)c(-c5cccc(S(=O)(=O)[O-])c5F)c5nc(c(-c6cccc(S(=O)(=O)[O-])c6F)c6ccc3[nH]6)C=C5)C=C4)cc2)CS[C@@H]1c1ccc(C)cc1
REMARK SMILES IDX 13 1 12 2 11 3 10 4 8 5 9 6 7 8 6 9 85 10 83 11 84 12 4 13
REMARK SMILES IDX 5 14 3 15 2 16 1 17 86 18 87 19 92 20 88 21 91 22 89 23
REMARK SMILES IDX 90 24 14 25 15 26 16 27 17 28 18 29 19 31 20 32 21 33 82 34
REMARK SMILES IDX 22 35 81 36 23 37 24 38 25 39 75 40 26 41 80 42 74 43 76 44
REMARK SMILES IDX 27 45 79 46 73 47 72 48 28 50 60 51 40 52 59 53 41 54 44 55
REMARK SMILES IDX 58 56 77 57 42 58 43 59 57 61 78 62 45 63 29 64 30 65 38 66
REMARK SMILES IDX 31 67 33 68 39 69 32 70 34 71 35 72 36 73 37 74 61 75 62 76
REMARK SMILES IDX 70 77 63 78 65 79 71 80 64 81 66 82 67 83 68 84 69 85 46 86
REMARK SMILES IDX 47 87 55 88 48 89 50 90 56 91 49 92 51 93 52 94 53 95 54 96
REMARK H PARENT 10 7 17 30 76 49 44 60
REMARK Flexibility Score: inf
ROOT
ATOM      1  C   UNL A   1      37.358  21.719  24.640  1.00  0.00     0.002 C 
ENDROOT
BRANCH   1   2
ATOM      2  C   UNL A   1      36.729  22.473  23.467  1.00  0.00     0.021 C 
BRANCH   2   3
ATOM      3  C   UNL A   1      35.512  23.305  23.843  1.00  0.00     0.116 C 
BRANCH   3   4
ATOM      4  N   UNL A   1      34.295  22.808  23.243  1.00  0.00    -0.354 N 
ATOM      5  C   UNL A   1      33.075  23.395  23.106  1.00  0.00     0.243 C 
ATOM      6  O   UNL A   1      32.176  22.703  22.614  1.00  0.00    -0.273 OA
ATOM      7  H   UNL A   1      34.357  21.896  22.875  1.00  0.00     0.163 HD
BRANCH   5   8
ATOM      8  C   UNL A   1      32.734  24.772  23.714  1.00  0.00     0.184 C 
ATOM      9  N   UNL A   1      31.701  24.799  24.778  1.00  0.00    -0.328 N 
ATOM     10  C   UNL A   1      30.713  25.882  24.598  1.00  0.00     0.173 C 
ATOM     11  C   UNL A   1      32.335  25.690  22.547  1.00  0.00     0.107 C 
ATOM     12  S   UNL A   1      30.587  26.060  22.774  1.00  0.00    -0.130 SA
BRANCH   9  13
ATOM     13  C   UNL A   1      31.823  24.061  25.966  1.00  0.00     0.138 C 
ATOM     14  S   UNL A   1      30.537  23.243  26.680  1.00  0.00    -0.053 S 
BRANCH  13  15
ATOM     15  S   UNL A   1      33.450  24.125  26.652  1.00  0.00    -0.097 SA
BRANCH  15  16
ATOM     16  C   UNL A   1      33.667  22.617  27.649  1.00  0.00     0.074 C 
ATOM     17  C   UNL A   1      34.315  21.434  26.942  1.00  0.00     0.016 C 
ENDBRANCH  15  16
ENDBRANCH  13  15
ENDBRANCH   9  13
BRANCH  10  18
ATOM     18  C   UNL A   1      31.153  27.228  25.190  1.00  0.00    -0.015 A 
ATOM     19  C   UNL A   1      31.421  27.327  26.569  1.00  0.00     0.007 A 
ATOM     20  C   UNL A   1      31.253  28.403  24.429  1.00  0.00     0.007 A 
ATOM     21  C   UNL A   1      31.710  28.559  27.163  1.00  0.00     0.004 A 
ATOM     22  C   UNL A   1      31.556  29.632  25.018  1.00  0.00     0.004 A 
ATOM     23  C   UNL A   1      31.770  29.724  26.392  1.00  0.00    -0.051 A 
ATOM     24  C   UNL A   1      32.045  31.049  27.033  1.00  0.00     0.044 C 
ENDBRANCH  10  18
ENDBRANCH   5   8
ENDBRANCH   3   4
ENDBRANCH   2   3
ENDBRANCH   1   2
BRANCH   1  25
ATOM     25  C   UNL A   1      37.048  20.219  24.688  1.00  0.00     0.002 C 
BRANCH  25  26
ATOM     26  C   UNL A   1      38.226  19.319  25.073  1.00  0.00     0.021 C 
BRANCH  26  27
ATOM     27  C   UNL A   1      39.251  19.968  25.995  1.00  0.00     0.116 C 
BRANCH  27  28
ATOM     28  N   UNL A   1      40.456  19.163  26.122  1.00  0.00    -0.352 N 
ATOM     29  C   UNL A   1      41.751  19.570  26.298  1.00  0.00     0.251 C 
ATOM     30  H   UNL A   1      40.320  18.189  26.075  1.00  0.00     0.163 HD
ATOM     31  O   UNL A   1      42.669  18.759  26.187  1.00  0.00    -0.269 OA
BRANCH  29  32
ATOM     32  C   UNL A   1      42.040  20.985  26.603  1.00  0.00     0.039 A 
ATOM     33  C   UNL A   1      42.263  21.357  27.930  1.00  0.00     0.014 A 
ATOM     34  C   UNL A   1      42.092  21.940  25.582  1.00  0.00     0.014 A 
ATOM     35  C   UNL A   1      42.584  22.682  28.227  1.00  0.00     0.010 A 
ATOM     36  C   UNL A   1      42.490  23.239  25.872  1.00  0.00     0.010 A 
ATOM     37  C   UNL A   1      42.727  23.629  27.199  1.00  0.00    -0.014 A 
BRANCH  37  38
ATOM     38  C   UNL A   1      43.134  25.025  27.493  1.00  0.00     0.031 A 
ATOM     39  C   UNL A   1      42.145  25.998  28.071  1.00  0.00     0.074 A 
ATOM     40  C   UNL A   1      44.372  25.439  27.158  1.00  0.00     0.049 A 
ATOM     41  N   UNL A   1      42.306  27.265  28.355  1.00  0.00    -0.248 NA
ATOM     42  C   UNL A   1      40.789  25.492  28.339  1.00  0.00     0.031 C 
ATOM     43  C   UNL A   1      45.393  24.610  26.513  1.00  0.00     0.029 A 
ATOM     44  N   UNL A   1      44.972  26.665  27.288  1.00  0.00    -0.354 N 
ATOM     45  C   UNL A   1      41.068  27.716  28.796  1.00  0.00     0.074 A 
ATOM     46  C   UNL A   1      40.156  26.596  28.709  1.00  0.00     0.031 C 
ATOM     47  C   UNL A   1      46.493  25.351  26.308  1.00  0.00     0.029 A 
ATOM     48  C   UNL A   1      46.246  26.712  26.773  1.00  0.00     0.049 A 
ATOM     49  H   UNL A   1      44.532  27.438  27.711  1.00  0.00     0.167 HD
ATOM     50  C   UNL A   1      40.725  28.943  29.255  1.00  0.00     0.034 A 
ATOM     51  C   UNL A   1      47.115  27.737  26.674  1.00  0.00     0.034 A 
ATOM     52  C   UNL A   1      41.644  30.043  29.367  1.00  0.00     0.049 A 
ATOM     53  C   UNL A   1      46.725  29.081  27.224  1.00  0.00     0.074 A 
ATOM     54  C   UNL A   1      41.423  31.296  29.911  1.00  0.00     0.029 A 
ATOM     55  N   UNL A   1      42.953  30.032  28.909  1.00  0.00    -0.354 N 
ATOM     56  N   UNL A   1      45.602  29.444  27.792  1.00  0.00    -0.248 NA
ATOM     57  C   UNL A   1      47.737  30.145  27.156  1.00  0.00     0.031 C 
ATOM     58  C   UNL A   1      42.586  32.056  29.744  1.00  0.00     0.029 A 
ATOM     59  C   UNL A   1      43.547  31.262  29.138  1.00  0.00     0.049 A 
ATOM     60  H   UNL A   1      43.396  29.262  28.484  1.00  0.00     0.167 HD
ATOM     61  C   UNL A   1      45.780  30.768  28.179  1.00  0.00     0.074 A 
ATOM     62  C   UNL A   1      47.128  31.135  27.797  1.00  0.00     0.031 C 
ATOM     63  C   UNL A   1      44.903  31.604  28.788  1.00  0.00     0.034 A 
BRANCH  50  64
ATOM     64  C   UNL A   1      39.298  29.149  29.698  1.00  0.00     0.023 A 
ATOM     65  C   UNL A   1      38.913  28.807  31.011  1.00  0.00     0.012 A 
ATOM     66  C   UNL A   1      38.347  29.714  28.826  1.00  0.00     0.148 A 
ATOM     67  C   UNL A   1      37.596  28.976  31.434  1.00  0.00     0.002 A 
ATOM     68  C   UNL A   1      37.048  29.928  29.271  1.00  0.00     0.091 A 
ATOM     69  F   UNL A   1      38.723  30.014  27.575  1.00  0.00    -0.205 F 
ATOM     70  C   UNL A   1      36.666  29.547  30.568  1.00  0.00     0.022 A 
BRANCH  68  71
ATOM     71  S   UNL A   1      35.800  30.733  28.261  1.00  0.00     0.127 S 
ATOM     72  O   UNL A   1      34.765  31.029  29.250  1.00  0.00    -0.237 OA
ATOM     73  O   UNL A   1      36.518  31.906  27.762  1.00  0.00    -0.237 OA
ATOM     74  O   UNL A   1      35.430  29.768  27.236  1.00  0.00    -0.744 OA
ENDBRANCH  68  71
ENDBRANCH  50  64
BRANCH  51  75
ATOM     75  C   UNL A   1      48.457  27.507  26.072  1.00  0.00     0.023 A 
ATOM     76  C   UNL A   1      48.603  27.517  24.671  1.00  0.00     0.012 A 
ATOM     77  C   UNL A   1      49.597  27.335  26.881  1.00  0.00     0.148 A 
ATOM     78  C   UNL A   1      49.856  27.333  24.087  1.00  0.00     0.002 A 
ATOM     79  C   UNL A   1      50.849  27.211  26.294  1.00  0.00     0.091 A 
ATOM     80  F   UNL A   1      49.434  27.325  28.212  1.00  0.00    -0.205 F 
ATOM     81  C   UNL A   1      50.980  27.192  24.897  1.00  0.00     0.022 A 
BRANCH  79  82
ATOM     82  S   UNL A   1      52.366  27.162  27.255  1.00  0.00     0.127 S 
ATOM     83  O   UNL A   1      52.305  28.432  27.976  1.00  0.00    -0.237 OA
ATOM     84  O   UNL A   1      52.156  25.972  28.082  1.00  0.00    -0.237 OA
ATOM     85  O   UNL A   1      53.447  27.039  26.287  1.00  0.00    -0.744 OA
ENDBRANCH  79  82
ENDBRANCH  51  75
BRANCH  63  86
ATOM     86  C   UNL A   1      45.378  32.996  29.120  1.00  0.00     0.023 A 
ATOM     87  C   UNL A   1      46.012  33.251  30.352  1.00  0.00     0.012 A 
ATOM     88  C   UNL A   1      45.263  34.033  28.175  1.00  0.00     0.148 A 
ATOM     89  C   UNL A   1      46.492  34.527  30.652  1.00  0.00     0.002 A 
ATOM     90  C   UNL A   1      45.790  35.287  28.457  1.00  0.00     0.091 A 
ATOM     91  F   UNL A   1      44.640  33.774  27.014  1.00  0.00    -0.205 F 
ATOM     92  C   UNL A   1      46.393  35.539  29.700  1.00  0.00     0.022 A 
BRANCH  90  93
ATOM     93  S   UNL A   1      45.799  36.622  27.255  1.00  0.00     0.127 S 
ATOM     94  O   UNL A   1      46.532  37.664  27.974  1.00  0.00    -0.237 OA
ATOM     95  O   UNL A   1      46.529  36.025  26.136  1.00  0.00    -0.237 OA
ATOM     96  O   UNL A   1      44.402  36.923  26.975  1.00  0.00    -0.744 OA
ENDBRANCH  90  93
ENDBRANCH  63  86
ENDBRANCH  37  38
ENDBRANCH  29  32
ENDBRANCH  27  28
ENDBRANCH  26  27
ENDBRANCH  25  26
ENDBRANCH   1  25
TORSDOF 20
ENDMDL
