MODEL 1
REMARK VINA RESULT:     -11.9      0.000      0.000
REMARK SMILES C[C@H](c1ccccc1Cl)N(C)c1cccc(F)c1C(=O)NCCCCCCNC(=O)c1ccc(-c2c3nc(c(-c4cccc(S(=O)(=O)[O-])c4F)c4ccc([nH]4)c(-c4cccc(S(=O)(=O)[O-])c4F)c4nc(c(-c5cccc(S(=O)(=O)[O-])c5F)c5ccc2[nH]5)C=C4)C=C3)cc1
REMARK SMILES IDX 24 1 23 2 22 3 21 4 19 5 20 6 18 8 12 9 13 10 14 11 16 12
REMARK SMILES IDX 15 13 17 14 10 15 11 16 2 17 1 18 3 19 4 20 8 21 5 22 7 23
REMARK SMILES IDX 9 24 6 25 25 26 26 27 27 28 28 29 29 30 30 32 31 33 32 34
REMARK SMILES IDX 93 35 33 36 92 37 34 38 35 39 36 40 86 41 37 42 91 43 85 44
REMARK SMILES IDX 87 45 38 46 90 47 84 48 83 49 39 51 71 52 51 53 70 54 52 55
REMARK SMILES IDX 55 56 69 57 88 58 53 59 54 60 68 62 89 63 56 64 40 65 41 66
REMARK SMILES IDX 49 67 42 68 44 69 50 70 43 71 45 72 46 73 47 74 48 75 72 76
REMARK SMILES IDX 73 77 81 78 74 79 76 80 82 81 75 82 77 83 78 84 79 85 80 86
REMARK SMILES IDX 57 87 58 88 66 89 59 90 61 91 67 92 60 93 62 94 63 95 64 96
REMARK SMILES IDX 65 97
REMARK H PARENT 21 7 28 31 87 50 55 61
REMARK Flexibility Score: inf
ROOT
ATOM      1  C   UNL A   1      30.592  27.057  24.523  1.00  0.00     0.002 C 
ENDROOT
BRANCH   1   2
ATOM      2  C   UNL A   1      30.903  26.301  23.231  1.00  0.00     0.021 C 
BRANCH   2   3
ATOM      3  C   UNL A   1      30.589  24.808  23.205  1.00  0.00     0.116 C 
BRANCH   3   4
ATOM      4  N   UNL A   1      30.360  24.197  24.506  1.00  0.00    -0.352 N 
ATOM      5  C   UNL A   1      31.257  23.867  25.513  1.00  0.00     0.256 C 
ATOM      6  O   UNL A   1      30.788  23.515  26.594  1.00  0.00    -0.269 OA
ATOM      7  H   UNL A   1      29.419  23.982  24.704  1.00  0.00     0.163 HD
BRANCH   5   8
ATOM      8  C   UNL A   1      32.726  23.845  25.252  1.00  0.00     0.098 A 
ATOM      9  C   UNL A   1      33.353  22.787  24.555  1.00  0.00     0.053 A 
ATOM     10  C   UNL A   1      34.630  23.035  24.010  1.00  0.00     0.027 A 
ATOM     11  C   UNL A   1      35.346  24.194  24.309  1.00  0.00     0.005 A 
ATOM     12  C   UNL A   1      33.511  24.925  25.668  1.00  0.00     0.138 A 
ATOM     13  C   UNL A   1      34.806  25.113  25.196  1.00  0.00     0.040 A 
ATOM     14  F   UNL A   1      33.027  25.833  26.530  1.00  0.00    -0.206 F 
BRANCH   9  15
ATOM     15  N   UNL A   1      32.856  21.490  24.452  1.00  0.00    -0.367 N 
ATOM     16  C   UNL A   1      32.158  21.116  23.237  1.00  0.00     0.144 C 
BRANCH  15  17
ATOM     17  C   UNL A   1      32.913  20.559  25.610  1.00  0.00     0.110 C 
ATOM     18  C   UNL A   1      33.538  21.175  26.863  1.00  0.00     0.036 C 
BRANCH  17  19
ATOM     19  C   UNL A   1      33.417  19.170  25.204  1.00  0.00    -0.007 A 
ATOM     20  C   UNL A   1      32.467  18.121  25.212  1.00  0.00     0.007 A 
ATOM     21  C   UNL A   1      34.715  18.854  24.761  1.00  0.00     0.046 A 
ATOM     22  C   UNL A   1      32.775  16.842  24.743  1.00  0.00     0.000 A 
ATOM     23  C   UNL A   1      35.000  17.582  24.236  1.00  0.00     0.021 A 
ATOM     24  Cl  UNL A   1      36.055  19.941  24.819  1.00  0.00    -0.084 Cl
ATOM     25  C   UNL A   1      34.033  16.582  24.219  1.00  0.00     0.002 A 
ENDBRANCH  17  19
ENDBRANCH  15  17
ENDBRANCH   9  15
ENDBRANCH   5   8
ENDBRANCH   3   4
ENDBRANCH   2   3
ENDBRANCH   1   2
BRANCH   1  26
ATOM     26  C   UNL A   1      30.697  28.583  24.470  1.00  0.00     0.002 C 
BRANCH  26  27
ATOM     27  C   UNL A   1      32.097  29.182  24.626  1.00  0.00     0.021 C 
BRANCH  27  28
ATOM     28  C   UNL A   1      32.531  29.518  26.051  1.00  0.00     0.116 C 
BRANCH  28  29
ATOM     29  N   UNL A   1      32.308  30.914  26.397  1.00  0.00    -0.352 N 
ATOM     30  C   UNL A   1      33.064  31.758  27.173  1.00  0.00     0.251 C 
ATOM     31  H   UNL A   1      31.492  31.313  26.017  1.00  0.00     0.163 HD
ATOM     32  O   UNL A   1      32.627  32.870  27.469  1.00  0.00    -0.269 OA
BRANCH  30  33
ATOM     33  C   UNL A   1      34.389  31.331  27.675  1.00  0.00     0.039 A 
ATOM     34  C   UNL A   1      35.374  32.301  27.884  1.00  0.00     0.014 A 
ATOM     35  C   UNL A   1      34.662  29.987  27.945  1.00  0.00     0.014 A 
ATOM     36  C   UNL A   1      36.601  31.934  28.443  1.00  0.00     0.010 A 
ATOM     37  C   UNL A   1      35.861  29.634  28.563  1.00  0.00     0.010 A 
ATOM     38  C   UNL A   1      36.836  30.604  28.833  1.00  0.00    -0.014 A 
BRANCH  38  39
ATOM     39  C   UNL A   1      38.057  30.232  29.595  1.00  0.00     0.031 A 
ATOM     40  C   UNL A   1      39.055  29.260  29.032  1.00  0.00     0.074 A 
ATOM     41  C   UNL A   1      38.216  30.707  30.847  1.00  0.00     0.049 A 
ATOM     42  N   UNL A   1      40.135  28.775  29.588  1.00  0.00    -0.248 NA
ATOM     43  C   UNL A   1      38.800  28.750  27.674  1.00  0.00     0.031 C 
ATOM     44  C   UNL A   1      37.285  31.607  31.532  1.00  0.00     0.029 A 
ATOM     45  N   UNL A   1      39.203  30.484  31.777  1.00  0.00    -0.354 N 
ATOM     46  C   UNL A   1      40.677  27.889  28.665  1.00  0.00     0.074 A 
ATOM     47  C   UNL A   1      39.790  27.881  27.521  1.00  0.00     0.031 C 
ATOM     48  C   UNL A   1      37.747  31.866  32.764  1.00  0.00     0.029 A 
ATOM     49  C   UNL A   1      38.982  31.120  32.977  1.00  0.00     0.049 A 
ATOM     50  H   UNL A   1      39.991  29.921  31.601  1.00  0.00     0.167 HD
ATOM     51  C   UNL A   1      41.819  27.167  28.753  1.00  0.00     0.034 A 
ATOM     52  C   UNL A   1      39.686  31.100  34.126  1.00  0.00     0.034 A 
ATOM     53  C   UNL A   1      42.708  27.196  29.886  1.00  0.00     0.049 A 
ATOM     54  C   UNL A   1      40.958  30.302  34.194  1.00  0.00     0.074 A 
ATOM     55  C   UNL A   1      43.919  26.544  30.042  1.00  0.00     0.029 A 
ATOM     56  N   UNL A   1      42.484  27.905  31.057  1.00  0.00    -0.354 N 
ATOM     57  N   UNL A   1      41.514  29.562  33.267  1.00  0.00    -0.248 NA
ATOM     58  C   UNL A   1      41.720  30.366  35.449  1.00  0.00     0.031 C 
ATOM     59  C   UNL A   1      44.410  26.830  31.319  1.00  0.00     0.029 A 
ATOM     60  C   UNL A   1      43.530  27.700  31.941  1.00  0.00     0.049 A 
ATOM     61  H   UNL A   1      41.697  28.469  31.234  1.00  0.00     0.167 HD
ATOM     62  C   UNL A   1      42.710  29.107  33.807  1.00  0.00     0.074 A 
ATOM     63  C   UNL A   1      42.803  29.664  35.142  1.00  0.00     0.031 C 
ATOM     64  C   UNL A   1      43.644  28.299  33.248  1.00  0.00     0.034 A 
BRANCH  51  65
ATOM     65  C   UNL A   1      42.213  26.312  27.576  1.00  0.00     0.023 A 
ATOM     66  C   UNL A   1      43.051  26.848  26.577  1.00  0.00     0.012 A 
ATOM     67  C   UNL A   1      41.847  24.952  27.513  1.00  0.00     0.148 A 
ATOM     68  C   UNL A   1      43.499  26.053  25.522  1.00  0.00     0.002 A 
ATOM     69  C   UNL A   1      42.338  24.154  26.485  1.00  0.00     0.091 A 
ATOM     70  F   UNL A   1      41.035  24.464  28.460  1.00  0.00    -0.205 F 
ATOM     71  C   UNL A   1      43.154  24.705  25.485  1.00  0.00     0.022 A 
BRANCH  69  72
ATOM     72  S   UNL A   1      42.029  22.386  26.396  1.00  0.00     0.127 S 
ATOM     73  O   UNL A   1      40.574  22.348  26.261  1.00  0.00    -0.237 OA
ATOM     74  O   UNL A   1      42.764  22.007  25.190  1.00  0.00    -0.237 OA
ATOM     75  O   UNL A   1      42.552  21.822  27.632  1.00  0.00    -0.744 OA
ENDBRANCH  69  72
ENDBRANCH  51  65
BRANCH  52  76
ATOM     76  C   UNL A   1      39.229  31.926  35.280  1.00  0.00     0.023 A 
ATOM     77  C   UNL A   1      38.385  31.352  36.249  1.00  0.00     0.012 A 
ATOM     78  C   UNL A   1      39.682  33.247  35.458  1.00  0.00     0.148 A 
ATOM     79  C   UNL A   1      37.984  32.085  37.367  1.00  0.00     0.002 A 
ATOM     80  C   UNL A   1      39.328  33.951  36.603  1.00  0.00     0.091 A 
ATOM     81  F   UNL A   1      40.479  33.776  34.519  1.00  0.00    -0.205 F 
ATOM     82  C   UNL A   1      38.467  33.378  37.551  1.00  0.00     0.022 A 
BRANCH  80  83
ATOM     83  S   UNL A   1      40.016  35.564  36.997  1.00  0.00     0.127 S 
ATOM     84  O   UNL A   1      39.579  36.362  35.854  1.00  0.00    -0.237 OA
ATOM     85  O   UNL A   1      39.344  35.873  38.259  1.00  0.00    -0.237 OA
ATOM     86  O   UNL A   1      41.454  35.363  37.112  1.00  0.00    -0.744 OA
ENDBRANCH  80  83
ENDBRANCH  52  76
BRANCH  64  87
ATOM     87  C   UNL A   1      44.889  27.996  34.042  1.00  0.00     0.023 A 
ATOM     88  C   UNL A   1      46.002  28.856  33.972  1.00  0.00     0.012 A 
ATOM     89  C   UNL A   1      44.912  26.907  34.935  1.00  0.00     0.148 A 
ATOM     90  C   UNL A   1      47.129  28.621  34.758  1.00  0.00     0.002 A 
ATOM     91  C   UNL A   1      46.016  26.710  35.756  1.00  0.00     0.091 A 
ATOM     92  F   UNL A   1      43.852  26.087  34.973  1.00  0.00    -0.205 F 
ATOM     93  C   UNL A   1      47.131  27.558  35.659  1.00  0.00     0.022 A 
BRANCH  91  94
ATOM     94  S   UNL A   1      46.061  25.436  37.022  1.00  0.00     0.127 S 
ATOM     95  O   UNL A   1      47.490  25.367  37.324  1.00  0.00    -0.237 OA
ATOM     96  O   UNL A   1      45.242  26.024  38.081  1.00  0.00    -0.237 OA
ATOM     97  O   UNL A   1      45.493  24.241  36.412  1.00  0.00    -0.744 OA
ENDBRANCH  91  94
ENDBRANCH  64  87
ENDBRANCH  38  39
ENDBRANCH  30  33
ENDBRANCH  28  29
ENDBRANCH  27  28
ENDBRANCH  26  27
ENDBRANCH   1  26
TORSDOF 19
ENDMDL
MODEL 2
REMARK VINA RESULT:     -11.9      1.213      7.469
REMARK SMILES C[C@H](c1ccccc1Cl)N(C)c1cccc(F)c1C(=O)NCCCCCCNC(=O)c1ccc(-c2c3nc(c(-c4cccc(S(=O)(=O)[O-])c4F)c4ccc([nH]4)c(-c4cccc(S(=O)(=O)[O-])c4F)c4nc(c(-c5cccc(S(=O)(=O)[O-])c5F)c5ccc2[nH]5)C=C4)C=C3)cc1
REMARK SMILES IDX 24 1 23 2 22 3 21 4 19 5 20 6 18 8 12 9 13 10 14 11 16 12
REMARK SMILES IDX 15 13 17 14 10 15 11 16 2 17 1 18 3 19 4 20 8 21 5 22 7 23
REMARK SMILES IDX 9 24 6 25 25 26 26 27 27 28 28 29 29 30 30 32 31 33 32 34
REMARK SMILES IDX 93 35 33 36 92 37 34 38 35 39 36 40 86 41 37 42 91 43 85 44
REMARK SMILES IDX 87 45 38 46 90 47 84 48 83 49 39 51 71 52 51 53 70 54 52 55
REMARK SMILES IDX 55 56 69 57 88 58 53 59 54 60 68 62 89 63 56 64 40 65 41 66
REMARK SMILES IDX 49 67 42 68 44 69 50 70 43 71 45 72 46 73 47 74 48 75 72 76
REMARK SMILES IDX 73 77 81 78 74 79 76 80 82 81 75 82 77 83 78 84 79 85 80 86
REMARK SMILES IDX 57 87 58 88 66 89 59 90 61 91 67 92 60 93 62 94 63 95 64 96
REMARK SMILES IDX 65 97
REMARK H PARENT 21 7 28 31 87 50 55 61
REMARK Flexibility Score: inf
ROOT
ATOM      1  C   UNL A   1      30.676  27.181  24.403  1.00  0.00     0.002 C 
ENDROOT
BRANCH   1   2
ATOM      2  C   UNL A   1      31.023  26.394  23.140  1.00  0.00     0.021 C 
BRANCH   2   3
ATOM      3  C   UNL A   1      30.646  24.915  23.116  1.00  0.00     0.116 C 
BRANCH   3   4
ATOM      4  N   UNL A   1      30.372  24.320  24.416  1.00  0.00    -0.352 N 
ATOM      5  C   UNL A   1      31.233  24.006  25.458  1.00  0.00     0.256 C 
ATOM      6  O   UNL A   1      30.727  23.668  26.527  1.00  0.00    -0.269 OA
ATOM      7  H   UNL A   1      29.425  24.106  24.583  1.00  0.00     0.163 HD
BRANCH   5   8
ATOM      8  C   UNL A   1      32.711  23.984  25.250  1.00  0.00     0.098 A 
ATOM      9  C   UNL A   1      33.363  22.923  24.582  1.00  0.00     0.053 A 
ATOM     10  C   UNL A   1      34.658  23.170  24.081  1.00  0.00     0.027 A 
ATOM     11  C   UNL A   1      35.363  24.331  24.399  1.00  0.00     0.005 A 
ATOM     12  C   UNL A   1      33.480  25.067  25.688  1.00  0.00     0.138 A 
ATOM     13  C   UNL A   1      34.791  25.253  25.261  1.00  0.00     0.040 A 
ATOM     14  F   UNL A   1      32.964  25.979  26.527  1.00  0.00    -0.206 F 
BRANCH   9  15
ATOM     15  N   UNL A   1      32.871  21.626  24.468  1.00  0.00    -0.367 N 
ATOM     16  C   UNL A   1      32.186  21.255  23.243  1.00  0.00     0.144 C 
BRANCH  15  17
ATOM     17  C   UNL A   1      32.919  20.689  25.622  1.00  0.00     0.110 C 
ATOM     18  C   UNL A   1      33.550  21.294  26.877  1.00  0.00     0.036 C 
BRANCH  17  19
ATOM     19  C   UNL A   1      33.410  19.297  25.210  1.00  0.00    -0.007 A 
ATOM     20  C   UNL A   1      32.451  18.256  25.222  1.00  0.00     0.007 A 
ATOM     21  C   UNL A   1      34.702  18.971  24.758  1.00  0.00     0.046 A 
ATOM     22  C   UNL A   1      32.746  16.975  24.749  1.00  0.00     0.000 A 
ATOM     23  C   UNL A   1      34.974  17.699  24.229  1.00  0.00     0.021 A 
ATOM     24  Cl  UNL A   1      36.051  20.049  24.810  1.00  0.00    -0.084 Cl
ATOM     25  C   UNL A   1      33.999  16.706  24.217  1.00  0.00     0.002 A 
ENDBRANCH  17  19
ENDBRANCH  15  17
ENDBRANCH   9  15
ENDBRANCH   5   8
ENDBRANCH   3   4
ENDBRANCH   2   3
ENDBRANCH   1   2
BRANCH   1  26
ATOM     26  C   UNL A   1      30.937  28.688  24.368  1.00  0.00     0.002 C 
BRANCH  26  27
ATOM     27  C   UNL A   1      32.346  29.152  24.744  1.00  0.00     0.021 C 
BRANCH  27  28
ATOM     28  C   UNL A   1      32.586  29.446  26.223  1.00  0.00     0.116 C 
BRANCH  28  29
ATOM     29  N   UNL A   1      32.460  30.859  26.548  1.00  0.00    -0.352 N 
ATOM     30  C   UNL A   1      33.286  31.667  27.291  1.00  0.00     0.251 C 
ATOM     31  H   UNL A   1      31.663  31.303  26.179  1.00  0.00     0.163 HD
ATOM     32  O   UNL A   1      32.928  32.810  27.576  1.00  0.00    -0.269 OA
BRANCH  30  33
ATOM     33  C   UNL A   1      34.592  31.165  27.772  1.00  0.00     0.039 A 
ATOM     34  C   UNL A   1      35.640  32.074  27.946  1.00  0.00     0.014 A 
ATOM     35  C   UNL A   1      34.787  29.810  28.055  1.00  0.00     0.014 A 
ATOM     36  C   UNL A   1      36.854  31.639  28.484  1.00  0.00     0.010 A 
ATOM     37  C   UNL A   1      35.975  29.391  28.654  1.00  0.00     0.010 A 
ATOM     38  C   UNL A   1      37.014  30.302  28.889  1.00  0.00    -0.014 A 
BRANCH  38  39
ATOM     39  C   UNL A   1      38.226  29.865  29.631  1.00  0.00     0.031 A 
ATOM     40  C   UNL A   1      38.549  30.428  30.987  1.00  0.00     0.074 A 
ATOM     41  C   UNL A   1      39.088  29.018  29.033  1.00  0.00     0.049 A 
ATOM     42  N   UNL A   1      39.595  30.208  31.741  1.00  0.00    -0.248 NA
ATOM     43  C   UNL A   1      37.583  31.377  31.566  1.00  0.00     0.031 C 
ATOM     44  C   UNL A   1      38.920  28.451  27.694  1.00  0.00     0.029 A 
ATOM     45  N   UNL A   1      40.289  28.505  29.461  1.00  0.00    -0.354 N 
ATOM     46  C   UNL A   1      39.429  31.003  32.868  1.00  0.00     0.074 A 
ATOM     47  C   UNL A   1      38.193  31.734  32.687  1.00  0.00     0.031 C 
ATOM     48  C   UNL A   1      39.969  27.664  27.412  1.00  0.00     0.029 A 
ATOM     49  C   UNL A   1      40.906  27.701  28.530  1.00  0.00     0.049 A 
ATOM     50  H   UNL A   1      40.671  28.695  30.348  1.00  0.00     0.167 HD
ATOM     51  C   UNL A   1      40.221  31.097  33.962  1.00  0.00     0.034 A 
ATOM     52  C   UNL A   1      42.098  27.072  28.562  1.00  0.00     0.034 A 
ATOM     53  C   UNL A   1      41.439  30.351  34.144  1.00  0.00     0.049 A 
ATOM     54  C   UNL A   1      42.952  27.181  29.794  1.00  0.00     0.074 A 
ATOM     55  C   UNL A   1      42.279  30.336  35.246  1.00  0.00     0.029 A 
ATOM     56  N   UNL A   1      41.998  29.496  33.207  1.00  0.00    -0.354 N 
ATOM     57  N   UNL A   1      42.721  27.847  30.898  1.00  0.00    -0.248 NA
ATOM     58  C   UNL A   1      44.211  26.423  29.802  1.00  0.00     0.031 C 
ATOM     59  C   UNL A   1      43.362  29.500  34.960  1.00  0.00     0.029 A 
ATOM     60  C   UNL A   1      43.173  28.954  33.701  1.00  0.00     0.049 A 
ATOM     61  H   UNL A   1      41.617  29.303  32.320  1.00  0.00     0.167 HD
ATOM     62  C   UNL A   1      43.779  27.555  31.749  1.00  0.00     0.074 A 
ATOM     63  C   UNL A   1      44.650  26.644  31.034  1.00  0.00     0.031 C 
ATOM     64  C   UNL A   1      44.008  28.007  33.007  1.00  0.00     0.034 A 
BRANCH  51  65
ATOM     65  C   UNL A   1      39.782  32.005  35.083  1.00  0.00     0.023 A 
ATOM     66  C   UNL A   1      40.073  33.383  35.015  1.00  0.00     0.012 A 
ATOM     67  C   UNL A   1      38.991  31.518  36.143  1.00  0.00     0.148 A 
ATOM     68  C   UNL A   1      39.605  34.258  35.995  1.00  0.00     0.002 A 
ATOM     69  C   UNL A   1      38.486  32.405  37.088  1.00  0.00     0.091 A 
ATOM     70  F   UNL A   1      38.739  30.204  36.201  1.00  0.00    -0.205 F 
ATOM     71  C   UNL A   1      38.801  33.771  37.022  1.00  0.00     0.022 A 
BRANCH  69  72
ATOM     72  S   UNL A   1      37.365  31.894  38.397  1.00  0.00     0.127 S 
ATOM     73  O   UNL A   1      37.074  30.514  38.013  1.00  0.00    -0.237 OA
ATOM     74  O   UNL A   1      38.204  32.031  39.588  1.00  0.00    -0.237 OA
ATOM     75  O   UNL A   1      36.233  32.808  38.339  1.00  0.00    -0.744 OA
ENDBRANCH  69  72
ENDBRANCH  51  65
BRANCH  52  76
ATOM     76  C   UNL A   1      42.509  26.223  27.408  1.00  0.00     0.023 A 
ATOM     77  C   UNL A   1      43.379  26.753  26.436  1.00  0.00     0.012 A 
ATOM     78  C   UNL A   1      42.104  24.878  27.308  1.00  0.00     0.148 A 
ATOM     79  C   UNL A   1      43.823  25.964  25.373  1.00  0.00     0.002 A 
ATOM     80  C   UNL A   1      42.597  24.081  26.282  1.00  0.00     0.091 A 
ATOM     81  F   UNL A   1      41.270  24.396  28.241  1.00  0.00    -0.205 F 
ATOM     82  C   UNL A   1      43.443  24.626  25.304  1.00  0.00     0.022 A 
BRANCH  80  83
ATOM     83  S   UNL A   1      42.283  22.315  26.194  1.00  0.00     0.127 S 
ATOM     84  O   UNL A   1      43.041  21.936  25.003  1.00  0.00    -0.237 OA
ATOM     85  O   UNL A   1      42.848  21.849  27.460  1.00  0.00    -0.237 OA
ATOM     86  O   UNL A   1      40.837  22.175  26.090  1.00  0.00    -0.744 OA
ENDBRANCH  80  83
ENDBRANCH  52  76
BRANCH  64  87
ATOM     87  C   UNL A   1      45.222  27.489  33.736  1.00  0.00     0.023 A 
ATOM     88  C   UNL A   1      46.426  28.220  33.718  1.00  0.00     0.012 A 
ATOM     89  C   UNL A   1      45.133  26.323  34.523  1.00  0.00     0.148 A 
ATOM     90  C   UNL A   1      47.531  27.783  34.448  1.00  0.00     0.002 A 
ATOM     91  C   UNL A   1      46.220  25.925  35.292  1.00  0.00     0.091 A 
ATOM     92  F   UNL A   1      43.986  25.630  34.512  1.00  0.00    -0.205 F 
ATOM     93  C   UNL A   1      47.423  26.645  35.245  1.00  0.00     0.022 A 
BRANCH  91  94
ATOM     94  S   UNL A   1      46.136  24.538  36.432  1.00  0.00     0.127 S 
ATOM     95  O   UNL A   1      47.390  24.685  37.170  1.00  0.00    -0.237 OA
ATOM     96  O   UNL A   1      44.934  24.845  37.205  1.00  0.00    -0.237 OA
ATOM     97  O   UNL A   1      46.034  23.343  35.606  1.00  0.00    -0.744 OA
ENDBRANCH  91  94
ENDBRANCH  64  87
ENDBRANCH  38  39
ENDBRANCH  30  33
ENDBRANCH  28  29
ENDBRANCH  27  28
ENDBRANCH  26  27
ENDBRANCH   1  26
TORSDOF 19
ENDMDL
MODEL 3
REMARK VINA RESULT:     -11.6      2.288      3.209
REMARK SMILES C[C@H](c1ccccc1Cl)N(C)c1cccc(F)c1C(=O)NCCCCCCNC(=O)c1ccc(-c2c3nc(c(-c4cccc(S(=O)(=O)[O-])c4F)c4ccc([nH]4)c(-c4cccc(S(=O)(=O)[O-])c4F)c4nc(c(-c5cccc(S(=O)(=O)[O-])c5F)c5ccc2[nH]5)C=C4)C=C3)cc1
REMARK SMILES IDX 24 1 23 2 22 3 21 4 19 5 20 6 18 8 12 9 13 10 14 11 16 12
REMARK SMILES IDX 15 13 17 14 10 15 11 16 2 17 1 18 3 19 4 20 8 21 5 22 7 23
REMARK SMILES IDX 9 24 6 25 25 26 26 27 27 28 28 29 29 30 30 32 31 33 32 34
REMARK SMILES IDX 93 35 33 36 92 37 34 38 35 39 36 40 86 41 37 42 91 43 85 44
REMARK SMILES IDX 87 45 38 46 90 47 84 48 83 49 39 51 71 52 51 53 70 54 52 55
REMARK SMILES IDX 55 56 69 57 88 58 53 59 54 60 68 62 89 63 56 64 40 65 41 66
REMARK SMILES IDX 49 67 42 68 44 69 50 70 43 71 45 72 46 73 47 74 48 75 72 76
REMARK SMILES IDX 73 77 81 78 74 79 76 80 82 81 75 82 77 83 78 84 79 85 80 86
REMARK SMILES IDX 57 87 58 88 66 89 59 90 61 91 67 92 60 93 62 94 63 95 64 96
REMARK SMILES IDX 65 97
REMARK H PARENT 21 7 28 31 87 50 55 61
REMARK Flexibility Score: inf
ROOT
ATOM      1  C   UNL A   1      32.330  30.100  25.862  1.00  0.00     0.002 C 
ENDROOT
BRANCH   1   2
ATOM      2  C   UNL A   1      32.170  28.593  26.062  1.00  0.00     0.021 C 
BRANCH   2   3
ATOM      3  C   UNL A   1      33.415  27.730  25.873  1.00  0.00     0.116 C 
BRANCH   3   4
ATOM      4  N   UNL A   1      33.893  27.617  24.502  1.00  0.00    -0.352 N 
ATOM      5  C   UNL A   1      33.191  27.429  23.320  1.00  0.00     0.256 C 
ATOM      6  O   UNL A   1      33.818  27.541  22.268  1.00  0.00    -0.269 OA
ATOM      7  H   UNL A   1      34.870  27.684  24.398  1.00  0.00     0.163 HD
BRANCH   5   8
ATOM      8  C   UNL A   1      31.759  27.009  23.338  1.00  0.00     0.098 A 
ATOM      9  C   UNL A   1      31.361  25.702  23.701  1.00  0.00     0.053 A 
ATOM     10  C   UNL A   1      30.014  25.516  24.079  1.00  0.00     0.027 A 
ATOM     11  C   UNL A   1      29.056  26.515  23.911  1.00  0.00     0.005 A 
ATOM     12  C   UNL A   1      30.767  27.946  23.031  1.00  0.00     0.138 A 
ATOM     13  C   UNL A   1      29.427  27.714  23.322  1.00  0.00     0.040 A 
ATOM     14  F   UNL A   1      31.084  29.116  22.455  1.00  0.00    -0.206 F 
BRANCH   9  15
ATOM     15  N   UNL A   1      32.164  24.568  23.618  1.00  0.00    -0.367 N 
ATOM     16  C   UNL A   1      32.487  24.049  22.303  1.00  0.00     0.144 C 
BRANCH  15  17
ATOM     17  C   UNL A   1      32.562  23.826  24.844  1.00  0.00     0.110 C 
ATOM     18  C   UNL A   1      32.195  24.545  26.143  1.00  0.00     0.036 C 
BRANCH  17  19
ATOM     19  C   UNL A   1      33.990  23.279  24.743  1.00  0.00    -0.007 A 
ATOM     20  C   UNL A   1      35.042  24.208  24.923  1.00  0.00     0.007 A 
ATOM     21  C   UNL A   1      34.352  21.932  24.555  1.00  0.00     0.046 A 
ATOM     22  C   UNL A   1      36.380  23.809  24.978  1.00  0.00     0.000 A 
ATOM     23  C   UNL A   1      35.693  21.530  24.671  1.00  0.00     0.021 A 
ATOM     24  Cl  UNL A   1      33.239  20.670  24.166  1.00  0.00    -0.084 Cl
ATOM     25  C   UNL A   1      36.702  22.463  24.889  1.00  0.00     0.002 A 
ENDBRANCH  17  19
ENDBRANCH  15  17
ENDBRANCH   9  15
ENDBRANCH   5   8
ENDBRANCH   3   4
ENDBRANCH   2   3
ENDBRANCH   1   2
BRANCH   1  26
ATOM     26  C   UNL A   1      31.049  30.936  25.880  1.00  0.00     0.002 C 
BRANCH  26  27
ATOM     27  C   UNL A   1      31.152  32.341  26.480  1.00  0.00     0.021 C 
BRANCH  27  28
ATOM     28  C   UNL A   1      32.555  32.807  26.866  1.00  0.00     0.116 C 
BRANCH  28  29
ATOM     29  N   UNL A   1      32.554  34.074  27.582  1.00  0.00    -0.352 N 
ATOM     30  C   UNL A   1      33.373  34.511  28.594  1.00  0.00     0.251 C 
ATOM     31  H   UNL A   1      31.861  34.714  27.299  1.00  0.00     0.163 HD
ATOM     32  O   UNL A   1      33.116  35.566  29.174  1.00  0.00    -0.269 OA
BRANCH  30  33
ATOM     33  C   UNL A   1      34.548  33.712  29.007  1.00  0.00     0.039 A 
ATOM     34  C   UNL A   1      35.828  34.219  28.762  1.00  0.00     0.014 A 
ATOM     35  C   UNL A   1      34.395  32.473  29.636  1.00  0.00     0.014 A 
ATOM     36  C   UNL A   1      36.949  33.526  29.224  1.00  0.00     0.010 A 
ATOM     37  C   UNL A   1      35.511  31.816  30.153  1.00  0.00     0.010 A 
ATOM     38  C   UNL A   1      36.797  32.342  29.967  1.00  0.00    -0.014 A 
BRANCH  38  39
ATOM     39  C   UNL A   1      37.963  31.693  30.623  1.00  0.00     0.031 A 
ATOM     40  C   UNL A   1      38.758  30.632  29.915  1.00  0.00     0.074 A 
ATOM     41  C   UNL A   1      38.247  32.001  31.905  1.00  0.00     0.049 A 
ATOM     42  N   UNL A   1      39.758  29.918  30.362  1.00  0.00    -0.248 NA
ATOM     43  C   UNL A   1      38.370  30.317  28.530  1.00  0.00     0.031 C 
ATOM     44  C   UNL A   1      37.510  32.966  32.723  1.00  0.00     0.029 A 
ATOM     45  N   UNL A   1      39.213  31.518  32.754  1.00  0.00    -0.354 N 
ATOM     46  C   UNL A   1      40.105  29.055  29.330  1.00  0.00     0.074 A 
ATOM     47  C   UNL A   1      39.189  29.316  28.240  1.00  0.00     0.031 C 
ATOM     48  C   UNL A   1      38.053  33.014  33.948  1.00  0.00     0.029 A 
ATOM     49  C   UNL A   1      39.149  32.053  34.020  1.00  0.00     0.049 A 
ATOM     50  H   UNL A   1      39.886  30.854  32.482  1.00  0.00     0.167 HD
ATOM     51  C   UNL A   1      41.109  28.147  29.286  1.00  0.00     0.034 A 
ATOM     52  C   UNL A   1      39.880  31.795  35.123  1.00  0.00     0.034 A 
ATOM     53  C   UNL A   1      42.029  27.908  30.367  1.00  0.00     0.049 A 
ATOM     54  C   UNL A   1      40.998  30.793  35.044  1.00  0.00     0.074 A 
ATOM     55  C   UNL A   1      43.115  27.049  30.394  1.00  0.00     0.029 A 
ATOM     56  N   UNL A   1      41.973  28.516  31.611  1.00  0.00    -0.354 N 
ATOM     57  N   UNL A   1      41.384  30.071  34.021  1.00  0.00    -0.248 NA
ATOM     58  C   UNL A   1      41.805  30.596  36.257  1.00  0.00     0.031 C 
ATOM     59  C   UNL A   1      43.694  27.113  31.664  1.00  0.00     0.029 A 
ATOM     60  C   UNL A   1      43.000  28.048  32.414  1.00  0.00     0.049 A 
ATOM     61  H   UNL A   1      41.303  29.183  31.885  1.00  0.00     0.167 HD
ATOM     62  C   UNL A   1      42.503  29.368  34.450  1.00  0.00     0.074 A 
ATOM     63  C   UNL A   1      42.738  29.758  35.825  1.00  0.00     0.031 C 
ATOM     64  C   UNL A   1      43.262  28.479  33.765  1.00  0.00     0.034 A 
BRANCH  51  65
ATOM     65  C   UNL A   1      41.307  27.366  28.011  1.00  0.00     0.023 A 
ATOM     66  C   UNL A   1      41.880  28.000  26.890  1.00  0.00     0.012 A 
ATOM     67  C   UNL A   1      41.029  25.986  27.956  1.00  0.00     0.148 A 
ATOM     68  C   UNL A   1      42.152  27.280  25.727  1.00  0.00     0.002 A 
ATOM     69  C   UNL A   1      41.349  25.264  26.811  1.00  0.00     0.091 A 
ATOM     70  F   UNL A   1      40.467  25.404  29.025  1.00  0.00    -0.205 F 
ATOM     71  C   UNL A   1      41.900  25.911  25.694  1.00  0.00     0.022 A 
BRANCH  69  72
ATOM     72  S   UNL A   1      41.150  23.481  26.699  1.00  0.00     0.127 S 
ATOM     73  O   UNL A   1      39.732  23.365  26.362  1.00  0.00    -0.237 OA
ATOM     74  O   UNL A   1      42.066  23.139  25.611  1.00  0.00    -0.237 OA
ATOM     75  O   UNL A   1      41.524  22.951  28.002  1.00  0.00    -0.744 OA
ENDBRANCH  69  72
ENDBRANCH  51  65
BRANCH  52  76
ATOM     76  C   UNL A   1      39.614  32.560  36.374  1.00  0.00     0.023 A 
ATOM     77  C   UNL A   1      40.279  33.782  36.592  1.00  0.00     0.012 A 
ATOM     78  C   UNL A   1      38.658  32.121  37.310  1.00  0.00     0.148 A 
ATOM     79  C   UNL A   1      40.009  34.545  37.729  1.00  0.00     0.002 A 
ATOM     80  C   UNL A   1      38.351  32.915  38.409  1.00  0.00     0.091 A 
ATOM     81  F   UNL A   1      38.042  30.951  37.086  1.00  0.00    -0.205 F 
ATOM     82  C   UNL A   1      39.036  34.119  38.629  1.00  0.00     0.022 A 
BRANCH  80  83
ATOM     83  S   UNL A   1      37.012  32.520  39.541  1.00  0.00     0.127 S 
ATOM     84  O   UNL A   1      37.376  31.173  39.974  1.00  0.00    -0.237 OA
ATOM     85  O   UNL A   1      37.169  33.559  40.559  1.00  0.00    -0.237 OA
ATOM     86  O   UNL A   1      35.789  32.622  38.759  1.00  0.00    -0.744 OA
ENDBRANCH  80  83
ENDBRANCH  52  76
BRANCH  64  87
ATOM     87  C   UNL A   1      44.465  27.890  34.458  1.00  0.00     0.023 A 
ATOM     88  C   UNL A   1      45.715  28.534  34.381  1.00  0.00     0.012 A 
ATOM     89  C   UNL A   1      44.326  26.746  35.269  1.00  0.00     0.148 A 
ATOM     90  C   UNL A   1      46.814  28.034  35.078  1.00  0.00     0.002 A 
ATOM     91  C   UNL A   1      45.411  26.285  36.004  1.00  0.00     0.091 A 
ATOM     92  F   UNL A   1      43.134  26.134  35.314  1.00  0.00    -0.205 F 
ATOM     93  C   UNL A   1      46.659  26.919  35.899  1.00  0.00     0.022 A 
BRANCH  91  94
ATOM     94  S   UNL A   1      45.276  24.926  37.172  1.00  0.00     0.127 S 
ATOM     95  O   UNL A   1      45.120  23.779  36.278  1.00  0.00    -0.237 OA
ATOM     96  O   UNL A   1      46.561  24.987  37.868  1.00  0.00    -0.237 OA
ATOM     97  O   UNL A   1      44.121  25.227  38.008  1.00  0.00    -0.744 OA
ENDBRANCH  91  94
ENDBRANCH  64  87
ENDBRANCH  38  39
ENDBRANCH  30  33
ENDBRANCH  28  29
ENDBRANCH  27  28
ENDBRANCH  26  27
ENDBRANCH   1  26
TORSDOF 19
ENDMDL
