MODEL 1
REMARK VINA RESULT:     -11.0      0.000      0.000
REMARK SMILES O=C(/C=C/C(=O)Nc1ccc2[nH]ncc2c1)NCCCCCCNC(=O)c1ccc(-c2c3nc(c(-c4cccc(S(=O)(=O)[O-])c4F)c4ccc([nH]4)c(-c4cccc(S(=O)(=O)[O-])c4F)c4nc(c(-c5cccc(S(=O)(=O)[O-])c5F)c5ccc2[nH]5)C=C4)C=C3)cc1
REMARK SMILES IDX 21 1 20 2 19 3 18 4 17 5 1 6 2 7 3 9 4 10 5 11 6 12 7 13
REMARK SMILES IDX 8 15 9 16 16 17 10 18 15 19 11 20 14 21 12 22 13 23 22 25
REMARK SMILES IDX 23 26 24 27 25 28 26 30 27 31 28 32 89 33 29 34 88 35 30 36
REMARK SMILES IDX 31 37 32 38 82 39 33 40 87 41 81 42 83 43 34 44 86 45 80 46
REMARK SMILES IDX 79 47 35 49 67 50 47 51 66 52 48 53 51 54 65 55 84 56 49 57
REMARK SMILES IDX 50 58 64 60 85 61 52 62 36 63 37 64 45 65 38 66 40 67 46 68
REMARK SMILES IDX 39 69 41 70 42 71 43 72 44 73 68 74 69 75 77 76 70 77 72 78
REMARK SMILES IDX 78 79 71 80 73 81 74 82 75 83 76 84 53 85 54 86 62 87 55 88
REMARK SMILES IDX 57 89 63 90 56 91 58 92 59 93 60 94 61 95
REMARK H PARENT 17 8 7 14 12 24 24 29 83 48 51 59
REMARK Flexibility Score: inf
ROOT
ATOM      1  C   UNL A   1      33.813  28.609  24.863  1.00  0.00     0.002 C 
ENDROOT
BRANCH   1   2
ATOM      2  C   UNL A   1      33.608  27.821  23.565  1.00  0.00     0.002 C 
BRANCH   2   3
ATOM      3  C   UNL A   1      32.313  28.150  22.808  1.00  0.00     0.021 C 
BRANCH   3   4
ATOM      4  C   UNL A   1      31.586  26.918  22.265  1.00  0.00     0.116 C 
BRANCH   4   5
ATOM      5  N   UNL A   1      31.505  25.893  23.286  1.00  0.00    -0.353 N 
ATOM      6  O   UNL A   1      29.485  26.594  24.125  1.00  0.00    -0.270 OA
ATOM      7  C   UNL A   1      30.484  25.876  24.187  1.00  0.00     0.244 C 
ATOM      8  H   UNL A   1      32.200  25.198  23.329  1.00  0.00     0.163 HD
BRANCH   7   9
ATOM      9  C   UNL A   1      30.646  24.972  25.340  1.00  0.00     0.077 C 
ATOM     10  C   UNL A   1      31.741  24.256  25.636  1.00  0.00     0.077 C 
BRANCH  10  11
ATOM     11  C   UNL A   1      31.704  23.262  26.739  1.00  0.00     0.248 C 
ATOM     12  O   UNL A   1      30.738  23.247  27.498  1.00  0.00    -0.270 OA
ATOM     13  N   UNL A   1      32.712  22.338  26.863  1.00  0.00    -0.322 N 
ATOM     14  H   UNL A   1      32.538  21.602  27.493  1.00  0.00     0.170 HD
BRANCH  13  15
ATOM     15  C   UNL A   1      33.960  22.299  26.212  1.00  0.00     0.042 A 
ATOM     16  C   UNL A   1      34.339  21.226  25.395  1.00  0.00     0.028 A 
ATOM     17  C   UNL A   1      34.863  23.333  26.491  1.00  0.00     0.038 A 
ATOM     18  C   UNL A   1      35.660  21.065  24.968  1.00  0.00     0.030 A 
ATOM     19  C   UNL A   1      36.204  23.168  26.097  1.00  0.00     0.022 A 
ATOM     20  C   UNL A   1      36.572  22.036  25.378  1.00  0.00     0.065 A 
ATOM     21  C   UNL A   1      37.412  23.874  26.281  1.00  0.00     0.143 A 
ATOM     22  N   UNL A   1      37.931  22.126  25.231  1.00  0.00    -0.278 N 
ATOM     23  N   UNL A   1      38.464  23.253  25.740  1.00  0.00    -0.183 NA
ATOM     24  H   UNL A   1      38.471  21.428  24.795  1.00  0.00     0.190 HD
ENDBRANCH  13  15
ENDBRANCH  10  11
ENDBRANCH   7   9
ENDBRANCH   4   5
ENDBRANCH   3   4
ENDBRANCH   2   3
ENDBRANCH   1   2
BRANCH   1  25
ATOM     25  C   UNL A   1      33.871  27.754  26.131  1.00  0.00     0.021 C 
BRANCH  25  26
ATOM     26  C   UNL A   1      33.278  28.413  27.371  1.00  0.00     0.116 C 
BRANCH  26  27
ATOM     27  N   UNL A   1      33.368  29.864  27.318  1.00  0.00    -0.352 N 
ATOM     28  C   UNL A   1      34.377  30.689  27.747  1.00  0.00     0.251 C 
ATOM     29  H   UNL A   1      32.594  30.320  26.916  1.00  0.00     0.163 HD
ATOM     30  O   UNL A   1      34.197  31.906  27.783  1.00  0.00    -0.269 OA
BRANCH  28  31
ATOM     31  C   UNL A   1      35.669  30.119  28.182  1.00  0.00     0.039 A 
ATOM     32  C   UNL A   1      36.746  30.131  27.292  1.00  0.00     0.014 A 
ATOM     33  C   UNL A   1      35.823  29.565  29.458  1.00  0.00     0.014 A 
ATOM     34  C   UNL A   1      37.987  29.638  27.698  1.00  0.00     0.010 A 
ATOM     35  C   UNL A   1      37.079  29.144  29.886  1.00  0.00     0.010 A 
ATOM     36  C   UNL A   1      38.173  29.166  29.009  1.00  0.00    -0.014 A 
BRANCH  36  37
ATOM     37  C   UNL A   1      39.512  28.721  29.473  1.00  0.00     0.031 A 
ATOM     38  C   UNL A   1      40.221  29.438  30.589  1.00  0.00     0.074 A 
ATOM     39  C   UNL A   1      40.123  27.699  28.839  1.00  0.00     0.049 A 
ATOM     40  N   UNL A   1      41.376  29.167  31.139  1.00  0.00    -0.248 NA
ATOM     41  C   UNL A   1      39.561  30.631  31.143  1.00  0.00     0.031 C 
ATOM     42  C   UNL A   1      39.581  26.978  27.684  1.00  0.00     0.029 A 
ATOM     43  N   UNL A   1      41.335  27.098  29.066  1.00  0.00    -0.354 N 
ATOM     44  C   UNL A   1      41.600  30.171  32.074  1.00  0.00     0.074 A 
ATOM     45  C   UNL A   1      40.475  31.076  31.994  1.00  0.00     0.031 C 
ATOM     46  C   UNL A   1      40.444  26.016  27.323  1.00  0.00     0.029 A 
ATOM     47  C   UNL A   1      41.610  26.067  28.199  1.00  0.00     0.049 A 
ATOM     48  H   UNL A   1      41.949  27.379  29.781  1.00  0.00     0.167 HD
ATOM     49  C   UNL A   1      42.633  30.312  32.939  1.00  0.00     0.034 A 
ATOM     50  C   UNL A   1      42.677  25.247  28.124  1.00  0.00     0.034 A 
ATOM     51  C   UNL A   1      43.730  29.387  33.043  1.00  0.00     0.049 A 
ATOM     52  C   UNL A   1      43.786  25.397  29.128  1.00  0.00     0.074 A 
ATOM     53  C   UNL A   1      44.766  29.379  33.962  1.00  0.00     0.029 A 
ATOM     54  N   UNL A   1      43.945  28.315  32.191  1.00  0.00    -0.354 N 
ATOM     55  N   UNL A   1      43.888  26.238  30.128  1.00  0.00    -0.248 NA
ATOM     56  C   UNL A   1      44.910  24.456  29.017  1.00  0.00     0.031 C 
ATOM     57  C   UNL A   1      45.627  28.322  33.641  1.00  0.00     0.029 A 
ATOM     58  C   UNL A   1      45.109  27.652  32.545  1.00  0.00     0.049 A 
ATOM     59  H   UNL A   1      43.358  28.063  31.443  1.00  0.00     0.167 HD
ATOM     60  C   UNL A   1      45.068  25.907  30.786  1.00  0.00     0.074 A 
ATOM     61  C   UNL A   1      45.629  24.770  30.085  1.00  0.00     0.031 C 
ATOM     62  C   UNL A   1      45.641  26.498  31.864  1.00  0.00     0.034 A 
BRANCH  49  63
ATOM     63  C   UNL A   1      42.605  31.496  33.873  1.00  0.00     0.023 A 
ATOM     64  C   UNL A   1      43.135  32.734  33.452  1.00  0.00     0.012 A 
ATOM     65  C   UNL A   1      42.018  31.398  35.150  1.00  0.00     0.148 A 
ATOM     66  C   UNL A   1      43.120  33.841  34.299  1.00  0.00     0.002 A 
ATOM     67  C   UNL A   1      41.962  32.519  35.971  1.00  0.00     0.091 A 
ATOM     68  F   UNL A   1      41.538  30.210  35.545  1.00  0.00    -0.205 F 
ATOM     69  C   UNL A   1      42.525  33.737  35.554  1.00  0.00     0.022 A 
BRANCH  67  70
ATOM     70  S   UNL A   1      41.143  32.506  37.570  1.00  0.00     0.127 S 
ATOM     71  O   UNL A   1      41.123  33.929  37.903  1.00  0.00    -0.237 OA
ATOM     72  O   UNL A   1      39.835  31.936  37.243  1.00  0.00    -0.237 OA
ATOM     73  O   UNL A   1      41.966  31.671  38.434  1.00  0.00    -0.744 OA
ENDBRANCH  67  70
ENDBRANCH  49  63
BRANCH  50  74
ATOM     74  C   UNL A   1      42.702  24.152  27.114  1.00  0.00     0.023 A 
ATOM     75  C   UNL A   1      43.408  24.344  25.910  1.00  0.00     0.012 A 
ATOM     76  C   UNL A   1      42.064  22.918  27.346  1.00  0.00     0.148 A 
ATOM     77  C   UNL A   1      43.454  23.340  24.943  1.00  0.00     0.002 A 
ATOM     78  C   UNL A   1      42.158  21.903  26.402  1.00  0.00     0.091 A 
ATOM     79  F   UNL A   1      41.390  22.760  28.494  1.00  0.00    -0.205 F 
ATOM     80  C   UNL A   1      42.838  22.117  25.192  1.00  0.00     0.022 A 
BRANCH  78  81
ATOM     81  S   UNL A   1      41.510  20.253  26.690  1.00  0.00     0.127 S 
ATOM     82  O   UNL A   1      40.079  20.512  26.818  1.00  0.00    -0.237 OA
ATOM     83  O   UNL A   1      41.903  19.558  25.464  1.00  0.00    -0.237 OA
ATOM     84  O   UNL A   1      42.176  19.771  27.893  1.00  0.00    -0.744 OA
ENDBRANCH  78  81
ENDBRANCH  50  74
BRANCH  62  85
ATOM     85  C   UNL A   1      46.935  25.912  32.369  1.00  0.00     0.023 A 
ATOM     86  C   UNL A   1      48.162  26.344  31.824  1.00  0.00     0.012 A 
ATOM     87  C   UNL A   1      46.940  24.964  33.410  1.00  0.00     0.148 A 
ATOM     88  C   UNL A   1      49.367  25.808  32.275  1.00  0.00     0.002 A 
ATOM     89  C   UNL A   1      48.149  24.473  33.891  1.00  0.00     0.091 A 
ATOM     90  F   UNL A   1      45.765  24.548  33.904  1.00  0.00    -0.205 F 
ATOM     91  C   UNL A   1      49.362  24.881  33.314  1.00  0.00     0.022 A 
BRANCH  89  92
ATOM     92  S   UNL A   1      48.239  23.352  35.292  1.00  0.00     0.127 S 
ATOM     93  O   UNL A   1      49.675  23.089  35.373  1.00  0.00    -0.237 OA
ATOM     94  O   UNL A   1      47.708  24.172  36.382  1.00  0.00    -0.237 OA
ATOM     95  O   UNL A   1      47.409  22.208  34.941  1.00  0.00    -0.744 OA
ENDBRANCH  89  92
ENDBRANCH  62  85
ENDBRANCH  36  37
ENDBRANCH  28  31
ENDBRANCH  26  27
ENDBRANCH  25  26
ENDBRANCH   1  25
TORSDOF 18
ENDMDL
MODEL 2
REMARK VINA RESULT:     -11.0      4.558      9.761
REMARK SMILES O=C(/C=C/C(=O)Nc1ccc2[nH]ncc2c1)NCCCCCCNC(=O)c1ccc(-c2c3nc(c(-c4cccc(S(=O)(=O)[O-])c4F)c4ccc([nH]4)c(-c4cccc(S(=O)(=O)[O-])c4F)c4nc(c(-c5cccc(S(=O)(=O)[O-])c5F)c5ccc2[nH]5)C=C4)C=C3)cc1
REMARK SMILES IDX 21 1 20 2 19 3 18 4 17 5 1 6 2 7 3 9 4 10 5 11 6 12 7 13
REMARK SMILES IDX 8 15 9 16 16 17 10 18 15 19 11 20 14 21 12 22 13 23 22 25
REMARK SMILES IDX 23 26 24 27 25 28 26 30 27 31 28 32 89 33 29 34 88 35 30 36
REMARK SMILES IDX 31 37 32 38 82 39 33 40 87 41 81 42 83 43 34 44 86 45 80 46
REMARK SMILES IDX 79 47 35 49 67 50 47 51 66 52 48 53 51 54 65 55 84 56 49 57
REMARK SMILES IDX 50 58 64 60 85 61 52 62 36 63 37 64 45 65 38 66 40 67 46 68
REMARK SMILES IDX 39 69 41 70 42 71 43 72 44 73 68 74 69 75 77 76 70 77 72 78
REMARK SMILES IDX 78 79 71 80 73 81 74 82 75 83 76 84 53 85 54 86 62 87 55 88
REMARK SMILES IDX 57 89 63 90 56 91 58 92 59 93 60 94 61 95
REMARK H PARENT 17 8 7 14 12 24 24 29 83 48 51 59
REMARK Flexibility Score: inf
ROOT
ATOM      1  C   UNL A   1      35.081  21.989  26.428  1.00  0.00     0.002 C 
ENDROOT
BRANCH   1   2
ATOM      2  C   UNL A   1      34.057  21.995  27.568  1.00  0.00     0.002 C 
BRANCH   2   3
ATOM      3  C   UNL A   1      32.691  22.596  27.205  1.00  0.00     0.021 C 
BRANCH   3   4
ATOM      4  C   UNL A   1      32.141  22.111  25.863  1.00  0.00     0.116 C 
BRANCH   4   5
ATOM      5  N   UNL A   1      32.255  23.156  24.866  1.00  0.00    -0.353 N 
ATOM      6  O   UNL A   1      32.994  21.768  23.192  1.00  0.00    -0.270 OA
ATOM      7  C   UNL A   1      32.756  22.895  23.627  1.00  0.00     0.244 C 
ATOM      8  H   UNL A   1      31.965  24.070  25.089  1.00  0.00     0.163 HD
BRANCH   7   9
ATOM      9  C   UNL A   1      33.087  24.067  22.797  1.00  0.00     0.077 C 
ATOM     10  C   UNL A   1      32.741  25.339  23.049  1.00  0.00     0.077 C 
BRANCH  10  11
ATOM     11  C   UNL A   1      33.004  26.396  22.040  1.00  0.00     0.248 C 
ATOM     12  O   UNL A   1      33.280  26.067  20.889  1.00  0.00    -0.270 OA
ATOM     13  N   UNL A   1      32.878  27.719  22.384  1.00  0.00    -0.322 N 
ATOM     14  H   UNL A   1      32.887  28.355  21.633  1.00  0.00     0.170 HD
BRANCH  13  15
ATOM     15  C   UNL A   1      32.740  28.290  23.664  1.00  0.00     0.042 A 
ATOM     16  C   UNL A   1      31.635  29.078  24.011  1.00  0.00     0.028 A 
ATOM     17  C   UNL A   1      33.804  28.126  24.560  1.00  0.00     0.038 A 
ATOM     18  C   UNL A   1      31.626  29.850  25.176  1.00  0.00     0.030 A 
ATOM     19  C   UNL A   1      33.825  28.922  25.720  1.00  0.00     0.022 A 
ATOM     20  C   UNL A   1      32.761  29.777  25.983  1.00  0.00     0.065 A 
ATOM     21  C   UNL A   1      34.731  29.156  26.777  1.00  0.00     0.143 A 
ATOM     22  N   UNL A   1      33.119  30.465  27.112  1.00  0.00    -0.278 N 
ATOM     23  N   UNL A   1      34.297  30.081  27.637  1.00  0.00    -0.183 NA
ATOM     24  H   UNL A   1      32.564  31.179  27.503  1.00  0.00     0.190 HD
ENDBRANCH  13  15
ENDBRANCH  10  11
ENDBRANCH   7   9
ENDBRANCH   4   5
ENDBRANCH   3   4
ENDBRANCH   2   3
ENDBRANCH   1   2
BRANCH   1  25
ATOM     25  C   UNL A   1      35.666  23.360  26.084  1.00  0.00     0.021 C 
BRANCH  25  26
ATOM     26  C   UNL A   1      36.977  23.316  25.305  1.00  0.00     0.116 C 
BRANCH  26  27
ATOM     27  N   UNL A   1      37.929  22.382  25.887  1.00  0.00    -0.352 N 
ATOM     28  C   UNL A   1      39.097  22.638  26.559  1.00  0.00     0.251 C 
ATOM     29  H   UNL A   1      37.703  21.430  25.784  1.00  0.00     0.163 HD
ATOM     30  O   UNL A   1      39.866  21.713  26.821  1.00  0.00    -0.269 OA
BRANCH  28  31
ATOM     31  C   UNL A   1      39.443  24.021  26.950  1.00  0.00     0.039 A 
ATOM     32  C   UNL A   1      39.193  24.433  28.262  1.00  0.00     0.014 A 
ATOM     33  C   UNL A   1      40.003  24.915  26.031  1.00  0.00     0.014 A 
ATOM     34  C   UNL A   1      39.551  25.721  28.664  1.00  0.00     0.010 A 
ATOM     35  C   UNL A   1      40.429  26.171  26.454  1.00  0.00     0.010 A 
ATOM     36  C   UNL A   1      40.200  26.592  27.772  1.00  0.00    -0.014 A 
BRANCH  36  37
ATOM     37  C   UNL A   1      40.662  27.931  28.219  1.00  0.00     0.031 A 
ATOM     38  C   UNL A   1      42.121  28.296  28.186  1.00  0.00     0.074 A 
ATOM     39  C   UNL A   1      39.764  28.804  28.720  1.00  0.00     0.049 A 
ATOM     40  N   UNL A   1      42.694  29.426  28.509  1.00  0.00    -0.248 NA
ATOM     41  C   UNL A   1      43.063  27.248  27.761  1.00  0.00     0.031 C 
ATOM     42  C   UNL A   1      38.333  28.539  28.890  1.00  0.00     0.029 A 
ATOM     43  N   UNL A   1      39.922  30.083  29.190  1.00  0.00    -0.354 N 
ATOM     44  C   UNL A   1      44.061  29.218  28.363  1.00  0.00     0.074 A 
ATOM     45  C   UNL A   1      44.233  27.841  27.954  1.00  0.00     0.031 C 
ATOM     46  C   UNL A   1      37.742  29.631  29.398  1.00  0.00     0.029 A 
ATOM     47  C   UNL A   1      38.750  30.663  29.616  1.00  0.00     0.049 A 
ATOM     48  H   UNL A   1      40.792  30.543  29.218  1.00  0.00     0.167 HD
ATOM     49  C   UNL A   1      45.078  30.097  28.528  1.00  0.00     0.034 A 
ATOM     50  C   UNL A   1      38.512  31.890  30.118  1.00  0.00     0.034 A 
ATOM     51  C   UNL A   1      44.899  31.477  28.897  1.00  0.00     0.049 A 
ATOM     52  C   UNL A   1      39.653  32.862  30.244  1.00  0.00     0.074 A 
ATOM     53  C   UNL A   1      45.853  32.477  28.980  1.00  0.00     0.029 A 
ATOM     54  N   UNL A   1      43.689  32.049  29.261  1.00  0.00    -0.354 N 
ATOM     55  N   UNL A   1      40.913  32.705  29.920  1.00  0.00    -0.248 NA
ATOM     56  C   UNL A   1      39.329  34.196  30.769  1.00  0.00     0.031 C 
ATOM     57  C   UNL A   1      45.224  33.645  29.430  1.00  0.00     0.029 A 
ATOM     58  C   UNL A   1      43.874  33.381  29.593  1.00  0.00     0.049 A 
ATOM     59  H   UNL A   1      42.826  31.577  29.281  1.00  0.00     0.167 HD
ATOM     60  C   UNL A   1      41.527  33.928  30.169  1.00  0.00     0.074 A 
ATOM     61  C   UNL A   1      40.491  34.822  30.645  1.00  0.00     0.031 C 
ATOM     62  C   UNL A   1      42.830  34.275  30.029  1.00  0.00     0.034 A 
BRANCH  49  63
ATOM     63  C   UNL A   1      46.479  29.602  28.273  1.00  0.00     0.023 A 
ATOM     64  C   UNL A   1      47.023  29.676  26.973  1.00  0.00     0.012 A 
ATOM     65  C   UNL A   1      47.274  29.103  29.324  1.00  0.00     0.148 A 
ATOM     66  C   UNL A   1      48.316  29.223  26.715  1.00  0.00     0.002 A 
ATOM     67  C   UNL A   1      48.580  28.698  29.068  1.00  0.00     0.091 A 
ATOM     68  F   UNL A   1      46.736  29.018  30.549  1.00  0.00    -0.205 F 
ATOM     69  C   UNL A   1      49.098  28.744  27.764  1.00  0.00     0.022 A 
BRANCH  67  70
ATOM     70  S   UNL A   1      49.691  28.145  30.367  1.00  0.00     0.127 S 
ATOM     71  O   UNL A   1      50.880  27.777  29.601  1.00  0.00    -0.237 OA
ATOM     72  O   UNL A   1      49.840  29.352  31.182  1.00  0.00    -0.237 OA
ATOM     73  O   UNL A   1      49.009  27.045  31.035  1.00  0.00    -0.744 OA
ENDBRANCH  67  70
ENDBRANCH  49  63
BRANCH  50  74
ATOM     74  C   UNL A   1      37.119  32.299  30.451  1.00  0.00     0.023 A 
ATOM     75  C   UNL A   1      36.633  32.082  31.756  1.00  0.00     0.012 A 
ATOM     76  C   UNL A   1      36.286  32.924  29.504  1.00  0.00     0.148 A 
ATOM     77  C   UNL A   1      35.334  32.453  32.104  1.00  0.00     0.002 A 
ATOM     78  C   UNL A   1      35.012  33.340  29.872  1.00  0.00     0.091 A 
ATOM     79  F   UNL A   1      36.764  33.113  28.266  1.00  0.00    -0.205 F 
ATOM     80  C   UNL A   1      34.527  33.091  31.166  1.00  0.00     0.022 A 
BRANCH  78  81
ATOM     81  S   UNL A   1      33.949  34.284  28.773  1.00  0.00     0.127 S 
ATOM     82  O   UNL A   1      34.849  35.343  28.324  1.00  0.00    -0.237 OA
ATOM     83  O   UNL A   1      33.611  33.289  27.755  1.00  0.00    -0.237 OA
ATOM     84  O   UNL A   1      32.822  34.716  29.588  1.00  0.00    -0.744 OA
ENDBRANCH  78  81
ENDBRANCH  50  74
BRANCH  62  85
ATOM     85  C   UNL A   1      43.211  35.692  30.373  1.00  0.00     0.023 A 
ATOM     86  C   UNL A   1      43.714  35.993  31.656  1.00  0.00     0.012 A 
ATOM     87  C   UNL A   1      43.108  36.720  29.416  1.00  0.00     0.148 A 
ATOM     88  C   UNL A   1      44.064  37.300  31.994  1.00  0.00     0.002 A 
ATOM     89  C   UNL A   1      43.510  38.011  29.743  1.00  0.00     0.091 A 
ATOM     90  F   UNL A   1      42.609  36.422  28.207  1.00  0.00    -0.205 F 
ATOM     91  C   UNL A   1      43.972  38.306  31.035  1.00  0.00     0.022 A 
BRANCH  89  92
ATOM     92  S   UNL A   1      43.518  39.345  28.539  1.00  0.00     0.127 S 
ATOM     93  O   UNL A   1      42.100  39.448  28.198  1.00  0.00    -0.237 OA
ATOM     94  O   UNL A   1      44.039  40.467  29.321  1.00  0.00    -0.237 OA
ATOM     95  O   UNL A   1      44.393  38.904  27.462  1.00  0.00    -0.744 OA
ENDBRANCH  89  92
ENDBRANCH  62  85
ENDBRANCH  36  37
ENDBRANCH  28  31
ENDBRANCH  26  27
ENDBRANCH  25  26
ENDBRANCH   1  25
TORSDOF 18
ENDMDL
MODEL 3
REMARK VINA RESULT:     -10.9      5.473      8.537
REMARK SMILES O=C(/C=C/C(=O)Nc1ccc2[nH]ncc2c1)NCCCCCCNC(=O)c1ccc(-c2c3nc(c(-c4cccc(S(=O)(=O)[O-])c4F)c4ccc([nH]4)c(-c4cccc(S(=O)(=O)[O-])c4F)c4nc(c(-c5cccc(S(=O)(=O)[O-])c5F)c5ccc2[nH]5)C=C4)C=C3)cc1
REMARK SMILES IDX 21 1 20 2 19 3 18 4 17 5 1 6 2 7 3 9 4 10 5 11 6 12 7 13
REMARK SMILES IDX 8 15 9 16 16 17 10 18 15 19 11 20 14 21 12 22 13 23 22 25
REMARK SMILES IDX 23 26 24 27 25 28 26 30 27 31 28 32 89 33 29 34 88 35 30 36
REMARK SMILES IDX 31 37 32 38 82 39 33 40 87 41 81 42 83 43 34 44 86 45 80 46
REMARK SMILES IDX 79 47 35 49 67 50 47 51 66 52 48 53 51 54 65 55 84 56 49 57
REMARK SMILES IDX 50 58 64 60 85 61 52 62 36 63 37 64 45 65 38 66 40 67 46 68
REMARK SMILES IDX 39 69 41 70 42 71 43 72 44 73 68 74 69 75 77 76 70 77 72 78
REMARK SMILES IDX 78 79 71 80 73 81 74 82 75 83 76 84 53 85 54 86 62 87 55 88
REMARK SMILES IDX 57 89 63 90 56 91 58 92 59 93 60 94 61 95
REMARK H PARENT 17 8 7 14 12 24 24 29 83 48 51 59
REMARK Flexibility Score: inf
ROOT
ATOM      1  C   UNL A   1      36.743  20.756  25.015  1.00  0.00     0.002 C 
ENDROOT
BRANCH   1   2
ATOM      2  C   UNL A   1      36.893  22.265  25.230  1.00  0.00     0.002 C 
BRANCH   2   3
ATOM      3  C   UNL A   1      36.785  23.113  23.954  1.00  0.00     0.021 C 
BRANCH   3   4
ATOM      4  C   UNL A   1      35.454  22.953  23.218  1.00  0.00     0.116 C 
BRANCH   4   5
ATOM      5  N   UNL A   1      34.349  23.251  24.107  1.00  0.00    -0.353 N 
ATOM      6  O   UNL A   1      33.246  21.270  23.741  1.00  0.00    -0.270 OA
ATOM      7  C   UNL A   1      33.292  22.401  24.225  1.00  0.00     0.244 C 
ATOM      8  H   UNL A   1      34.364  24.082  24.634  1.00  0.00     0.163 HD
BRANCH   7   9
ATOM      9  C   UNL A   1      32.108  22.927  24.930  1.00  0.00     0.077 C 
ATOM     10  C   UNL A   1      32.119  23.722  26.011  1.00  0.00     0.077 C 
BRANCH  10  11
ATOM     11  C   UNL A   1      30.850  24.041  26.714  1.00  0.00     0.248 C 
ATOM     12  O   UNL A   1      30.301  23.167  27.380  1.00  0.00    -0.270 OA
ATOM     13  N   UNL A   1      30.340  25.314  26.662  1.00  0.00    -0.322 N 
ATOM     14  H   UNL A   1      29.606  25.502  27.290  1.00  0.00     0.170 HD
BRANCH  13  15
ATOM     15  C   UNL A   1      30.721  26.386  25.834  1.00  0.00     0.042 A 
ATOM     16  C   UNL A   1      31.612  27.378  26.264  1.00  0.00     0.028 A 
ATOM     17  C   UNL A   1      30.097  26.487  24.583  1.00  0.00     0.038 A 
ATOM     18  C   UNL A   1      31.783  28.567  25.548  1.00  0.00     0.030 A 
ATOM     19  C   UNL A   1      30.232  27.690  23.868  1.00  0.00     0.022 A 
ATOM     20  C   UNL A   1      31.040  28.701  24.375  1.00  0.00     0.065 A 
ATOM     21  C   UNL A   1      29.692  28.236  22.683  1.00  0.00     0.143 A 
ATOM     22  N   UNL A   1      30.891  29.754  23.511  1.00  0.00    -0.278 N 
ATOM     23  N   UNL A   1      30.105  29.485  22.451  1.00  0.00    -0.183 NA
ATOM     24  H   UNL A   1      31.320  30.629  23.652  1.00  0.00     0.190 HD
ENDBRANCH  13  15
ENDBRANCH  10  11
ENDBRANCH   7   9
ENDBRANCH   4   5
ENDBRANCH   3   4
ENDBRANCH   2   3
ENDBRANCH   1   2
BRANCH   1  25
ATOM     25  C   UNL A   1      38.060  19.997  24.845  1.00  0.00     0.021 C 
BRANCH  25  26
ATOM     26  C   UNL A   1      39.148  20.379  25.844  1.00  0.00     0.116 C 
BRANCH  26  27
ATOM     27  N   UNL A   1      40.154  19.337  25.985  1.00  0.00    -0.352 N 
ATOM     28  C   UNL A   1      41.509  19.456  26.156  1.00  0.00     0.251 C 
ATOM     29  H   UNL A   1      39.812  18.414  25.955  1.00  0.00     0.163 HD
ATOM     30  O   UNL A   1      42.224  18.457  26.075  1.00  0.00    -0.269 OA
BRANCH  28  31
ATOM     31  C   UNL A   1      42.114  20.779  26.417  1.00  0.00     0.039 A 
ATOM     32  C   UNL A   1      42.423  21.605  25.333  1.00  0.00     0.014 A 
ATOM     33  C   UNL A   1      42.385  21.207  27.721  1.00  0.00     0.014 A 
ATOM     34  C   UNL A   1      42.954  22.876  25.559  1.00  0.00     0.010 A 
ATOM     35  C   UNL A   1      42.843  22.502  27.947  1.00  0.00     0.010 A 
ATOM     36  C   UNL A   1      43.141  23.348  26.869  1.00  0.00    -0.014 A 
BRANCH  36  37
ATOM     37  C   UNL A   1      43.624  24.731  27.117  1.00  0.00     0.031 A 
ATOM     38  C   UNL A   1      42.699  25.788  27.656  1.00  0.00     0.074 A 
ATOM     39  C   UNL A   1      44.893  25.053  26.792  1.00  0.00     0.049 A 
ATOM     40  N   UNL A   1      42.959  27.033  27.958  1.00  0.00    -0.248 NA
ATOM     41  C   UNL A   1      41.291  25.406  27.855  1.00  0.00     0.031 C 
ATOM     42  C   UNL A   1      45.864  24.144  26.178  1.00  0.00     0.029 A 
ATOM     43  N   UNL A   1      45.579  26.235  26.920  1.00  0.00    -0.354 N 
ATOM     44  C   UNL A   1      41.748  27.593  28.348  1.00  0.00     0.074 A 
ATOM     45  C   UNL A   1      40.745  26.560  28.211  1.00  0.00     0.031 C 
ATOM     46  C   UNL A   1      47.027  24.793  26.010  1.00  0.00     0.029 A 
ATOM     47  C   UNL A   1      46.879  26.168  26.477  1.00  0.00     0.049 A 
ATOM     48  H   UNL A   1      45.178  27.052  27.293  1.00  0.00     0.167 HD
ATOM     49  C   UNL A   1      41.497  28.844  28.803  1.00  0.00     0.034 A 
ATOM     50  C   UNL A   1      47.846  27.105  26.456  1.00  0.00     0.034 A 
ATOM     51  C   UNL A   1      42.505  29.857  28.975  1.00  0.00     0.049 A 
ATOM     52  C   UNL A   1      47.553  28.471  27.013  1.00  0.00     0.074 A 
ATOM     53  C   UNL A   1      42.373  31.117  29.534  1.00  0.00     0.029 A 
ATOM     54  N   UNL A   1      43.827  29.735  28.575  1.00  0.00    -0.354 N 
ATOM     55  N   UNL A   1      46.448  28.924  27.553  1.00  0.00    -0.248 NA
ATOM     56  C   UNL A   1      48.654  29.443  26.993  1.00  0.00     0.031 C 
ATOM     57  C   UNL A   1      43.609  31.769  29.438  1.00  0.00     0.029 A 
ATOM     58  C   UNL A   1      44.518  30.903  28.852  1.00  0.00     0.049 A 
ATOM     59  H   UNL A   1      44.217  28.935  28.154  1.00  0.00     0.167 HD
ATOM     60  C   UNL A   1      46.730  30.221  27.969  1.00  0.00     0.074 A 
ATOM     61  C   UNL A   1      48.119  30.468  27.640  1.00  0.00     0.031 C 
ATOM     62  C   UNL A   1      45.910  31.128  28.556  1.00  0.00     0.034 A 
BRANCH  49  63
ATOM     63  C   UNL A   1      40.077  29.177  29.185  1.00  0.00     0.023 A 
ATOM     64  C   UNL A   1      39.137  29.499  28.183  1.00  0.00     0.012 A 
ATOM     65  C   UNL A   1      39.659  29.130  30.530  1.00  0.00     0.148 A 
ATOM     66  C   UNL A   1      37.820  29.810  28.515  1.00  0.00     0.002 A 
ATOM     67  C   UNL A   1      38.331  29.394  30.848  1.00  0.00     0.091 A 
ATOM     68  F   UNL A   1      40.567  28.844  31.474  1.00  0.00    -0.205 F 
ATOM     69  C   UNL A   1      37.414  29.747  29.845  1.00  0.00     0.022 A 
BRANCH  67  70
ATOM     70  S   UNL A   1      37.694  29.258  32.523  1.00  0.00     0.127 S 
ATOM     71  O   UNL A   1      37.742  27.813  32.740  1.00  0.00    -0.237 OA
ATOM     72  O   UNL A   1      38.677  30.023  33.291  1.00  0.00    -0.237 OA
ATOM     73  O   UNL A   1      36.362  29.845  32.493  1.00  0.00    -0.744 OA
ENDBRANCH  67  70
ENDBRANCH  49  63
BRANCH  50  74
ATOM     74  C   UNL A   1      49.211  26.753  25.973  1.00  0.00     0.023 A 
ATOM     75  C   UNL A   1      50.040  25.950  26.781  1.00  0.00     0.012 A 
ATOM     76  C   UNL A   1      49.682  27.177  24.715  1.00  0.00     0.148 A 
ATOM     77  C   UNL A   1      51.323  25.601  26.360  1.00  0.00     0.002 A 
ATOM     78  C   UNL A   1      50.940  26.781  24.279  1.00  0.00     0.091 A 
ATOM     79  F   UNL A   1      48.881  27.949  23.966  1.00  0.00    -0.205 F 
ATOM     80  C   UNL A   1      51.769  26.007  25.106  1.00  0.00     0.022 A 
BRANCH  78  81
ATOM     81  S   UNL A   1      51.549  27.146  22.628  1.00  0.00     0.127 S 
ATOM     82  O   UNL A   1      51.779  28.586  22.706  1.00  0.00    -0.237 OA
ATOM     83  O   UNL A   1      52.762  26.330  22.569  1.00  0.00    -0.237 OA
ATOM     84  O   UNL A   1      50.495  26.722  21.716  1.00  0.00    -0.744 OA
ENDBRANCH  78  81
ENDBRANCH  50  74
BRANCH  62  85
ATOM     85  C   UNL A   1      46.500  32.471  28.905  1.00  0.00     0.023 A 
ATOM     86  C   UNL A   1      47.133  32.658  30.151  1.00  0.00     0.012 A 
ATOM     87  C   UNL A   1      46.463  33.536  27.985  1.00  0.00     0.148 A 
ATOM     88  C   UNL A   1      47.678  33.895  30.493  1.00  0.00     0.002 A 
ATOM     89  C   UNL A   1      47.055  34.752  28.311  1.00  0.00     0.091 A 
ATOM     90  F   UNL A   1      45.840  33.350  26.812  1.00  0.00    -0.205 F 
ATOM     91  C   UNL A   1      47.648  34.938  29.570  1.00  0.00     0.022 A 
BRANCH  89  92
ATOM     92  S   UNL A   1      47.150  36.115  27.145  1.00  0.00     0.127 S 
ATOM     93  O   UNL A   1      45.742  36.486  27.005  1.00  0.00    -0.237 OA
ATOM     94  O   UNL A   1      47.966  37.089  27.870  1.00  0.00    -0.237 OA
ATOM     95  O   UNL A   1      47.780  35.574  25.950  1.00  0.00    -0.744 OA
ENDBRANCH  89  92
ENDBRANCH  62  85
ENDBRANCH  36  37
ENDBRANCH  28  31
ENDBRANCH  26  27
ENDBRANCH  25  26
ENDBRANCH   1  25
TORSDOF 18
ENDMDL
