MODEL 1
REMARK VINA RESULT:     -11.4      0.000      0.000
REMARK SMILES CC[C@](C)([NH3+])C(=O)N1CC[NH+]([C@H](C)C(=O)NCCCCCCNC(=O)c2ccc(-c3c4nc(c(-c5cccc(S(=O)(=O)[O-])c5F)c5ccc([nH]5)c(-c5cccc(S(=O)(=O)[O-])c5F)c5nc(c(-c6cccc(S(=O)(=O)[O-])c6F)c6ccc3[nH]6)C=C5)C=C4)cc2)CC1
REMARK SMILES IDX 19 1 18 2 17 3 16 4 14 5 15 6 12 8 13 9 11 10 6 11 7 12 8 13
REMARK SMILES IDX 9 14 90 15 10 16 89 17 3 19 4 20 2 21 1 22 5 23 20 27 21 28
REMARK SMILES IDX 22 29 23 30 24 31 25 33 26 34 27 35 88 36 28 37 87 38 29 39
REMARK SMILES IDX 30 40 31 41 81 42 32 43 86 44 80 45 82 46 33 47 85 48 79 49
REMARK SMILES IDX 78 50 34 52 66 53 46 54 65 55 47 56 50 57 64 58 83 59 48 60
REMARK SMILES IDX 49 61 63 63 84 64 51 65 35 66 36 67 44 68 37 69 39 70 45 71
REMARK SMILES IDX 38 72 40 73 41 74 42 75 43 76 67 77 68 78 76 79 69 80 71 81
REMARK SMILES IDX 77 82 70 83 72 84 73 85 74 86 75 87 52 88 53 89 61 90 54 91
REMARK SMILES IDX 56 92 62 93 55 94 57 95 58 96 59 97 60 98
REMARK H PARENT 16 7 11 18 5 24 5 25 5 26 23 32 82 51 50 62
REMARK Flexibility Score: inf
ROOT
ATOM      1  C   UNL A   1      32.520  29.797  26.960  1.00  0.00     0.002 C 
ENDROOT
BRANCH   1   2
ATOM      2  C   UNL A   1      32.095  28.334  26.824  1.00  0.00     0.021 C 
BRANCH   2   3
ATOM      3  C   UNL A   1      33.206  27.383  26.407  1.00  0.00     0.116 C 
BRANCH   3   4
ATOM      4  N   UNL A   1      33.261  27.135  24.981  1.00  0.00    -0.351 N 
ATOM      5  C   UNL A   1      32.666  26.156  24.233  1.00  0.00     0.278 C 
ATOM      6  O   UNL A   1      32.719  26.286  23.005  1.00  0.00    -0.268 OA
ATOM      7  H   UNL A   1      33.813  27.771  24.470  1.00  0.00     0.163 HD
BRANCH   5   8
ATOM      8  C   UNL A   1      31.978  24.919  24.870  1.00  0.00     0.271 C 
ATOM      9  C   UNL A   1      30.979  24.236  23.926  1.00  0.00     0.086 C 
BRANCH   8  10
ATOM     10  N   UNL A   1      32.908  24.049  25.652  1.00  0.00    -0.322 N 
ATOM     11  C   UNL A   1      34.469  20.295  25.418  1.00  0.00     0.283 C 
ATOM     12  O   UNL A   1      35.530  20.179  24.787  1.00  0.00    -0.268 OA
ATOM     13  N   UNL A   1      34.225  21.492  26.079  1.00  0.00    -0.326 N 
ATOM     14  C   UNL A   1      35.029  22.651  25.707  1.00  0.00     0.181 C 
ATOM     15  C   UNL A   1      33.135  21.882  26.969  1.00  0.00     0.181 C 
ATOM     16  C   UNL A   1      34.123  23.623  24.928  1.00  0.00     0.284 C 
ATOM     17  C   UNL A   1      32.205  22.900  26.275  1.00  0.00     0.284 C 
ATOM     18  H   UNL A   1      33.252  24.653  26.398  1.00  0.00     0.348 HD
BRANCH  11  19
ATOM     19  C   UNL A   1      33.373  19.181  25.236  1.00  0.00     0.171 C 
ATOM     20  C   UNL A   1      33.968  18.054  24.363  1.00  0.00     0.090 C 
BRANCH  19  21
ATOM     21  C   UNL A   1      32.180  19.845  24.496  1.00  0.00     0.075 C 
ATOM     22  C   UNL A   1      32.399  20.164  23.021  1.00  0.00     0.011 C 
ENDBRANCH  19  21
BRANCH  19  23
ATOM     23  N   UNL A   1      32.954  18.564  26.515  1.00  0.00    -0.345 N 
ATOM     24  H   UNL A   1      33.427  17.668  26.631  1.00  0.00     0.345 HD
ATOM     25  H   UNL A   1      31.944  18.417  26.507  1.00  0.00     0.345 HD
ATOM     26  H   UNL A   1      33.201  19.181  27.289  1.00  0.00     0.345 HD
ENDBRANCH  19  23
ENDBRANCH  11  19
ENDBRANCH   8  10
ENDBRANCH   5   8
ENDBRANCH   3   4
ENDBRANCH   2   3
ENDBRANCH   1   2
BRANCH   1  27
ATOM     27  C   UNL A   1      31.665  30.821  26.205  1.00  0.00     0.002 C 
BRANCH  27  28
ATOM     28  C   UNL A   1      31.449  32.168  26.902  1.00  0.00     0.021 C 
BRANCH  28  29
ATOM     29  C   UNL A   1      32.710  32.862  27.400  1.00  0.00     0.116 C 
BRANCH  29  30
ATOM     30  N   UNL A   1      32.480  34.249  27.761  1.00  0.00    -0.352 N 
ATOM     31  C   UNL A   1      33.090  35.011  28.726  1.00  0.00     0.251 C 
ATOM     32  H   UNL A   1      31.786  34.711  27.238  1.00  0.00     0.163 HD
ATOM     33  O   UNL A   1      32.657  36.129  28.986  1.00  0.00    -0.269 OA
BRANCH  31  34
ATOM     34  C   UNL A   1      34.254  34.475  29.465  1.00  0.00     0.039 A 
ATOM     35  C   UNL A   1      34.040  33.872  30.707  1.00  0.00     0.014 A 
ATOM     36  C   UNL A   1      35.548  34.569  28.946  1.00  0.00     0.014 A 
ATOM     37  C   UNL A   1      35.115  33.318  31.403  1.00  0.00     0.010 A 
ATOM     38  C   UNL A   1      36.606  33.948  29.604  1.00  0.00     0.010 A 
ATOM     39  C   UNL A   1      36.404  33.325  30.844  1.00  0.00    -0.014 A 
BRANCH  39  40
ATOM     40  C   UNL A   1      37.545  32.677  31.542  1.00  0.00     0.031 A 
ATOM     41  C   UNL A   1      38.265  31.516  30.911  1.00  0.00     0.074 A 
ATOM     42  C   UNL A   1      37.888  33.089  32.779  1.00  0.00     0.049 A 
ATOM     43  N   UNL A   1      39.256  30.805  31.383  1.00  0.00    -0.248 NA
ATOM     44  C   UNL A   1      37.795  31.077  29.586  1.00  0.00     0.031 C 
ATOM     45  C   UNL A   1      37.216  34.151  33.532  1.00  0.00     0.029 A 
ATOM     46  N   UNL A   1      38.868  32.649  33.632  1.00  0.00    -0.354 N 
ATOM     47  C   UNL A   1      39.504  29.819  30.436  1.00  0.00     0.074 A 
ATOM     48  C   UNL A   1      38.537  30.001  29.376  1.00  0.00     0.031 C 
ATOM     49  C   UNL A   1      37.808  34.284  34.730  1.00  0.00     0.029 A 
ATOM     50  C   UNL A   1      38.877  33.297  34.844  1.00  0.00     0.049 A 
ATOM     51  H   UNL A   1      39.506  31.936  33.397  1.00  0.00     0.167 HD
ATOM     52  C   UNL A   1      40.465  28.865  30.436  1.00  0.00     0.034 A 
ATOM     53  C   UNL A   1      39.650  33.111  35.932  1.00  0.00     0.034 A 
ATOM     54  C   UNL A   1      41.447  28.709  31.475  1.00  0.00     0.049 A 
ATOM     55  C   UNL A   1      40.730  32.065  35.892  1.00  0.00     0.074 A 
ATOM     56  C   UNL A   1      42.517  27.834  31.523  1.00  0.00     0.029 A 
ATOM     57  N   UNL A   1      41.473  29.436  32.655  1.00  0.00    -0.354 N 
ATOM     58  N   UNL A   1      41.052  31.248  34.918  1.00  0.00    -0.248 NA
ATOM     59  C   UNL A   1      41.580  31.940  37.085  1.00  0.00     0.031 C 
ATOM     60  C   UNL A   1      43.167  28.005  32.749  1.00  0.00     0.029 A 
ATOM     61  C   UNL A   1      42.530  29.018  33.446  1.00  0.00     0.049 A 
ATOM     62  H   UNL A   1      40.834  30.146  32.896  1.00  0.00     0.167 HD
ATOM     63  C   UNL A   1      42.162  30.539  35.366  1.00  0.00     0.074 A 
ATOM     64  C   UNL A   1      42.470  31.040  36.689  1.00  0.00     0.031 C 
ATOM     65  C   UNL A   1      42.856  29.556  34.742  1.00  0.00     0.034 A 
BRANCH  52  66
ATOM     66  C   UNL A   1      40.529  27.933  29.253  1.00  0.00     0.023 A 
ATOM     67  C   UNL A   1      39.643  26.839  29.173  1.00  0.00     0.012 A 
ATOM     68  C   UNL A   1      41.424  28.174  28.190  1.00  0.00     0.148 A 
ATOM     69  C   UNL A   1      39.669  25.980  28.075  1.00  0.00     0.002 A 
ATOM     70  C   UNL A   1      41.410  27.342  27.076  1.00  0.00     0.091 A 
ATOM     71  F   UNL A   1      42.272  29.207  28.291  1.00  0.00    -0.205 F 
ATOM     72  C   UNL A   1      40.544  26.237  27.024  1.00  0.00     0.022 A 
BRANCH  70  73
ATOM     73  S   UNL A   1      42.439  27.637  25.634  1.00  0.00     0.127 S 
ATOM     74  O   UNL A   1      43.777  27.642  26.224  1.00  0.00    -0.237 OA
ATOM     75  O   UNL A   1      42.144  26.468  24.804  1.00  0.00    -0.237 OA
ATOM     76  O   UNL A   1      41.998  28.907  25.077  1.00  0.00    -0.744 OA
ENDBRANCH  70  73
ENDBRANCH  52  66
BRANCH  53  77
ATOM     77  C   UNL A   1      39.463  33.968  37.137  1.00  0.00     0.023 A 
ATOM     78  C   UNL A   1      39.890  35.309  37.110  1.00  0.00     0.012 A 
ATOM     79  C   UNL A   1      38.851  33.464  38.301  1.00  0.00     0.148 A 
ATOM     80  C   UNL A   1      39.744  36.125  38.233  1.00  0.00     0.002 A 
ATOM     81  C   UNL A   1      38.658  34.298  39.396  1.00  0.00     0.091 A 
ATOM     82  F   UNL A   1      38.461  32.182  38.309  1.00  0.00    -0.205 F 
ATOM     83  C   UNL A   1      39.121  35.623  39.372  1.00  0.00     0.022 A 
BRANCH  81  84
ATOM     84  S   UNL A   1      37.756  33.777  40.858  1.00  0.00     0.127 S 
ATOM     85  O   UNL A   1      38.703  32.853  41.480  1.00  0.00    -0.237 OA
ATOM     86  O   UNL A   1      37.575  35.044  41.566  1.00  0.00    -0.237 OA
ATOM     87  O   UNL A   1      36.523  33.178  40.365  1.00  0.00    -0.744 OA
ENDBRANCH  81  84
ENDBRANCH  53  77
BRANCH  65  88
ATOM     88  C   UNL A   1      44.049  28.979  35.459  1.00  0.00     0.023 A 
ATOM     89  C   UNL A   1      45.323  29.559  35.290  1.00  0.00     0.012 A 
ATOM     90  C   UNL A   1      43.893  27.903  36.354  1.00  0.00     0.148 A 
ATOM     91  C   UNL A   1      46.428  29.050  35.972  1.00  0.00     0.002 A 
ATOM     92  C   UNL A   1      44.988  27.437  37.070  1.00  0.00     0.091 A 
ATOM     93  F   UNL A   1      42.676  27.353  36.488  1.00  0.00    -0.205 F 
ATOM     94  C   UNL A   1      46.259  27.999  36.871  1.00  0.00     0.022 A 
BRANCH  92  95
ATOM     95  S   UNL A   1      44.846  26.156  38.323  1.00  0.00     0.127 S 
ATOM     96  O   UNL A   1      43.968  25.191  37.663  1.00  0.00    -0.237 OA
ATOM     97  O   UNL A   1      46.234  25.717  38.473  1.00  0.00    -0.237 OA
ATOM     98  O   UNL A   1      44.286  26.805  39.501  1.00  0.00    -0.744 OA
ENDBRANCH  92  95
ENDBRANCH  65  88
ENDBRANCH  39  40
ENDBRANCH  31  34
ENDBRANCH  29  30
ENDBRANCH  28  29
ENDBRANCH  27  28
ENDBRANCH   1  27
TORSDOF 20
ENDMDL
MODEL 2
REMARK VINA RESULT:     -11.3      0.851      1.457
REMARK SMILES CC[C@](C)([NH3+])C(=O)N1CC[NH+]([C@H](C)C(=O)NCCCCCCNC(=O)c2ccc(-c3c4nc(c(-c5cccc(S(=O)(=O)[O-])c5F)c5ccc([nH]5)c(-c5cccc(S(=O)(=O)[O-])c5F)c5nc(c(-c6cccc(S(=O)(=O)[O-])c6F)c6ccc3[nH]6)C=C5)C=C4)cc2)CC1
REMARK SMILES IDX 19 1 18 2 17 3 16 4 14 5 15 6 12 8 13 9 11 10 6 11 7 12 8 13
REMARK SMILES IDX 9 14 90 15 10 16 89 17 3 19 4 20 2 21 1 22 5 23 20 27 21 28
REMARK SMILES IDX 22 29 23 30 24 31 25 33 26 34 27 35 88 36 28 37 87 38 29 39
REMARK SMILES IDX 30 40 31 41 81 42 32 43 86 44 80 45 82 46 33 47 85 48 79 49
REMARK SMILES IDX 78 50 34 52 66 53 46 54 65 55 47 56 50 57 64 58 83 59 48 60
REMARK SMILES IDX 49 61 63 63 84 64 51 65 35 66 36 67 44 68 37 69 39 70 45 71
REMARK SMILES IDX 38 72 40 73 41 74 42 75 43 76 67 77 68 78 76 79 69 80 71 81
REMARK SMILES IDX 77 82 70 83 72 84 73 85 74 86 75 87 52 88 53 89 61 90 54 91
REMARK SMILES IDX 56 92 62 93 55 94 57 95 58 96 59 97 60 98
REMARK H PARENT 16 7 11 18 5 24 5 25 5 26 23 32 82 51 50 62
REMARK Flexibility Score: inf
ROOT
ATOM      1  C   UNL A   1      32.256  29.914  27.283  1.00  0.00     0.002 C 
ENDROOT
BRANCH   1   2
ATOM      2  C   UNL A   1      32.876  28.602  26.799  1.00  0.00     0.021 C 
BRANCH   2   3
ATOM      3  C   UNL A   1      34.122  28.762  25.943  1.00  0.00     0.116 C 
BRANCH   3   4
ATOM      4  N   UNL A   1      33.856  28.794  24.520  1.00  0.00    -0.351 N 
ATOM      5  C   UNL A   1      33.127  27.938  23.741  1.00  0.00     0.278 C 
ATOM      6  O   UNL A   1      32.895  28.303  22.582  1.00  0.00    -0.268 OA
ATOM      7  H   UNL A   1      34.262  29.551  24.038  1.00  0.00     0.163 HD
BRANCH   5   8
ATOM      8  C   UNL A   1      32.628  26.559  24.252  1.00  0.00     0.271 C 
ATOM      9  C   UNL A   1      31.104  26.499  24.425  1.00  0.00     0.086 C 
BRANCH   8  10
ATOM     10  N   UNL A   1      33.305  25.396  23.601  1.00  0.00    -0.322 N 
ATOM     11  C   UNL A   1      33.344  21.337  23.928  1.00  0.00     0.283 C 
ATOM     12  O   UNL A   1      32.511  20.723  23.246  1.00  0.00    -0.268 OA
ATOM     13  N   UNL A   1      33.834  22.542  23.439  1.00  0.00    -0.326 N 
ATOM     14  C   UNL A   1      33.095  23.189  22.361  1.00  0.00     0.181 C 
ATOM     15  C   UNL A   1      34.876  23.424  23.955  1.00  0.00     0.181 C 
ATOM     16  C   UNL A   1      32.398  24.432  22.946  1.00  0.00     0.284 C 
ATOM     17  C   UNL A   1      34.259  24.723  24.517  1.00  0.00     0.284 C 
ATOM     18  H   UNL A   1      33.838  25.809  22.836  1.00  0.00     0.348 HD
BRANCH  11  19
ATOM     19  C   UNL A   1      33.614  20.839  25.395  1.00  0.00     0.171 C 
ATOM     20  C   UNL A   1      32.899  19.483  25.585  1.00  0.00     0.090 C 
BRANCH  19  21
ATOM     21  C   UNL A   1      32.993  21.897  26.348  1.00  0.00     0.075 C 
ATOM     22  C   UNL A   1      33.796  22.226  27.602  1.00  0.00     0.011 C 
ENDBRANCH  19  21
BRANCH  19  23
ATOM     23  N   UNL A   1      35.050  20.617  25.679  1.00  0.00    -0.345 N 
ATOM     24  H   UNL A   1      35.214  20.696  26.683  1.00  0.00     0.345 HD
ATOM     25  H   UNL A   1      35.605  21.317  25.187  1.00  0.00     0.345 HD
ATOM     26  H   UNL A   1      35.320  19.685  25.363  1.00  0.00     0.345 HD
ENDBRANCH  19  23
ENDBRANCH  11  19
ENDBRANCH   8  10
ENDBRANCH   5   8
ENDBRANCH   3   4
ENDBRANCH   2   3
ENDBRANCH   1   2
BRANCH   1  27
ATOM     27  C   UNL A   1      31.664  30.821  26.198  1.00  0.00     0.002 C 
BRANCH  27  28
ATOM     28  C   UNL A   1      31.541  32.307  26.549  1.00  0.00     0.021 C 
BRANCH  28  29
ATOM     29  C   UNL A   1      32.663  32.874  27.409  1.00  0.00     0.116 C 
BRANCH  29  30
ATOM     30  N   UNL A   1      32.436  34.259  27.782  1.00  0.00    -0.352 N 
ATOM     31  C   UNL A   1      33.053  35.014  28.748  1.00  0.00     0.251 C 
ATOM     32  H   UNL A   1      31.737  34.724  27.267  1.00  0.00     0.163 HD
ATOM     33  O   UNL A   1      32.622  36.130  29.019  1.00  0.00    -0.269 OA
BRANCH  31  34
ATOM     34  C   UNL A   1      34.223  34.472  29.474  1.00  0.00     0.039 A 
ATOM     35  C   UNL A   1      34.031  33.939  30.751  1.00  0.00     0.014 A 
ATOM     36  C   UNL A   1      35.500  34.494  28.908  1.00  0.00     0.014 A 
ATOM     37  C   UNL A   1      35.110  33.381  31.438  1.00  0.00     0.010 A 
ATOM     38  C   UNL A   1      36.559  33.867  29.562  1.00  0.00     0.010 A 
ATOM     39  C   UNL A   1      36.378  33.314  30.838  1.00  0.00    -0.014 A 
BRANCH  39  40
ATOM     40  C   UNL A   1      37.519  32.660  31.529  1.00  0.00     0.031 A 
ATOM     41  C   UNL A   1      38.242  31.507  30.884  1.00  0.00     0.074 A 
ATOM     42  C   UNL A   1      37.860  33.057  32.771  1.00  0.00     0.049 A 
ATOM     43  N   UNL A   1      39.234  30.793  31.349  1.00  0.00    -0.248 NA
ATOM     44  C   UNL A   1      37.774  31.084  29.553  1.00  0.00     0.031 C 
ATOM     45  C   UNL A   1      37.185  34.108  33.536  1.00  0.00     0.029 A 
ATOM     46  N   UNL A   1      38.840  32.608  33.620  1.00  0.00    -0.354 N 
ATOM     47  C   UNL A   1      39.485  29.818  30.391  1.00  0.00     0.074 A 
ATOM     48  C   UNL A   1      38.519  30.011  29.331  1.00  0.00     0.031 C 
ATOM     49  C   UNL A   1      37.775  34.227  34.736  1.00  0.00     0.029 A 
ATOM     50  C   UNL A   1      38.845  33.241  34.840  1.00  0.00     0.049 A 
ATOM     51  H   UNL A   1      39.479  31.899  33.377  1.00  0.00     0.167 HD
ATOM     52  C   UNL A   1      40.448  28.866  30.380  1.00  0.00     0.034 A 
ATOM     53  C   UNL A   1      39.617  33.043  35.927  1.00  0.00     0.034 A 
ATOM     54  C   UNL A   1      41.429  28.700  31.419  1.00  0.00     0.049 A 
ATOM     55  C   UNL A   1      40.700  32.000  35.875  1.00  0.00     0.074 A 
ATOM     56  C   UNL A   1      42.500  27.826  31.457  1.00  0.00     0.029 A 
ATOM     57  N   UNL A   1      41.452  29.412  32.608  1.00  0.00    -0.354 N 
ATOM     58  N   UNL A   1      41.024  31.196  34.892  1.00  0.00    -0.248 NA
ATOM     59  C   UNL A   1      41.548  31.862  37.068  1.00  0.00     0.031 C 
ATOM     60  C   UNL A   1      43.149  27.983  32.687  1.00  0.00     0.029 A 
ATOM     61  C   UNL A   1      42.508  28.987  33.395  1.00  0.00     0.049 A 
ATOM     62  H   UNL A   1      40.811  30.118  32.856  1.00  0.00     0.167 HD
ATOM     63  C   UNL A   1      42.135  30.484  35.333  1.00  0.00     0.074 A 
ATOM     64  C   UNL A   1      42.440  30.969  36.662  1.00  0.00     0.031 C 
ATOM     65  C   UNL A   1      42.832  29.509  34.698  1.00  0.00     0.034 A 
BRANCH  52  66
ATOM     66  C   UNL A   1      40.516  27.949  29.186  1.00  0.00     0.023 A 
ATOM     67  C   UNL A   1      39.619  26.865  29.082  1.00  0.00     0.012 A 
ATOM     68  C   UNL A   1      41.423  28.195  28.136  1.00  0.00     0.148 A 
ATOM     69  C   UNL A   1      39.649  26.020  27.974  1.00  0.00     0.002 A 
ATOM     70  C   UNL A   1      41.414  27.377  27.011  1.00  0.00     0.091 A 
ATOM     71  F   UNL A   1      42.281  29.217  28.259  1.00  0.00    -0.205 F 
ATOM     72  C   UNL A   1      40.536  26.282  26.935  1.00  0.00     0.022 A 
BRANCH  70  73
ATOM     73  S   UNL A   1      42.460  27.680  25.584  1.00  0.00     0.127 S 
ATOM     74  O   UNL A   1      42.198  26.493  24.770  1.00  0.00    -0.237 OA
ATOM     75  O   UNL A   1      41.898  28.920  25.050  1.00  0.00    -0.237 OA
ATOM     76  O   UNL A   1      43.818  27.795  26.096  1.00  0.00    -0.744 OA
ENDBRANCH  70  73
ENDBRANCH  52  66
BRANCH  53  77
ATOM     77  C   UNL A   1      39.427  33.885  37.142  1.00  0.00     0.023 A 
ATOM     78  C   UNL A   1      39.887  35.216  37.145  1.00  0.00     0.012 A 
ATOM     79  C   UNL A   1      38.780  33.378  38.285  1.00  0.00     0.148 A 
ATOM     80  C   UNL A   1      39.739  36.017  38.279  1.00  0.00     0.002 A 
ATOM     81  C   UNL A   1      38.586  34.199  39.390  1.00  0.00     0.091 A 
ATOM     82  F   UNL A   1      38.359  32.106  38.264  1.00  0.00    -0.205 F 
ATOM     83  C   UNL A   1      39.081  35.513  39.396  1.00  0.00     0.022 A 
BRANCH  81  84
ATOM     84  S   UNL A   1      37.643  33.676  40.825  1.00  0.00     0.127 S 
ATOM     85  O   UNL A   1      37.510  34.928  41.568  1.00  0.00    -0.237 OA
ATOM     86  O   UNL A   1      36.408  33.189  40.210  1.00  0.00    -0.237 OA
ATOM     87  O   UNL A   1      38.446  32.645  41.468  1.00  0.00    -0.744 OA
ENDBRANCH  81  84
ENDBRANCH  53  77
BRANCH  65  88
ATOM     88  C   UNL A   1      44.025  28.926  35.409  1.00  0.00     0.023 A 
ATOM     89  C   UNL A   1      45.306  29.481  35.212  1.00  0.00     0.012 A 
ATOM     90  C   UNL A   1      43.863  27.869  36.326  1.00  0.00     0.148 A 
ATOM     91  C   UNL A   1      46.412  28.967  35.889  1.00  0.00     0.002 A 
ATOM     92  C   UNL A   1      44.960  27.398  37.036  1.00  0.00     0.091 A 
ATOM     93  F   UNL A   1      42.640  27.343  36.487  1.00  0.00    -0.205 F 
ATOM     94  C   UNL A   1      46.237  27.936  36.809  1.00  0.00     0.022 A 
BRANCH  92  95
ATOM     95  S   UNL A   1      44.815  26.144  38.314  1.00  0.00     0.127 S 
ATOM     96  O   UNL A   1      44.312  25.001  37.553  1.00  0.00    -0.237 OA
ATOM     97  O   UNL A   1      46.198  26.009  38.774  1.00  0.00    -0.237 OA
ATOM     98  O   UNL A   1      43.898  26.685  39.308  1.00  0.00    -0.744 OA
ENDBRANCH  92  95
ENDBRANCH  65  88
ENDBRANCH  39  40
ENDBRANCH  31  34
ENDBRANCH  29  30
ENDBRANCH  28  29
ENDBRANCH  27  28
ENDBRANCH   1  27
TORSDOF 20
ENDMDL
MODEL 3
REMARK VINA RESULT:     -10.6      2.614      8.151
REMARK SMILES CC[C@](C)([NH3+])C(=O)N1CC[NH+]([C@H](C)C(=O)NCCCCCCNC(=O)c2ccc(-c3c4nc(c(-c5cccc(S(=O)(=O)[O-])c5F)c5ccc([nH]5)c(-c5cccc(S(=O)(=O)[O-])c5F)c5nc(c(-c6cccc(S(=O)(=O)[O-])c6F)c6ccc3[nH]6)C=C5)C=C4)cc2)CC1
REMARK SMILES IDX 19 1 18 2 17 3 16 4 14 5 15 6 12 8 13 9 11 10 6 11 7 12 8 13
REMARK SMILES IDX 9 14 90 15 10 16 89 17 3 19 4 20 2 21 1 22 5 23 20 27 21 28
REMARK SMILES IDX 22 29 23 30 24 31 25 33 26 34 27 35 88 36 28 37 87 38 29 39
REMARK SMILES IDX 30 40 31 41 81 42 32 43 86 44 80 45 82 46 33 47 85 48 79 49
REMARK SMILES IDX 78 50 34 52 66 53 46 54 65 55 47 56 50 57 64 58 83 59 48 60
REMARK SMILES IDX 49 61 63 63 84 64 51 65 35 66 36 67 44 68 37 69 39 70 45 71
REMARK SMILES IDX 38 72 40 73 41 74 42 75 43 76 67 77 68 78 76 79 69 80 71 81
REMARK SMILES IDX 77 82 70 83 72 84 73 85 74 86 75 87 52 88 53 89 61 90 54 91
REMARK SMILES IDX 56 92 62 93 55 94 57 95 58 96 59 97 60 98
REMARK H PARENT 16 7 11 18 5 24 5 25 5 26 23 32 82 51 50 62
REMARK Flexibility Score: inf
ROOT
ATOM      1  C   UNL A   1      31.039  28.979  24.344  1.00  0.00     0.002 C 
ENDROOT
BRANCH   1   2
ATOM      2  C   UNL A   1      30.679  27.524  24.647  1.00  0.00     0.021 C 
BRANCH   2   3
ATOM      3  C   UNL A   1      31.318  26.956  25.905  1.00  0.00     0.116 C 
BRANCH   3   4
ATOM      4  N   UNL A   1      30.605  25.828  26.467  1.00  0.00    -0.351 N 
ATOM      5  C   UNL A   1      30.641  24.504  26.124  1.00  0.00     0.278 C 
ATOM      6  O   UNL A   1      30.079  23.716  26.894  1.00  0.00    -0.268 OA
ATOM      7  H   UNL A   1      30.001  26.049  27.213  1.00  0.00     0.163 HD
BRANCH   5   8
ATOM      8  C   UNL A   1      31.321  23.994  24.825  1.00  0.00     0.271 C 
ATOM      9  C   UNL A   1      30.398  24.059  23.600  1.00  0.00     0.086 C 
BRANCH   8  10
ATOM     10  N   UNL A   1      32.732  24.458  24.662  1.00  0.00    -0.322 N 
ATOM     11  C   UNL A   1      36.430  22.817  24.197  1.00  0.00     0.283 C 
ATOM     12  O   UNL A   1      36.790  22.594  23.033  1.00  0.00    -0.268 OA
ATOM     13  N   UNL A   1      35.573  23.886  24.428  1.00  0.00    -0.326 N 
ATOM     14  C   UNL A   1      34.866  24.449  23.283  1.00  0.00     0.181 C 
ATOM     15  C   UNL A   1      35.067  24.447  25.677  1.00  0.00     0.181 C 
ATOM     16  C   UNL A   1      33.383  24.049  23.401  1.00  0.00     0.284 C 
ATOM     17  C   UNL A   1      33.566  24.131  25.845  1.00  0.00     0.284 C 
ATOM     18  H   UNL A   1      32.659  25.473  24.597  1.00  0.00     0.348 HD
BRANCH  11  19
ATOM     19  C   UNL A   1      36.773  21.745  25.297  1.00  0.00     0.171 C 
ATOM     20  C   UNL A   1      37.553  20.595  24.625  1.00  0.00     0.090 C 
BRANCH  19  21
ATOM     21  C   UNL A   1      35.417  21.214  25.840  1.00  0.00     0.075 C 
ATOM     22  C   UNL A   1      34.624  20.313  24.900  1.00  0.00     0.011 C 
ENDBRANCH  19  21
BRANCH  19  23
ATOM     23  N   UNL A   1      37.630  22.277  26.380  1.00  0.00    -0.345 N 
ATOM     24  H   UNL A   1      38.404  22.803  25.973  1.00  0.00     0.345 HD
ATOM     25  H   UNL A   1      37.998  21.503  26.933  1.00  0.00     0.345 HD
ATOM     26  H   UNL A   1      37.080  22.892  26.980  1.00  0.00     0.345 HD
ENDBRANCH  19  23
ENDBRANCH  11  19
ENDBRANCH   8  10
ENDBRANCH   5   8
ENDBRANCH   3   4
ENDBRANCH   2   3
ENDBRANCH   1   2
BRANCH   1  27
ATOM     27  C   UNL A   1      32.178  29.580  25.175  1.00  0.00     0.002 C 
BRANCH  27  28
ATOM     28  C   UNL A   1      31.780  30.644  26.202  1.00  0.00     0.021 C 
BRANCH  28  29
ATOM     29  C   UNL A   1      32.904  31.147  27.099  1.00  0.00     0.116 C 
BRANCH  29  30
ATOM     30  N   UNL A   1      32.903  32.592  27.239  1.00  0.00    -0.352 N 
ATOM     31  C   UNL A   1      33.738  33.397  27.973  1.00  0.00     0.251 C 
ATOM     32  H   UNL A   1      32.202  33.064  26.733  1.00  0.00     0.163 HD
ATOM     33  O   UNL A   1      33.489  34.593  28.086  1.00  0.00    -0.269 OA
BRANCH  31  34
ATOM     34  C   UNL A   1      34.922  32.817  28.645  1.00  0.00     0.039 A 
ATOM     35  C   UNL A   1      34.724  31.968  29.736  1.00  0.00     0.014 A 
ATOM     36  C   UNL A   1      36.216  33.110  28.210  1.00  0.00     0.014 A 
ATOM     37  C   UNL A   1      35.822  31.372  30.358  1.00  0.00     0.010 A 
ATOM     38  C   UNL A   1      37.305  32.455  28.781  1.00  0.00     0.010 A 
ATOM     39  C   UNL A   1      37.121  31.587  29.868  1.00  0.00    -0.014 A 
BRANCH  39  40
ATOM     40  C   UNL A   1      38.292  30.904  30.476  1.00  0.00     0.031 A 
ATOM     41  C   UNL A   1      38.746  31.263  31.866  1.00  0.00     0.074 A 
ATOM     42  C   UNL A   1      38.992  30.011  29.749  1.00  0.00     0.049 A 
ATOM     43  N   UNL A   1      39.764  30.799  32.546  1.00  0.00    -0.248 NA
ATOM     44  C   UNL A   1      37.973  32.294  32.578  1.00  0.00     0.031 C 
ATOM     45  C   UNL A   1      38.701  29.637  28.363  1.00  0.00     0.029 A 
ATOM     46  N   UNL A   1      40.106  29.274  30.063  1.00  0.00    -0.354 N 
ATOM     47  C   UNL A   1      39.775  31.504  33.743  1.00  0.00     0.074 A 
ATOM     48  C   UNL A   1      38.683  32.450  33.685  1.00  0.00     0.031 C 
ATOM     49  C   UNL A   1      39.608  28.738  27.949  1.00  0.00     0.029 A 
ATOM     50  C   UNL A   1      40.563  28.496  29.026  1.00  0.00     0.049 A 
ATOM     51  H   UNL A   1      40.537  29.300  30.948  1.00  0.00     0.167 HD
ATOM     52  C   UNL A   1      40.603  31.359  34.806  1.00  0.00     0.034 A 
ATOM     53  C   UNL A   1      41.637  27.686  28.945  1.00  0.00     0.034 A 
ATOM     54  C   UNL A   1      41.665  30.392  34.873  1.00  0.00     0.049 A 
ATOM     55  C   UNL A   1      42.520  27.520  30.151  1.00  0.00     0.074 A 
ATOM     56  C   UNL A   1      42.499  30.105  35.939  1.00  0.00     0.029 A 
ATOM     57  N   UNL A   1      42.051  29.565  33.830  1.00  0.00    -0.354 N 
ATOM     58  N   UNL A   1      42.417  28.078  31.333  1.00  0.00    -0.248 NA
ATOM     59  C   UNL A   1      43.647  26.584  30.026  1.00  0.00     0.031 C 
ATOM     60  C   UNL A   1      43.414  29.130  35.528  1.00  0.00     0.029 A 
ATOM     61  C   UNL A   1      43.121  28.778  34.220  1.00  0.00     0.049 A 
ATOM     62  H   UNL A   1      41.626  29.540  32.942  1.00  0.00     0.167 HD
ATOM     63  C   UNL A   1      43.440  27.533  32.102  1.00  0.00     0.074 A 
ATOM     64  C   UNL A   1      44.137  26.586  31.258  1.00  0.00     0.031 C 
ATOM     65  C   UNL A   1      43.778  27.803  33.387  1.00  0.00     0.034 A 
BRANCH  52  66
ATOM     66  C   UNL A   1      40.368  32.242  36.004  1.00  0.00     0.023 A 
ATOM     67  C   UNL A   1      41.204  33.355  36.229  1.00  0.00     0.012 A 
ATOM     68  C   UNL A   1      39.284  32.008  36.873  1.00  0.00     0.148 A 
ATOM     69  C   UNL A   1      40.989  34.199  37.318  1.00  0.00     0.002 A 
ATOM     70  C   UNL A   1      39.046  32.882  37.929  1.00  0.00     0.091 A 
ATOM     71  F   UNL A   1      38.511  30.935  36.657  1.00  0.00    -0.205 F 
ATOM     72  C   UNL A   1      39.905  33.970  38.159  1.00  0.00     0.022 A 
BRANCH  70  73
ATOM     73  S   UNL A   1      37.629  32.721  39.020  1.00  0.00     0.127 S 
ATOM     74  O   UNL A   1      36.521  33.001  38.107  1.00  0.00    -0.237 OA
ATOM     75  O   UNL A   1      37.728  31.325  39.447  1.00  0.00    -0.237 OA
ATOM     76  O   UNL A   1      37.823  33.698  40.081  1.00  0.00    -0.744 OA
ENDBRANCH  70  73
ENDBRANCH  52  66
BRANCH  53  77
ATOM     77  C   UNL A   1      41.910  26.931  27.690  1.00  0.00     0.023 A 
ATOM     78  C   UNL A   1      42.392  27.614  26.557  1.00  0.00     0.012 A 
ATOM     79  C   UNL A   1      41.711  25.538  27.619  1.00  0.00     0.148 A 
ATOM     80  C   UNL A   1      42.636  26.932  25.364  1.00  0.00     0.002 A 
ATOM     81  C   UNL A   1      42.009  24.856  26.446  1.00  0.00     0.091 A 
ATOM     82  F   UNL A   1      41.242  24.909  28.706  1.00  0.00    -0.205 F 
ATOM     83  C   UNL A   1      42.453  25.553  25.311  1.00  0.00     0.022 A 
BRANCH  81  84
ATOM     84  S   UNL A   1      41.922  23.067  26.322  1.00  0.00     0.127 S 
ATOM     85  O   UNL A   1      42.736  22.650  27.461  1.00  0.00    -0.237 OA
ATOM     86  O   UNL A   1      40.486  22.826  26.467  1.00  0.00    -0.237 OA
ATOM     87  O   UNL A   1      42.461  22.738  25.009  1.00  0.00    -0.744 OA
ENDBRANCH  81  84
ENDBRANCH  53  77
BRANCH  65  88
ATOM     88  C   UNL A   1      44.928  27.033  33.985  1.00  0.00     0.023 A 
ATOM     89  C   UNL A   1      44.693  25.805  34.635  1.00  0.00     0.012 A 
ATOM     90  C   UNL A   1      46.249  27.497  33.839  1.00  0.00     0.148 A 
ATOM     91  C   UNL A   1      45.754  25.071  35.165  1.00  0.00     0.002 A 
ATOM     92  C   UNL A   1      47.305  26.735  34.322  1.00  0.00     0.091 A 
ATOM     93  F   UNL A   1      46.451  28.677  33.234  1.00  0.00    -0.205 F 
ATOM     94  C   UNL A   1      47.059  25.528  34.997  1.00  0.00     0.022 A 
BRANCH  92  95
ATOM     95  S   UNL A   1      49.023  27.193  34.064  1.00  0.00     0.127 S 
ATOM     96  O   UNL A   1      49.150  28.366  34.928  1.00  0.00    -0.237 OA
ATOM     97  O   UNL A   1      49.735  26.006  34.538  1.00  0.00    -0.237 OA
ATOM     98  O   UNL A   1      49.161  27.452  32.637  1.00  0.00    -0.744 OA
ENDBRANCH  92  95
ENDBRANCH  65  88
ENDBRANCH  39  40
ENDBRANCH  31  34
ENDBRANCH  29  30
ENDBRANCH  28  29
ENDBRANCH  27  28
ENDBRANCH   1  27
TORSDOF 20
ENDMDL
