MODEL 1
REMARK VINA RESULT:     -10.2      0.000      0.000
REMARK SMILES O=C(CCCC[C@@H]1CCSS1)NCCCCCCNC(=O)c1ccc(-c2c3nc(c(-c4cccc(S(=O)(=O)[O-])c4F)c4ccc([nH]4)c(-c4cccc(S(=O)(=O)[O-])c4F)c4nc(c(-c5cccc(S(=O)(=O)[O-])c5F)c5ccc2[nH]5)C=C4)C=C3)cc1
REMARK SMILES IDX 15 1 14 2 13 3 12 4 1 5 2 6 3 8 4 9 5 10 6 11 7 12 8 13
REMARK SMILES IDX 11 14 9 15 10 16 16 17 17 18 18 19 19 20 20 21 21 23 22 24
REMARK SMILES IDX 23 25 84 26 24 27 83 28 25 29 26 30 27 31 77 32 28 33 82 34
REMARK SMILES IDX 76 35 78 36 29 37 81 38 75 39 74 40 30 42 62 43 42 44 61 45
REMARK SMILES IDX 43 46 46 47 60 48 79 49 44 50 45 51 59 53 80 54 47 55 31 56
REMARK SMILES IDX 32 57 40 58 33 59 35 60 41 61 34 62 36 63 37 64 38 65 39 66
REMARK SMILES IDX 63 67 64 68 72 69 65 70 67 71 73 72 66 73 68 74 69 75 70 76
REMARK SMILES IDX 71 77 48 78 49 79 57 80 50 81 52 82 58 83 51 84 53 85 54 86
REMARK SMILES IDX 55 87 56 88
REMARK H PARENT 12 7 19 22 78 41 46 52
REMARK Flexibility Score: inf
ROOT
ATOM      1  C   UNL A   1      34.130  20.557  24.950  1.00  0.00     0.002 C 
ENDROOT
BRANCH   1   2
ATOM      2  C   UNL A   1      33.635  21.511  23.851  1.00  0.00     0.021 C 
BRANCH   2   3
ATOM      3  C   UNL A   1      32.147  21.857  23.915  1.00  0.00     0.116 C 
BRANCH   3   4
ATOM      4  N   UNL A   1      31.930  23.055  24.699  1.00  0.00    -0.356 N 
ATOM      5  O   UNL A   1      30.340  22.215  26.129  1.00  0.00    -0.275 OA
ATOM      6  C   UNL A   1      31.050  23.137  25.748  1.00  0.00     0.219 C 
ATOM      7  H   UNL A   1      32.446  23.860  24.465  1.00  0.00     0.163 HD
BRANCH   6   8
ATOM      8  C   UNL A   1      30.997  24.514  26.387  1.00  0.00     0.100 C 
BRANCH   8   9
ATOM      9  C   UNL A   1      29.903  25.423  25.825  1.00  0.00     0.010 C 
BRANCH   9  10
ATOM     10  C   UNL A   1      30.359  26.667  25.052  1.00  0.00     0.002 C 
BRANCH  10  11
ATOM     11  C   UNL A   1      31.830  26.697  24.609  1.00  0.00     0.015 C 
BRANCH  11  12
ATOM     12  C   UNL A   1      32.622  27.885  25.179  1.00  0.00     0.059 C 
ATOM     13  C   UNL A   1      32.864  27.762  26.691  1.00  0.00     0.027 C 
ATOM     14  S   UNL A   1      31.697  29.445  24.943  1.00  0.00    -0.091 SA
ATOM     15  C   UNL A   1      33.384  29.080  27.252  1.00  0.00     0.083 C 
ATOM     16  S   UNL A   1      32.244  30.363  26.689  1.00  0.00    -0.094 SA
ENDBRANCH  11  12
ENDBRANCH  10  11
ENDBRANCH   9  10
ENDBRANCH   8   9
ENDBRANCH   6   8
ENDBRANCH   3   4
ENDBRANCH   2   3
ENDBRANCH   1   2
BRANCH   1  17
ATOM     17  C   UNL A   1      35.646  20.528  25.161  1.00  0.00     0.002 C 
BRANCH  17  18
ATOM     18  C   UNL A   1      36.285  21.886  25.463  1.00  0.00     0.021 C 
BRANCH  18  19
ATOM     19  C   UNL A   1      37.756  22.013  25.073  1.00  0.00     0.116 C 
BRANCH  19  20
ATOM     20  N   UNL A   1      38.601  21.038  25.746  1.00  0.00    -0.352 N 
ATOM     21  C   UNL A   1      39.694  21.238  26.551  1.00  0.00     0.251 C 
ATOM     22  H   UNL A   1      38.351  20.096  25.603  1.00  0.00     0.163 HD
ATOM     23  O   UNL A   1      40.373  20.273  26.903  1.00  0.00    -0.269 OA
BRANCH  21  24
ATOM     24  C   UNL A   1      40.076  22.604  26.976  1.00  0.00     0.039 A 
ATOM     25  C   UNL A   1      41.057  22.750  27.961  1.00  0.00     0.014 A 
ATOM     26  C   UNL A   1      39.471  23.736  26.421  1.00  0.00     0.014 A 
ATOM     27  C   UNL A   1      41.472  24.028  28.343  1.00  0.00     0.010 A 
ATOM     28  C   UNL A   1      39.940  25.008  26.750  1.00  0.00     0.010 A 
ATOM     29  C   UNL A   1      40.943  25.170  27.715  1.00  0.00    -0.014 A 
BRANCH  29  30
ATOM     30  C   UNL A   1      41.468  26.522  28.038  1.00  0.00     0.031 A 
ATOM     31  C   UNL A   1      42.881  26.912  27.695  1.00  0.00     0.074 A 
ATOM     32  C   UNL A   1      40.680  27.391  28.704  1.00  0.00     0.049 A 
ATOM     33  N   UNL A   1      43.482  28.061  27.868  1.00  0.00    -0.248 NA
ATOM     34  C   UNL A   1      43.739  25.873  27.106  1.00  0.00     0.031 C 
ATOM     35  C   UNL A   1      39.322  27.107  29.177  1.00  0.00     0.029 A 
ATOM     36  N   UNL A   1      40.907  28.683  29.108  1.00  0.00    -0.354 N 
ATOM     37  C   UNL A   1      44.792  27.877  27.442  1.00  0.00     0.074 A 
ATOM     38  C   UNL A   1      44.907  26.493  27.032  1.00  0.00     0.031 C 
ATOM     39  C   UNL A   1      38.828  28.200  29.779  1.00  0.00     0.029 A 
ATOM     40  C   UNL A   1      39.839  29.252  29.763  1.00  0.00     0.049 A 
ATOM     41  H   UNL A   1      41.755  29.157  28.945  1.00  0.00     0.167 HD
ATOM     42  C   UNL A   1      45.801  28.779  27.373  1.00  0.00     0.034 A 
ATOM     43  C   UNL A   1      39.686  30.484  30.285  1.00  0.00     0.034 A 
ATOM     44  C   UNL A   1      45.674  30.163  27.752  1.00  0.00     0.049 A 
ATOM     45  C   UNL A   1      40.806  31.479  30.155  1.00  0.00     0.074 A 
ATOM     46  C   UNL A   1      46.603  31.180  27.618  1.00  0.00     0.029 A 
ATOM     47  N   UNL A   1      44.560  30.721  28.358  1.00  0.00    -0.354 N 
ATOM     48  N   UNL A   1      41.974  31.339  29.576  1.00  0.00    -0.248 NA
ATOM     49  C   UNL A   1      40.569  32.817  30.716  1.00  0.00     0.031 C 
ATOM     50  C   UNL A   1      46.064  32.343  28.180  1.00  0.00     0.029 A 
ATOM     51  C   UNL A   1      44.784  32.061  28.629  1.00  0.00     0.049 A 
ATOM     52  H   UNL A   1      43.728  30.234  28.567  1.00  0.00     0.167 HD
ATOM     53  C   UNL A   1      42.599  32.576  29.676  1.00  0.00     0.074 A 
ATOM     54  C   UNL A   1      41.667  33.461  30.344  1.00  0.00     0.031 C 
ATOM     55  C   UNL A   1      43.840  32.943  29.266  1.00  0.00     0.034 A 
BRANCH  42  56
ATOM     56  C   UNL A   1      47.129  28.305  26.836  1.00  0.00     0.023 A 
ATOM     57  C   UNL A   1      48.206  28.085  27.721  1.00  0.00     0.012 A 
ATOM     58  C   UNL A   1      47.299  28.032  25.464  1.00  0.00     0.148 A 
ATOM     59  C   UNL A   1      49.439  27.643  27.245  1.00  0.00     0.002 A 
ATOM     60  C   UNL A   1      48.518  27.545  25.005  1.00  0.00     0.091 A 
ATOM     61  F   UNL A   1      46.274  28.266  24.633  1.00  0.00    -0.205 F 
ATOM     62  C   UNL A   1      49.592  27.363  25.890  1.00  0.00     0.022 A 
BRANCH  60  63
ATOM     63  S   UNL A   1      48.787  27.076  23.291  1.00  0.00     0.127 S 
ATOM     64  O   UNL A   1      48.018  25.837  23.201  1.00  0.00    -0.237 OA
ATOM     65  O   UNL A   1      48.206  28.208  22.567  1.00  0.00    -0.237 OA
ATOM     66  O   UNL A   1      50.228  26.933  23.136  1.00  0.00    -0.744 OA
ENDBRANCH  60  63
ENDBRANCH  42  56
BRANCH  43  67
ATOM     67  C   UNL A   1      38.388  30.872  30.905  1.00  0.00     0.023 A 
ATOM     68  C   UNL A   1      38.168  30.601  32.270  1.00  0.00     0.012 A 
ATOM     69  C   UNL A   1      37.386  31.530  30.165  1.00  0.00     0.148 A 
ATOM     70  C   UNL A   1      36.963  30.950  32.880  1.00  0.00     0.002 A 
ATOM     71  C   UNL A   1      36.212  31.926  30.793  1.00  0.00     0.091 A 
ATOM     72  F   UNL A   1      37.613  31.770  28.866  1.00  0.00    -0.205 F 
ATOM     73  C   UNL A   1      35.989  31.622  32.145  1.00  0.00     0.022 A 
BRANCH  71  74
ATOM     74  S   UNL A   1      34.959  32.910  29.963  1.00  0.00     0.127 S 
ATOM     75  O   UNL A   1      34.440  31.965  28.977  1.00  0.00    -0.237 OA
ATOM     76  O   UNL A   1      34.044  33.219  31.062  1.00  0.00    -0.237 OA
ATOM     77  O   UNL A   1      35.659  34.066  29.420  1.00  0.00    -0.744 OA
ENDBRANCH  71  74
ENDBRANCH  43  67
BRANCH  55  78
ATOM     78  C   UNL A   1      44.254  34.373  29.511  1.00  0.00     0.023 A 
ATOM     79  C   UNL A   1      44.862  34.730  30.732  1.00  0.00     0.012 A 
ATOM     80  C   UNL A   1      44.074  35.357  28.519  1.00  0.00     0.148 A 
ATOM     81  C   UNL A   1      45.235  36.050  30.982  1.00  0.00     0.002 A 
ATOM     82  C   UNL A   1      44.498  36.660  28.754  1.00  0.00     0.091 A 
ATOM     83  F   UNL A   1      43.479  35.007  27.369  1.00  0.00    -0.205 F 
ATOM     84  C   UNL A   1      45.062  37.012  29.991  1.00  0.00     0.022 A 
BRANCH  82  85
ATOM     85  S   UNL A   1      44.407  37.941  27.498  1.00  0.00     0.127 S 
ATOM     86  O   UNL A   1      44.602  39.152  28.292  1.00  0.00    -0.237 OA
ATOM     87  O   UNL A   1      45.529  37.600  26.622  1.00  0.00    -0.237 OA
ATOM     88  O   UNL A   1      43.096  37.801  26.878  1.00  0.00    -0.744 OA
ENDBRANCH  82  85
ENDBRANCH  55  78
ENDBRANCH  29  30
ENDBRANCH  21  24
ENDBRANCH  19  20
ENDBRANCH  18  19
ENDBRANCH  17  18
ENDBRANCH   1  17
TORSDOF 20
ENDMDL
MODEL 2
REMARK VINA RESULT:      -9.9      2.869      3.443
REMARK SMILES O=C(CCCC[C@@H]1CCSS1)NCCCCCCNC(=O)c1ccc(-c2c3nc(c(-c4cccc(S(=O)(=O)[O-])c4F)c4ccc([nH]4)c(-c4cccc(S(=O)(=O)[O-])c4F)c4nc(c(-c5cccc(S(=O)(=O)[O-])c5F)c5ccc2[nH]5)C=C4)C=C3)cc1
REMARK SMILES IDX 15 1 14 2 13 3 12 4 1 5 2 6 3 8 4 9 5 10 6 11 7 12 8 13
REMARK SMILES IDX 11 14 9 15 10 16 16 17 17 18 18 19 19 20 20 21 21 23 22 24
REMARK SMILES IDX 23 25 84 26 24 27 83 28 25 29 26 30 27 31 77 32 28 33 82 34
REMARK SMILES IDX 76 35 78 36 29 37 81 38 75 39 74 40 30 42 62 43 42 44 61 45
REMARK SMILES IDX 43 46 46 47 60 48 79 49 44 50 45 51 59 53 80 54 47 55 31 56
REMARK SMILES IDX 32 57 40 58 33 59 35 60 41 61 34 62 36 63 37 64 38 65 39 66
REMARK SMILES IDX 63 67 64 68 72 69 65 70 67 71 73 72 66 73 68 74 69 75 70 76
REMARK SMILES IDX 71 77 48 78 49 79 57 80 50 81 52 82 58 83 51 84 53 85 54 86
REMARK SMILES IDX 55 87 56 88
REMARK H PARENT 12 7 19 22 78 41 46 52
REMARK Flexibility Score: inf
ROOT
ATOM      1  C   UNL A   1      33.841  22.172  24.615  1.00  0.00     0.002 C 
ENDROOT
BRANCH   1   2
ATOM      2  C   UNL A   1      34.101  22.890  23.281  1.00  0.00     0.021 C 
BRANCH   2   3
ATOM      3  C   UNL A   1      32.949  22.830  22.277  1.00  0.00     0.116 C 
BRANCH   3   4
ATOM      4  N   UNL A   1      32.129  24.021  22.363  1.00  0.00    -0.356 N 
ATOM      5  O   UNL A   1      33.546  25.462  21.271  1.00  0.00    -0.275 OA
ATOM      6  C   UNL A   1      32.489  25.240  21.847  1.00  0.00     0.219 C 
ATOM      7  H   UNL A   1      31.260  23.951  22.821  1.00  0.00     0.163 HD
BRANCH   6   8
ATOM      8  C   UNL A   1      31.460  26.329  22.094  1.00  0.00     0.100 C 
BRANCH   8   9
ATOM      9  C   UNL A   1      31.532  26.955  23.487  1.00  0.00     0.010 C 
BRANCH   9  10
ATOM     10  C   UNL A   1      30.213  27.432  24.106  1.00  0.00     0.002 C 
BRANCH  10  11
ATOM     11  C   UNL A   1      29.183  28.039  23.141  1.00  0.00     0.015 C 
BRANCH  11  12
ATOM     12  C   UNL A   1      29.122  29.575  23.191  1.00  0.00     0.059 C 
ATOM     13  C   UNL A   1      27.701  30.102  23.443  1.00  0.00     0.027 C 
ATOM     14  S   UNL A   1      29.647  30.290  21.592  1.00  0.00    -0.091 SA
ATOM     15  C   UNL A   1      27.642  31.603  23.193  1.00  0.00     0.083 C 
ATOM     16  S   UNL A   1      28.359  31.881  21.559  1.00  0.00    -0.094 SA
ENDBRANCH  11  12
ENDBRANCH  10  11
ENDBRANCH   9  10
ENDBRANCH   8   9
ENDBRANCH   6   8
ENDBRANCH   3   4
ENDBRANCH   2   3
ENDBRANCH   1   2
BRANCH   1  17
ATOM     17  C   UNL A   1      35.041  22.093  25.563  1.00  0.00     0.002 C 
BRANCH  17  18
ATOM     18  C   UNL A   1      35.809  23.404  25.748  1.00  0.00     0.021 C 
BRANCH  18  19
ATOM     19  C   UNL A   1      37.158  23.472  25.038  1.00  0.00     0.116 C 
BRANCH  19  20
ATOM     20  N   UNL A   1      38.124  22.526  25.576  1.00  0.00    -0.352 N 
ATOM     21  C   UNL A   1      39.262  22.759  26.306  1.00  0.00     0.251 C 
ATOM     22  H   UNL A   1      37.932  21.579  25.387  1.00  0.00     0.163 HD
ATOM     23  O   UNL A   1      40.035  21.829  26.537  1.00  0.00    -0.269 OA
BRANCH  21  24
ATOM     24  C   UNL A   1      39.577  24.121  26.794  1.00  0.00     0.039 A 
ATOM     25  C   UNL A   1      39.230  24.461  28.104  1.00  0.00     0.014 A 
ATOM     26  C   UNL A   1      40.201  25.064  25.971  1.00  0.00     0.014 A 
ATOM     27  C   UNL A   1      39.563  25.721  28.606  1.00  0.00     0.010 A 
ATOM     28  C   UNL A   1      40.599  26.293  26.497  1.00  0.00     0.010 A 
ATOM     29  C   UNL A   1      40.283  26.637  27.818  1.00  0.00    -0.014 A 
BRANCH  29  30
ATOM     30  C   UNL A   1      40.738  27.932  28.390  1.00  0.00     0.031 A 
ATOM     31  C   UNL A   1      42.202  28.230  28.575  1.00  0.00     0.074 A 
ATOM     32  C   UNL A   1      39.818  28.827  28.803  1.00  0.00     0.049 A 
ATOM     33  N   UNL A   1      42.769  29.323  29.018  1.00  0.00    -0.248 NA
ATOM     34  C   UNL A   1      43.151  27.157  28.244  1.00  0.00     0.031 C 
ATOM     35  C   UNL A   1      38.367  28.625  28.767  1.00  0.00     0.029 A 
ATOM     36  N   UNL A   1      39.962  30.080  29.345  1.00  0.00    -0.354 N 
ATOM     37  C   UNL A   1      44.133  29.060  29.051  1.00  0.00     0.074 A 
ATOM     38  C   UNL A   1      44.306  27.691  28.614  1.00  0.00     0.031 C 
ATOM     39  C   UNL A   1      37.757  29.723  29.236  1.00  0.00     0.029 A 
ATOM     40  C   UNL A   1      38.768  30.697  29.634  1.00  0.00     0.049 A 
ATOM     41  H   UNL A   1      40.839  30.496  29.513  1.00  0.00     0.167 HD
ATOM     42  C   UNL A   1      45.152  29.888  29.390  1.00  0.00     0.034 A 
ATOM     43  C   UNL A   1      38.512  31.914  30.154  1.00  0.00     0.034 A 
ATOM     44  C   UNL A   1      44.979  31.259  29.793  1.00  0.00     0.049 A 
ATOM     45  C   UNL A   1      39.662  32.828  30.478  1.00  0.00     0.074 A 
ATOM     46  C   UNL A   1      45.952  32.209  30.051  1.00  0.00     0.029 A 
ATOM     47  N   UNL A   1      43.756  31.871  30.020  1.00  0.00    -0.354 N 
ATOM     48  N   UNL A   1      40.948  32.626  30.323  1.00  0.00    -0.248 NA
ATOM     49  C   UNL A   1      39.320  34.153  31.013  1.00  0.00     0.031 C 
ATOM     50  C   UNL A   1      45.316  33.384  30.472  1.00  0.00     0.029 A 
ATOM     51  C   UNL A   1      43.947  33.178  30.439  1.00  0.00     0.049 A 
ATOM     52  H   UNL A   1      42.879  31.439  29.901  1.00  0.00     0.167 HD
ATOM     53  C   UNL A   1      41.567  33.808  30.712  1.00  0.00     0.074 A 
ATOM     54  C   UNL A   1      40.512  34.730  31.080  1.00  0.00     0.031 C 
ATOM     55  C   UNL A   1      42.891  34.100  30.774  1.00  0.00     0.034 A 
BRANCH  42  56
ATOM     56  C   UNL A   1      46.556  29.340  29.306  1.00  0.00     0.023 A 
ATOM     57  C   UNL A   1      47.098  28.629  30.398  1.00  0.00     0.012 A 
ATOM     58  C   UNL A   1      47.321  29.487  28.132  1.00  0.00     0.148 A 
ATOM     59  C   UNL A   1      48.391  28.112  30.338  1.00  0.00     0.002 A 
ATOM     60  C   UNL A   1      48.591  28.925  28.063  1.00  0.00     0.091 A 
ATOM     61  F   UNL A   1      46.801  30.182  27.111  1.00  0.00    -0.205 F 
ATOM     62  C   UNL A   1      49.133  28.250  29.168  1.00  0.00     0.022 A 
BRANCH  60  63
ATOM     63  S   UNL A   1      49.592  28.978  26.572  1.00  0.00     0.127 S 
ATOM     64  O   UNL A   1      50.724  28.133  26.948  1.00  0.00    -0.237 OA
ATOM     65  O   UNL A   1      48.695  28.388  25.577  1.00  0.00    -0.237 OA
ATOM     66  O   UNL A   1      49.905  30.382  26.348  1.00  0.00    -0.744 OA
ENDBRANCH  60  63
ENDBRANCH  42  56
BRANCH  43  67
ATOM     67  C   UNL A   1      37.103  32.369  30.320  1.00  0.00     0.023 A 
ATOM     68  C   UNL A   1      36.452  32.163  31.552  1.00  0.00     0.012 A 
ATOM     69  C   UNL A   1      36.416  33.028  29.282  1.00  0.00     0.148 A 
ATOM     70  C   UNL A   1      35.134  32.577  31.739  1.00  0.00     0.002 A 
ATOM     71  C   UNL A   1      35.122  33.489  29.493  1.00  0.00     0.091 A 
ATOM     72  F   UNL A   1      37.051  33.207  28.114  1.00  0.00    -0.205 F 
ATOM     73  C   UNL A   1      34.472  33.249  30.714  1.00  0.00     0.022 A 
BRANCH  71  74
ATOM     74  S   UNL A   1      34.239  34.477  28.281  1.00  0.00     0.127 S 
ATOM     75  O   UNL A   1      35.165  34.462  27.151  1.00  0.00    -0.237 OA
ATOM     76  O   UNL A   1      33.018  33.695  28.089  1.00  0.00    -0.237 OA
ATOM     77  O   UNL A   1      34.030  35.776  28.907  1.00  0.00    -0.744 OA
ENDBRANCH  71  74
ENDBRANCH  43  67
BRANCH  55  78
ATOM     78  C   UNL A   1      43.274  35.482  31.239  1.00  0.00     0.023 A 
ATOM     79  C   UNL A   1      43.543  36.493  30.294  1.00  0.00     0.012 A 
ATOM     80  C   UNL A   1      43.334  35.792  32.613  1.00  0.00     0.148 A 
ATOM     81  C   UNL A   1      43.915  37.772  30.707  1.00  0.00     0.002 A 
ATOM     82  C   UNL A   1      43.652  37.083  33.017  1.00  0.00     0.091 A 
ATOM     83  F   UNL A   1      43.092  34.816  33.501  1.00  0.00    -0.205 F 
ATOM     84  C   UNL A   1      43.960  38.070  32.066  1.00  0.00     0.022 A 
BRANCH  82  85
ATOM     85  S   UNL A   1      43.637  37.581  34.743  1.00  0.00     0.127 S 
ATOM     86  O   UNL A   1      44.725  36.777  35.295  1.00  0.00    -0.237 OA
ATOM     87  O   UNL A   1      43.921  39.014  34.656  1.00  0.00    -0.237 OA
ATOM     88  O   UNL A   1      42.305  37.261  35.239  1.00  0.00    -0.744 OA
ENDBRANCH  82  85
ENDBRANCH  55  78
ENDBRANCH  29  30
ENDBRANCH  21  24
ENDBRANCH  19  20
ENDBRANCH  18  19
ENDBRANCH  17  18
ENDBRANCH   1  17
TORSDOF 20
ENDMDL
MODEL 3
REMARK VINA RESULT:      -9.8      5.954     11.590
REMARK SMILES O=C(CCCC[C@@H]1CCSS1)NCCCCCCNC(=O)c1ccc(-c2c3nc(c(-c4cccc(S(=O)(=O)[O-])c4F)c4ccc([nH]4)c(-c4cccc(S(=O)(=O)[O-])c4F)c4nc(c(-c5cccc(S(=O)(=O)[O-])c5F)c5ccc2[nH]5)C=C4)C=C3)cc1
REMARK SMILES IDX 15 1 14 2 13 3 12 4 1 5 2 6 3 8 4 9 5 10 6 11 7 12 8 13
REMARK SMILES IDX 11 14 9 15 10 16 16 17 17 18 18 19 19 20 20 21 21 23 22 24
REMARK SMILES IDX 23 25 84 26 24 27 83 28 25 29 26 30 27 31 77 32 28 33 82 34
REMARK SMILES IDX 76 35 78 36 29 37 81 38 75 39 74 40 30 42 62 43 42 44 61 45
REMARK SMILES IDX 43 46 46 47 60 48 79 49 44 50 45 51 59 53 80 54 47 55 31 56
REMARK SMILES IDX 32 57 40 58 33 59 35 60 41 61 34 62 36 63 37 64 38 65 39 66
REMARK SMILES IDX 63 67 64 68 72 69 65 70 67 71 73 72 66 73 68 74 69 75 70 76
REMARK SMILES IDX 71 77 48 78 49 79 57 80 50 81 52 82 58 83 51 84 53 85 54 86
REMARK SMILES IDX 55 87 56 88
REMARK H PARENT 12 7 19 22 78 41 46 52
REMARK Flexibility Score: inf
ROOT
ATOM      1  C   UNL A   1      33.100  36.523  30.144  1.00  0.00     0.002 C 
ENDROOT
BRANCH   1   2
ATOM      2  C   UNL A   1      32.362  36.158  31.441  1.00  0.00     0.021 C 
BRANCH   2   3
ATOM      3  C   UNL A   1      33.100  36.518  32.731  1.00  0.00     0.116 C 
BRANCH   3   4
ATOM      4  N   UNL A   1      33.593  35.327  33.391  1.00  0.00    -0.356 N 
ATOM      5  O   UNL A   1      35.821  35.591  32.897  1.00  0.00    -0.275 OA
ATOM      6  C   UNL A   1      34.915  34.961  33.428  1.00  0.00     0.219 C 
ATOM      7  H   UNL A   1      32.940  34.743  33.840  1.00  0.00     0.163 HD
BRANCH   6   8
ATOM      8  C   UNL A   1      35.161  33.657  34.165  1.00  0.00     0.100 C 
BRANCH   8   9
ATOM      9  C   UNL A   1      36.329  33.705  35.151  1.00  0.00     0.010 C 
BRANCH   9  10
ATOM     10  C   UNL A   1      37.607  32.956  34.756  1.00  0.00     0.002 C 
BRANCH  10  11
ATOM     11  C   UNL A   1      38.935  33.570  35.223  1.00  0.00     0.015 C 
BRANCH  11  12
ATOM     12  C   UNL A   1      38.781  34.555  36.395  1.00  0.00     0.059 C 
ATOM     13  C   UNL A   1      39.974  35.514  36.521  1.00  0.00     0.027 C 
ATOM     14  S   UNL A   1      38.691  33.653  37.983  1.00  0.00    -0.091 SA
ATOM     15  C   UNL A   1      39.915  36.259  37.848  1.00  0.00     0.083 C 
ATOM     16  S   UNL A   1      39.711  35.005  39.132  1.00  0.00    -0.094 SA
ENDBRANCH  11  12
ENDBRANCH  10  11
ENDBRANCH   9  10
ENDBRANCH   8   9
ENDBRANCH   6   8
ENDBRANCH   3   4
ENDBRANCH   2   3
ENDBRANCH   1   2
BRANCH   1  17
ATOM     17  C   UNL A   1      33.217  35.395  29.115  1.00  0.00     0.002 C 
BRANCH  17  18
ATOM     18  C   UNL A   1      34.531  34.611  29.158  1.00  0.00     0.021 C 
BRANCH  18  19
ATOM     19  C   UNL A   1      34.411  33.169  29.644  1.00  0.00     0.116 C 
BRANCH  19  20
ATOM     20  N   UNL A   1      34.013  32.251  28.587  1.00  0.00    -0.352 N 
ATOM     21  C   UNL A   1      34.699  31.192  28.047  1.00  0.00     0.251 C 
ATOM     22  H   UNL A   1      33.121  32.414  28.204  1.00  0.00     0.163 HD
ATOM     23  O   UNL A   1      34.254  30.628  27.047  1.00  0.00    -0.269 OA
BRANCH  21  24
ATOM     24  C   UNL A   1      35.978  30.741  28.642  1.00  0.00     0.039 A 
ATOM     25  C   UNL A   1      35.965  29.643  29.506  1.00  0.00     0.014 A 
ATOM     26  C   UNL A   1      37.182  31.394  28.363  1.00  0.00     0.014 A 
ATOM     27  C   UNL A   1      37.164  29.165  30.039  1.00  0.00     0.010 A 
ATOM     28  C   UNL A   1      38.384  30.871  28.836  1.00  0.00     0.010 A 
ATOM     29  C   UNL A   1      38.390  29.753  29.681  1.00  0.00    -0.014 A 
BRANCH  29  30
ATOM     30  C   UNL A   1      39.674  29.172  30.156  1.00  0.00     0.031 A 
ATOM     31  C   UNL A   1      40.354  29.693  31.394  1.00  0.00     0.074 A 
ATOM     32  C   UNL A   1      40.266  28.203  29.429  1.00  0.00     0.049 A 
ATOM     33  N   UNL A   1      41.452  29.273  31.968  1.00  0.00    -0.248 NA
ATOM     34  C   UNL A   1      39.737  30.850  32.061  1.00  0.00     0.031 C 
ATOM     35  C   UNL A   1      39.760  27.672  28.160  1.00  0.00     0.029 A 
ATOM     36  N   UNL A   1      41.424  27.499  29.643  1.00  0.00    -0.354 N 
ATOM     37  C   UNL A   1      41.676  30.129  33.039  1.00  0.00     0.074 A 
ATOM     38  C   UNL A   1      40.616  31.115  33.016  1.00  0.00     0.031 C 
ATOM     39  C   UNL A   1      40.586  26.709  27.725  1.00  0.00     0.029 A 
ATOM     40  C   UNL A   1      41.694  26.571  28.664  1.00  0.00     0.049 A 
ATOM     41  H   UNL A   1      42.008  27.646  30.422  1.00  0.00     0.167 HD
ATOM     42  C   UNL A   1      42.658  30.087  33.973  1.00  0.00     0.034 A 
ATOM     43  C   UNL A   1      42.715  25.700  28.538  1.00  0.00     0.034 A 
ATOM     44  C   UNL A   1      43.693  29.086  34.012  1.00  0.00     0.049 A 
ATOM     45  C   UNL A   1      43.766  25.645  29.612  1.00  0.00     0.074 A 
ATOM     46  C   UNL A   1      44.667  28.893  34.976  1.00  0.00     0.029 A 
ATOM     47  N   UNL A   1      43.903  28.124  33.037  1.00  0.00    -0.354 N 
ATOM     48  N   UNL A   1      43.855  26.341  30.720  1.00  0.00    -0.248 NA
ATOM     49  C   UNL A   1      44.837  24.654  29.436  1.00  0.00     0.031 C 
ATOM     50  C   UNL A   1      45.490  27.838  34.562  1.00  0.00     0.029 A 
ATOM     51  C   UNL A   1      45.006  27.349  33.361  1.00  0.00     0.049 A 
ATOM     52  H   UNL A   1      43.349  28.008  32.230  1.00  0.00     0.167 HD
ATOM     53  C   UNL A   1      44.972  25.853  31.387  1.00  0.00     0.074 A 
ATOM     54  C   UNL A   1      45.509  24.781  30.573  1.00  0.00     0.031 C 
ATOM     55  C   UNL A   1      45.516  26.265  32.561  1.00  0.00     0.034 A 
BRANCH  42  56
ATOM     56  C   UNL A   1      42.642  31.139  35.054  1.00  0.00     0.023 A 
ATOM     57  C   UNL A   1      41.968  30.887  36.269  1.00  0.00     0.012 A 
ATOM     58  C   UNL A   1      43.332  32.357  34.890  1.00  0.00     0.148 A 
ATOM     59  C   UNL A   1      41.946  31.844  37.282  1.00  0.00     0.002 A 
ATOM     60  C   UNL A   1      43.345  33.286  35.925  1.00  0.00     0.091 A 
ATOM     61  F   UNL A   1      43.949  32.591  33.724  1.00  0.00    -0.205 F 
ATOM     62  C   UNL A   1      42.642  33.037  37.115  1.00  0.00     0.022 A 
BRANCH  60  63
ATOM     63  S   UNL A   1      44.281  34.817  35.837  1.00  0.00     0.127 S 
ATOM     64  O   UNL A   1      43.293  35.734  35.272  1.00  0.00    -0.237 OA
ATOM     65  O   UNL A   1      44.604  35.061  37.244  1.00  0.00    -0.237 OA
ATOM     66  O   UNL A   1      45.432  34.536  34.991  1.00  0.00    -0.744 OA
ENDBRANCH  60  63
ENDBRANCH  42  56
BRANCH  43  67
ATOM     67  C   UNL A   1      42.744  24.751  27.390  1.00  0.00     0.023 A 
ATOM     68  C   UNL A   1      43.438  25.107  26.218  1.00  0.00     0.012 A 
ATOM     69  C   UNL A   1      42.117  23.491  27.461  1.00  0.00     0.148 A 
ATOM     70  C   UNL A   1      43.484  24.241  25.126  1.00  0.00     0.002 A 
ATOM     71  C   UNL A   1      42.214  22.610  26.392  1.00  0.00     0.091 A 
ATOM     72  F   UNL A   1      41.454  23.175  28.583  1.00  0.00    -0.205 F 
ATOM     73  C   UNL A   1      42.881  22.989  25.216  1.00  0.00     0.022 A 
BRANCH  71  74
ATOM     74  S   UNL A   1      41.584  20.930  26.465  1.00  0.00     0.127 S 
ATOM     75  O   UNL A   1      40.169  21.127  26.163  1.00  0.00    -0.237 OA
ATOM     76  O   UNL A   1      42.355  20.275  25.408  1.00  0.00    -0.237 OA
ATOM     77  O   UNL A   1      41.882  20.454  27.810  1.00  0.00    -0.744 OA
ENDBRANCH  71  74
ENDBRANCH  43  67
BRANCH  55  78
ATOM     78  C   UNL A   1      46.745  25.539  33.046  1.00  0.00     0.023 A 
ATOM     79  C   UNL A   1      46.626  24.532  34.026  1.00  0.00     0.012 A 
ATOM     80  C   UNL A   1      48.015  25.828  32.508  1.00  0.00     0.148 A 
ATOM     81  C   UNL A   1      47.755  23.862  34.499  1.00  0.00     0.002 A 
ATOM     82  C   UNL A   1      49.128  25.119  32.945  1.00  0.00     0.091 A 
ATOM     83  F   UNL A   1      48.115  26.800  31.589  1.00  0.00    -0.205 F 
ATOM     84  C   UNL A   1      49.002  24.149  33.952  1.00  0.00     0.022 A 
BRANCH  82  85
ATOM     85  S   UNL A   1      50.758  25.351  32.226  1.00  0.00     0.127 S 
ATOM     86  O   UNL A   1      51.084  26.709  32.658  1.00  0.00    -0.237 OA
ATOM     87  O   UNL A   1      51.540  24.300  32.878  1.00  0.00    -0.237 OA
ATOM     88  O   UNL A   1      50.590  25.172  30.790  1.00  0.00    -0.744 OA
ENDBRANCH  82  85
ENDBRANCH  55  78
ENDBRANCH  29  30
ENDBRANCH  21  24
ENDBRANCH  19  20
ENDBRANCH  18  19
ENDBRANCH  17  18
ENDBRANCH   1  17
TORSDOF 20
ENDMDL
