MODEL 1
REMARK VINA RESULT:     -11.7      0.000      0.000
REMARK SMILES O=C(Cc1cccn1-c1ccccc1F)NCCCCCCNC(=O)c1ccc(-c2c3nc(c(-c4cccc(S(=O)(=O)[O-])c4F)c4ccc([nH]4)c(-c4cccc(S(=O)(=O)[O-])c4F)c4nc(c(-c5cccc(S(=O)(=O)[O-])c5F)c5ccc2[nH]5)C=C4)C=C3)cc1
REMARK SMILES IDX 20 1 19 2 18 3 17 4 16 5 1 6 2 7 3 9 4 10 5 11 8 12 6 13
REMARK SMILES IDX 7 14 9 15 10 16 14 17 11 18 13 19 15 20 12 21 21 22 22 23
REMARK SMILES IDX 23 24 24 25 25 27 26 28 27 29 88 30 28 31 87 32 29 33 30 34
REMARK SMILES IDX 31 35 81 36 32 37 86 38 80 39 82 40 33 41 85 42 79 43 78 44
REMARK SMILES IDX 34 46 66 47 46 48 65 49 47 50 50 51 64 52 83 53 48 54 49 55
REMARK SMILES IDX 63 57 84 58 51 59 35 60 36 61 44 62 37 63 39 64 45 65 38 66
REMARK SMILES IDX 40 67 41 68 42 69 43 70 67 71 68 72 76 73 69 74 71 75 77 76
REMARK SMILES IDX 70 77 72 78 73 79 74 80 75 81 52 82 53 83 61 84 54 85 56 86
REMARK SMILES IDX 62 87 55 88 57 89 58 90 59 91 60 92
REMARK H PARENT 16 8 23 26 82 45 50 56
REMARK Flexibility Score: inf
ROOT
ATOM      1  C   UNL A   1      33.344  27.464  25.243  1.00  0.00     0.002 C 
ENDROOT
BRANCH   1   2
ATOM      2  C   UNL A   1      32.329  26.975  26.282  1.00  0.00     0.002 C 
BRANCH   2   3
ATOM      3  C   UNL A   1      31.715  25.596  26.003  1.00  0.00     0.021 C 
BRANCH   3   4
ATOM      4  C   UNL A   1      31.402  25.313  24.534  1.00  0.00     0.116 C 
BRANCH   4   5
ATOM      5  N   UNL A   1      32.195  24.208  24.042  1.00  0.00    -0.356 N 
ATOM      6  O   UNL A   1      33.416  25.376  22.479  1.00  0.00    -0.275 OA
ATOM      7  C   UNL A   1      33.142  24.326  23.049  1.00  0.00     0.225 C 
ATOM      8  H   UNL A   1      32.050  23.320  24.441  1.00  0.00     0.163 HD
BRANCH   7   9
ATOM      9  C   UNL A   1      33.800  22.999  22.705  1.00  0.00     0.154 C 
BRANCH   9  10
ATOM     10  C   UNL A   1      33.380  21.909  23.655  1.00  0.00     0.032 A 
ATOM     11  C   UNL A   1      32.242  21.113  23.611  1.00  0.00     0.024 A 
ATOM     12  N   UNL A   1      34.181  21.425  24.683  1.00  0.00    -0.318 N 
ATOM     13  C   UNL A   1      32.364  20.109  24.592  1.00  0.00     0.020 A 
ATOM     14  C   UNL A   1      33.579  20.295  25.206  1.00  0.00     0.091 A 
BRANCH  12  15
ATOM     15  C   UNL A   1      35.451  21.894  25.086  1.00  0.00     0.081 A 
ATOM     16  C   UNL A   1      36.586  21.123  24.809  1.00  0.00     0.030 A 
ATOM     17  C   UNL A   1      35.580  23.111  25.754  1.00  0.00     0.147 A 
ATOM     18  C   UNL A   1      37.848  21.609  25.154  1.00  0.00     0.002 A 
ATOM     19  C   UNL A   1      36.838  23.584  26.115  1.00  0.00     0.041 A 
ATOM     20  F   UNL A   1      34.504  23.822  26.110  1.00  0.00    -0.205 F 
ATOM     21  C   UNL A   1      37.975  22.838  25.804  1.00  0.00     0.003 A 
ENDBRANCH  12  15
ENDBRANCH   9  10
ENDBRANCH   7   9
ENDBRANCH   4   5
ENDBRANCH   3   4
ENDBRANCH   2   3
ENDBRANCH   1   2
BRANCH   1  22
ATOM     22  C   UNL A   1      34.013  28.806  25.571  1.00  0.00     0.021 C 
BRANCH  22  23
ATOM     23  C   UNL A   1      34.702  28.840  26.936  1.00  0.00     0.116 C 
BRANCH  23  24
ATOM     24  N   UNL A   1      35.048  30.206  27.303  1.00  0.00    -0.352 N 
ATOM     25  C   UNL A   1      36.098  30.676  28.048  1.00  0.00     0.251 C 
ATOM     26  H   UNL A   1      34.434  30.898  26.963  1.00  0.00     0.163 HD
ATOM     27  O   UNL A   1      36.006  31.795  28.551  1.00  0.00    -0.269 OA
BRANCH  25  28
ATOM     28  C   UNL A   1      37.324  29.877  28.270  1.00  0.00     0.039 A 
ATOM     29  C   UNL A   1      38.269  29.832  27.234  1.00  0.00     0.014 A 
ATOM     30  C   UNL A   1      37.509  29.102  29.420  1.00  0.00     0.014 A 
ATOM     31  C   UNL A   1      39.421  29.064  27.376  1.00  0.00     0.010 A 
ATOM     32  C   UNL A   1      38.666  28.343  29.571  1.00  0.00     0.010 A 
ATOM     33  C   UNL A   1      39.632  28.343  28.558  1.00  0.00    -0.014 A 
BRANCH  33  34
ATOM     34  C   UNL A   1      40.973  27.760  28.804  1.00  0.00     0.031 A 
ATOM     35  C   UNL A   1      41.004  26.262  28.373  1.00  0.00     0.074 A 
ATOM     36  C   UNL A   1      41.907  28.587  29.371  1.00  0.00     0.049 A 
ATOM     37  N   UNL A   1      41.655  25.246  28.862  1.00  0.00    -0.248 NA
ATOM     38  C   UNL A   1      40.067  25.807  27.304  1.00  0.00     0.031 C 
ATOM     39  C   UNL A   1      41.709  30.031  29.648  1.00  0.00     0.029 A 
ATOM     40  N   UNL A   1      43.201  28.415  29.824  1.00  0.00    -0.354 N 
ATOM     41  C   UNL A   1      41.390  24.125  28.025  1.00  0.00     0.074 A 
ATOM     42  C   UNL A   1      40.299  24.499  27.186  1.00  0.00     0.031 C 
ATOM     43  C   UNL A   1      42.781  30.561  30.283  1.00  0.00     0.029 A 
ATOM     44  C   UNL A   1      43.788  29.535  30.472  1.00  0.00     0.049 A 
ATOM     45  H   UNL A   1      43.687  27.566  29.705  1.00  0.00     0.167 HD
ATOM     46  C   UNL A   1      42.189  23.012  27.974  1.00  0.00     0.034 A 
ATOM     47  C   UNL A   1      44.978  29.612  31.155  1.00  0.00     0.034 A 
ATOM     48  C   UNL A   1      43.272  23.184  28.883  1.00  0.00     0.049 A 
ATOM     49  C   UNL A   1      45.621  28.310  30.944  1.00  0.00     0.074 A 
ATOM     50  C   UNL A   1      43.379  23.113  30.245  1.00  0.00     0.029 A 
ATOM     51  N   UNL A   1      44.367  23.829  28.363  1.00  0.00    -0.354 N 
ATOM     52  N   UNL A   1      46.148  27.919  29.821  1.00  0.00    -0.248 NA
ATOM     53  C   UNL A   1      45.553  27.314  32.020  1.00  0.00     0.031 C 
ATOM     54  C   UNL A   1      44.307  24.133  30.543  1.00  0.00     0.029 A 
ATOM     55  C   UNL A   1      44.873  24.619  29.358  1.00  0.00     0.049 A 
ATOM     56  H   UNL A   1      44.721  23.738  27.448  1.00  0.00     0.167 HD
ATOM     57  C   UNL A   1      46.121  26.555  29.958  1.00  0.00     0.074 A 
ATOM     58  C   UNL A   1      46.081  26.279  31.376  1.00  0.00     0.031 C 
ATOM     59  C   UNL A   1      45.624  25.782  28.962  1.00  0.00     0.034 A 
BRANCH  46  60
ATOM     60  C   UNL A   1      42.312  21.825  27.035  1.00  0.00     0.023 A 
ATOM     61  C   UNL A   1      41.430  20.736  27.313  1.00  0.00     0.012 A 
ATOM     62  C   UNL A   1      43.368  21.573  26.143  1.00  0.00     0.148 A 
ATOM     63  C   UNL A   1      41.662  19.439  26.857  1.00  0.00     0.002 A 
ATOM     64  C   UNL A   1      43.565  20.278  25.642  1.00  0.00     0.091 A 
ATOM     65  F   UNL A   1      44.222  22.556  25.840  1.00  0.00    -0.205 F 
ATOM     66  C   UNL A   1      42.745  19.208  26.032  1.00  0.00     0.022 A 
BRANCH  64  67
ATOM     67  S   UNL A   1      44.871  19.857  24.480  1.00  0.00     0.127 S 
ATOM     68  O   UNL A   1      44.567  20.727  23.350  1.00  0.00    -0.237 OA
ATOM     69  O   UNL A   1      46.072  20.233  25.230  1.00  0.00    -0.237 OA
ATOM     70  O   UNL A   1      44.745  18.422  24.247  1.00  0.00    -0.744 OA
ENDBRANCH  64  67
ENDBRANCH  46  60
BRANCH  47  71
ATOM     71  C   UNL A   1      45.660  30.565  32.123  1.00  0.00     0.023 A 
ATOM     72  C   UNL A   1      46.934  31.117  31.931  1.00  0.00     0.012 A 
ATOM     73  C   UNL A   1      44.951  31.044  33.272  1.00  0.00     0.148 A 
ATOM     74  C   UNL A   1      47.414  32.158  32.757  1.00  0.00     0.002 A 
ATOM     75  C   UNL A   1      45.361  32.159  33.994  1.00  0.00     0.091 A 
ATOM     76  F   UNL A   1      43.868  30.390  33.704  1.00  0.00    -0.205 F 
ATOM     77  C   UNL A   1      46.609  32.717  33.750  1.00  0.00     0.022 A 
BRANCH  75  78
ATOM     78  S   UNL A   1      44.248  33.019  35.129  1.00  0.00     0.127 S 
ATOM     79  O   UNL A   1      44.917  34.305  35.313  1.00  0.00    -0.237 OA
ATOM     80  O   UNL A   1      43.017  33.074  34.341  1.00  0.00    -0.237 OA
ATOM     81  O   UNL A   1      44.164  32.193  36.327  1.00  0.00    -0.744 OA
ENDBRANCH  75  78
ENDBRANCH  47  71
BRANCH  59  82
ATOM     82  C   UNL A   1      45.685  26.391  27.565  1.00  0.00     0.023 A 
ATOM     83  C   UNL A   1      44.465  26.818  27.012  1.00  0.00     0.012 A 
ATOM     84  C   UNL A   1      46.841  26.492  26.750  1.00  0.00     0.148 A 
ATOM     85  C   UNL A   1      44.390  27.332  25.714  1.00  0.00     0.002 A 
ATOM     86  C   UNL A   1      46.765  26.994  25.445  1.00  0.00     0.091 A 
ATOM     87  F   UNL A   1      48.011  26.104  27.248  1.00  0.00    -0.205 F 
ATOM     88  C   UNL A   1      45.536  27.422  24.931  1.00  0.00     0.022 A 
BRANCH  86  89
ATOM     89  S   UNL A   1      48.173  27.072  24.312  1.00  0.00     0.127 S 
ATOM     90  O   UNL A   1      47.526  27.310  23.019  1.00  0.00    -0.237 OA
ATOM     91  O   UNL A   1      48.918  28.217  24.825  1.00  0.00    -0.237 OA
ATOM     92  O   UNL A   1      48.856  25.786  24.404  1.00  0.00    -0.744 OA
ENDBRANCH  86  89
ENDBRANCH  59  82
ENDBRANCH  33  34
ENDBRANCH  25  28
ENDBRANCH  23  24
ENDBRANCH  22  23
ENDBRANCH   1  22
TORSDOF 18
ENDMDL
MODEL 2
REMARK VINA RESULT:     -11.3      1.547      2.351
REMARK SMILES O=C(Cc1cccn1-c1ccccc1F)NCCCCCCNC(=O)c1ccc(-c2c3nc(c(-c4cccc(S(=O)(=O)[O-])c4F)c4ccc([nH]4)c(-c4cccc(S(=O)(=O)[O-])c4F)c4nc(c(-c5cccc(S(=O)(=O)[O-])c5F)c5ccc2[nH]5)C=C4)C=C3)cc1
REMARK SMILES IDX 20 1 19 2 18 3 17 4 16 5 1 6 2 7 3 9 4 10 5 11 8 12 6 13
REMARK SMILES IDX 7 14 9 15 10 16 14 17 11 18 13 19 15 20 12 21 21 22 22 23
REMARK SMILES IDX 23 24 24 25 25 27 26 28 27 29 88 30 28 31 87 32 29 33 30 34
REMARK SMILES IDX 31 35 81 36 32 37 86 38 80 39 82 40 33 41 85 42 79 43 78 44
REMARK SMILES IDX 34 46 66 47 46 48 65 49 47 50 50 51 64 52 83 53 48 54 49 55
REMARK SMILES IDX 63 57 84 58 51 59 35 60 36 61 44 62 37 63 39 64 45 65 38 66
REMARK SMILES IDX 40 67 41 68 42 69 43 70 67 71 68 72 76 73 69 74 71 75 77 76
REMARK SMILES IDX 70 77 72 78 73 79 74 80 75 81 52 82 53 83 61 84 54 85 56 86
REMARK SMILES IDX 62 87 55 88 57 89 58 90 59 91 60 92
REMARK H PARENT 16 8 23 26 82 45 50 56
REMARK Flexibility Score: inf
ROOT
ATOM      1  C   UNL A   1      32.862  27.775  25.318  1.00  0.00     0.002 C 
ENDROOT
BRANCH   1   2
ATOM      2  C   UNL A   1      31.796  27.630  26.410  1.00  0.00     0.002 C 
BRANCH   2   3
ATOM      3  C   UNL A   1      31.145  26.242  26.513  1.00  0.00     0.021 C 
BRANCH   3   4
ATOM      4  C   UNL A   1      31.524  25.267  25.398  1.00  0.00     0.116 C 
BRANCH   4   5
ATOM      5  N   UNL A   1      32.604  24.401  25.817  1.00  0.00    -0.356 N 
ATOM      6  O   UNL A   1      31.540  23.428  27.612  1.00  0.00    -0.275 OA
ATOM      7  C   UNL A   1      32.528  23.548  26.896  1.00  0.00     0.225 C 
ATOM      8  H   UNL A   1      33.442  24.422  25.301  1.00  0.00     0.163 HD
BRANCH   7   9
ATOM      9  C   UNL A   1      33.821  22.782  27.130  1.00  0.00     0.154 C 
BRANCH   9  10
ATOM     10  C   UNL A   1      34.836  23.066  26.055  1.00  0.00     0.032 A 
ATOM     11  C   UNL A   1      35.896  23.963  26.081  1.00  0.00     0.024 A 
ATOM     12  N   UNL A   1      34.947  22.332  24.880  1.00  0.00    -0.318 N 
ATOM     13  C   UNL A   1      36.686  23.751  24.933  1.00  0.00     0.020 A 
ATOM     14  C   UNL A   1      36.107  22.718  24.235  1.00  0.00     0.091 A 
BRANCH  12  15
ATOM     15  C   UNL A   1      34.113  21.282  24.432  1.00  0.00     0.081 A 
ATOM     16  C   UNL A   1      34.382  19.971  24.842  1.00  0.00     0.030 A 
ATOM     17  C   UNL A   1      33.034  21.542  23.589  1.00  0.00     0.147 A 
ATOM     18  C   UNL A   1      33.528  18.939  24.449  1.00  0.00     0.002 A 
ATOM     19  C   UNL A   1      32.195  20.508  23.182  1.00  0.00     0.041 A 
ATOM     20  F   UNL A   1      32.810  22.772  23.111  1.00  0.00    -0.205 F 
ATOM     21  C   UNL A   1      32.436  19.207  23.622  1.00  0.00     0.003 A 
ENDBRANCH  12  15
ENDBRANCH   9  10
ENDBRANCH   7   9
ENDBRANCH   4   5
ENDBRANCH   3   4
ENDBRANCH   2   3
ENDBRANCH   1   2
BRANCH   1  22
ATOM     22  C   UNL A   1      33.861  28.919  25.535  1.00  0.00     0.021 C 
BRANCH  22  23
ATOM     23  C   UNL A   1      34.581  28.871  26.884  1.00  0.00     0.116 C 
BRANCH  23  24
ATOM     24  N   UNL A   1      34.899  30.214  27.345  1.00  0.00    -0.352 N 
ATOM     25  C   UNL A   1      35.933  30.650  28.133  1.00  0.00     0.251 C 
ATOM     26  H   UNL A   1      34.277  30.917  27.046  1.00  0.00     0.163 HD
ATOM     27  O   UNL A   1      35.816  31.731  28.709  1.00  0.00    -0.269 OA
BRANCH  25  28
ATOM     28  C   UNL A   1      37.169  29.858  28.315  1.00  0.00     0.039 A 
ATOM     29  C   UNL A   1      38.100  29.853  27.265  1.00  0.00     0.014 A 
ATOM     30  C   UNL A   1      37.379  29.053  29.440  1.00  0.00     0.014 A 
ATOM     31  C   UNL A   1      39.262  29.094  27.369  1.00  0.00     0.010 A 
ATOM     32  C   UNL A   1      38.546  28.304  29.553  1.00  0.00     0.010 A 
ATOM     33  C   UNL A   1      39.497  28.342  28.528  1.00  0.00    -0.014 A 
BRANCH  33  34
ATOM     34  C   UNL A   1      40.848  27.766  28.738  1.00  0.00     0.031 A 
ATOM     35  C   UNL A   1      40.884  26.278  28.276  1.00  0.00     0.074 A 
ATOM     36  C   UNL A   1      41.784  28.591  29.306  1.00  0.00     0.049 A 
ATOM     37  N   UNL A   1      41.553  25.259  28.733  1.00  0.00    -0.248 NA
ATOM     38  C   UNL A   1      39.933  25.837  27.214  1.00  0.00     0.031 C 
ATOM     39  C   UNL A   1      41.577  30.027  29.616  1.00  0.00     0.029 A 
ATOM     40  N   UNL A   1      43.087  28.422  29.733  1.00  0.00    -0.354 N 
ATOM     41  C   UNL A   1      41.284  24.152  27.878  1.00  0.00     0.074 A 
ATOM     42  C   UNL A   1      40.175  24.533  27.066  1.00  0.00     0.031 C 
ATOM     43  C   UNL A   1      42.655  30.555  30.243  1.00  0.00     0.029 A 
ATOM     44  C   UNL A   1      43.676  29.534  30.393  1.00  0.00     0.049 A 
ATOM     45  H   UNL A   1      43.579  27.580  29.588  1.00  0.00     0.167 HD
ATOM     46  C   UNL A   1      42.092  23.049  27.791  1.00  0.00     0.034 A 
ATOM     47  C   UNL A   1      44.876  29.609  31.057  1.00  0.00     0.034 A 
ATOM     48  C   UNL A   1      43.190  23.212  28.683  1.00  0.00     0.049 A 
ATOM     49  C   UNL A   1      45.528  28.317  30.808  1.00  0.00     0.074 A 
ATOM     50  C   UNL A   1      43.321  23.114  30.041  1.00  0.00     0.029 A 
ATOM     51  N   UNL A   1      44.269  23.878  28.157  1.00  0.00    -0.354 N 
ATOM     52  N   UNL A   1      46.038  27.954  29.668  1.00  0.00    -0.248 NA
ATOM     53  C   UNL A   1      45.487  27.299  31.864  1.00  0.00     0.031 C 
ATOM     54  C   UNL A   1      44.244  24.137  30.345  1.00  0.00     0.029 A 
ATOM     55  C   UNL A   1      44.785  24.653  29.160  1.00  0.00     0.049 A 
ATOM     56  H   UNL A   1      44.607  23.809  27.235  1.00  0.00     0.167 HD
ATOM     57  C   UNL A   1      46.026  26.588  29.778  1.00  0.00     0.074 A 
ATOM     58  C   UNL A   1      46.013  26.282  31.190  1.00  0.00     0.031 C 
ATOM     59  C   UNL A   1      45.518  25.830  28.775  1.00  0.00     0.034 A 
BRANCH  46  60
ATOM     60  C   UNL A   1      42.210  21.882  26.824  1.00  0.00     0.023 A 
ATOM     61  C   UNL A   1      41.160  20.915  26.908  1.00  0.00     0.012 A 
ATOM     62  C   UNL A   1      43.353  21.514  26.097  1.00  0.00     0.148 A 
ATOM     63  C   UNL A   1      41.292  19.612  26.432  1.00  0.00     0.002 A 
ATOM     64  C   UNL A   1      43.458  20.218  25.570  1.00  0.00     0.091 A 
ATOM     65  F   UNL A   1      44.365  22.379  25.979  1.00  0.00    -0.205 F 
ATOM     66  C   UNL A   1      42.454  19.259  25.775  1.00  0.00     0.022 A 
BRANCH  64  67
ATOM     67  S   UNL A   1      44.868  19.656  24.606  1.00  0.00     0.127 S 
ATOM     68  O   UNL A   1      44.476  20.019  23.250  1.00  0.00    -0.237 OA
ATOM     69  O   UNL A   1      45.954  20.467  25.162  1.00  0.00    -0.237 OA
ATOM     70  O   UNL A   1      44.994  18.229  24.886  1.00  0.00    -0.744 OA
ENDBRANCH  64  67
ENDBRANCH  46  60
BRANCH  47  71
ATOM     71  C   UNL A   1      45.566  30.547  32.033  1.00  0.00     0.023 A 
ATOM     72  C   UNL A   1      46.074  30.163  33.281  1.00  0.00     0.012 A 
ATOM     73  C   UNL A   1      45.835  31.901  31.651  1.00  0.00     0.148 A 
ATOM     74  C   UNL A   1      46.893  31.032  34.038  1.00  0.00     0.002 A 
ATOM     75  C   UNL A   1      46.751  32.702  32.324  1.00  0.00     0.091 A 
ATOM     76  F   UNL A   1      45.169  32.448  30.630  1.00  0.00    -0.205 F 
ATOM     77  C   UNL A   1      47.277  32.275  33.538  1.00  0.00     0.022 A 
BRANCH  75  78
ATOM     78  S   UNL A   1      47.418  34.211  31.588  1.00  0.00     0.127 S 
ATOM     79  O   UNL A   1      47.859  33.753  30.272  1.00  0.00    -0.237 OA
ATOM     80  O   UNL A   1      46.235  35.073  31.573  1.00  0.00    -0.237 OA
ATOM     81  O   UNL A   1      48.484  34.663  32.471  1.00  0.00    -0.744 OA
ENDBRANCH  75  78
ENDBRANCH  47  71
BRANCH  59  82
ATOM     82  C   UNL A   1      45.549  26.468  27.390  1.00  0.00     0.023 A 
ATOM     83  C   UNL A   1      44.324  26.941  26.888  1.00  0.00     0.012 A 
ATOM     84  C   UNL A   1      46.679  26.554  26.538  1.00  0.00     0.148 A 
ATOM     85  C   UNL A   1      44.220  27.486  25.605  1.00  0.00     0.002 A 
ATOM     86  C   UNL A   1      46.573  27.087  25.247  1.00  0.00     0.091 A 
ATOM     87  F   UNL A   1      47.854  26.122  26.986  1.00  0.00    -0.205 F 
ATOM     88  C   UNL A   1      45.341  27.561  24.785  1.00  0.00     0.022 A 
BRANCH  86  89
ATOM     89  S   UNL A   1      47.943  27.151  24.068  1.00  0.00     0.127 S 
ATOM     90  O   UNL A   1      48.983  27.847  24.828  1.00  0.00    -0.237 OA
ATOM     91  O   UNL A   1      48.220  25.736  23.838  1.00  0.00    -0.237 OA
ATOM     92  O   UNL A   1      47.463  27.893  22.907  1.00  0.00    -0.744 OA
ENDBRANCH  86  89
ENDBRANCH  59  82
ENDBRANCH  33  34
ENDBRANCH  25  28
ENDBRANCH  23  24
ENDBRANCH  22  23
ENDBRANCH   1  22
TORSDOF 18
ENDMDL
MODEL 3
REMARK VINA RESULT:     -10.8      3.550      9.441
REMARK SMILES O=C(Cc1cccn1-c1ccccc1F)NCCCCCCNC(=O)c1ccc(-c2c3nc(c(-c4cccc(S(=O)(=O)[O-])c4F)c4ccc([nH]4)c(-c4cccc(S(=O)(=O)[O-])c4F)c4nc(c(-c5cccc(S(=O)(=O)[O-])c5F)c5ccc2[nH]5)C=C4)C=C3)cc1
REMARK SMILES IDX 20 1 19 2 18 3 17 4 16 5 1 6 2 7 3 9 4 10 5 11 8 12 6 13
REMARK SMILES IDX 7 14 9 15 10 16 14 17 11 18 13 19 15 20 12 21 21 22 22 23
REMARK SMILES IDX 23 24 24 25 25 27 26 28 27 29 88 30 28 31 87 32 29 33 30 34
REMARK SMILES IDX 31 35 81 36 32 37 86 38 80 39 82 40 33 41 85 42 79 43 78 44
REMARK SMILES IDX 34 46 66 47 46 48 65 49 47 50 50 51 64 52 83 53 48 54 49 55
REMARK SMILES IDX 63 57 84 58 51 59 35 60 36 61 44 62 37 63 39 64 45 65 38 66
REMARK SMILES IDX 40 67 41 68 42 69 43 70 67 71 68 72 76 73 69 74 71 75 77 76
REMARK SMILES IDX 70 77 72 78 73 79 74 80 75 81 52 82 53 83 61 84 54 85 56 86
REMARK SMILES IDX 62 87 55 88 57 89 58 90 59 91 60 92
REMARK H PARENT 16 8 23 26 82 45 50 56
REMARK Flexibility Score: inf
ROOT
ATOM      1  C   UNL A   1      40.655  21.261  27.072  1.00  0.00     0.002 C 
ENDROOT
BRANCH   1   2
ATOM      2  C   UNL A   1      40.301  22.751  27.001  1.00  0.00     0.002 C 
BRANCH   2   3
ATOM      3  C   UNL A   1      38.914  23.070  26.424  1.00  0.00     0.021 C 
BRANCH   3   4
ATOM      4  C   UNL A   1      38.240  21.912  25.688  1.00  0.00     0.116 C 
BRANCH   4   5
ATOM      5  N   UNL A   1      37.445  22.400  24.582  1.00  0.00    -0.356 N 
ATOM      6  O   UNL A   1      35.680  23.221  25.809  1.00  0.00    -0.275 OA
ATOM      7  C   UNL A   1      36.222  23.016  24.729  1.00  0.00     0.225 C 
ATOM      8  H   UNL A   1      37.799  22.284  23.670  1.00  0.00     0.163 HD
BRANCH   7   9
ATOM      9  C   UNL A   1      35.591  23.395  23.398  1.00  0.00     0.154 C 
BRANCH   9  10
ATOM     10  C   UNL A   1      34.098  23.204  23.419  1.00  0.00     0.032 A 
ATOM     11  C   UNL A   1      33.378  22.020  23.526  1.00  0.00     0.024 A 
ATOM     12  N   UNL A   1      33.183  24.248  23.479  1.00  0.00    -0.318 N 
ATOM     13  C   UNL A   1      32.017  22.342  23.694  1.00  0.00     0.020 A 
ATOM     14  C   UNL A   1      31.929  23.713  23.705  1.00  0.00     0.091 A 
BRANCH  12  15
ATOM     15  C   UNL A   1      33.448  25.636  23.441  1.00  0.00     0.081 A 
ATOM     16  C   UNL A   1      33.484  26.293  22.205  1.00  0.00     0.030 A 
ATOM     17  C   UNL A   1      33.673  26.349  24.617  1.00  0.00     0.147 A 
ATOM     18  C   UNL A   1      33.688  27.673  22.166  1.00  0.00     0.002 A 
ATOM     19  C   UNL A   1      33.896  27.723  24.574  1.00  0.00     0.041 A 
ATOM     20  F   UNL A   1      33.733  25.729  25.802  1.00  0.00    -0.205 F 
ATOM     21  C   UNL A   1      33.892  28.388  23.349  1.00  0.00     0.003 A 
ENDBRANCH  12  15
ENDBRANCH   9  10
ENDBRANCH   7   9
ENDBRANCH   4   5
ENDBRANCH   3   4
ENDBRANCH   2   3
ENDBRANCH   1   2
BRANCH   1  22
ATOM     22  C   UNL A   1      41.939  20.863  26.331  1.00  0.00     0.021 C 
BRANCH  22  23
ATOM     23  C   UNL A   1      42.703  22.045  25.730  1.00  0.00     0.116 C 
BRANCH  23  24
ATOM     24  N   UNL A   1      44.060  22.099  26.253  1.00  0.00    -0.352 N 
ATOM     25  C   UNL A   1      44.737  23.141  26.832  1.00  0.00     0.251 C 
ATOM     26  H   UNL A   1      44.570  21.259  26.179  1.00  0.00     0.163 HD
ATOM     27  O   UNL A   1      45.967  23.098  26.859  1.00  0.00    -0.269 OA
BRANCH  25  28
ATOM     28  C   UNL A   1      44.036  24.308  27.411  1.00  0.00     0.039 A 
ATOM     29  C   UNL A   1      43.138  24.073  28.463  1.00  0.00     0.014 A 
ATOM     30  C   UNL A   1      44.168  25.595  26.878  1.00  0.00     0.014 A 
ATOM     31  C   UNL A   1      42.425  25.131  29.018  1.00  0.00     0.010 A 
ATOM     32  C   UNL A   1      43.466  26.657  27.440  1.00  0.00     0.010 A 
ATOM     33  C   UNL A   1      42.612  26.428  28.524  1.00  0.00    -0.014 A 
BRANCH  33  34
ATOM     34  C   UNL A   1      42.060  27.568  29.296  1.00  0.00     0.031 A 
ATOM     35  C   UNL A   1      42.879  27.788  30.604  1.00  0.00     0.074 A 
ATOM     36  C   UNL A   1      40.955  28.186  28.770  1.00  0.00     0.049 A 
ATOM     37  N   UNL A   1      42.510  28.204  31.781  1.00  0.00    -0.248 NA
ATOM     38  C   UNL A   1      44.309  27.362  30.631  1.00  0.00     0.031 C 
ATOM     39  C   UNL A   1      40.351  27.874  27.452  1.00  0.00     0.029 A 
ATOM     40  N   UNL A   1      40.116  29.195  29.204  1.00  0.00    -0.354 N 
ATOM     41  C   UNL A   1      43.682  28.311  32.583  1.00  0.00     0.074 A 
ATOM     42  C   UNL A   1      44.720  27.640  31.870  1.00  0.00     0.031 C 
ATOM     43  C   UNL A   1      39.226  28.597  27.243  1.00  0.00     0.029 A 
ATOM     44  C   UNL A   1      38.986  29.460  28.384  1.00  0.00     0.049 A 
ATOM     45  H   UNL A   1      40.291  29.700  30.032  1.00  0.00     0.167 HD
ATOM     46  C   UNL A   1      43.758  29.079  33.716  1.00  0.00     0.034 A 
ATOM     47  C   UNL A   1      37.910  30.276  28.635  1.00  0.00     0.034 A 
ATOM     48  C   UNL A   1      42.498  29.708  33.928  1.00  0.00     0.049 A 
ATOM     49  C   UNL A   1      38.243  30.969  29.885  1.00  0.00     0.074 A 
ATOM     50  C   UNL A   1      41.291  29.264  34.394  1.00  0.00     0.029 A 
ATOM     51  N   UNL A   1      42.336  30.910  33.286  1.00  0.00    -0.354 N 
ATOM     52  N   UNL A   1      39.139  31.905  29.997  1.00  0.00    -0.248 NA
ATOM     53  C   UNL A   1      37.633  30.491  31.132  1.00  0.00     0.031 C 
ATOM     54  C   UNL A   1      40.365  29.981  33.608  1.00  0.00     0.029 A 
ATOM     55  C   UNL A   1      41.033  30.966  32.870  1.00  0.00     0.049 A 
ATOM     56  H   UNL A   1      43.025  31.600  33.151  1.00  0.00     0.167 HD
ATOM     57  C   UNL A   1      39.443  31.845  31.332  1.00  0.00     0.074 A 
ATOM     58  C   UNL A   1      38.306  31.246  31.993  1.00  0.00     0.031 C 
ATOM     59  C   UNL A   1      40.738  31.797  31.732  1.00  0.00     0.034 A 
BRANCH  46  60
ATOM     60  C   UNL A   1      44.891  29.583  34.594  1.00  0.00     0.023 A 
ATOM     61  C   UNL A   1      44.794  29.228  35.975  1.00  0.00     0.012 A 
ATOM     62  C   UNL A   1      45.826  30.576  34.260  1.00  0.00     0.148 A 
ATOM     63  C   UNL A   1      45.470  29.915  36.982  1.00  0.00     0.002 A 
ATOM     64  C   UNL A   1      46.546  31.227  35.272  1.00  0.00     0.091 A 
ATOM     65  F   UNL A   1      45.966  30.945  32.983  1.00  0.00    -0.205 F 
ATOM     66  C   UNL A   1      46.336  30.930  36.628  1.00  0.00     0.022 A 
BRANCH  64  67
ATOM     67  S   UNL A   1      47.781  32.493  34.948  1.00  0.00     0.127 S 
ATOM     68  O   UNL A   1      46.964  33.696  34.836  1.00  0.00    -0.237 OA
ATOM     69  O   UNL A   1      48.602  32.427  36.160  1.00  0.00    -0.237 OA
ATOM     70  O   UNL A   1      48.477  32.065  33.738  1.00  0.00    -0.744 OA
ENDBRANCH  64  67
ENDBRANCH  46  60
BRANCH  47  71
ATOM     71  C   UNL A   1      36.514  30.503  28.076  1.00  0.00     0.023 A 
ATOM     72  C   UNL A   1      35.629  29.480  27.709  1.00  0.00     0.012 A 
ATOM     73  C   UNL A   1      35.983  31.830  28.002  1.00  0.00     0.148 A 
ATOM     74  C   UNL A   1      34.277  29.755  27.406  1.00  0.00     0.002 A 
ATOM     75  C   UNL A   1      34.625  32.086  27.842  1.00  0.00     0.091 A 
ATOM     76  F   UNL A   1      36.808  32.880  28.054  1.00  0.00    -0.205 F 
ATOM     77  C   UNL A   1      33.761  31.045  27.527  1.00  0.00     0.022 A 
BRANCH  75  78
ATOM     78  S   UNL A   1      33.914  33.707  28.203  1.00  0.00     0.127 S 
ATOM     79  O   UNL A   1      32.526  33.546  27.774  1.00  0.00    -0.237 OA
ATOM     80  O   UNL A   1      34.102  33.790  29.652  1.00  0.00    -0.237 OA
ATOM     81  O   UNL A   1      34.685  34.676  27.436  1.00  0.00    -0.744 OA
ENDBRANCH  75  78
ENDBRANCH  47  71
BRANCH  59  82
ATOM     82  C   UNL A   1      41.747  32.401  30.762  1.00  0.00     0.023 A 
ATOM     83  C   UNL A   1      42.591  31.499  30.090  1.00  0.00     0.012 A 
ATOM     84  C   UNL A   1      41.963  33.785  30.539  1.00  0.00     0.148 A 
ATOM     85  C   UNL A   1      43.597  31.943  29.226  1.00  0.00     0.002 A 
ATOM     86  C   UNL A   1      42.980  34.231  29.686  1.00  0.00     0.091 A 
ATOM     87  F   UNL A   1      41.176  34.663  31.155  1.00  0.00    -0.205 F 
ATOM     88  C   UNL A   1      43.791  33.305  29.022  1.00  0.00     0.022 A 
BRANCH  86  89
ATOM     89  S   UNL A   1      43.377  35.975  29.417  1.00  0.00     0.127 S 
ATOM     90  O   UNL A   1      44.582  35.901  28.588  1.00  0.00    -0.237 OA
ATOM     91  O   UNL A   1      42.194  36.456  28.709  1.00  0.00    -0.237 OA
ATOM     92  O   UNL A   1      43.601  36.561  30.734  1.00  0.00    -0.744 OA
ENDBRANCH  86  89
ENDBRANCH  59  82
ENDBRANCH  33  34
ENDBRANCH  25  28
ENDBRANCH  23  24
ENDBRANCH  22  23
ENDBRANCH   1  22
TORSDOF 18
ENDMDL
