MODEL 1
REMARK VINA RESULT:     -11.0      0.000      0.000
REMARK SMILES CC[C@](C)(NC(=O)NC[C@H]1COCCO1)C(=O)NCCCCCCNC(=O)c1ccc(-c2c3nc(c(-c4cccc(S(=O)(=O)[O-])c4F)c4ccc([nH]4)c(-c4cccc(S(=O)(=O)[O-])c4F)c4nc(c(-c5cccc(S(=O)(=O)[O-])c5F)c5ccc2[nH]5)C=C4)C=C3)cc1
REMARK SMILES IDX 21 1 20 2 19 3 18 4 16 5 17 6 3 8 4 9 2 10 1 11 5 12 6 13
REMARK SMILES IDX 7 15 8 16 9 18 10 19 11 20 15 21 12 22 14 23 13 24 22 25
REMARK SMILES IDX 23 26 24 27 25 28 26 29 27 31 28 32 29 33 90 34 30 35 89 36
REMARK SMILES IDX 31 37 32 38 33 39 83 40 34 41 88 42 82 43 84 44 35 45 87 46
REMARK SMILES IDX 81 47 80 48 36 50 68 51 48 52 67 53 49 54 52 55 66 56 85 57
REMARK SMILES IDX 50 58 51 59 65 61 86 62 53 63 37 64 38 65 46 66 39 67 41 68
REMARK SMILES IDX 47 69 40 70 42 71 43 72 44 73 45 74 69 75 70 76 78 77 71 78
REMARK SMILES IDX 73 79 79 80 72 81 74 82 75 83 76 84 77 85 54 86 55 87 63 88
REMARK SMILES IDX 56 89 58 90 64 91 57 92 59 93 60 94 61 95 62 96
REMARK H PARENT 18 7 5 14 8 17 25 30 84 49 52 60
REMARK Flexibility Score: inf
ROOT
ATOM      1  C   UNL A   1      33.080  30.007  26.104  1.00  0.00     0.002 C 
ENDROOT
BRANCH   1   2
ATOM      2  C   UNL A   1      33.502  28.685  26.848  1.00  0.00     0.021 C 
BRANCH   2   3
ATOM      3  C   UNL A   1      33.234  27.118  26.625  1.00  0.00     0.116 C 
BRANCH   3   4
ATOM      4  N   UNL A   1      33.949  26.238  25.650  1.00  0.00    -0.354 N 
ATOM      5  C   UNL A   1      33.703  25.453  24.541  1.00  0.00     0.245 C 
ATOM      6  O   UNL A   1      34.536  24.679  24.065  1.00  0.00    -0.272 OA
ATOM      7  H   UNL A   1      34.908  26.211  25.871  1.00  0.00     0.163 HD
BRANCH   5   8
ATOM      8  C   UNL A   1      32.420  25.676  23.837  1.00  0.00     0.117 C 
ATOM      9  C   UNL A   1      32.156  24.997  22.491  1.00  0.00     0.045 C 
BRANCH   8  10
ATOM     10  C   UNL A   1      32.530  27.228  23.576  1.00  0.00     0.035 C 
ATOM     11  C   UNL A   1      33.444  27.571  22.355  1.00  0.00     0.007 C 
ENDBRANCH   8  10
BRANCH   8  12
ATOM     12  N   UNL A   1      31.491  25.135  24.836  1.00  0.00    -0.324 N 
ATOM     13  C   UNL A   1      30.257  25.533  25.236  1.00  0.00     0.315 C 
ATOM     14  H   UNL A   1      31.824  24.335  25.302  1.00  0.00     0.166 HD
ATOM     15  O   UNL A   1      29.885  25.069  26.324  1.00  0.00    -0.249 OA
ATOM     16  N   UNL A   1      29.330  26.270  24.573  1.00  0.00    -0.335 N 
ATOM     17  H   UNL A   1      28.486  26.125  25.057  1.00  0.00     0.165 HD
BRANCH  16  18
ATOM     18  C   UNL A   1      28.973  27.239  23.405  1.00  0.00     0.152 C 
BRANCH  18  19
ATOM     19  C   UNL A   1      28.988  28.918  23.312  1.00  0.00     0.163 C 
ATOM     20  C   UNL A   1      29.928  29.544  22.249  1.00  0.00     0.194 C 
ATOM     21  O   UNL A   1      27.725  29.594  23.241  1.00  0.00    -0.372 OA
ATOM     22  O   UNL A   1      29.257  29.993  21.060  1.00  0.00    -0.376 OA
ATOM     23  C   UNL A   1      27.674  30.923  22.694  1.00  0.00     0.189 C 
ATOM     24  C   UNL A   1      28.227  30.961  21.277  1.00  0.00     0.188 C 
ENDBRANCH  18  19
ENDBRANCH  16  18
ENDBRANCH   8  12
ENDBRANCH   5   8
ENDBRANCH   3   4
ENDBRANCH   2   3
ENDBRANCH   1   2
BRANCH   1  25
ATOM     25  C   UNL A   1      31.656  30.597  25.962  1.00  0.00     0.002 C 
BRANCH  25  26
ATOM     26  C   UNL A   1      31.394  31.926  26.644  1.00  0.00     0.021 C 
BRANCH  26  27
ATOM     27  C   UNL A   1      32.684  32.550  27.130  1.00  0.00     0.116 C 
BRANCH  27  28
ATOM     28  N   UNL A   1      32.488  33.941  27.547  1.00  0.00    -0.352 N 
ATOM     29  C   UNL A   1      33.109  34.623  28.561  1.00  0.00     0.251 C 
ATOM     30  H   UNL A   1      31.823  34.452  27.031  1.00  0.00     0.163 HD
ATOM     31  O   UNL A   1      32.687  35.723  28.929  1.00  0.00    -0.269 OA
BRANCH  29  32
ATOM     32  C   UNL A   1      34.280  34.012  29.214  1.00  0.00     0.039 A 
ATOM     33  C   UNL A   1      35.565  34.446  28.887  1.00  0.00     0.014 A 
ATOM     34  C   UNL A   1      34.087  33.035  30.193  1.00  0.00     0.014 A 
ATOM     35  C   UNL A   1      36.656  33.925  29.581  1.00  0.00     0.010 A 
ATOM     36  C   UNL A   1      35.156  32.622  30.970  1.00  0.00     0.010 A 
ATOM     37  C   UNL A   1      36.455  33.026  30.643  1.00  0.00    -0.014 A 
BRANCH  37  38
ATOM     38  C   UNL A   1      37.590  32.431  31.386  1.00  0.00     0.031 A 
ATOM     39  C   UNL A   1      38.343  31.278  30.772  1.00  0.00     0.074 A 
ATOM     40  C   UNL A   1      37.887  32.867  32.625  1.00  0.00     0.049 A 
ATOM     41  N   UNL A   1      39.304  30.556  31.284  1.00  0.00    -0.248 NA
ATOM     42  C   UNL A   1      37.938  30.853  29.417  1.00  0.00     0.031 C 
ATOM     43  C   UNL A   1      37.169  33.917  33.352  1.00  0.00     0.029 A 
ATOM     44  N   UNL A   1      38.858  32.462  33.504  1.00  0.00    -0.354 N 
ATOM     45  C   UNL A   1      39.588  29.580  30.335  1.00  0.00     0.074 A 
ATOM     46  C   UNL A   1      38.661  29.759  29.244  1.00  0.00     0.031 C 
ATOM     47  C   UNL A   1      37.732  34.080  34.561  1.00  0.00     0.029 A 
ATOM     48  C   UNL A   1      38.823  33.124  34.709  1.00  0.00     0.049 A 
ATOM     49  H   UNL A   1      39.518  31.762  33.293  1.00  0.00     0.167 HD
ATOM     50  C   UNL A   1      40.566  28.646  30.348  1.00  0.00     0.034 A 
ATOM     51  C   UNL A   1      39.582  32.965  35.811  1.00  0.00     0.034 A 
ATOM     52  C   UNL A   1      41.519  28.511  31.412  1.00  0.00     0.049 A 
ATOM     53  C   UNL A   1      40.688  31.943  35.781  1.00  0.00     0.074 A 
ATOM     54  C   UNL A   1      42.595  27.647  31.499  1.00  0.00     0.029 A 
ATOM     55  N   UNL A   1      41.513  29.267  32.574  1.00  0.00    -0.354 N 
ATOM     56  N   UNL A   1      41.027  31.121  34.817  1.00  0.00    -0.248 NA
ATOM     57  C   UNL A   1      41.543  31.855  36.973  1.00  0.00     0.031 C 
ATOM     58  C   UNL A   1      43.227  27.865  32.726  1.00  0.00     0.029 A 
ATOM     59  C   UNL A   1      42.567  28.891  33.385  1.00  0.00     0.049 A 
ATOM     60  H   UNL A   1      40.856  29.967  32.790  1.00  0.00     0.167 HD
ATOM     61  C   UNL A   1      42.159  30.453  35.269  1.00  0.00     0.074 A 
ATOM     62  C   UNL A   1      42.459  30.981  36.583  1.00  0.00     0.031 C 
ATOM     63  C   UNL A   1      42.880  29.479  34.661  1.00  0.00     0.034 A 
BRANCH  50  64
ATOM     64  C   UNL A   1      40.696  27.746  29.148  1.00  0.00     0.023 A 
ATOM     65  C   UNL A   1      39.883  26.597  29.049  1.00  0.00     0.012 A 
ATOM     66  C   UNL A   1      41.568  28.069  28.090  1.00  0.00     0.148 A 
ATOM     67  C   UNL A   1      39.956  25.768  27.931  1.00  0.00     0.002 A 
ATOM     68  C   UNL A   1      41.598  27.265  26.957  1.00  0.00     0.091 A 
ATOM     69  F   UNL A   1      42.347  29.152  28.213  1.00  0.00    -0.205 F 
ATOM     70  C   UNL A   1      40.804  26.109  26.880  1.00  0.00     0.022 A 
BRANCH  68  71
ATOM     71  S   UNL A   1      42.592  27.658  25.513  1.00  0.00     0.127 S 
ATOM     72  O   UNL A   1      41.980  28.908  25.064  1.00  0.00    -0.237 OA
ATOM     73  O   UNL A   1      43.926  27.805  26.094  1.00  0.00    -0.237 OA
ATOM     74  O   UNL A   1      42.441  26.533  24.601  1.00  0.00    -0.744 OA
ENDBRANCH  68  71
ENDBRANCH  50  64
BRANCH  51  75
ATOM     75  C   UNL A   1      39.357  33.815  37.014  1.00  0.00     0.023 A 
ATOM     76  C   UNL A   1      39.801  35.152  37.018  1.00  0.00     0.012 A 
ATOM     77  C   UNL A   1      38.714  33.305  38.158  1.00  0.00     0.148 A 
ATOM     78  C   UNL A   1      39.658  35.948  38.156  1.00  0.00     0.002 A 
ATOM     79  C   UNL A   1      38.520  34.121  39.266  1.00  0.00     0.091 A 
ATOM     80  F   UNL A   1      38.304  32.029  38.141  1.00  0.00    -0.205 F 
ATOM     81  C   UNL A   1      39.012  35.435  39.276  1.00  0.00     0.022 A 
BRANCH  79  82
ATOM     82  S   UNL A   1      37.581  33.583  40.699  1.00  0.00     0.127 S 
ATOM     83  O   UNL A   1      36.390  33.008  40.078  1.00  0.00    -0.237 OA
ATOM     84  O   UNL A   1      38.489  32.611  41.309  1.00  0.00    -0.237 OA
ATOM     85  O   UNL A   1      37.365  34.782  41.498  1.00  0.00    -0.744 OA
ENDBRANCH  79  82
ENDBRANCH  51  75
BRANCH  63  86
ATOM     86  C   UNL A   1      44.100  28.966  35.374  1.00  0.00     0.023 A 
ATOM     87  C   UNL A   1      45.349  29.586  35.176  1.00  0.00     0.012 A 
ATOM     88  C   UNL A   1      43.987  27.913  36.303  1.00  0.00     0.148 A 
ATOM     89  C   UNL A   1      46.476  29.140  35.863  1.00  0.00     0.002 A 
ATOM     90  C   UNL A   1      45.102  27.511  37.026  1.00  0.00     0.091 A 
ATOM     91  F   UNL A   1      42.792  27.328  36.465  1.00  0.00    -0.205 F 
ATOM     92  C   UNL A   1      46.350  28.113  36.797  1.00  0.00     0.022 A 
BRANCH  90  93
ATOM     93  S   UNL A   1      45.014  26.271  38.321  1.00  0.00     0.127 S 
ATOM     94  O   UNL A   1      44.318  25.180  37.640  1.00  0.00    -0.237 OA
ATOM     95  O   UNL A   1      46.426  26.015  38.600  1.00  0.00    -0.237 OA
ATOM     96  O   UNL A   1      44.282  26.887  39.420  1.00  0.00    -0.744 OA
ENDBRANCH  90  93
ENDBRANCH  63  86
ENDBRANCH  37  38
ENDBRANCH  29  32
ENDBRANCH  27  28
ENDBRANCH  26  27
ENDBRANCH  25  26
ENDBRANCH   1  25
TORSDOF 20
ENDMDL
MODEL 2
REMARK VINA RESULT:     -10.9      2.043      3.717
REMARK SMILES CC[C@](C)(NC(=O)NC[C@H]1COCCO1)C(=O)NCCCCCCNC(=O)c1ccc(-c2c3nc(c(-c4cccc(S(=O)(=O)[O-])c4F)c4ccc([nH]4)c(-c4cccc(S(=O)(=O)[O-])c4F)c4nc(c(-c5cccc(S(=O)(=O)[O-])c5F)c5ccc2[nH]5)C=C4)C=C3)cc1
REMARK SMILES IDX 21 1 20 2 19 3 18 4 16 5 17 6 3 8 4 9 2 10 1 11 5 12 6 13
REMARK SMILES IDX 7 15 8 16 9 18 10 19 11 20 15 21 12 22 14 23 13 24 22 25
REMARK SMILES IDX 23 26 24 27 25 28 26 29 27 31 28 32 29 33 90 34 30 35 89 36
REMARK SMILES IDX 31 37 32 38 33 39 83 40 34 41 88 42 82 43 84 44 35 45 87 46
REMARK SMILES IDX 81 47 80 48 36 50 68 51 48 52 67 53 49 54 52 55 66 56 85 57
REMARK SMILES IDX 50 58 51 59 65 61 86 62 53 63 37 64 38 65 46 66 39 67 41 68
REMARK SMILES IDX 47 69 40 70 42 71 43 72 44 73 45 74 69 75 70 76 78 77 71 78
REMARK SMILES IDX 73 79 79 80 72 81 74 82 75 83 76 84 77 85 54 86 55 87 63 88
REMARK SMILES IDX 56 89 58 90 64 91 57 92 59 93 60 94 61 95 62 96
REMARK H PARENT 18 7 5 14 8 17 25 30 84 49 52 60
REMARK Flexibility Score: inf
ROOT
ATOM      1  C   UNL A   1      33.132  30.036  27.112  1.00  0.00     0.002 C 
ENDROOT
BRANCH   1   2
ATOM      2  C   UNL A   1      33.781  28.651  26.739  1.00  0.00     0.021 C 
BRANCH   2   3
ATOM      3  C   UNL A   1      33.574  27.575  25.565  1.00  0.00     0.116 C 
BRANCH   3   4
ATOM      4  N   UNL A   1      32.264  27.178  24.965  1.00  0.00    -0.354 N 
ATOM      5  C   UNL A   1      31.649  26.097  24.363  1.00  0.00     0.245 C 
ATOM      6  O   UNL A   1      30.559  26.174  23.792  1.00  0.00    -0.272 OA
ATOM      7  H   UNL A   1      31.634  27.933  25.015  1.00  0.00     0.163 HD
BRANCH   5   8
ATOM      8  C   UNL A   1      32.290  24.776  24.550  1.00  0.00     0.117 C 
ATOM      9  C   UNL A   1      33.815  24.665  24.601  1.00  0.00     0.045 C 
BRANCH   8  10
ATOM     10  C   UNL A   1      31.801  24.058  23.233  1.00  0.00     0.035 C 
ATOM     11  C   UNL A   1      32.962  23.812  22.214  1.00  0.00     0.007 C 
ENDBRANCH   8  10
BRANCH   8  12
ATOM     12  N   UNL A   1      31.740  24.416  25.862  1.00  0.00    -0.324 N 
ATOM     13  C   UNL A   1      31.418  23.219  26.414  1.00  0.00     0.315 C 
ATOM     14  H   UNL A   1      31.574  25.186  26.452  1.00  0.00     0.166 HD
ATOM     15  O   UNL A   1      30.669  23.282  27.400  1.00  0.00    -0.249 OA
ATOM     16  N   UNL A   1      31.882  21.979  26.116  1.00  0.00    -0.335 N 
ATOM     17  H   UNL A   1      31.633  21.416  26.883  1.00  0.00     0.165 HD
BRANCH  16  18
ATOM     18  C   UNL A   1      32.624  21.025  25.130  1.00  0.00     0.152 C 
BRANCH  18  19
ATOM     19  C   UNL A   1      33.302  19.504  25.358  1.00  0.00     0.163 C 
ATOM     20  C   UNL A   1      32.338  18.293  25.251  1.00  0.00     0.194 C 
ATOM     21  O   UNL A   1      34.494  19.188  24.625  1.00  0.00    -0.372 OA
ATOM     22  O   UNL A   1      32.419  17.582  24.005  1.00  0.00    -0.376 OA
ATOM     23  C   UNL A   1      34.834  17.808  24.407  1.00  0.00     0.189 C 
ATOM     24  C   UNL A   1      33.716  17.068  23.687  1.00  0.00     0.188 C 
ENDBRANCH  18  19
ENDBRANCH  16  18
ENDBRANCH   8  12
ENDBRANCH   5   8
ENDBRANCH   3   4
ENDBRANCH   2   3
ENDBRANCH   1   2
BRANCH   1  25
ATOM     25  C   UNL A   1      31.804  30.629  26.582  1.00  0.00     0.002 C 
BRANCH  25  26
ATOM     26  C   UNL A   1      31.565  32.105  26.833  1.00  0.00     0.021 C 
BRANCH  26  27
ATOM     27  C   UNL A   1      32.796  32.762  27.421  1.00  0.00     0.116 C 
BRANCH  27  28
ATOM     28  N   UNL A   1      32.569  34.183  27.700  1.00  0.00    -0.352 N 
ATOM     29  C   UNL A   1      33.116  34.955  28.691  1.00  0.00     0.251 C 
ATOM     30  H   UNL A   1      31.942  34.642  27.095  1.00  0.00     0.163 HD
ATOM     31  O   UNL A   1      32.668  36.080  28.930  1.00  0.00    -0.269 OA
BRANCH  29  32
ATOM     32  C   UNL A   1      34.238  34.412  29.476  1.00  0.00     0.039 A 
ATOM     33  C   UNL A   1      33.990  33.753  30.680  1.00  0.00     0.014 A 
ATOM     34  C   UNL A   1      35.539  34.521  28.980  1.00  0.00     0.014 A 
ATOM     35  C   UNL A   1      35.052  33.162  31.364  1.00  0.00     0.010 A 
ATOM     36  C   UNL A   1      36.566  33.821  29.588  1.00  0.00     0.010 A 
ATOM     37  C   UNL A   1      36.344  33.174  30.809  1.00  0.00    -0.014 A 
BRANCH  37  38
ATOM     38  C   UNL A   1      37.502  32.582  31.517  1.00  0.00     0.031 A 
ATOM     39  C   UNL A   1      38.250  31.441  30.873  1.00  0.00     0.074 A 
ATOM     40  C   UNL A   1      37.828  33.010  32.752  1.00  0.00     0.049 A 
ATOM     41  N   UNL A   1      39.230  30.723  31.354  1.00  0.00    -0.248 NA
ATOM     42  C   UNL A   1      37.813  31.025  29.526  1.00  0.00     0.031 C 
ATOM     43  C   UNL A   1      37.121  34.047  33.507  1.00  0.00     0.029 A 
ATOM     44  N   UNL A   1      38.825  32.606  33.602  1.00  0.00    -0.354 N 
ATOM     45  C   UNL A   1      39.498  29.759  30.389  1.00  0.00     0.074 A 
ATOM     46  C   UNL A   1      38.541  29.939  29.324  1.00  0.00     0.031 C 
ATOM     47  C   UNL A   1      37.713  34.205  34.702  1.00  0.00     0.029 A 
ATOM     48  C   UNL A   1      38.816  33.257  34.813  1.00  0.00     0.049 A 
ATOM     49  H   UNL A   1      39.486  31.914  33.367  1.00  0.00     0.167 HD
ATOM     50  C   UNL A   1      40.484  28.833  30.368  1.00  0.00     0.034 A 
ATOM     51  C   UNL A   1      39.604  33.095  35.893  1.00  0.00     0.034 A 
ATOM     52  C   UNL A   1      41.466  28.697  31.406  1.00  0.00     0.049 A 
ATOM     53  C   UNL A   1      40.718  32.084  35.826  1.00  0.00     0.074 A 
ATOM     54  C   UNL A   1      42.550  27.842  31.457  1.00  0.00     0.029 A 
ATOM     55  N   UNL A   1      41.483  29.443  32.574  1.00  0.00    -0.354 N 
ATOM     56  N   UNL A   1      41.039  31.273  34.846  1.00  0.00    -0.248 NA
ATOM     57  C   UNL A   1      41.604  31.993  36.994  1.00  0.00     0.031 C 
ATOM     58  C   UNL A   1      43.212  28.055  32.670  1.00  0.00     0.029 A 
ATOM     59  C   UNL A   1      42.561  29.069  33.354  1.00  0.00     0.049 A 
ATOM     60  H   UNL A   1      40.825  30.135  32.814  1.00  0.00     0.167 HD
ATOM     61  C   UNL A   1      42.189  30.611  35.262  1.00  0.00     0.074 A 
ATOM     62  C   UNL A   1      42.518  31.131  36.573  1.00  0.00     0.031 C 
ATOM     63  C   UNL A   1      42.902  29.649  34.627  1.00  0.00     0.034 A 
BRANCH  50  64
ATOM     64  C   UNL A   1      40.591  27.945  29.157  1.00  0.00     0.023 A 
ATOM     65  C   UNL A   1      39.761  26.809  29.053  1.00  0.00     0.012 A 
ATOM     66  C   UNL A   1      41.457  28.267  28.095  1.00  0.00     0.148 A 
ATOM     67  C   UNL A   1      39.812  25.992  27.925  1.00  0.00     0.002 A 
ATOM     68  C   UNL A   1      41.466  27.476  26.953  1.00  0.00     0.091 A 
ATOM     69  F   UNL A   1      42.253  29.338  28.224  1.00  0.00    -0.205 F 
ATOM     70  C   UNL A   1      40.655  26.332  26.871  1.00  0.00     0.022 A 
BRANCH  68  71
ATOM     71  S   UNL A   1      42.453  27.871  25.505  1.00  0.00     0.127 S 
ATOM     72  O   UNL A   1      42.264  26.675  24.684  1.00  0.00    -0.237 OA
ATOM     73  O   UNL A   1      41.784  29.069  24.999  1.00  0.00    -0.237 OA
ATOM     74  O   UNL A   1      43.810  28.083  25.985  1.00  0.00    -0.744 OA
ENDBRANCH  68  71
ENDBRANCH  50  64
BRANCH  51  75
ATOM     75  C   UNL A   1      39.403  33.933  37.110  1.00  0.00     0.023 A 
ATOM     76  C   UNL A   1      39.850  35.269  37.119  1.00  0.00     0.012 A 
ATOM     77  C   UNL A   1      38.781  33.412  38.260  1.00  0.00     0.148 A 
ATOM     78  C   UNL A   1      39.729  36.053  38.268  1.00  0.00     0.002 A 
ATOM     79  C   UNL A   1      38.609  34.216  39.380  1.00  0.00     0.091 A 
ATOM     80  F   UNL A   1      38.368  32.136  38.237  1.00  0.00    -0.205 F 
ATOM     81  C   UNL A   1      39.103  35.529  39.395  1.00  0.00     0.022 A 
BRANCH  79  82
ATOM     82  S   UNL A   1      37.696  33.663  40.825  1.00  0.00     0.127 S 
ATOM     83  O   UNL A   1      36.630  32.869  40.219  1.00  0.00    -0.237 OA
ATOM     84  O   UNL A   1      38.707  32.892  41.546  1.00  0.00    -0.237 OA
ATOM     85  O   UNL A   1      37.272  34.879  41.507  1.00  0.00    -0.744 OA
ENDBRANCH  79  82
ENDBRANCH  51  75
BRANCH  63  86
ATOM     86  C   UNL A   1      44.145  29.141  35.304  1.00  0.00     0.023 A 
ATOM     87  C   UNL A   1      45.386  29.763  35.065  1.00  0.00     0.012 A 
ATOM     88  C   UNL A   1      44.063  28.091  36.239  1.00  0.00     0.148 A 
ATOM     89  C   UNL A   1      46.534  29.321  35.719  1.00  0.00     0.002 A 
ATOM     90  C   UNL A   1      45.200  27.694  36.929  1.00  0.00     0.091 A 
ATOM     91  F   UNL A   1      42.874  27.503  36.440  1.00  0.00    -0.205 F 
ATOM     92  C   UNL A   1      46.439  28.297  36.659  1.00  0.00     0.022 A 
BRANCH  90  93
ATOM     93  S   UNL A   1      45.154  26.457  38.230  1.00  0.00     0.127 S 
ATOM     94  O   UNL A   1      44.904  25.234  37.469  1.00  0.00    -0.237 OA
ATOM     95  O   UNL A   1      46.498  26.559  38.798  1.00  0.00    -0.237 OA
ATOM     96  O   UNL A   1      44.084  26.860  39.132  1.00  0.00    -0.744 OA
ENDBRANCH  90  93
ENDBRANCH  63  86
ENDBRANCH  37  38
ENDBRANCH  29  32
ENDBRANCH  27  28
ENDBRANCH  26  27
ENDBRANCH  25  26
ENDBRANCH   1  25
TORSDOF 20
ENDMDL
MODEL 3
REMARK VINA RESULT:     -10.9      3.322      9.032
REMARK SMILES CC[C@](C)(NC(=O)NC[C@H]1COCCO1)C(=O)NCCCCCCNC(=O)c1ccc(-c2c3nc(c(-c4cccc(S(=O)(=O)[O-])c4F)c4ccc([nH]4)c(-c4cccc(S(=O)(=O)[O-])c4F)c4nc(c(-c5cccc(S(=O)(=O)[O-])c5F)c5ccc2[nH]5)C=C4)C=C3)cc1
REMARK SMILES IDX 21 1 20 2 19 3 18 4 16 5 17 6 3 8 4 9 2 10 1 11 5 12 6 13
REMARK SMILES IDX 7 15 8 16 9 18 10 19 11 20 15 21 12 22 14 23 13 24 22 25
REMARK SMILES IDX 23 26 24 27 25 28 26 29 27 31 28 32 29 33 90 34 30 35 89 36
REMARK SMILES IDX 31 37 32 38 33 39 83 40 34 41 88 42 82 43 84 44 35 45 87 46
REMARK SMILES IDX 81 47 80 48 36 50 68 51 48 52 67 53 49 54 52 55 66 56 85 57
REMARK SMILES IDX 50 58 51 59 65 61 86 62 53 63 37 64 38 65 46 66 39 67 41 68
REMARK SMILES IDX 47 69 40 70 42 71 43 72 44 73 45 74 69 75 70 76 78 77 71 78
REMARK SMILES IDX 73 79 79 80 72 81 74 82 75 83 76 84 77 85 54 86 55 87 63 88
REMARK SMILES IDX 56 89 58 90 64 91 57 92 59 93 60 94 61 95 62 96
REMARK H PARENT 18 7 5 14 8 17 25 30 84 49 52 60
REMARK Flexibility Score: inf
ROOT
ATOM      1  C   UNL A   1      30.755  27.052  25.824  1.00  0.00     0.002 C 
ENDROOT
BRANCH   1   2
ATOM      2  C   UNL A   1      30.228  25.569  25.761  1.00  0.00     0.021 C 
BRANCH   2   3
ATOM      3  C   UNL A   1      30.780  24.143  26.250  1.00  0.00     0.116 C 
BRANCH   3   4
ATOM      4  N   UNL A   1      31.171  23.006  25.361  1.00  0.00    -0.354 N 
ATOM      5  C   UNL A   1      32.179  22.623  24.498  1.00  0.00     0.245 C 
ATOM      6  O   UNL A   1      32.093  21.646  23.752  1.00  0.00    -0.272 OA
ATOM      7  H   UNL A   1      30.487  22.299  25.407  1.00  0.00     0.163 HD
BRANCH   5   8
ATOM      8  C   UNL A   1      33.459  23.360  24.598  1.00  0.00     0.117 C 
ATOM      9  C   UNL A   1      33.479  24.883  24.447  1.00  0.00     0.045 C 
BRANCH   8  10
ATOM     10  C   UNL A   1      34.214  22.746  23.356  1.00  0.00     0.035 C 
ATOM     11  C   UNL A   1      35.755  23.006  23.399  1.00  0.00     0.007 C 
ENDBRANCH   8  10
BRANCH   8  12
ATOM     12  N   UNL A   1      33.841  23.011  25.971  1.00  0.00    -0.324 N 
ATOM     13  C   UNL A   1      34.020  21.815  26.586  1.00  0.00     0.315 C 
ATOM     14  H   UNL A   1      33.999  23.788  26.553  1.00  0.00     0.166 HD
ATOM     15  O   UNL A   1      34.012  21.858  27.826  1.00  0.00    -0.249 OA
ATOM     16  N   UNL A   1      34.313  20.603  26.050  1.00  0.00    -0.335 N 
ATOM     17  H   UNL A   1      34.625  20.053  26.804  1.00  0.00     0.165 HD
BRANCH  16  18
ATOM     18  C   UNL A   1      34.391  19.672  24.802  1.00  0.00     0.152 C 
BRANCH  18  19
ATOM     19  C   UNL A   1      33.545  18.273  24.408  1.00  0.00     0.163 C 
ATOM     20  C   UNL A   1      34.363  17.134  23.744  1.00  0.00     0.194 C 
ATOM     21  O   UNL A   1      32.711  17.690  25.418  1.00  0.00    -0.372 OA
ATOM     22  O   UNL A   1      34.711  16.062  24.635  1.00  0.00    -0.376 OA
ATOM     23  C   UNL A   1      32.362  16.299  25.318  1.00  0.00     0.189 C 
ATOM     24  C   UNL A   1      33.602  15.418  25.268  1.00  0.00     0.188 C 
ENDBRANCH  18  19
ENDBRANCH  16  18
ENDBRANCH   8  12
ENDBRANCH   5   8
ENDBRANCH   3   4
ENDBRANCH   2   3
ENDBRANCH   1   2
BRANCH   1  25
ATOM     25  C   UNL A   1      31.882  27.616  26.723  1.00  0.00     0.002 C 
BRANCH  25  26
ATOM     26  C   UNL A   1      31.805  29.088  27.075  1.00  0.00     0.021 C 
BRANCH  26  27
ATOM     27  C   UNL A   1      33.018  29.834  26.559  1.00  0.00     0.116 C 
BRANCH  27  28
ATOM     28  N   UNL A   1      32.893  31.279  26.766  1.00  0.00    -0.352 N 
ATOM     29  C   UNL A   1      33.664  32.098  27.549  1.00  0.00     0.251 C 
ATOM     30  H   UNL A   1      32.159  31.719  26.279  1.00  0.00     0.163 HD
ATOM     31  O   UNL A   1      33.307  33.254  27.790  1.00  0.00    -0.269 OA
BRANCH  29  32
ATOM     32  C   UNL A   1      34.918  31.567  28.110  1.00  0.00     0.039 A 
ATOM     33  C   UNL A   1      36.066  32.361  28.123  1.00  0.00     0.014 A 
ATOM     34  C   UNL A   1      34.933  30.288  28.670  1.00  0.00     0.014 A 
ATOM     35  C   UNL A   1      37.219  31.880  28.742  1.00  0.00     0.010 A 
ATOM     36  C   UNL A   1      36.033  29.870  29.398  1.00  0.00     0.010 A 
ATOM     37  C   UNL A   1      37.202  30.640  29.403  1.00  0.00    -0.014 A 
BRANCH  37  38
ATOM     38  C   UNL A   1      38.413  30.083  30.049  1.00  0.00     0.031 A 
ATOM     39  C   UNL A   1      38.800  30.567  31.423  1.00  0.00     0.074 A 
ATOM     40  C   UNL A   1      39.195  29.214  29.378  1.00  0.00     0.049 A 
ATOM     41  N   UNL A   1      39.861  30.281  32.129  1.00  0.00    -0.248 NA
ATOM     42  C   UNL A   1      37.895  31.533  32.077  1.00  0.00     0.031 C 
ATOM     43  C   UNL A   1      38.964  28.743  28.010  1.00  0.00     0.029 A 
ATOM     44  N   UNL A   1      40.358  28.592  29.750  1.00  0.00    -0.354 N 
ATOM     45  C   UNL A   1      39.766  31.052  33.282  1.00  0.00     0.074 A 
ATOM     46  C   UNL A   1      38.580  31.866  33.157  1.00  0.00     0.031 C 
ATOM     47  C   UNL A   1      39.948  27.898  27.663  1.00  0.00     0.029 A 
ATOM     48  C   UNL A   1      40.898  27.797  28.766  1.00  0.00     0.049 A 
ATOM     49  H   UNL A   1      40.770  28.705  30.637  1.00  0.00     0.167 HD
ATOM     50  C   UNL A   1      40.569  31.050  34.370  1.00  0.00     0.034 A 
ATOM     51  C   UNL A   1      42.037  27.078  28.756  1.00  0.00     0.034 A 
ATOM     52  C   UNL A   1      41.714  30.198  34.509  1.00  0.00     0.049 A 
ATOM     53  C   UNL A   1      42.890  27.065  29.996  1.00  0.00     0.074 A 
ATOM     54  C   UNL A   1      42.559  30.062  35.594  1.00  0.00     0.029 A 
ATOM     55  N   UNL A   1      42.173  29.332  33.529  1.00  0.00    -0.354 N 
ATOM     56  N   UNL A   1      42.709  27.698  31.130  1.00  0.00    -0.248 NA
ATOM     57  C   UNL A   1      44.082  26.206  29.974  1.00  0.00     0.031 C 
ATOM     58  C   UNL A   1      43.544  29.128  35.262  1.00  0.00     0.029 A 
ATOM     59  C   UNL A   1      43.289  28.656  33.984  1.00  0.00     0.049 A 
ATOM     60  H   UNL A   1      41.765  29.216  32.640  1.00  0.00     0.167 HD
ATOM     61  C   UNL A   1      43.736  27.280  31.968  1.00  0.00     0.074 A 
ATOM     62  C   UNL A   1      44.523  26.324  31.218  1.00  0.00     0.031 C 
ATOM     63  C   UNL A   1      44.015  27.661  33.239  1.00  0.00     0.034 A 
BRANCH  50  64
ATOM     64  C   UNL A   1      40.196  31.946  35.522  1.00  0.00     0.023 A 
ATOM     65  C   UNL A   1      40.883  33.165  35.706  1.00  0.00     0.012 A 
ATOM     66  C   UNL A   1      39.127  31.620  36.378  1.00  0.00     0.148 A 
ATOM     67  C   UNL A   1      40.532  34.030  36.740  1.00  0.00     0.002 A 
ATOM     68  C   UNL A   1      38.750  32.512  37.375  1.00  0.00     0.091 A 
ATOM     69  F   UNL A   1      38.501  30.449  36.200  1.00  0.00    -0.205 F 
ATOM     70  C   UNL A   1      39.459  33.710  37.566  1.00  0.00     0.022 A 
BRANCH  68  71
ATOM     71  S   UNL A   1      37.331  32.236  38.441  1.00  0.00     0.127 S 
ATOM     72  O   UNL A   1      37.785  32.831  39.697  1.00  0.00    -0.237 OA
ATOM     73  O   UNL A   1      36.283  32.989  37.753  1.00  0.00    -0.237 OA
ATOM     74  O   UNL A   1      37.127  30.795  38.477  1.00  0.00    -0.744 OA
ENDBRANCH  68  71
ENDBRANCH  50  64
BRANCH  51  75
ATOM     75  C   UNL A   1      42.417  26.278  27.557  1.00  0.00     0.023 A 
ATOM     76  C   UNL A   1      43.139  26.886  26.511  1.00  0.00     0.012 A 
ATOM     77  C   UNL A   1      42.060  24.921  27.442  1.00  0.00     0.148 A 
ATOM     78  C   UNL A   1      43.451  26.174  25.351  1.00  0.00     0.002 A 
ATOM     79  C   UNL A   1      42.426  24.200  26.311  1.00  0.00     0.091 A 
ATOM     80  F   UNL A   1      41.366  24.359  28.442  1.00  0.00    -0.205 F 
ATOM     81  C   UNL A   1      43.101  24.831  25.255  1.00  0.00     0.022 A 
BRANCH  79  82
ATOM     82  S   UNL A   1      42.132  22.435  26.164  1.00  0.00     0.127 S 
ATOM     83  O   UNL A   1      40.674  22.369  26.210  1.00  0.00    -0.237 OA
ATOM     84  O   UNL A   1      42.723  22.137  24.859  1.00  0.00    -0.237 OA
ATOM     85  O   UNL A   1      42.832  21.827  27.288  1.00  0.00    -0.744 OA
ENDBRANCH  79  82
ENDBRANCH  51  75
BRANCH  63  86
ATOM     86  C   UNL A   1      45.178  26.999  33.926  1.00  0.00     0.023 A 
ATOM     87  C   UNL A   1      46.448  27.608  33.913  1.00  0.00     0.012 A 
ATOM     88  C   UNL A   1      44.986  25.808  34.651  1.00  0.00     0.148 A 
ATOM     89  C   UNL A   1      47.519  27.019  34.581  1.00  0.00     0.002 A 
ATOM     90  C   UNL A   1      46.045  25.256  35.361  1.00  0.00     0.091 A 
ATOM     91  F   UNL A   1      43.772  25.237  34.637  1.00  0.00    -0.205 F 
ATOM     92  C   UNL A   1      47.315  25.852  35.314  1.00  0.00     0.022 A 
BRANCH  90  93
ATOM     93  S   UNL A   1      45.850  23.816  36.416  1.00  0.00     0.127 S 
ATOM     94  O   UNL A   1      44.887  24.300  37.404  1.00  0.00    -0.237 OA
ATOM     95  O   UNL A   1      45.321  22.821  35.483  1.00  0.00    -0.237 OA
ATOM     96  O   UNL A   1      47.177  23.514  36.934  1.00  0.00    -0.744 OA
ENDBRANCH  90  93
ENDBRANCH  63  86
ENDBRANCH  37  38
ENDBRANCH  29  32
ENDBRANCH  27  28
ENDBRANCH  26  27
ENDBRANCH  25  26
ENDBRANCH   1  25
TORSDOF 20
ENDMDL
