MODEL 1
REMARK VINA RESULT:     -12.7      0.000      0.000
REMARK SMILES Cc1oc2cc3oc(=O)c(CCC(=O)N[C@@H](C)C(=O)NCCCCCCNC(=O)c4ccc(-c5c6nc(c(-c7cccc(S(=O)(=O)[O-])c7F)c7ccc([nH]7)c(-c7cccc(S(=O)(=O)[O-])c7F)c7nc(c(-c8cccc(S(=O)(=O)[O-])c8F)c8ccc5[nH]8)C=C7)C=C6)cc4)c(C)c3cc2c1C
REMARK SMILES IDX 23 1 22 2 21 3 20 4 18 5 19 6 16 8 17 9 15 10 13 11 14 12
REMARK SMILES IDX 12 14 11 15 10 16 1 17 2 18 3 19 98 20 4 21 97 22 99 23 5 24
REMARK SMILES IDX 96 25 6 26 95 27 7 28 93 29 8 30 94 31 9 32 24 33 25 34
REMARK SMILES IDX 26 35 27 36 28 37 29 39 30 40 31 41 92 42 32 43 91 44 33 45
REMARK SMILES IDX 34 46 35 47 85 48 36 49 90 50 84 51 86 52 37 53 89 54 83 55
REMARK SMILES IDX 82 56 38 58 70 59 50 60 69 61 51 62 54 63 68 64 87 65 52 66
REMARK SMILES IDX 53 67 67 69 88 70 55 71 39 72 40 73 48 74 41 75 43 76 49 77
REMARK SMILES IDX 42 78 44 79 45 80 46 81 47 82 71 83 72 84 80 85 73 86 75 87
REMARK SMILES IDX 81 88 74 89 76 90 77 91 78 92 79 93 56 94 57 95 65 96 58 97
REMARK SMILES IDX 60 98 66 99 59 100 61 101 62 102 63 103 64 104
REMARK H PARENT 20 7 15 13 27 38 86 57 54 68
REMARK Flexibility Score: inf
ROOT
ATOM      1  C   UNL A   1      32.669  28.222  26.509  1.00  0.00     0.002 C 
ENDROOT
BRANCH   1   2
ATOM      2  C   UNL A   1      33.704  27.121  26.225  1.00  0.00     0.021 C 
BRANCH   2   3
ATOM      3  C   UNL A   1      33.096  25.729  26.107  1.00  0.00     0.116 C 
BRANCH   3   4
ATOM      4  N   UNL A   1      31.668  25.807  26.348  1.00  0.00    -0.354 N 
ATOM      5  C   UNL A   1      30.717  24.839  26.413  1.00  0.00     0.242 C 
ATOM      6  O   UNL A   1      29.552  25.185  26.621  1.00  0.00    -0.273 OA
ATOM      7  H   UNL A   1      31.328  26.721  26.491  1.00  0.00     0.163 HD
BRANCH   5   8
ATOM      8  C   UNL A   1      31.101  23.356  26.357  1.00  0.00     0.168 C 
ATOM      9  C   UNL A   1      29.977  22.576  27.018  1.00  0.00     0.041 C 
BRANCH   8  10
ATOM     10  N   UNL A   1      32.395  23.015  26.952  1.00  0.00    -0.345 N 
ATOM     11  C   UNL A   1      33.213  21.955  26.683  1.00  0.00     0.220 C 
ATOM     12  O   UNL A   1      34.162  21.741  27.439  1.00  0.00    -0.275 OA
ATOM     13  H   UNL A   1      32.722  23.638  27.641  1.00  0.00     0.164 HD
BRANCH  11  14
ATOM     14  C   UNL A   1      32.990  21.097  25.447  1.00  0.00     0.105 C 
BRANCH  14  15
ATOM     15  C   UNL A   1      34.028  21.331  24.334  1.00  0.00     0.053 C 
BRANCH  15  16
ATOM     16  C   UNL A   1      33.733  22.579  23.521  1.00  0.00     0.042 A 
ATOM     17  C   UNL A   1      30.096  29.916  23.697  1.00  0.00     0.088 C 
ATOM     18  C   UNL A   1      30.572  28.558  23.347  1.00  0.00     0.105 A 
ATOM     19  O   UNL A   1      31.890  28.442  23.020  1.00  0.00    -0.461 OA
ATOM     20  C   UNL A   1      29.950  27.321  23.318  1.00  0.00    -0.002 A 
ATOM     21  C   UNL A   1      32.131  27.123  22.798  1.00  0.00     0.138 A 
ATOM     22  C   UNL A   1      30.968  26.383  22.960  1.00  0.00     0.024 A 
ATOM     23  C   UNL A   1      28.528  27.052  23.652  1.00  0.00     0.049 C 
ATOM     24  C   UNL A   1      33.377  26.574  22.522  1.00  0.00     0.095 A 
ATOM     25  C   UNL A   1      31.044  24.976  22.835  1.00  0.00     0.024 A 
ATOM     26  C   UNL A   1      33.432  25.175  22.548  1.00  0.00     0.142 A 
ATOM     27  C   UNL A   1      32.309  24.360  22.711  1.00  0.00     0.022 A 
ATOM     28  O   UNL A   1      34.724  24.625  22.584  1.00  0.00    -0.422 OA
ATOM     29  C   UNL A   1      32.514  22.933  23.058  1.00  0.00    -0.030 A 
ATOM     30  C   UNL A   1      34.922  23.461  23.301  1.00  0.00     0.339 A 
ATOM     31  C   UNL A   1      31.308  22.035  23.106  1.00  0.00     0.046 C 
ATOM     32  O   UNL A   1      36.036  23.150  23.713  1.00  0.00    -0.246 OA
ENDBRANCH  15  16
ENDBRANCH  14  15
ENDBRANCH  11  14
ENDBRANCH   8  10
ENDBRANCH   5   8
ENDBRANCH   3   4
ENDBRANCH   2   3
ENDBRANCH   1   2
BRANCH   1  33
ATOM     33  C   UNL A   1      33.101  29.639  26.118  1.00  0.00     0.002 C 
BRANCH  33  34
ATOM     34  C   UNL A   1      33.152  30.628  27.280  1.00  0.00     0.021 C 
BRANCH  34  35
ATOM     35  C   UNL A   1      34.543  30.802  27.876  1.00  0.00     0.116 C 
BRANCH  35  36
ATOM     36  N   UNL A   1      34.974  32.186  27.891  1.00  0.00    -0.352 N 
ATOM     37  C   UNL A   1      36.109  32.704  28.464  1.00  0.00     0.251 C 
ATOM     38  H   UNL A   1      34.384  32.830  27.437  1.00  0.00     0.163 HD
ATOM     39  O   UNL A   1      36.304  33.913  28.495  1.00  0.00    -0.269 OA
BRANCH  37  40
ATOM     40  C   UNL A   1      37.074  31.756  29.044  1.00  0.00     0.039 A 
ATOM     41  C   UNL A   1      37.365  31.829  30.413  1.00  0.00     0.014 A 
ATOM     42  C   UNL A   1      37.746  30.868  28.206  1.00  0.00     0.014 A 
ATOM     43  C   UNL A   1      38.402  31.073  30.934  1.00  0.00     0.010 A 
ATOM     44  C   UNL A   1      38.754  30.073  28.743  1.00  0.00     0.010 A 
ATOM     45  C   UNL A   1      39.084  30.182  30.105  1.00  0.00    -0.014 A 
BRANCH  45  46
ATOM     46  C   UNL A   1      39.984  29.237  30.781  1.00  0.00     0.031 A 
ATOM     47  C   UNL A   1      39.854  27.863  30.225  1.00  0.00     0.074 A 
ATOM     48  C   UNL A   1      41.191  29.583  31.271  1.00  0.00     0.049 A 
ATOM     49  N   UNL A   1      40.477  27.564  29.128  1.00  0.00    -0.248 NA
ATOM     50  C   UNL A   1      38.831  26.893  30.599  1.00  0.00     0.031 C 
ATOM     51  C   UNL A   1      41.991  30.721  30.798  1.00  0.00     0.029 A 
ATOM     52  N   UNL A   1      42.041  28.884  32.099  1.00  0.00    -0.354 N 
ATOM     53  C   UNL A   1      39.882  26.438  28.597  1.00  0.00     0.074 A 
ATOM     54  C   UNL A   1      38.888  26.032  29.566  1.00  0.00     0.031 C 
ATOM     55  C   UNL A   1      43.267  30.542  31.198  1.00  0.00     0.029 A 
ATOM     56  C   UNL A   1      43.334  29.385  32.081  1.00  0.00     0.049 A 
ATOM     57  H   UNL A   1      41.760  28.113  32.642  1.00  0.00     0.167 HD
ATOM     58  C   UNL A   1      40.283  25.939  27.395  1.00  0.00     0.034 A 
ATOM     59  C   UNL A   1      44.451  28.685  32.408  1.00  0.00     0.034 A 
ATOM     60  C   UNL A   1      41.396  26.611  26.744  1.00  0.00     0.049 A 
ATOM     61  C   UNL A   1      44.710  27.921  31.138  1.00  0.00     0.074 A 
ATOM     62  C   UNL A   1      41.817  26.933  25.470  1.00  0.00     0.029 A 
ATOM     63  N   UNL A   1      42.353  27.132  27.571  1.00  0.00    -0.354 N 
ATOM     64  N   UNL A   1      45.245  28.429  30.054  1.00  0.00    -0.248 NA
ATOM     65  C   UNL A   1      44.077  26.607  30.935  1.00  0.00     0.031 C 
ATOM     66  C   UNL A   1      43.103  27.571  25.587  1.00  0.00     0.029 A 
ATOM     67  C   UNL A   1      43.464  27.588  26.925  1.00  0.00     0.049 A 
ATOM     68  H   UNL A   1      42.249  27.175  28.549  1.00  0.00     0.167 HD
ATOM     69  C   UNL A   1      44.731  27.663  29.013  1.00  0.00     0.074 A 
ATOM     70  C   UNL A   1      44.181  26.468  29.618  1.00  0.00     0.031 C 
ATOM     71  C   UNL A   1      44.519  28.134  27.748  1.00  0.00     0.034 A 
BRANCH  58  72
ATOM     72  C   UNL A   1      39.849  24.607  26.896  1.00  0.00     0.023 A 
ATOM     73  C   UNL A   1      38.494  24.527  26.508  1.00  0.00     0.012 A 
ATOM     74  C   UNL A   1      40.632  23.442  26.901  1.00  0.00     0.148 A 
ATOM     75  C   UNL A   1      37.913  23.314  26.153  1.00  0.00     0.002 A 
ATOM     76  C   UNL A   1      40.043  22.226  26.545  1.00  0.00     0.091 A 
ATOM     77  F   UNL A   1      41.914  23.529  27.280  1.00  0.00    -0.205 F 
ATOM     78  C   UNL A   1      38.686  22.163  26.178  1.00  0.00     0.022 A 
BRANCH  76  79
ATOM     79  S   UNL A   1      40.923  20.658  26.546  1.00  0.00     0.127 S 
ATOM     80  O   UNL A   1      41.063  20.387  27.977  1.00  0.00    -0.237 OA
ATOM     81  O   UNL A   1      39.982  19.780  25.850  1.00  0.00    -0.237 OA
ATOM     82  O   UNL A   1      42.169  20.897  25.831  1.00  0.00    -0.744 OA
ENDBRANCH  76  79
ENDBRANCH  58  72
BRANCH  59  83
ATOM     83  C   UNL A   1      44.438  28.136  33.802  1.00  0.00     0.023 A 
ATOM     84  C   UNL A   1      45.494  28.572  34.649  1.00  0.00     0.012 A 
ATOM     85  C   UNL A   1      43.487  27.272  34.362  1.00  0.00     0.148 A 
ATOM     86  C   UNL A   1      45.532  28.262  36.010  1.00  0.00     0.002 A 
ATOM     87  C   UNL A   1      43.482  27.029  35.736  1.00  0.00     0.091 A 
ATOM     88  F   UNL A   1      42.598  26.673  33.563  1.00  0.00    -0.205 F 
ATOM     89  C   UNL A   1      44.501  27.520  36.562  1.00  0.00     0.022 A 
BRANCH  87  90
ATOM     90  S   UNL A   1      42.122  26.182  36.553  1.00  0.00     0.127 S 
ATOM     91  O   UNL A   1      42.475  26.330  37.964  1.00  0.00    -0.237 OA
ATOM     92  O   UNL A   1      40.982  26.986  36.113  1.00  0.00    -0.237 OA
ATOM     93  O   UNL A   1      42.147  24.817  36.048  1.00  0.00    -0.744 OA
ENDBRANCH  87  90
ENDBRANCH  59  83
BRANCH  71  94
ATOM     94  C   UNL A   1      45.317  29.319  27.321  1.00  0.00     0.023 A 
ATOM     95  C   UNL A   1      46.712  29.159  27.200  1.00  0.00     0.012 A 
ATOM     96  C   UNL A   1      44.733  30.552  26.979  1.00  0.00     0.148 A 
ATOM     97  C   UNL A   1      47.518  30.200  26.750  1.00  0.00     0.002 A 
ATOM     98  C   UNL A   1      45.540  31.583  26.506  1.00  0.00     0.091 A 
ATOM     99  F   UNL A   1      43.408  30.706  27.124  1.00  0.00    -0.205 F 
ATOM    100  C   UNL A   1      46.930  31.408  26.393  1.00  0.00     0.022 A 
BRANCH  98 101
ATOM    101  S   UNL A   1      44.890  33.173  25.981  1.00  0.00     0.127 S 
ATOM    102  O   UNL A   1      46.105  33.979  25.869  1.00  0.00    -0.237 OA
ATOM    103  O   UNL A   1      44.262  32.834  24.703  1.00  0.00    -0.237 OA
ATOM    104  O   UNL A   1      43.971  33.609  27.023  1.00  0.00    -0.744 OA
ENDBRANCH  98 101
ENDBRANCH  71  94
ENDBRANCH  45  46
ENDBRANCH  37  40
ENDBRANCH  35  36
ENDBRANCH  34  35
ENDBRANCH  33  34
ENDBRANCH   1  33
TORSDOF 20
ENDMDL
MODEL 2
REMARK VINA RESULT:     -12.5      2.379      8.228
REMARK SMILES Cc1oc2cc3oc(=O)c(CCC(=O)N[C@@H](C)C(=O)NCCCCCCNC(=O)c4ccc(-c5c6nc(c(-c7cccc(S(=O)(=O)[O-])c7F)c7ccc([nH]7)c(-c7cccc(S(=O)(=O)[O-])c7F)c7nc(c(-c8cccc(S(=O)(=O)[O-])c8F)c8ccc5[nH]8)C=C7)C=C6)cc4)c(C)c3cc2c1C
REMARK SMILES IDX 23 1 22 2 21 3 20 4 18 5 19 6 16 8 17 9 15 10 13 11 14 12
REMARK SMILES IDX 12 14 11 15 10 16 1 17 2 18 3 19 98 20 4 21 97 22 99 23 5 24
REMARK SMILES IDX 96 25 6 26 95 27 7 28 93 29 8 30 94 31 9 32 24 33 25 34
REMARK SMILES IDX 26 35 27 36 28 37 29 39 30 40 31 41 92 42 32 43 91 44 33 45
REMARK SMILES IDX 34 46 35 47 85 48 36 49 90 50 84 51 86 52 37 53 89 54 83 55
REMARK SMILES IDX 82 56 38 58 70 59 50 60 69 61 51 62 54 63 68 64 87 65 52 66
REMARK SMILES IDX 53 67 67 69 88 70 55 71 39 72 40 73 48 74 41 75 43 76 49 77
REMARK SMILES IDX 42 78 44 79 45 80 46 81 47 82 71 83 72 84 80 85 73 86 75 87
REMARK SMILES IDX 81 88 74 89 76 90 77 91 78 92 79 93 56 94 57 95 65 96 58 97
REMARK SMILES IDX 60 98 66 99 59 100 61 101 62 102 63 103 64 104
REMARK H PARENT 20 7 15 13 27 38 86 57 54 68
REMARK Flexibility Score: inf
ROOT
ATOM      1  C   UNL A   1      36.078  23.065  24.746  1.00  0.00     0.002 C 
ENDROOT
BRANCH   1   2
ATOM      2  C   UNL A   1      35.481  24.340  25.365  1.00  0.00     0.021 C 
BRANCH   2   3
ATOM      3  C   UNL A   1      34.514  25.071  24.444  1.00  0.00     0.116 C 
BRANCH   3   4
ATOM      4  N   UNL A   1      34.312  24.285  23.241  1.00  0.00    -0.354 N 
ATOM      5  C   UNL A   1      33.506  24.487  22.165  1.00  0.00     0.242 C 
ATOM      6  O   UNL A   1      33.516  23.641  21.269  1.00  0.00    -0.273 OA
ATOM      7  H   UNL A   1      34.853  23.463  23.196  1.00  0.00     0.163 HD
BRANCH   5   8
ATOM      8  C   UNL A   1      32.710  25.788  22.013  1.00  0.00     0.168 C 
ATOM      9  C   UNL A   1      32.377  25.941  20.539  1.00  0.00     0.041 C 
BRANCH   8  10
ATOM     10  N   UNL A   1      33.363  26.993  22.530  1.00  0.00    -0.345 N 
ATOM     11  C   UNL A   1      32.804  28.183  22.898  1.00  0.00     0.220 C 
ATOM     12  O   UNL A   1      33.552  29.139  23.114  1.00  0.00    -0.275 OA
ATOM     13  H   UNL A   1      34.341  26.937  22.626  1.00  0.00     0.164 HD
BRANCH  11  14
ATOM     14  C   UNL A   1      31.301  28.307  23.094  1.00  0.00     0.105 C 
BRANCH  14  15
ATOM     15  C   UNL A   1      30.869  28.347  24.572  1.00  0.00     0.053 C 
BRANCH  15  16
ATOM     16  C   UNL A   1      30.870  26.969  25.212  1.00  0.00     0.042 A 
ATOM     17  C   UNL A   1      34.119  19.461  24.812  1.00  0.00     0.088 C 
ATOM     18  C   UNL A   1      33.216  20.631  24.908  1.00  0.00     0.105 A 
ATOM     19  O   UNL A   1      33.286  21.360  26.057  1.00  0.00    -0.461 OA
ATOM     20  C   UNL A   1      32.305  21.192  24.027  1.00  0.00    -0.002 A 
ATOM     21  C   UNL A   1      32.435  22.410  25.917  1.00  0.00     0.138 A 
ATOM     22  C   UNL A   1      31.795  22.355  24.686  1.00  0.00     0.024 A 
ATOM     23  C   UNL A   1      31.990  20.694  22.665  1.00  0.00     0.049 C 
ATOM     24  C   UNL A   1      32.277  23.439  26.836  1.00  0.00     0.095 A 
ATOM     25  C   UNL A   1      30.919  23.408  24.336  1.00  0.00     0.024 A 
ATOM     26  C   UNL A   1      31.515  24.526  26.391  1.00  0.00     0.142 A 
ATOM     27  C   UNL A   1      30.845  24.550  25.164  1.00  0.00     0.022 A 
ATOM     28  O   UNL A   1      31.609  25.688  27.175  1.00  0.00    -0.422 OA
ATOM     29  C   UNL A   1      30.358  25.852  24.649  1.00  0.00    -0.030 A 
ATOM     30  C   UNL A   1      31.553  26.914  26.542  1.00  0.00     0.339 A 
ATOM     31  C   UNL A   1      29.528  25.852  23.394  1.00  0.00     0.046 C 
ATOM     32  O   UNL A   1      32.020  27.922  27.066  1.00  0.00    -0.246 OA
ENDBRANCH  15  16
ENDBRANCH  14  15
ENDBRANCH  11  14
ENDBRANCH   8  10
ENDBRANCH   5   8
ENDBRANCH   3   4
ENDBRANCH   2   3
ENDBRANCH   1   2
BRANCH   1  33
ATOM     33  C   UNL A   1      36.744  22.108  25.740  1.00  0.00     0.002 C 
BRANCH  33  34
ATOM     34  C   UNL A   1      38.207  21.797  25.435  1.00  0.00     0.021 C 
BRANCH  34  35
ATOM     35  C   UNL A   1      39.187  22.458  26.396  1.00  0.00     0.116 C 
BRANCH  35  36
ATOM     36  N   UNL A   1      40.285  21.584  26.761  1.00  0.00    -0.352 N 
ATOM     37  C   UNL A   1      41.574  21.943  27.070  1.00  0.00     0.251 C 
ATOM     38  H   UNL A   1      40.083  20.621  26.791  1.00  0.00     0.163 HD
ATOM     39  O   UNL A   1      42.436  21.093  27.260  1.00  0.00    -0.269 OA
BRANCH  37  40
ATOM     40  C   UNL A   1      41.880  23.379  27.155  1.00  0.00     0.039 A 
ATOM     41  C   UNL A   1      41.585  24.072  28.337  1.00  0.00     0.014 A 
ATOM     42  C   UNL A   1      42.372  24.040  26.031  1.00  0.00     0.014 A 
ATOM     43  C   UNL A   1      41.693  25.452  28.368  1.00  0.00     0.010 A 
ATOM     44  C   UNL A   1      42.528  25.422  26.081  1.00  0.00     0.010 A 
ATOM     45  C   UNL A   1      42.182  26.126  27.248  1.00  0.00    -0.014 A 
BRANCH  45  46
ATOM     46  C   UNL A   1      42.511  27.544  27.445  1.00  0.00     0.031 A 
ATOM     47  C   UNL A   1      41.286  28.384  27.528  1.00  0.00     0.074 A 
ATOM     48  C   UNL A   1      43.587  27.967  28.139  1.00  0.00     0.049 A 
ATOM     49  N   UNL A   1      40.640  28.450  28.650  1.00  0.00    -0.248 NA
ATOM     50  C   UNL A   1      40.531  28.894  26.390  1.00  0.00     0.031 C 
ATOM     51  C   UNL A   1      44.270  27.188  29.181  1.00  0.00     0.029 A 
ATOM     52  N   UNL A   1      44.138  29.225  28.232  1.00  0.00    -0.354 N 
ATOM     53  C   UNL A   1      39.366  28.904  28.379  1.00  0.00     0.074 A 
ATOM     54  C   UNL A   1      39.355  29.205  26.964  1.00  0.00     0.031 C 
ATOM     55  C   UNL A   1      45.015  28.031  29.925  1.00  0.00     0.029 A 
ATOM     56  C   UNL A   1      44.992  29.355  29.317  1.00  0.00     0.049 A 
ATOM     57  H   UNL A   1      43.947  29.953  27.597  1.00  0.00     0.167 HD
ATOM     58  C   UNL A   1      38.434  28.996  29.368  1.00  0.00     0.034 A 
ATOM     59  C   UNL A   1      45.318  30.525  29.923  1.00  0.00     0.034 A 
ATOM     60  C   UNL A   1      38.868  28.656  30.713  1.00  0.00     0.049 A 
ATOM     61  C   UNL A   1      44.124  30.747  30.812  1.00  0.00     0.074 A 
ATOM     62  C   UNL A   1      38.364  28.060  31.851  1.00  0.00     0.029 A 
ATOM     63  N   UNL A   1      40.164  28.967  31.025  1.00  0.00    -0.354 N 
ATOM     64  N   UNL A   1      43.909  30.123  31.946  1.00  0.00    -0.248 NA
ATOM     65  C   UNL A   1      42.952  31.468  30.292  1.00  0.00     0.031 C 
ATOM     66  C   UNL A   1      39.385  28.129  32.865  1.00  0.00     0.029 A 
ATOM     67  C   UNL A   1      40.477  28.804  32.341  1.00  0.00     0.049 A 
ATOM     68  H   UNL A   1      40.814  29.280  30.356  1.00  0.00     0.167 HD
ATOM     69  C   UNL A   1      42.525  30.114  32.086  1.00  0.00     0.074 A 
ATOM     70  C   UNL A   1      42.013  31.097  31.156  1.00  0.00     0.031 C 
ATOM     71  C   UNL A   1      41.828  29.133  32.736  1.00  0.00     0.034 A 
BRANCH  58  72
ATOM     72  C   UNL A   1      37.136  29.697  29.182  1.00  0.00     0.023 A 
ATOM     73  C   UNL A   1      36.355  29.232  28.102  1.00  0.00     0.012 A 
ATOM     74  C   UNL A   1      36.710  30.825  29.901  1.00  0.00     0.148 A 
ATOM     75  C   UNL A   1      35.184  29.880  27.722  1.00  0.00     0.002 A 
ATOM     76  C   UNL A   1      35.534  31.474  29.514  1.00  0.00     0.091 A 
ATOM     77  F   UNL A   1      37.464  31.263  30.918  1.00  0.00    -0.205 F 
ATOM     78  C   UNL A   1      34.778  31.005  28.425  1.00  0.00     0.022 A 
BRANCH  76  79
ATOM     79  S   UNL A   1      34.900  32.948  30.327  1.00  0.00     0.127 S 
ATOM     80  O   UNL A   1      36.076  33.816  30.347  1.00  0.00    -0.237 OA
ATOM     81  O   UNL A   1      33.845  33.373  29.404  1.00  0.00    -0.237 OA
ATOM     82  O   UNL A   1      34.422  32.511  31.632  1.00  0.00    -0.744 OA
ENDBRANCH  76  79
ENDBRANCH  58  72
BRANCH  59  83
ATOM     83  C   UNL A   1      45.959  31.525  29.010  1.00  0.00     0.023 A 
ATOM     84  C   UNL A   1      47.371  31.644  29.114  1.00  0.00     0.012 A 
ATOM     85  C   UNL A   1      45.320  32.325  28.052  1.00  0.00     0.148 A 
ATOM     86  C   UNL A   1      48.120  32.425  28.231  1.00  0.00     0.002 A 
ATOM     87  C   UNL A   1      46.073  33.041  27.121  1.00  0.00     0.091 A 
ATOM     88  F   UNL A   1      43.986  32.405  28.052  1.00  0.00    -0.205 F 
ATOM     89  C   UNL A   1      47.471  33.095  27.207  1.00  0.00     0.022 A 
BRANCH  87  90
ATOM     90  S   UNL A   1      45.325  33.836  25.692  1.00  0.00     0.127 S 
ATOM     91  O   UNL A   1      44.477  34.849  26.316  1.00  0.00    -0.237 OA
ATOM     92  O   UNL A   1      46.508  34.356  25.006  1.00  0.00    -0.237 OA
ATOM     93  O   UNL A   1      44.613  32.782  24.983  1.00  0.00    -0.744 OA
ENDBRANCH  87  90
ENDBRANCH  59  83
BRANCH  71  94
ATOM     94  C   UNL A   1      42.569  28.334  33.753  1.00  0.00     0.023 A 
ATOM     95  C   UNL A   1      42.568  28.804  35.082  1.00  0.00     0.012 A 
ATOM     96  C   UNL A   1      43.203  27.114  33.455  1.00  0.00     0.148 A 
ATOM     97  C   UNL A   1      43.186  28.083  36.099  1.00  0.00     0.002 A 
ATOM     98  C   UNL A   1      43.799  26.385  34.479  1.00  0.00     0.091 A 
ATOM     99  F   UNL A   1      43.224  26.687  32.183  1.00  0.00    -0.205 F 
ATOM    100  C   UNL A   1      43.792  26.868  35.799  1.00  0.00     0.022 A 
BRANCH  98 101
ATOM    101  S   UNL A   1      44.578  24.787  34.218  1.00  0.00     0.127 S 
ATOM    102  O   UNL A   1      45.010  24.433  35.571  1.00  0.00    -0.237 OA
ATOM    103  O   UNL A   1      43.465  23.989  33.705  1.00  0.00    -0.237 OA
ATOM    104  O   UNL A   1      45.667  25.007  33.275  1.00  0.00    -0.744 OA
ENDBRANCH  98 101
ENDBRANCH  71  94
ENDBRANCH  45  46
ENDBRANCH  37  40
ENDBRANCH  35  36
ENDBRANCH  34  35
ENDBRANCH  33  34
ENDBRANCH   1  33
TORSDOF 20
ENDMDL
MODEL 3
REMARK VINA RESULT:     -12.2      2.608      8.443
REMARK SMILES Cc1oc2cc3oc(=O)c(CCC(=O)N[C@@H](C)C(=O)NCCCCCCNC(=O)c4ccc(-c5c6nc(c(-c7cccc(S(=O)(=O)[O-])c7F)c7ccc([nH]7)c(-c7cccc(S(=O)(=O)[O-])c7F)c7nc(c(-c8cccc(S(=O)(=O)[O-])c8F)c8ccc5[nH]8)C=C7)C=C6)cc4)c(C)c3cc2c1C
REMARK SMILES IDX 23 1 22 2 21 3 20 4 18 5 19 6 16 8 17 9 15 10 13 11 14 12
REMARK SMILES IDX 12 14 11 15 10 16 1 17 2 18 3 19 98 20 4 21 97 22 99 23 5 24
REMARK SMILES IDX 96 25 6 26 95 27 7 28 93 29 8 30 94 31 9 32 24 33 25 34
REMARK SMILES IDX 26 35 27 36 28 37 29 39 30 40 31 41 92 42 32 43 91 44 33 45
REMARK SMILES IDX 34 46 35 47 85 48 36 49 90 50 84 51 86 52 37 53 89 54 83 55
REMARK SMILES IDX 82 56 38 58 70 59 50 60 69 61 51 62 54 63 68 64 87 65 52 66
REMARK SMILES IDX 53 67 67 69 88 70 55 71 39 72 40 73 48 74 41 75 43 76 49 77
REMARK SMILES IDX 42 78 44 79 45 80 46 81 47 82 71 83 72 84 80 85 73 86 75 87
REMARK SMILES IDX 81 88 74 89 76 90 77 91 78 92 79 93 56 94 57 95 65 96 58 97
REMARK SMILES IDX 60 98 66 99 59 100 61 101 62 102 63 103 64 104
REMARK H PARENT 20 7 15 13 27 38 86 57 54 68
REMARK Flexibility Score: inf
ROOT
ATOM      1  C   UNL A   1      33.534  28.958  27.128  1.00  0.00     0.002 C 
ENDROOT
BRANCH   1   2
ATOM      2  C   UNL A   1      32.769  30.189  26.613  1.00  0.00     0.021 C 
BRANCH   2   3
ATOM      3  C   UNL A   1      31.772  29.868  25.508  1.00  0.00     0.116 C 
BRANCH   3   4
ATOM      4  N   UNL A   1      32.493  29.548  24.290  1.00  0.00    -0.354 N 
ATOM      5  C   UNL A   1      32.319  28.551  23.383  1.00  0.00     0.242 C 
ATOM      6  O   UNL A   1      33.095  28.497  22.426  1.00  0.00    -0.273 OA
ATOM      7  H   UNL A   1      33.237  30.159  24.085  1.00  0.00     0.163 HD
BRANCH   5   8
ATOM      8  C   UNL A   1      31.117  27.603  23.478  1.00  0.00     0.168 C 
ATOM      9  C   UNL A   1      29.980  28.240  22.698  1.00  0.00     0.041 C 
BRANCH   8  10
ATOM     10  N   UNL A   1      30.692  27.255  24.835  1.00  0.00    -0.345 N 
ATOM     11  C   UNL A   1      30.465  26.022  25.376  1.00  0.00     0.220 C 
ATOM     12  O   UNL A   1      29.915  25.958  26.477  1.00  0.00    -0.275 OA
ATOM     13  H   UNL A   1      30.551  28.017  25.443  1.00  0.00     0.164 HD
BRANCH  11  14
ATOM     14  C   UNL A   1      30.932  24.764  24.662  1.00  0.00     0.105 C 
BRANCH  14  15
ATOM     15  C   UNL A   1      31.672  23.770  25.577  1.00  0.00     0.053 C 
BRANCH  15  16
ATOM     16  C   UNL A   1      33.020  23.357  25.013  1.00  0.00     0.042 A 
ATOM     17  C   UNL A   1      40.641  21.099  26.989  1.00  0.00     0.088 C 
ATOM     18  C   UNL A   1      39.439  21.735  26.402  1.00  0.00     0.105 A 
ATOM     19  O   UNL A   1      38.664  20.947  25.604  1.00  0.00    -0.461 OA
ATOM     20  C   UNL A   1      38.886  22.999  26.527  1.00  0.00    -0.002 A 
ATOM     21  C   UNL A   1      37.594  21.693  25.225  1.00  0.00     0.138 A 
ATOM     22  C   UNL A   1      37.681  22.973  25.758  1.00  0.00     0.024 A 
ATOM     23  C   UNL A   1      39.431  24.111  27.345  1.00  0.00     0.049 C 
ATOM     24  C   UNL A   1      36.522  21.229  24.474  1.00  0.00     0.095 A 
ATOM     25  C   UNL A   1      36.615  23.871  25.524  1.00  0.00     0.024 A 
ATOM     26  C   UNL A   1      35.430  22.102  24.388  1.00  0.00     0.142 A 
ATOM     27  C   UNL A   1      35.437  23.401  24.902  1.00  0.00     0.022 A 
ATOM     28  O   UNL A   1      34.240  21.530  23.908  1.00  0.00    -0.422 OA
ATOM     29  C   UNL A   1      34.142  24.108  25.058  1.00  0.00    -0.030 A 
ATOM     30  C   UNL A   1      33.041  21.981  24.425  1.00  0.00     0.339 A 
ATOM     31  C   UNL A   1      34.169  25.548  25.490  1.00  0.00     0.046 C 
ATOM     32  O   UNL A   1      32.027  21.289  24.375  1.00  0.00    -0.246 OA
ENDBRANCH  15  16
ENDBRANCH  14  15
ENDBRANCH  11  14
ENDBRANCH   8  10
ENDBRANCH   5   8
ENDBRANCH   3   4
ENDBRANCH   2   3
ENDBRANCH   1   2
BRANCH   1  33
ATOM     33  C   UNL A   1      35.035  29.172  27.354  1.00  0.00     0.002 C 
BRANCH  33  34
ATOM     34  C   UNL A   1      35.417  30.591  27.765  1.00  0.00     0.021 C 
BRANCH  34  35
ATOM     35  C   UNL A   1      36.702  30.668  28.580  1.00  0.00     0.116 C 
BRANCH  35  36
ATOM     36  N   UNL A   1      36.533  30.174  29.933  1.00  0.00    -0.352 N 
ATOM     37  C   UNL A   1      37.285  29.222  30.576  1.00  0.00     0.251 C 
ATOM     38  H   UNL A   1      35.794  30.567  30.450  1.00  0.00     0.163 HD
ATOM     39  O   UNL A   1      36.971  28.818  31.690  1.00  0.00    -0.269 OA
BRANCH  37  40
ATOM     40  C   UNL A   1      38.472  28.704  29.879  1.00  0.00     0.039 A 
ATOM     41  C   UNL A   1      38.304  27.989  28.684  1.00  0.00     0.014 A 
ATOM     42  C   UNL A   1      39.728  28.853  30.463  1.00  0.00     0.014 A 
ATOM     43  C   UNL A   1      39.387  27.338  28.117  1.00  0.00     0.010 A 
ATOM     44  C   UNL A   1      40.824  28.240  29.864  1.00  0.00     0.010 A 
ATOM     45  C   UNL A   1      40.650  27.478  28.696  1.00  0.00    -0.014 A 
BRANCH  45  46
ATOM     46  C   UNL A   1      41.779  26.979  27.899  1.00  0.00     0.031 A 
ATOM     47  C   UNL A   1      42.636  28.092  27.408  1.00  0.00     0.074 A 
ATOM     48  C   UNL A   1      42.388  25.799  28.130  1.00  0.00     0.049 A 
ATOM     49  N   UNL A   1      43.518  28.609  28.205  1.00  0.00    -0.248 NA
ATOM     50  C   UNL A   1      42.377  28.899  26.222  1.00  0.00     0.031 C 
ATOM     51  C   UNL A   1      42.395  25.101  29.423  1.00  0.00     0.029 A 
ATOM     52  N   UNL A   1      43.297  25.109  27.361  1.00  0.00    -0.354 N 
ATOM     53  C   UNL A   1      43.864  29.848  27.707  1.00  0.00     0.074 A 
ATOM     54  C   UNL A   1      43.159  29.971  26.450  1.00  0.00     0.031 C 
ATOM     55  C   UNL A   1      43.397  24.198  29.416  1.00  0.00     0.029 A 
ATOM     56  C   UNL A   1      43.979  24.140  28.082  1.00  0.00     0.049 A 
ATOM     57  H   UNL A   1      43.447  25.285  26.404  1.00  0.00     0.167 HD
ATOM     58  C   UNL A   1      44.720  30.659  28.388  1.00  0.00     0.034 A 
ATOM     59  C   UNL A   1      45.195  23.629  27.755  1.00  0.00     0.034 A 
ATOM     60  C   UNL A   1      45.288  30.128  29.617  1.00  0.00     0.049 A 
ATOM     61  C   UNL A   1      46.119  24.696  28.277  1.00  0.00     0.074 A 
ATOM     62  C   UNL A   1      45.670  30.575  30.866  1.00  0.00     0.029 A 
ATOM     63  N   UNL A   1      45.530  28.782  29.637  1.00  0.00    -0.354 N 
ATOM     64  N   UNL A   1      46.435  24.860  29.539  1.00  0.00    -0.248 NA
ATOM     65  C   UNL A   1      46.484  25.831  27.414  1.00  0.00     0.031 C 
ATOM     66  C   UNL A   1      46.235  29.455  31.572  1.00  0.00     0.029 A 
ATOM     67  C   UNL A   1      46.229  28.355  30.727  1.00  0.00     0.049 A 
ATOM     68  H   UNL A   1      45.226  28.174  28.927  1.00  0.00     0.167 HD
ATOM     69  C   UNL A   1      46.725  26.215  29.657  1.00  0.00     0.074 A 
ATOM     70  C   UNL A   1      46.917  26.711  28.310  1.00  0.00     0.031 C 
ATOM     71  C   UNL A   1      46.531  26.943  30.797  1.00  0.00     0.034 A 
BRANCH  58  72
ATOM     72  C   UNL A   1      45.309  31.886  27.789  1.00  0.00     0.023 A 
ATOM     73  C   UNL A   1      46.658  31.769  27.394  1.00  0.00     0.012 A 
ATOM     74  C   UNL A   1      44.675  33.136  27.708  1.00  0.00     0.148 A 
ATOM     75  C   UNL A   1      47.380  32.871  26.948  1.00  0.00     0.002 A 
ATOM     76  C   UNL A   1      45.405  34.240  27.261  1.00  0.00     0.091 A 
ATOM     77  F   UNL A   1      43.396  33.237  28.094  1.00  0.00    -0.205 F 
ATOM     78  C   UNL A   1      46.755  34.108  26.887  1.00  0.00     0.022 A 
BRANCH  76  79
ATOM     79  S   UNL A   1      44.724  35.901  27.145  1.00  0.00     0.127 S 
ATOM     80  O   UNL A   1      43.525  35.683  26.337  1.00  0.00    -0.237 OA
ATOM     81  O   UNL A   1      44.463  36.221  28.549  1.00  0.00    -0.237 OA
ATOM     82  O   UNL A   1      45.758  36.715  26.521  1.00  0.00    -0.744 OA
ENDBRANCH  76  79
ENDBRANCH  58  72
BRANCH  59  83
ATOM     83  C   UNL A   1      45.239  22.982  26.404  1.00  0.00     0.023 A 
ATOM     84  C   UNL A   1      46.061  23.621  25.438  1.00  0.00     0.012 A 
ATOM     85  C   UNL A   1      44.584  21.807  26.009  1.00  0.00     0.148 A 
ATOM     86  C   UNL A   1      46.315  23.056  24.186  1.00  0.00     0.002 A 
ATOM     87  C   UNL A   1      44.901  21.203  24.791  1.00  0.00     0.091 A 
ATOM     88  F   UNL A   1      43.646  21.282  26.802  1.00  0.00    -0.205 F 
ATOM     89  C   UNL A   1      45.764  21.824  23.877  1.00  0.00     0.022 A 
BRANCH  87  90
ATOM     90  S   UNL A   1      44.330  19.554  24.362  1.00  0.00     0.127 S 
ATOM     91  O   UNL A   1      44.403  19.575  22.903  1.00  0.00    -0.237 OA
ATOM     92  O   UNL A   1      45.339  18.724  25.021  1.00  0.00    -0.237 OA
ATOM     93  O   UNL A   1      42.987  19.446  24.915  1.00  0.00    -0.744 OA
ENDBRANCH  87  90
ENDBRANCH  59  83
BRANCH  71  94
ATOM     94  C   UNL A   1      46.499  26.194  32.085  1.00  0.00     0.023 A 
ATOM     95  C   UNL A   1      47.728  25.936  32.724  1.00  0.00     0.012 A 
ATOM     96  C   UNL A   1      45.302  25.797  32.710  1.00  0.00     0.148 A 
ATOM     97  C   UNL A   1      47.776  25.294  33.957  1.00  0.00     0.002 A 
ATOM     98  C   UNL A   1      45.354  25.177  33.954  1.00  0.00     0.091 A 
ATOM     99  F   UNL A   1      44.137  26.020  32.083  1.00  0.00    -0.205 F 
ATOM    100  C   UNL A   1      46.589  24.925  34.577  1.00  0.00     0.022 A 
BRANCH  98 101
ATOM    101  S   UNL A   1      43.885  24.689  34.867  1.00  0.00     0.127 S 
ATOM    102  O   UNL A   1      44.451  24.243  36.141  1.00  0.00    -0.237 OA
ATOM    103  O   UNL A   1      43.142  25.947  34.937  1.00  0.00    -0.237 OA
ATOM    104  O   UNL A   1      43.246  23.636  34.090  1.00  0.00    -0.744 OA
ENDBRANCH  98 101
ENDBRANCH  71  94
ENDBRANCH  45  46
ENDBRANCH  37  40
ENDBRANCH  35  36
ENDBRANCH  34  35
ENDBRANCH  33  34
ENDBRANCH   1  33
TORSDOF 20
ENDMDL
