MODEL 1
REMARK VINA RESULT:     -12.5      0.000      0.000
REMARK SMILES CC(C)C(=O)Nc1ccc2c([C@H](C(=O)NCCCCCCNC(=O)c3ccc(-c4c5nc(c(-c6cccc(S(=O)(=O)[O-])c6F)c6ccc([nH]6)c(-c6cccc(S(=O)(=O)[O-])c6F)c6nc(c(-c7cccc(S(=O)(=O)[O-])c7F)c7ccc4[nH]7)C=C6)C=C5)cc3)[NH+]3CC[NH+](CC(=O)N(C)C)CC3)c[nH]c2c1
REMARK SMILES IDX 18 1 17 2 16 3 15 4 13 5 14 6 12 8 11 9 7 10 8 11 103 12
REMARK SMILES IDX 9 13 102 14 10 15 101 16 100 17 6 19 4 20 5 21 2 23 1 24
REMARK SMILES IDX 3 25 88 26 89 27 99 28 90 30 98 31 91 32 92 34 93 35 94 36
REMARK SMILES IDX 95 37 96 38 97 39 19 40 20 41 21 42 22 43 23 44 24 46 25 47
REMARK SMILES IDX 26 48 87 49 27 50 86 51 28 52 29 53 30 54 80 55 31 56 85 57
REMARK SMILES IDX 79 58 81 59 32 60 84 61 78 62 77 63 33 65 65 66 45 67 64 68
REMARK SMILES IDX 46 69 49 70 63 71 82 72 47 73 48 74 62 76 83 77 50 78 34 79
REMARK SMILES IDX 35 80 43 81 36 82 38 83 44 84 37 85 39 86 40 87 41 88 42 89
REMARK SMILES IDX 66 90 67 91 75 92 68 93 70 94 76 95 69 96 71 97 72 98 73 99
REMARK SMILES IDX 74 100 51 101 52 102 60 103 53 104 55 105 61 106 54 107
REMARK SMILES IDX 56 108 57 109 58 110 59 111
REMARK H PARENT 15 7 101 18 6 22 88 29 91 33 22 45 81 64 49 75
REMARK Flexibility Score: inf
ROOT
ATOM      1  C   UNL A   1      32.395  29.685  26.101  1.00  0.00     0.002 C 
ENDROOT
BRANCH   1   2
ATOM      2  C   UNL A   1      31.715  28.590  26.916  1.00  0.00     0.021 C 
BRANCH   2   3
ATOM      3  C   UNL A   1      32.499  27.278  27.201  1.00  0.00     0.116 C 
BRANCH   3   4
ATOM      4  N   UNL A   1      31.586  26.128  27.179  1.00  0.00    -0.351 N 
ATOM      5  C   UNL A   1      30.840  25.503  26.202  1.00  0.00     0.283 C 
ATOM      6  O   UNL A   1      29.752  25.087  26.631  1.00  0.00    -0.268 OA
ATOM      7  H   UNL A   1      31.485  25.707  28.063  1.00  0.00     0.163 HD
BRANCH   5   8
ATOM      8  C   UNL A   1      31.342  25.184  24.732  1.00  0.00     0.308 C 
BRANCH   8   9
ATOM      9  C   UNL A   1      31.791  26.447  23.939  1.00  0.00     0.044 A 
ATOM     10  C   UNL A   1      29.800  29.571  21.854  1.00  0.00     0.043 A 
ATOM     11  C   UNL A   1      28.980  28.637  22.472  1.00  0.00     0.027 A 
ATOM     12  C   UNL A   1      31.185  29.379  21.826  1.00  0.00     0.052 A 
ATOM     13  C   UNL A   1      29.520  27.577  23.209  1.00  0.00     0.013 A 
ATOM     14  C   UNL A   1      31.712  28.320  22.585  1.00  0.00     0.048 A 
ATOM     15  C   UNL A   1      30.920  27.420  23.300  1.00  0.00     0.009 A 
ATOM     16  N   UNL A   1      33.016  27.944  22.787  1.00  0.00    -0.361 N 
ATOM     17  C   UNL A   1      33.076  26.864  23.624  1.00  0.00     0.094 A 
ATOM     18  H   UNL A   1      33.797  28.388  22.386  1.00  0.00     0.166 HD
BRANCH  10  19
ATOM     19  N   UNL A   1      29.281  30.700  21.212  1.00  0.00    -0.326 N 
ATOM     20  C   UNL A   1      28.672  31.812  21.721  1.00  0.00     0.226 C 
ATOM     21  O   UNL A   1      28.152  32.592  20.914  1.00  0.00    -0.274 OA
ATOM     22  H   UNL A   1      29.368  30.692  20.232  1.00  0.00     0.169 HD
BRANCH  20  23
ATOM     23  C   UNL A   1      28.719  32.195  23.209  1.00  0.00     0.072 C 
ATOM     24  C   UNL A   1      29.091  33.643  23.497  1.00  0.00     0.018 C 
ATOM     25  C   UNL A   1      27.505  31.722  24.007  1.00  0.00     0.018 C 
ENDBRANCH  20  23
ENDBRANCH  10  19
ENDBRANCH   8   9
BRANCH   8  26
ATOM     26  N   UNL A   1      32.458  24.231  24.624  1.00  0.00    -0.312 N 
ATOM     27  C   UNL A   1      33.062  23.621  25.812  1.00  0.00     0.325 C 
ATOM     28  C   UNL A   1      32.517  23.374  23.463  1.00  0.00     0.325 C 
ATOM     29  H   UNL A   1      33.106  24.999  24.453  1.00  0.00     0.349 HD
ATOM     30  C   UNL A   1      32.763  22.116  26.068  1.00  0.00     0.325 C 
ATOM     31  C   UNL A   1      31.921  22.015  23.814  1.00  0.00     0.325 C 
ATOM     32  N   UNL A   1      32.502  21.257  24.905  1.00  0.00    -0.318 N 
ATOM     33  H   UNL A   1      31.799  20.596  25.236  1.00  0.00     0.348 HD
BRANCH  32  34
ATOM     34  C   UNL A   1      33.548  20.309  24.509  1.00  0.00     0.364 C 
BRANCH  34  35
ATOM     35  C   UNL A   1      33.122  18.843  24.612  1.00  0.00     0.277 C 
ATOM     36  O   UNL A   1      31.915  18.575  24.638  1.00  0.00    -0.268 OA
ATOM     37  N   UNL A   1      34.100  17.857  24.753  1.00  0.00    -0.344 N 
ATOM     38  C   UNL A   1      35.547  18.023  24.642  1.00  0.00     0.146 C 
ATOM     39  C   UNL A   1      33.667  16.503  25.053  1.00  0.00     0.146 C 
ENDBRANCH  34  35
ENDBRANCH  32  34
ENDBRANCH   8  26
ENDBRANCH   5   8
ENDBRANCH   3   4
ENDBRANCH   2   3
ENDBRANCH   1   2
BRANCH   1  40
ATOM     40  C   UNL A   1      31.490  30.844  25.678  1.00  0.00     0.002 C 
BRANCH  40  41
ATOM     41  C   UNL A   1      31.325  32.003  26.676  1.00  0.00     0.021 C 
BRANCH  41  42
ATOM     42  C   UNL A   1      32.610  32.569  27.288  1.00  0.00     0.116 C 
BRANCH  42  43
ATOM     43  N   UNL A   1      32.492  33.980  27.619  1.00  0.00    -0.352 N 
ATOM     44  C   UNL A   1      33.137  34.725  28.576  1.00  0.00     0.251 C 
ATOM     45  H   UNL A   1      31.848  34.482  27.069  1.00  0.00     0.163 HD
ATOM     46  O   UNL A   1      32.729  35.853  28.844  1.00  0.00    -0.269 OA
BRANCH  44  47
ATOM     47  C   UNL A   1      34.312  34.182  29.293  1.00  0.00     0.039 A 
ATOM     48  C   UNL A   1      34.106  33.305  30.364  1.00  0.00     0.014 A 
ATOM     49  C   UNL A   1      35.608  34.577  28.956  1.00  0.00     0.014 A 
ATOM     50  C   UNL A   1      35.201  32.777  31.055  1.00  0.00     0.010 A 
ATOM     51  C   UNL A   1      36.700  34.005  29.608  1.00  0.00     0.010 A 
ATOM     52  C   UNL A   1      36.510  33.101  30.665  1.00  0.00    -0.014 A 
BRANCH  52  53
ATOM     53  C   UNL A   1      37.694  32.498  31.334  1.00  0.00     0.031 A 
ATOM     54  C   UNL A   1      38.418  31.343  30.699  1.00  0.00     0.074 A 
ATOM     55  C   UNL A   1      38.050  32.918  32.564  1.00  0.00     0.049 A 
ATOM     56  N   UNL A   1      39.397  30.617  31.177  1.00  0.00    -0.248 NA
ATOM     57  C   UNL A   1      37.966  30.929  29.360  1.00  0.00     0.031 C 
ATOM     58  C   UNL A   1      37.387  33.985  33.317  1.00  0.00     0.029 A 
ATOM     59  N   UNL A   1      39.033  32.475  33.416  1.00  0.00    -0.354 N 
ATOM     60  C   UNL A   1      39.648  29.640  30.222  1.00  0.00     0.074 A 
ATOM     61  C   UNL A   1      38.705  29.850  29.145  1.00  0.00     0.031 C 
ATOM     62  C   UNL A   1      37.971  34.105  34.520  1.00  0.00     0.029 A 
ATOM     63  C   UNL A   1      39.027  33.103  34.639  1.00  0.00     0.049 A 
ATOM     64  H   UNL A   1      39.679  31.772  33.173  1.00  0.00     0.167 HD
ATOM     65  C   UNL A   1      40.595  28.670  30.229  1.00  0.00     0.034 A 
ATOM     66  C   UNL A   1      39.774  32.888  35.741  1.00  0.00     0.034 A 
ATOM     67  C   UNL A   1      41.561  28.493  31.280  1.00  0.00     0.049 A 
ATOM     68  C   UNL A   1      40.841  31.827  35.711  1.00  0.00     0.074 A 
ATOM     69  C   UNL A   1      42.619  27.602  31.333  1.00  0.00     0.029 A 
ATOM     70  N   UNL A   1      41.585  29.213  32.462  1.00  0.00    -0.354 N 
ATOM     71  N   UNL A   1      41.165  31.016  34.734  1.00  0.00    -0.248 NA
ATOM     72  C   UNL A   1      41.666  31.674  36.918  1.00  0.00     0.031 C 
ATOM     73  C   UNL A   1      43.266  27.766  32.561  1.00  0.00     0.029 A 
ATOM     74  C   UNL A   1      42.630  28.779  33.260  1.00  0.00     0.049 A 
ATOM     75  H   UNL A   1      40.951  29.928  32.702  1.00  0.00     0.167 HD
ATOM     76  C   UNL A   1      42.255  30.282  35.193  1.00  0.00     0.074 A 
ATOM     77  C   UNL A   1      42.543  30.757  36.531  1.00  0.00     0.031 C 
ATOM     78  C   UNL A   1      42.944  29.299  34.566  1.00  0.00     0.034 A 
BRANCH  65  79
ATOM     79  C   UNL A   1      40.663  27.747  29.040  1.00  0.00     0.023 A 
ATOM     80  C   UNL A   1      39.752  26.676  28.936  1.00  0.00     0.012 A 
ATOM     81  C   UNL A   1      41.583  27.974  27.997  1.00  0.00     0.148 A 
ATOM     82  C   UNL A   1      39.777  25.826  27.831  1.00  0.00     0.002 A 
ATOM     83  C   UNL A   1      41.572  27.149  26.878  1.00  0.00     0.091 A 
ATOM     84  F   UNL A   1      42.454  28.985  28.121  1.00  0.00    -0.205 F 
ATOM     85  C   UNL A   1      40.679  26.068  26.799  1.00  0.00     0.022 A 
BRANCH  83  86
ATOM     86  S   UNL A   1      42.639  27.427  25.458  1.00  0.00     0.127 S 
ATOM     87  O   UNL A   1      43.959  27.453  26.084  1.00  0.00    -0.237 OA
ATOM     88  O   UNL A   1      42.374  26.247  24.637  1.00  0.00    -0.237 OA
ATOM     89  O   UNL A   1      42.200  28.687  24.870  1.00  0.00    -0.744 OA
ENDBRANCH  83  86
ENDBRANCH  65  79
BRANCH  66  90
ATOM     90  C   UNL A   1      39.570  33.736  36.950  1.00  0.00     0.023 A 
ATOM     91  C   UNL A   1      39.996  35.078  36.933  1.00  0.00     0.012 A 
ATOM     92  C   UNL A   1      38.922  33.236  38.096  1.00  0.00     0.148 A 
ATOM     93  C   UNL A   1      39.806  35.899  38.046  1.00  0.00     0.002 A 
ATOM     94  C   UNL A   1      38.686  34.074  39.180  1.00  0.00     0.091 A 
ATOM     95  F   UNL A   1      38.535  31.952  38.098  1.00  0.00    -0.205 F 
ATOM     96  C   UNL A   1      39.141  35.401  39.164  1.00  0.00     0.022 A 
BRANCH  94  97
ATOM     97  S   UNL A   1      37.716  33.556  40.601  1.00  0.00     0.127 S 
ATOM     98  O   UNL A   1      36.486  33.086  39.970  1.00  0.00    -0.237 OA
ATOM     99  O   UNL A   1      38.557  32.505  41.176  1.00  0.00    -0.237 OA
ATOM    100  O   UNL A   1      37.585  34.740  41.441  1.00  0.00    -0.744 OA
ENDBRANCH  94  97
ENDBRANCH  66  90
BRANCH  78 101
ATOM    101  C   UNL A   1      44.114  28.684  35.290  1.00  0.00     0.023 A 
ATOM    102  C   UNL A   1      45.401  29.238  35.140  1.00  0.00     0.012 A 
ATOM    103  C   UNL A   1      43.916  27.624  36.197  1.00  0.00     0.148 A 
ATOM    104  C   UNL A   1      46.477  28.732  35.869  1.00  0.00     0.002 A 
ATOM    105  C   UNL A   1      44.982  27.158  36.955  1.00  0.00     0.091 A 
ATOM    106  F   UNL A   1      42.686  27.101  36.309  1.00  0.00    -0.205 F 
ATOM    107  C   UNL A   1      46.265  27.703  36.785  1.00  0.00     0.022 A 
BRANCH 105 108
ATOM    108  S   UNL A   1      44.789  25.905  38.227  1.00  0.00     0.127 S 
ATOM    109  O   UNL A   1      46.158  25.771  38.724  1.00  0.00    -0.237 OA
ATOM    110  O   UNL A   1      43.863  26.549  39.157  1.00  0.00    -0.237 OA
ATOM    111  O   UNL A   1      44.254  24.728  37.556  1.00  0.00    -0.744 OA
ENDBRANCH 105 108
ENDBRANCH  78 101
ENDBRANCH  52  53
ENDBRANCH  44  47
ENDBRANCH  42  43
ENDBRANCH  41  42
ENDBRANCH  40  41
ENDBRANCH   1  40
TORSDOF 22
ENDMDL
MODEL 2
REMARK VINA RESULT:     -12.0      0.820      7.272
REMARK SMILES CC(C)C(=O)Nc1ccc2c([C@H](C(=O)NCCCCCCNC(=O)c3ccc(-c4c5nc(c(-c6cccc(S(=O)(=O)[O-])c6F)c6ccc([nH]6)c(-c6cccc(S(=O)(=O)[O-])c6F)c6nc(c(-c7cccc(S(=O)(=O)[O-])c7F)c7ccc4[nH]7)C=C6)C=C5)cc3)[NH+]3CC[NH+](CC(=O)N(C)C)CC3)c[nH]c2c1
REMARK SMILES IDX 18 1 17 2 16 3 15 4 13 5 14 6 12 8 11 9 7 10 8 11 103 12
REMARK SMILES IDX 9 13 102 14 10 15 101 16 100 17 6 19 4 20 5 21 2 23 1 24
REMARK SMILES IDX 3 25 88 26 89 27 99 28 90 30 98 31 91 32 92 34 93 35 94 36
REMARK SMILES IDX 95 37 96 38 97 39 19 40 20 41 21 42 22 43 23 44 24 46 25 47
REMARK SMILES IDX 26 48 87 49 27 50 86 51 28 52 29 53 30 54 80 55 31 56 85 57
REMARK SMILES IDX 79 58 81 59 32 60 84 61 78 62 77 63 33 65 65 66 45 67 64 68
REMARK SMILES IDX 46 69 49 70 63 71 82 72 47 73 48 74 62 76 83 77 50 78 34 79
REMARK SMILES IDX 35 80 43 81 36 82 38 83 44 84 37 85 39 86 40 87 41 88 42 89
REMARK SMILES IDX 66 90 67 91 75 92 68 93 70 94 76 95 69 96 71 97 72 98 73 99
REMARK SMILES IDX 74 100 51 101 52 102 60 103 53 104 55 105 61 106 54 107
REMARK SMILES IDX 56 108 57 109 58 110 59 111
REMARK H PARENT 15 7 101 18 6 22 88 29 91 33 22 45 81 64 49 75
REMARK Flexibility Score: inf
ROOT
ATOM      1  C   UNL A   1      32.579  29.748  26.140  1.00  0.00     0.002 C 
ENDROOT
BRANCH   1   2
ATOM      2  C   UNL A   1      32.161  28.567  27.008  1.00  0.00     0.021 C 
BRANCH   2   3
ATOM      3  C   UNL A   1      32.656  27.145  26.619  1.00  0.00     0.116 C 
BRANCH   3   4
ATOM      4  N   UNL A   1      31.547  26.185  26.698  1.00  0.00    -0.351 N 
ATOM      5  C   UNL A   1      30.472  25.878  25.890  1.00  0.00     0.283 C 
ATOM      6  O   UNL A   1      29.460  25.578  26.542  1.00  0.00    -0.268 OA
ATOM      7  H   UNL A   1      31.579  25.634  27.513  1.00  0.00     0.163 HD
BRANCH   5   8
ATOM      8  C   UNL A   1      30.523  25.750  24.310  1.00  0.00     0.308 C 
BRANCH   8   9
ATOM      9  C   UNL A   1      30.998  27.049  23.594  1.00  0.00     0.044 A 
ATOM     10  C   UNL A   1      29.079  30.259  21.575  1.00  0.00     0.043 A 
ATOM     11  C   UNL A   1      28.239  29.295  22.115  1.00  0.00     0.027 A 
ATOM     12  C   UNL A   1      30.464  30.073  21.594  1.00  0.00     0.052 A 
ATOM     13  C   UNL A   1      28.754  28.204  22.824  1.00  0.00     0.013 A 
ATOM     14  C   UNL A   1      30.965  28.982  22.324  1.00  0.00     0.048 A 
ATOM     15  C   UNL A   1      30.149  28.048  22.965  1.00  0.00     0.009 A 
ATOM     16  N   UNL A   1      32.261  28.600  22.562  1.00  0.00    -0.361 N 
ATOM     17  C   UNL A   1      32.293  27.483  23.351  1.00  0.00     0.094 A 
ATOM     18  H   UNL A   1      33.056  29.065  22.214  1.00  0.00     0.166 HD
BRANCH  10  19
ATOM     19  N   UNL A   1      28.581  31.415  20.964  1.00  0.00    -0.326 N 
ATOM     20  C   UNL A   1      28.033  32.542  21.507  1.00  0.00     0.226 C 
ATOM     21  O   UNL A   1      27.514  33.352  20.727  1.00  0.00    -0.274 OA
ATOM     22  H   UNL A   1      28.632  31.415  19.981  1.00  0.00     0.169 HD
BRANCH  20  23
ATOM     23  C   UNL A   1      28.147  32.905  22.996  1.00  0.00     0.072 C 
ATOM     24  C   UNL A   1      27.667  31.834  23.966  1.00  0.00     0.018 C 
ATOM     25  C   UNL A   1      29.501  33.496  23.386  1.00  0.00     0.018 C 
ENDBRANCH  20  23
ENDBRANCH  10  19
ENDBRANCH   8   9
BRANCH   8  26
ATOM     26  N   UNL A   1      31.371  24.672  23.777  1.00  0.00    -0.312 N 
ATOM     27  C   UNL A   1      32.833  24.790  23.748  1.00  0.00     0.325 C 
ATOM     28  C   UNL A   1      30.923  23.307  23.931  1.00  0.00     0.325 C 
ATOM     29  H   UNL A   1      31.138  24.950  22.824  1.00  0.00     0.349 HD
ATOM     30  C   UNL A   1      33.636  23.926  24.762  1.00  0.00     0.325 C 
ATOM     31  C   UNL A   1      31.604  22.692  25.149  1.00  0.00     0.325 C 
ATOM     32  N   UNL A   1      33.053  22.648  25.193  1.00  0.00    -0.318 N 
ATOM     33  H   UNL A   1      33.334  22.563  26.170  1.00  0.00     0.348 HD
BRANCH  32  34
ATOM     34  C   UNL A   1      33.648  21.415  24.669  1.00  0.00     0.364 C 
BRANCH  34  35
ATOM     35  C   UNL A   1      33.276  20.164  25.466  1.00  0.00     0.277 C 
ATOM     36  O   UNL A   1      33.475  20.154  26.686  1.00  0.00    -0.268 OA
ATOM     37  N   UNL A   1      32.796  19.041  24.788  1.00  0.00    -0.344 N 
ATOM     38  C   UNL A   1      32.427  18.949  23.377  1.00  0.00     0.146 C 
ATOM     39  C   UNL A   1      32.645  17.804  25.536  1.00  0.00     0.146 C 
ENDBRANCH  34  35
ENDBRANCH  32  34
ENDBRANCH   8  26
ENDBRANCH   5   8
ENDBRANCH   3   4
ENDBRANCH   2   3
ENDBRANCH   1   2
BRANCH   1  40
ATOM     40  C   UNL A   1      31.456  30.721  25.772  1.00  0.00     0.002 C 
BRANCH  40  41
ATOM     41  C   UNL A   1      31.365  32.024  26.583  1.00  0.00     0.021 C 
BRANCH  41  42
ATOM     42  C   UNL A   1      32.660  32.518  27.235  1.00  0.00     0.116 C 
BRANCH  42  43
ATOM     43  N   UNL A   1      32.583  33.915  27.633  1.00  0.00    -0.352 N 
ATOM     44  C   UNL A   1      33.215  34.583  28.653  1.00  0.00     0.251 C 
ATOM     45  H   UNL A   1      31.985  34.469  27.084  1.00  0.00     0.163 HD
ATOM     46  O   UNL A   1      32.841  35.712  28.962  1.00  0.00    -0.269 OA
BRANCH  44  47
ATOM     47  C   UNL A   1      34.335  33.956  29.390  1.00  0.00     0.039 A 
ATOM     48  C   UNL A   1      34.048  33.081  30.443  1.00  0.00     0.014 A 
ATOM     49  C   UNL A   1      35.662  34.270  29.088  1.00  0.00     0.014 A 
ATOM     50  C   UNL A   1      35.090  32.474  31.152  1.00  0.00     0.010 A 
ATOM     51  C   UNL A   1      36.700  33.622  29.757  1.00  0.00     0.010 A 
ATOM     52  C   UNL A   1      36.426  32.719  30.797  1.00  0.00    -0.014 A 
BRANCH  52  53
ATOM     53  C   UNL A   1      37.553  32.032  31.484  1.00  0.00     0.031 A 
ATOM     54  C   UNL A   1      38.072  32.554  32.796  1.00  0.00     0.074 A 
ATOM     55  C   UNL A   1      38.179  31.005  30.875  1.00  0.00     0.049 A 
ATOM     56  N   UNL A   1      39.110  32.159  33.489  1.00  0.00    -0.248 NA
ATOM     57  C   UNL A   1      37.347  33.685  33.397  1.00  0.00     0.031 C 
ATOM     58  C   UNL A   1      37.814  30.449  29.570  1.00  0.00     0.029 A 
ATOM     59  N   UNL A   1      39.277  30.272  31.252  1.00  0.00    -0.354 N 
ATOM     60  C   UNL A   1      39.188  33.016  34.580  1.00  0.00     0.074 A 
ATOM     61  C   UNL A   1      38.106  33.967  34.447  1.00  0.00     0.031 C 
ATOM     62  C   UNL A   1      38.679  29.473  29.251  1.00  0.00     0.029 A 
ATOM     63  C   UNL A   1      39.678  29.355  30.308  1.00  0.00     0.049 A 
ATOM     64  H   UNL A   1      39.735  30.392  32.115  1.00  0.00     0.167 HD
ATOM     65  C   UNL A   1      40.066  32.999  35.612  1.00  0.00     0.034 A 
ATOM     66  C   UNL A   1      40.740  28.525  30.285  1.00  0.00     0.034 A 
ATOM     67  C   UNL A   1      41.111  32.023  35.765  1.00  0.00     0.049 A 
ATOM     68  C   UNL A   1      41.681  28.501  31.460  1.00  0.00     0.074 A 
ATOM     69  C   UNL A   1      41.990  31.865  36.824  1.00  0.00     0.029 A 
ATOM     70  N   UNL A   1      41.427  31.048  34.835  1.00  0.00    -0.354 N 
ATOM     71  N   UNL A   1      41.644  29.217  32.557  1.00  0.00    -0.248 NA
ATOM     72  C   UNL A   1      42.789  27.536  31.411  1.00  0.00     0.031 C 
ATOM     73  C   UNL A   1      42.853  30.808  36.519  1.00  0.00     0.029 A 
ATOM     74  C   UNL A   1      42.495  30.291  35.285  1.00  0.00     0.049 A 
ATOM     75  H   UNL A   1      40.961  30.913  33.977  1.00  0.00     0.167 HD
ATOM     76  C   UNL A   1      42.697  28.764  33.345  1.00  0.00     0.074 A 
ATOM     77  C   UNL A   1      43.344  27.702  32.604  1.00  0.00     0.031 C 
ATOM     78  C   UNL A   1      43.095  29.197  34.565  1.00  0.00     0.034 A 
BRANCH  65  79
ATOM     79  C   UNL A   1      39.907  34.043  36.687  1.00  0.00     0.023 A 
ATOM     80  C   UNL A   1      40.198  35.392  36.397  1.00  0.00     0.012 A 
ATOM     81  C   UNL A   1      39.409  33.703  37.961  1.00  0.00     0.148 A 
ATOM     82  C   UNL A   1      40.031  36.380  37.366  1.00  0.00     0.002 A 
ATOM     83  C   UNL A   1      39.203  34.700  38.908  1.00  0.00     0.091 A 
ATOM     84  F   UNL A   1      39.155  32.414  38.226  1.00  0.00    -0.205 F 
ATOM     85  C   UNL A   1      39.525  36.036  38.616  1.00  0.00     0.022 A 
BRANCH  83  86
ATOM     86  S   UNL A   1      38.479  34.372  40.519  1.00  0.00     0.127 S 
ATOM     87  O   UNL A   1      37.287  33.609  40.155  1.00  0.00    -0.237 OA
ATOM     88  O   UNL A   1      39.526  33.592  41.176  1.00  0.00    -0.237 OA
ATOM     89  O   UNL A   1      38.228  35.677  41.118  1.00  0.00    -0.744 OA
ENDBRANCH  83  86
ENDBRANCH  65  79
BRANCH  66  90
ATOM     90  C   UNL A   1      40.937  27.607  29.127  1.00  0.00     0.023 A 
ATOM     91  C   UNL A   1      40.233  26.388  29.084  1.00  0.00     0.012 A 
ATOM     92  C   UNL A   1      41.781  27.951  28.053  1.00  0.00     0.148 A 
ATOM     93  C   UNL A   1      40.389  25.515  28.006  1.00  0.00     0.002 A 
ATOM     94  C   UNL A   1      41.887  27.104  26.956  1.00  0.00     0.091 A 
ATOM     95  F   UNL A   1      42.451  29.110  28.119  1.00  0.00    -0.205 F 
ATOM     96  C   UNL A   1      41.205  25.878  26.937  1.00  0.00     0.022 A 
BRANCH  94  97
ATOM     97  S   UNL A   1      42.805  27.556  25.479  1.00  0.00     0.127 S 
ATOM     98  O   UNL A   1      44.155  27.731  26.006  1.00  0.00    -0.237 OA
ATOM     99  O   UNL A   1      42.619  26.375  24.634  1.00  0.00    -0.237 OA
ATOM    100  O   UNL A   1      42.162  28.760  24.969  1.00  0.00    -0.744 OA
ENDBRANCH  94  97
ENDBRANCH  66  90
BRANCH  78 101
ATOM    101  C   UNL A   1      44.264  28.503  35.215  1.00  0.00     0.023 A 
ATOM    102  C   UNL A   1      45.578  28.912  34.913  1.00  0.00     0.012 A 
ATOM    103  C   UNL A   1      44.052  27.519  36.201  1.00  0.00     0.148 A 
ATOM    104  C   UNL A   1      46.666  28.336  35.569  1.00  0.00     0.002 A 
ATOM    105  C   UNL A   1      45.137  26.985  36.884  1.00  0.00     0.091 A 
ATOM    106  F   UNL A   1      42.794  27.133  36.459  1.00  0.00    -0.205 F 
ATOM    107  C   UNL A   1      46.445  27.384  36.563  1.00  0.00     0.022 A 
BRANCH 105 108
ATOM    108  S   UNL A   1      44.947  25.827  38.245  1.00  0.00     0.127 S 
ATOM    109  O   UNL A   1      44.000  26.533  39.106  1.00  0.00    -0.237 OA
ATOM    110  O   UNL A   1      44.401  24.649  37.573  1.00  0.00    -0.237 OA
ATOM    111  O   UNL A   1      46.279  25.642  38.805  1.00  0.00    -0.744 OA
ENDBRANCH 105 108
ENDBRANCH  78 101
ENDBRANCH  52  53
ENDBRANCH  44  47
ENDBRANCH  42  43
ENDBRANCH  41  42
ENDBRANCH  40  41
ENDBRANCH   1  40
TORSDOF 22
ENDMDL
MODEL 3
REMARK VINA RESULT:     -11.7      1.792      2.134
REMARK SMILES CC(C)C(=O)Nc1ccc2c([C@H](C(=O)NCCCCCCNC(=O)c3ccc(-c4c5nc(c(-c6cccc(S(=O)(=O)[O-])c6F)c6ccc([nH]6)c(-c6cccc(S(=O)(=O)[O-])c6F)c6nc(c(-c7cccc(S(=O)(=O)[O-])c7F)c7ccc4[nH]7)C=C6)C=C5)cc3)[NH+]3CC[NH+](CC(=O)N(C)C)CC3)c[nH]c2c1
REMARK SMILES IDX 18 1 17 2 16 3 15 4 13 5 14 6 12 8 11 9 7 10 8 11 103 12
REMARK SMILES IDX 9 13 102 14 10 15 101 16 100 17 6 19 4 20 5 21 2 23 1 24
REMARK SMILES IDX 3 25 88 26 89 27 99 28 90 30 98 31 91 32 92 34 93 35 94 36
REMARK SMILES IDX 95 37 96 38 97 39 19 40 20 41 21 42 22 43 23 44 24 46 25 47
REMARK SMILES IDX 26 48 87 49 27 50 86 51 28 52 29 53 30 54 80 55 31 56 85 57
REMARK SMILES IDX 79 58 81 59 32 60 84 61 78 62 77 63 33 65 65 66 45 67 64 68
REMARK SMILES IDX 46 69 49 70 63 71 82 72 47 73 48 74 62 76 83 77 50 78 34 79
REMARK SMILES IDX 35 80 43 81 36 82 38 83 44 84 37 85 39 86 40 87 41 88 42 89
REMARK SMILES IDX 66 90 67 91 75 92 68 93 70 94 76 95 69 96 71 97 72 98 73 99
REMARK SMILES IDX 74 100 51 101 52 102 60 103 53 104 55 105 61 106 54 107
REMARK SMILES IDX 56 108 57 109 58 110 59 111
REMARK H PARENT 15 7 101 18 6 22 88 29 91 33 22 45 81 64 49 75
REMARK Flexibility Score: inf
ROOT
ATOM      1  C   UNL A   1      32.381  29.812  26.436  1.00  0.00     0.002 C 
ENDROOT
BRANCH   1   2
ATOM      2  C   UNL A   1      31.793  28.556  27.069  1.00  0.00     0.021 C 
BRANCH   2   3
ATOM      3  C   UNL A   1      32.409  27.177  26.697  1.00  0.00     0.116 C 
BRANCH   3   4
ATOM      4  N   UNL A   1      31.391  26.123  26.805  1.00  0.00    -0.351 N 
ATOM      5  C   UNL A   1      30.274  25.779  26.072  1.00  0.00     0.283 C 
ATOM      6  O   UNL A   1      29.353  25.353  26.787  1.00  0.00    -0.268 OA
ATOM      7  H   UNL A   1      31.541  25.527  27.573  1.00  0.00     0.163 HD
BRANCH   5   8
ATOM      8  C   UNL A   1      30.190  25.755  24.489  1.00  0.00     0.308 C 
BRANCH   8   9
ATOM      9  C   UNL A   1      30.723  27.056  23.817  1.00  0.00     0.044 A 
ATOM     10  C   UNL A   1      28.982  30.258  21.631  1.00  0.00     0.043 A 
ATOM     11  C   UNL A   1      28.100  29.292  22.095  1.00  0.00     0.027 A 
ATOM     12  C   UNL A   1      30.361  30.076  21.775  1.00  0.00     0.052 A 
ATOM     13  C   UNL A   1      28.553  28.203  22.849  1.00  0.00     0.013 A 
ATOM     14  C   UNL A   1      30.798  28.987  22.548  1.00  0.00     0.048 A 
ATOM     15  C   UNL A   1      29.930  28.051  23.114  1.00  0.00     0.009 A 
ATOM     16  N   UNL A   1      32.068  28.610  22.901  1.00  0.00    -0.361 N 
ATOM     17  C   UNL A   1      32.033  27.493  23.691  1.00  0.00     0.094 A 
ATOM     18  H   UNL A   1      32.890  29.076  22.624  1.00  0.00     0.166 HD
BRANCH  10  19
ATOM     19  N   UNL A   1      28.537  31.412  20.977  1.00  0.00    -0.326 N 
ATOM     20  C   UNL A   1      28.033  32.579  21.477  1.00  0.00     0.226 C 
ATOM     21  O   UNL A   1      27.554  33.382  20.665  1.00  0.00    -0.274 OA
ATOM     22  H   UNL A   1      28.596  31.377  19.996  1.00  0.00     0.169 HD
BRANCH  20  23
ATOM     23  C   UNL A   1      28.152  32.987  22.954  1.00  0.00     0.072 C 
ATOM     24  C   UNL A   1      27.707  31.934  23.959  1.00  0.00     0.018 C 
ATOM     25  C   UNL A   1      29.494  33.623  23.313  1.00  0.00     0.018 C 
ENDBRANCH  20  23
ENDBRANCH  10  19
ENDBRANCH   8   9
BRANCH   8  26
ATOM     26  N   UNL A   1      30.893  24.648  23.822  1.00  0.00    -0.312 N 
ATOM     27  C   UNL A   1      31.737  24.875  22.645  1.00  0.00     0.325 C 
ATOM     28  C   UNL A   1      31.342  23.536  24.628  1.00  0.00     0.325 C 
ATOM     29  H   UNL A   1      30.023  24.354  23.379  1.00  0.00     0.349 HD
ATOM     30  C   UNL A   1      33.276  24.763  22.843  1.00  0.00     0.325 C 
ATOM     31  C   UNL A   1      32.815  23.731  24.969  1.00  0.00     0.325 C 
ATOM     32  N   UNL A   1      33.774  23.859  23.888  1.00  0.00    -0.318 N 
ATOM     33  H   UNL A   1      34.599  24.333  24.256  1.00  0.00     0.348 HD
BRANCH  32  34
ATOM     34  C   UNL A   1      34.395  22.602  23.463  1.00  0.00     0.364 C 
BRANCH  34  35
ATOM     35  C   UNL A   1      35.903  22.545  23.712  1.00  0.00     0.277 C 
ATOM     36  O   UNL A   1      36.668  22.954  22.830  1.00  0.00    -0.268 OA
ATOM     37  N   UNL A   1      36.380  21.962  24.888  1.00  0.00    -0.344 N 
ATOM     38  C   UNL A   1      35.596  21.531  26.043  1.00  0.00     0.146 C 
ATOM     39  C   UNL A   1      37.810  21.735  25.008  1.00  0.00     0.146 C 
ENDBRANCH  34  35
ENDBRANCH  32  34
ENDBRANCH   8  26
ENDBRANCH   5   8
ENDBRANCH   3   4
ENDBRANCH   2   3
ENDBRANCH   1   2
BRANCH   1  40
ATOM     40  C   UNL A   1      31.357  30.838  25.943  1.00  0.00     0.002 C 
BRANCH  40  41
ATOM     41  C   UNL A   1      31.296  32.181  26.690  1.00  0.00     0.021 C 
BRANCH  41  42
ATOM     42  C   UNL A   1      32.636  32.802  27.094  1.00  0.00     0.116 C 
BRANCH  42  43
ATOM     43  N   UNL A   1      32.481  34.128  27.671  1.00  0.00    -0.352 N 
ATOM     44  C   UNL A   1      33.106  34.706  28.749  1.00  0.00     0.251 C 
ATOM     45  H   UNL A   1      31.826  34.703  27.216  1.00  0.00     0.163 HD
ATOM     46  O   UNL A   1      32.669  35.756  29.212  1.00  0.00    -0.269 OA
BRANCH  44  47
ATOM     47  C   UNL A   1      34.293  34.072  29.365  1.00  0.00     0.039 A 
ATOM     48  C   UNL A   1      35.566  34.413  28.893  1.00  0.00     0.014 A 
ATOM     49  C   UNL A   1      34.157  33.103  30.361  1.00  0.00     0.014 A 
ATOM     50  C   UNL A   1      36.702  33.830  29.462  1.00  0.00     0.010 A 
ATOM     51  C   UNL A   1      35.292  32.564  30.966  1.00  0.00     0.010 A 
ATOM     52  C   UNL A   1      36.576  32.919  30.523  1.00  0.00    -0.014 A 
BRANCH  52  53
ATOM     53  C   UNL A   1      37.769  32.338  31.196  1.00  0.00     0.031 A 
ATOM     54  C   UNL A   1      38.507  31.185  30.570  1.00  0.00     0.074 A 
ATOM     55  C   UNL A   1      38.123  32.775  32.420  1.00  0.00     0.049 A 
ATOM     56  N   UNL A   1      39.496  30.478  31.054  1.00  0.00    -0.248 NA
ATOM     57  C   UNL A   1      38.057  30.752  29.237  1.00  0.00     0.031 C 
ATOM     58  C   UNL A   1      37.448  33.841  33.163  1.00  0.00     0.029 A 
ATOM     59  N   UNL A   1      39.113  32.353  33.274  1.00  0.00    -0.354 N 
ATOM     60  C   UNL A   1      39.758  29.493  30.108  1.00  0.00     0.074 A 
ATOM     61  C   UNL A   1      38.810  29.680  29.032  1.00  0.00     0.031 C 
ATOM     62  C   UNL A   1      38.033  33.981  34.364  1.00  0.00     0.029 A 
ATOM     63  C   UNL A   1      39.102  32.994  34.491  1.00  0.00     0.049 A 
ATOM     64  H   UNL A   1      39.767  31.657  33.037  1.00  0.00     0.167 HD
ATOM     65  C   UNL A   1      40.717  28.536  30.123  1.00  0.00     0.034 A 
ATOM     66  C   UNL A   1      39.853  32.800  35.593  1.00  0.00     0.034 A 
ATOM     67  C   UNL A   1      41.687  28.383  31.173  1.00  0.00     0.049 A 
ATOM     68  C   UNL A   1      40.934  31.753  35.571  1.00  0.00     0.074 A 
ATOM     69  C   UNL A   1      42.757  27.506  31.234  1.00  0.00     0.029 A 
ATOM     70  N   UNL A   1      41.705  29.115  32.349  1.00  0.00    -0.354 N 
ATOM     71  N   UNL A   1      41.267  30.935  34.603  1.00  0.00    -0.248 NA
ATOM     72  C   UNL A   1      41.764  31.622  36.778  1.00  0.00     0.031 C 
ATOM     73  C   UNL A   1      43.405  27.691  32.458  1.00  0.00     0.029 A 
ATOM     74  C   UNL A   1      42.757  28.703  33.148  1.00  0.00     0.049 A 
ATOM     75  H   UNL A   1      41.062  29.824  32.582  1.00  0.00     0.167 HD
ATOM     76  C   UNL A   1      42.367  30.221  35.067  1.00  0.00     0.074 A 
ATOM     77  C   UNL A   1      42.651  30.713  36.399  1.00  0.00     0.031 C 
ATOM     78  C   UNL A   1      43.067  29.240  34.448  1.00  0.00     0.034 A 
BRANCH  65  79
ATOM     79  C   UNL A   1      40.795  27.601  28.943  1.00  0.00     0.023 A 
ATOM     80  C   UNL A   1      39.880  26.534  28.839  1.00  0.00     0.012 A 
ATOM     81  C   UNL A   1      41.727  27.815  27.909  1.00  0.00     0.148 A 
ATOM     82  C   UNL A   1      39.914  25.673  27.743  1.00  0.00     0.002 A 
ATOM     83  C   UNL A   1      41.725  26.980  26.797  1.00  0.00     0.091 A 
ATOM     84  F   UNL A   1      42.601  28.824  28.034  1.00  0.00    -0.205 F 
ATOM     85  C   UNL A   1      40.828  25.902  26.718  1.00  0.00     0.022 A 
BRANCH  83  86
ATOM     86  S   UNL A   1      42.809  27.240  25.388  1.00  0.00     0.127 S 
ATOM     87  O   UNL A   1      44.099  27.447  26.043  1.00  0.00    -0.237 OA
ATOM     88  O   UNL A   1      42.686  25.975  24.666  1.00  0.00    -0.237 OA
ATOM     89  O   UNL A   1      42.274  28.397  24.680  1.00  0.00    -0.744 OA
ENDBRANCH  83  86
ENDBRANCH  65  79
BRANCH  66  90
ATOM     90  C   UNL A   1      39.641  33.658  36.794  1.00  0.00     0.023 A 
ATOM     91  C   UNL A   1      40.082  34.995  36.775  1.00  0.00     0.012 A 
ATOM     92  C   UNL A   1      38.971  33.172  37.933  1.00  0.00     0.148 A 
ATOM     93  C   UNL A   1      39.886  35.825  37.880  1.00  0.00     0.002 A 
ATOM     94  C   UNL A   1      38.728  34.020  39.008  1.00  0.00     0.091 A 
ATOM     95  F   UNL A   1      38.569  31.893  37.937  1.00  0.00    -0.205 F 
ATOM     96  C   UNL A   1      39.198  35.342  38.991  1.00  0.00     0.022 A 
BRANCH  94  97
ATOM     97  S   UNL A   1      37.731  33.522  40.418  1.00  0.00     0.127 S 
ATOM     98  O   UNL A   1      36.504  33.065  39.772  1.00  0.00    -0.237 OA
ATOM     99  O   UNL A   1      38.550  32.462  41.009  1.00  0.00    -0.237 OA
ATOM    100  O   UNL A   1      37.605  34.711  41.250  1.00  0.00    -0.744 OA
ENDBRANCH  94  97
ENDBRANCH  66  90
BRANCH  78 101
ATOM    101  C   UNL A   1      44.246  28.648  35.175  1.00  0.00     0.023 A 
ATOM    102  C   UNL A   1      44.073  27.500  35.974  1.00  0.00     0.012 A 
ATOM    103  C   UNL A   1      45.541  29.169  34.981  1.00  0.00     0.148 A 
ATOM    104  C   UNL A   1      45.170  26.892  36.585  1.00  0.00     0.002 A 
ATOM    105  C   UNL A   1      46.634  28.530  35.553  1.00  0.00     0.091 A 
ATOM    106  F   UNL A   1      45.679  30.272  34.231  1.00  0.00    -0.205 F 
ATOM    107  C   UNL A   1      46.449  27.398  36.363  1.00  0.00     0.022 A 
BRANCH 105 108
ATOM    108  S   UNL A   1      48.326  29.049  35.246  1.00  0.00     0.127 S 
ATOM    109  O   UNL A   1      48.430  28.883  33.797  1.00  0.00    -0.237 OA
ATOM    110  O   UNL A   1      48.310  30.439  35.702  1.00  0.00    -0.237 OA
ATOM    111  O   UNL A   1      49.169  28.162  36.035  1.00  0.00    -0.744 OA
ENDBRANCH 105 108
ENDBRANCH  78 101
ENDBRANCH  52  53
ENDBRANCH  44  47
ENDBRANCH  42  43
ENDBRANCH  41  42
ENDBRANCH  40  41
ENDBRANCH   1  40
TORSDOF 22
ENDMDL
