MODEL 1
REMARK VINA RESULT:     -10.7      0.000      0.000
REMARK SMILES CC(C)[C@@H](NC(=O)[C@@](C)([NH3+])C(F)(F)F)C(=O)NCCCCCCNC(=O)c1ccc(-c2c3nc(c(-c4cccc(S(=O)(=O)[O-])c4F)c4ccc([nH]4)c(-c4cccc(S(=O)(=O)[O-])c4F)c4nc(c(-c5cccc(S(=O)(=O)[O-])c5F)c5ccc2[nH]5)C=C4)C=C3)cc1
REMARK SMILES IDX 20 1 19 2 18 3 17 4 15 5 16 6 4 8 2 9 1 10 3 11 5 12 6 13
REMARK SMILES IDX 7 15 8 16 9 17 10 18 11 22 12 23 13 24 14 25 21 26 22 27
REMARK SMILES IDX 23 28 24 29 25 30 26 32 27 33 28 34 89 35 29 36 88 37 30 38
REMARK SMILES IDX 31 39 32 40 82 41 33 42 87 43 81 44 83 45 34 46 86 47 80 48
REMARK SMILES IDX 79 49 35 51 67 52 47 53 66 54 48 55 51 56 65 57 84 58 49 59
REMARK SMILES IDX 50 60 64 62 85 63 52 64 36 65 37 66 45 67 38 68 40 69 46 70
REMARK SMILES IDX 39 71 41 72 42 73 43 74 44 75 68 76 69 77 77 78 70 79 72 80
REMARK SMILES IDX 78 81 71 82 73 83 74 84 75 85 76 86 53 87 54 88 62 89 55 90
REMARK SMILES IDX 57 91 63 92 56 93 58 94 59 95 60 96 61 97
REMARK H PARENT 17 7 5 14 10 19 10 20 10 21 24 31 83 50 51 61
REMARK Flexibility Score: inf
ROOT
ATOM      1  C   UNL A   1      33.889  21.412  24.589  1.00  0.00     0.002 C 
ENDROOT
BRANCH   1   2
ATOM      2  C   UNL A   1      32.423  21.376  24.150  1.00  0.00     0.021 C 
BRANCH   2   3
ATOM      3  C   UNL A   1      31.788  22.746  23.954  1.00  0.00     0.116 C 
BRANCH   3   4
ATOM      4  N   UNL A   1      31.215  23.247  25.193  1.00  0.00    -0.354 N 
ATOM      5  C   UNL A   1      30.984  24.536  25.577  1.00  0.00     0.242 C 
ATOM      6  O   UNL A   1      30.192  24.730  26.505  1.00  0.00    -0.273 OA
ATOM      7  H   UNL A   1      30.956  22.559  25.848  1.00  0.00     0.163 HD
BRANCH   5   8
ATOM      8  C   UNL A   1      31.680  25.719  24.887  1.00  0.00     0.174 C 
BRANCH   8   9
ATOM      9  C   UNL A   1      33.207  25.392  24.732  1.00  0.00     0.015 C 
ATOM     10  C   UNL A   1      33.786  25.725  23.354  1.00  0.00     0.010 C 
ATOM     11  C   UNL A   1      34.078  26.075  25.802  1.00  0.00     0.010 C 
ENDBRANCH   8   9
BRANCH   8  12
ATOM     12  N   UNL A   1      31.037  26.078  23.605  1.00  0.00    -0.338 N 
ATOM     13  C   UNL A   1      31.068  27.211  22.829  1.00  0.00     0.291 C 
ATOM     14  H   UNL A   1      30.476  25.361  23.232  1.00  0.00     0.164 HD
ATOM     15  O   UNL A   1      30.966  26.980  21.618  1.00  0.00    -0.267 OA
BRANCH  13  16
ATOM     16  C   UNL A   1      31.146  28.670  23.362  1.00  0.00     0.267 C 
ATOM     17  C   UNL A   1      31.082  28.753  24.890  1.00  0.00     0.100 C 
BRANCH  16  18
ATOM     18  N   UNL A   1      32.420  29.317  22.893  1.00  0.00    -0.337 N 
ATOM     19  H   UNL A   1      32.214  30.245  22.524  1.00  0.00     0.345 HD
ATOM     20  H   UNL A   1      32.842  28.746  22.161  1.00  0.00     0.345 HD
ATOM     21  H   UNL A   1      33.067  29.398  23.677  1.00  0.00     0.345 HD
ENDBRANCH  16  18
BRANCH  16  22
ATOM     22  C   UNL A   1      29.846  29.404  22.887  1.00  0.00     0.453 C 
ATOM     23  F   UNL A   1      29.936  29.935  21.651  1.00  0.00    -0.164 F 
ATOM     24  F   UNL A   1      28.751  28.610  22.939  1.00  0.00    -0.164 F 
ATOM     25  F   UNL A   1      29.588  30.446  23.733  1.00  0.00    -0.164 F 
ENDBRANCH  16  22
ENDBRANCH  13  16
ENDBRANCH   8  12
ENDBRANCH   5   8
ENDBRANCH   3   4
ENDBRANCH   2   3
ENDBRANCH   1   2
BRANCH   1  26
ATOM     26  C   UNL A   1      34.835  22.203  23.683  1.00  0.00     0.002 C 
BRANCH  26  27
ATOM     27  C   UNL A   1      36.141  22.665  24.325  1.00  0.00     0.021 C 
BRANCH  27  28
ATOM     28  C   UNL A   1      36.407  22.091  25.708  1.00  0.00     0.116 C 
BRANCH  28  29
ATOM     29  N   UNL A   1      37.412  21.042  25.695  1.00  0.00    -0.352 N 
ATOM     30  C   UNL A   1      38.758  21.142  25.937  1.00  0.00     0.251 C 
ATOM     31  H   UNL A   1      37.081  20.137  25.485  1.00  0.00     0.163 HD
ATOM     32  O   UNL A   1      39.489  20.178  25.762  1.00  0.00    -0.269 OA
BRANCH  30  33
ATOM     33  C   UNL A   1      39.315  22.438  26.378  1.00  0.00     0.039 A 
ATOM     34  C   UNL A   1      40.304  22.439  27.363  1.00  0.00     0.014 A 
ATOM     35  C   UNL A   1      38.884  23.639  25.805  1.00  0.00     0.014 A 
ATOM     36  C   UNL A   1      40.891  23.645  27.742  1.00  0.00     0.010 A 
ATOM     37  C   UNL A   1      39.533  24.827  26.121  1.00  0.00     0.010 A 
ATOM     38  C   UNL A   1      40.531  24.844  27.104  1.00  0.00    -0.014 A 
BRANCH  38  39
ATOM     39  C   UNL A   1      41.193  26.123  27.465  1.00  0.00     0.031 A 
ATOM     40  C   UNL A   1      42.617  26.384  27.051  1.00  0.00     0.074 A 
ATOM     41  C   UNL A   1      40.527  27.025  28.211  1.00  0.00     0.049 A 
ATOM     42  N   UNL A   1      43.355  27.441  27.271  1.00  0.00    -0.248 NA
ATOM     43  C   UNL A   1      43.312  25.312  26.319  1.00  0.00     0.031 C 
ATOM     44  C   UNL A   1      39.175  26.847  28.748  1.00  0.00     0.029 A 
ATOM     45  N   UNL A   1      40.902  28.265  28.665  1.00  0.00    -0.354 N 
ATOM     46  C   UNL A   1      44.605  27.150  26.736  1.00  0.00     0.074 A 
ATOM     47  C   UNL A   1      44.539  25.802  26.217  1.00  0.00     0.031 C 
ATOM     48  C   UNL A   1      38.830  27.942  29.442  1.00  0.00     0.029 A 
ATOM     49  C   UNL A   1      39.942  28.886  29.429  1.00  0.00     0.049 A 
ATOM     50  H   UNL A   1      41.775  28.671  28.461  1.00  0.00     0.167 HD
ATOM     51  C   UNL A   1      45.699  27.942  26.658  1.00  0.00     0.034 A 
ATOM     52  C   UNL A   1      39.959  30.080  30.052  1.00  0.00     0.034 A 
ATOM     53  C   UNL A   1      45.746  29.295  27.143  1.00  0.00     0.049 A 
ATOM     54  C   UNL A   1      41.172  30.957  29.910  1.00  0.00     0.074 A 
ATOM     55  C   UNL A   1      46.775  30.213  27.029  1.00  0.00     0.029 A 
ATOM     56  N   UNL A   1      44.727  29.919  27.844  1.00  0.00    -0.354 N 
ATOM     57  N   UNL A   1      42.285  30.728  29.256  1.00  0.00    -0.248 NA
ATOM     58  C   UNL A   1      41.117  32.275  30.558  1.00  0.00     0.031 C 
ATOM     59  C   UNL A   1      46.392  31.381  27.695  1.00  0.00     0.029 A 
ATOM     60  C   UNL A   1      45.108  31.206  28.185  1.00  0.00     0.049 A 
ATOM     61  H   UNL A   1      43.861  29.509  28.067  1.00  0.00     0.167 HD
ATOM     62  C   UNL A   1      43.047  31.884  29.383  1.00  0.00     0.074 A 
ATOM     63  C   UNL A   1      42.256  32.820  30.155  1.00  0.00     0.031 C 
ATOM     64  C   UNL A   1      44.293  32.142  28.915  1.00  0.00     0.034 A 
BRANCH  51  65
ATOM     65  C   UNL A   1      46.925  27.382  25.984  1.00  0.00     0.023 A 
ATOM     66  C   UNL A   1      47.095  27.541  24.593  1.00  0.00     0.012 A 
ATOM     67  C   UNL A   1      47.939  26.758  26.737  1.00  0.00     0.148 A 
ATOM     68  C   UNL A   1      48.237  27.058  23.956  1.00  0.00     0.002 A 
ATOM     69  C   UNL A   1      49.097  26.323  26.102  1.00  0.00     0.091 A 
ATOM     70  F   UNL A   1      47.751  26.596  28.053  1.00  0.00    -0.205 F 
ATOM     71  C   UNL A   1      49.243  26.461  24.712  1.00  0.00     0.022 A 
BRANCH  69  72
ATOM     72  S   UNL A   1      50.485  25.614  26.996  1.00  0.00     0.127 S 
ATOM     73  O   UNL A   1      49.866  24.445  27.621  1.00  0.00    -0.237 OA
ATOM     74  O   UNL A   1      51.418  25.302  25.912  1.00  0.00    -0.237 OA
ATOM     75  O   UNL A   1      50.941  26.644  27.916  1.00  0.00    -0.744 OA
ENDBRANCH  69  72
ENDBRANCH  51  65
BRANCH  52  76
ATOM     76  C   UNL A   1      38.769  30.537  30.823  1.00  0.00     0.023 A 
ATOM     77  C   UNL A   1      38.715  30.323  32.215  1.00  0.00     0.012 A 
ATOM     78  C   UNL A   1      37.698  31.194  30.188  1.00  0.00     0.148 A 
ATOM     79  C   UNL A   1      37.600  30.721  32.953  1.00  0.00     0.002 A 
ATOM     80  C   UNL A   1      36.617  31.640  30.938  1.00  0.00     0.091 A 
ATOM     81  F   UNL A   1      37.765  31.379  28.862  1.00  0.00    -0.205 F 
ATOM     82  C   UNL A   1      36.555  31.388  32.317  1.00  0.00     0.022 A 
BRANCH  80  83
ATOM     83  S   UNL A   1      35.292  32.621  30.224  1.00  0.00     0.127 S 
ATOM     84  O   UNL A   1      34.789  31.729  29.183  1.00  0.00    -0.237 OA
ATOM     85  O   UNL A   1      34.401  32.799  31.370  1.00  0.00    -0.237 OA
ATOM     86  O   UNL A   1      35.921  33.848  29.756  1.00  0.00    -0.744 OA
ENDBRANCH  80  83
ENDBRANCH  52  76
BRANCH  64  87
ATOM     87  C   UNL A   1      44.868  33.508  29.187  1.00  0.00     0.023 A 
ATOM     88  C   UNL A   1      45.589  33.747  30.374  1.00  0.00     0.012 A 
ATOM     89  C   UNL A   1      44.745  34.538  28.234  1.00  0.00     0.148 A 
ATOM     90  C   UNL A   1      46.140  35.003  30.628  1.00  0.00     0.002 A 
ATOM     91  C   UNL A   1      45.343  35.770  28.469  1.00  0.00     0.091 A 
ATOM     92  F   UNL A   1      44.041  34.296  27.119  1.00  0.00    -0.205 F 
ATOM     93  C   UNL A   1      46.027  36.009  29.671  1.00  0.00     0.022 A 
BRANCH  91  94
ATOM     94  S   UNL A   1      45.336  37.090  27.251  1.00  0.00     0.127 S 
ATOM     95  O   UNL A   1      43.908  37.226  26.967  1.00  0.00    -0.237 OA
ATOM     96  O   UNL A   1      45.919  38.204  27.999  1.00  0.00    -0.237 OA
ATOM     97  O   UNL A   1      46.151  36.617  26.140  1.00  0.00    -0.744 OA
ENDBRANCH  91  94
ENDBRANCH  64  87
ENDBRANCH  38  39
ENDBRANCH  30  33
ENDBRANCH  28  29
ENDBRANCH  27  28
ENDBRANCH  26  27
ENDBRANCH   1  26
TORSDOF 21
ENDMDL
MODEL 2
REMARK VINA RESULT:     -10.5      4.930      9.824
REMARK SMILES CC(C)[C@@H](NC(=O)[C@@](C)([NH3+])C(F)(F)F)C(=O)NCCCCCCNC(=O)c1ccc(-c2c3nc(c(-c4cccc(S(=O)(=O)[O-])c4F)c4ccc([nH]4)c(-c4cccc(S(=O)(=O)[O-])c4F)c4nc(c(-c5cccc(S(=O)(=O)[O-])c5F)c5ccc2[nH]5)C=C4)C=C3)cc1
REMARK SMILES IDX 20 1 19 2 18 3 17 4 15 5 16 6 4 8 2 9 1 10 3 11 5 12 6 13
REMARK SMILES IDX 7 15 8 16 9 17 10 18 11 22 12 23 13 24 14 25 21 26 22 27
REMARK SMILES IDX 23 28 24 29 25 30 26 32 27 33 28 34 89 35 29 36 88 37 30 38
REMARK SMILES IDX 31 39 32 40 82 41 33 42 87 43 81 44 83 45 34 46 86 47 80 48
REMARK SMILES IDX 79 49 35 51 67 52 47 53 66 54 48 55 51 56 65 57 84 58 49 59
REMARK SMILES IDX 50 60 64 62 85 63 52 64 36 65 37 66 45 67 38 68 40 69 46 70
REMARK SMILES IDX 39 71 41 72 42 73 43 74 44 75 68 76 69 77 77 78 70 79 72 80
REMARK SMILES IDX 78 81 71 82 73 83 74 84 75 85 76 86 53 87 54 88 62 89 55 90
REMARK SMILES IDX 57 91 63 92 56 93 58 94 59 95 60 96 61 97
REMARK H PARENT 17 7 5 14 10 19 10 20 10 21 24 31 83 50 51 61
REMARK Flexibility Score: inf
ROOT
ATOM      1  C   UNL A   1      31.321  27.412  25.716  1.00  0.00     0.002 C 
ENDROOT
BRANCH   1   2
ATOM      2  C   UNL A   1      31.907  27.551  24.308  1.00  0.00     0.021 C 
BRANCH   2   3
ATOM      3  C   UNL A   1      33.299  26.957  24.142  1.00  0.00     0.116 C 
BRANCH   3   4
ATOM      4  N   UNL A   1      33.409  26.200  22.905  1.00  0.00    -0.354 N 
ATOM      5  C   UNL A   1      33.079  24.899  22.659  1.00  0.00     0.242 C 
ATOM      6  O   UNL A   1      32.933  24.552  21.482  1.00  0.00    -0.273 OA
ATOM      7  H   UNL A   1      33.773  26.696  22.137  1.00  0.00     0.163 HD
BRANCH   5   8
ATOM      8  C   UNL A   1      32.895  23.885  23.797  1.00  0.00     0.174 C 
BRANCH   8   9
ATOM      9  C   UNL A   1      31.383  23.471  23.871  1.00  0.00     0.015 C 
ATOM     10  C   UNL A   1      30.904  23.081  25.272  1.00  0.00     0.010 C 
ATOM     11  C   UNL A   1      30.436  24.552  23.318  1.00  0.00     0.010 C 
ENDBRANCH   8   9
BRANCH   8  12
ATOM     12  N   UNL A   1      33.801  22.725  23.668  1.00  0.00    -0.338 N 
ATOM     13  C   UNL A   1      34.550  22.017  24.576  1.00  0.00     0.291 C 
ATOM     14  H   UNL A   1      33.883  22.391  22.746  1.00  0.00     0.164 HD
ATOM     15  O   UNL A   1      34.669  20.820  24.289  1.00  0.00    -0.267 OA
BRANCH  13  16
ATOM     16  C   UNL A   1      35.265  22.616  25.821  1.00  0.00     0.267 C 
ATOM     17  C   UNL A   1      34.301  23.315  26.786  1.00  0.00     0.100 C 
BRANCH  16  18
ATOM     18  N   UNL A   1      35.992  21.530  26.564  1.00  0.00    -0.337 N 
ATOM     19  H   UNL A   1      36.891  21.353  26.114  1.00  0.00     0.345 HD
ATOM     20  H   UNL A   1      35.433  20.677  26.553  1.00  0.00     0.345 HD
ATOM     21  H   UNL A   1      36.147  21.823  27.528  1.00  0.00     0.345 HD
ENDBRANCH  16  18
BRANCH  16  22
ATOM     22  C   UNL A   1      36.192  23.769  25.308  1.00  0.00     0.453 C 
ATOM     23  F   UNL A   1      36.754  23.529  24.107  1.00  0.00    -0.164 F 
ATOM     24  F   UNL A   1      35.560  24.965  25.260  1.00  0.00    -0.164 F 
ATOM     25  F   UNL A   1      37.227  23.934  26.187  1.00  0.00    -0.164 F 
ENDBRANCH  16  22
ENDBRANCH  13  16
ENDBRANCH   8  12
ENDBRANCH   5   8
ENDBRANCH   3   4
ENDBRANCH   2   3
ENDBRANCH   1   2
BRANCH   1  26
ATOM     26  C   UNL A   1      31.513  28.618  26.637  1.00  0.00     0.002 C 
BRANCH  26  27
ATOM     27  C   UNL A   1      32.843  28.680  27.386  1.00  0.00     0.021 C 
BRANCH  27  28
ATOM     28  C   UNL A   1      33.854  29.654  26.803  1.00  0.00     0.116 C 
BRANCH  28  29
ATOM     29  N   UNL A   1      33.739  30.987  27.370  1.00  0.00    -0.352 N 
ATOM     30  C   UNL A   1      34.567  31.609  28.269  1.00  0.00     0.251 C 
ATOM     31  H   UNL A   1      32.963  31.513  27.068  1.00  0.00     0.163 HD
ATOM     32  O   UNL A   1      34.258  32.693  28.744  1.00  0.00    -0.269 OA
BRANCH  30  33
ATOM     33  C   UNL A   1      35.818  30.938  28.679  1.00  0.00     0.039 A 
ATOM     34  C   UNL A   1      37.035  31.499  28.289  1.00  0.00     0.014 A 
ATOM     35  C   UNL A   1      35.790  29.781  29.464  1.00  0.00     0.014 A 
ATOM     36  C   UNL A   1      38.227  30.921  28.725  1.00  0.00     0.010 A 
ATOM     37  C   UNL A   1      36.976  29.260  29.969  1.00  0.00     0.010 A 
ATOM     38  C   UNL A   1      38.207  29.814  29.591  1.00  0.00    -0.014 A 
BRANCH  38  39
ATOM     39  C   UNL A   1      39.471  29.229  30.102  1.00  0.00     0.031 A 
ATOM     40  C   UNL A   1      40.117  29.783  31.344  1.00  0.00     0.074 A 
ATOM     41  C   UNL A   1      40.064  28.233  29.415  1.00  0.00     0.049 A 
ATOM     42  N   UNL A   1      41.215  29.399  31.940  1.00  0.00    -0.248 NA
ATOM     43  C   UNL A   1      39.461  30.934  31.987  1.00  0.00     0.031 C 
ATOM     44  C   UNL A   1      39.582  27.673  28.150  1.00  0.00     0.029 A 
ATOM     45  N   UNL A   1      41.212  27.527  29.674  1.00  0.00    -0.354 N 
ATOM     46  C   UNL A   1      41.398  30.275  33.003  1.00  0.00     0.074 A 
ATOM     47  C   UNL A   1      40.321  31.237  32.948  1.00  0.00     0.031 C 
ATOM     48  C   UNL A   1      40.417  26.701  27.752  1.00  0.00     0.029 A 
ATOM     49  C   UNL A   1      41.509  26.589  28.713  1.00  0.00     0.049 A 
ATOM     50  H   UNL A   1      41.769  27.677  30.471  1.00  0.00     0.167 HD
ATOM     51  C   UNL A   1      42.359  30.264  33.956  1.00  0.00     0.034 A 
ATOM     52  C   UNL A   1      42.548  25.737  28.616  1.00  0.00     0.034 A 
ATOM     53  C   UNL A   1      43.407  29.281  34.026  1.00  0.00     0.049 A 
ATOM     54  C   UNL A   1      43.577  25.716  29.713  1.00  0.00     0.074 A 
ATOM     55  C   UNL A   1      44.374  29.126  35.003  1.00  0.00     0.029 A 
ATOM     56  N   UNL A   1      43.633  28.297  33.078  1.00  0.00    -0.354 N 
ATOM     57  N   UNL A   1      43.640  26.446  30.800  1.00  0.00    -0.248 NA
ATOM     58  C   UNL A   1      44.657  24.727  29.591  1.00  0.00     0.031 C 
ATOM     59  C   UNL A   1      45.208  28.069  34.626  1.00  0.00     0.029 A 
ATOM     60  C   UNL A   1      44.735  27.538  33.437  1.00  0.00     0.049 A 
ATOM     61  H   UNL A   1      43.090  28.156  32.268  1.00  0.00     0.167 HD
ATOM     62  C   UNL A   1      44.742  25.982  31.508  1.00  0.00     0.074 A 
ATOM     63  C   UNL A   1      45.302  24.890  30.738  1.00  0.00     0.031 C 
ATOM     64  C   UNL A   1      45.253  26.427  32.682  1.00  0.00     0.034 A 
BRANCH  51  65
ATOM     65  C   UNL A   1      42.299  31.321  35.027  1.00  0.00     0.023 A 
ATOM     66  C   UNL A   1      41.603  31.065  36.227  1.00  0.00     0.012 A 
ATOM     67  C   UNL A   1      42.986  32.542  34.875  1.00  0.00     0.148 A 
ATOM     68  C   UNL A   1      41.562  32.018  37.243  1.00  0.00     0.002 A 
ATOM     69  C   UNL A   1      42.981  33.466  35.913  1.00  0.00     0.091 A 
ATOM     70  F   UNL A   1      43.623  32.777  33.721  1.00  0.00    -0.205 F 
ATOM     71  C   UNL A   1      42.261  33.212  37.091  1.00  0.00     0.022 A 
BRANCH  69  72
ATOM     72  S   UNL A   1      43.915  35.000  35.849  1.00  0.00     0.127 S 
ATOM     73  O   UNL A   1      44.008  35.347  37.267  1.00  0.00    -0.237 OA
ATOM     74  O   UNL A   1      45.174  34.565  35.244  1.00  0.00    -0.237 OA
ATOM     75  O   UNL A   1      43.131  35.917  35.034  1.00  0.00    -0.744 OA
ENDBRANCH  69  72
ENDBRANCH  51  65
BRANCH  52  76
ATOM     76  C   UNL A   1      42.639  24.798  27.463  1.00  0.00     0.023 A 
ATOM     77  C   UNL A   1      43.263  25.214  26.271  1.00  0.00     0.012 A 
ATOM     78  C   UNL A   1      42.123  23.490  27.547  1.00  0.00     0.148 A 
ATOM     79  C   UNL A   1      43.338  24.359  25.170  1.00  0.00     0.002 A 
ATOM     80  C   UNL A   1      42.253  22.624  26.468  1.00  0.00     0.091 A 
ATOM     81  F   UNL A   1      41.525  23.117  28.687  1.00  0.00    -0.205 F 
ATOM     82  C   UNL A   1      42.841  23.062  25.272  1.00  0.00     0.022 A 
BRANCH  80  83
ATOM     83  S   UNL A   1      41.761  20.899  26.557  1.00  0.00     0.127 S 
ATOM     84  O   UNL A   1      40.307  21.007  26.625  1.00  0.00    -0.237 OA
ATOM     85  O   UNL A   1      42.284  20.374  25.295  1.00  0.00    -0.237 OA
ATOM     86  O   UNL A   1      42.413  20.366  27.745  1.00  0.00    -0.744 OA
ENDBRANCH  80  83
ENDBRANCH  52  76
BRANCH  64  87
ATOM     87  C   UNL A   1      46.457  25.708  33.233  1.00  0.00     0.023 A 
ATOM     88  C   UNL A   1      47.751  26.219  33.004  1.00  0.00     0.012 A 
ATOM     89  C   UNL A   1      46.300  24.557  34.031  1.00  0.00     0.148 A 
ATOM     90  C   UNL A   1      48.871  25.571  33.523  1.00  0.00     0.002 A 
ATOM     91  C   UNL A   1      47.417  23.948  34.591  1.00  0.00     0.091 A 
ATOM     92  F   UNL A   1      45.063  24.077  34.223  1.00  0.00    -0.205 F 
ATOM     93  C   UNL A   1      48.703  24.444  34.325  1.00  0.00     0.022 A 
BRANCH  91  94
ATOM     94  S   UNL A   1      47.289  22.555  35.717  1.00  0.00     0.127 S 
ATOM     95  O   UNL A   1      47.031  21.450  34.795  1.00  0.00    -0.237 OA
ATOM     96  O   UNL A   1      48.614  22.537  36.336  1.00  0.00    -0.237 OA
ATOM     97  O   UNL A   1      46.200  22.874  36.629  1.00  0.00    -0.744 OA
ENDBRANCH  91  94
ENDBRANCH  64  87
ENDBRANCH  38  39
ENDBRANCH  30  33
ENDBRANCH  28  29
ENDBRANCH  27  28
ENDBRANCH  26  27
ENDBRANCH   1  26
TORSDOF 21
ENDMDL
MODEL 3
REMARK VINA RESULT:     -10.5      5.753      8.971
REMARK SMILES CC(C)[C@@H](NC(=O)[C@@](C)([NH3+])C(F)(F)F)C(=O)NCCCCCCNC(=O)c1ccc(-c2c3nc(c(-c4cccc(S(=O)(=O)[O-])c4F)c4ccc([nH]4)c(-c4cccc(S(=O)(=O)[O-])c4F)c4nc(c(-c5cccc(S(=O)(=O)[O-])c5F)c5ccc2[nH]5)C=C4)C=C3)cc1
REMARK SMILES IDX 20 1 19 2 18 3 17 4 15 5 16 6 4 8 2 9 1 10 3 11 5 12 6 13
REMARK SMILES IDX 7 15 8 16 9 17 10 18 11 22 12 23 13 24 14 25 21 26 22 27
REMARK SMILES IDX 23 28 24 29 25 30 26 32 27 33 28 34 89 35 29 36 88 37 30 38
REMARK SMILES IDX 31 39 32 40 82 41 33 42 87 43 81 44 83 45 34 46 86 47 80 48
REMARK SMILES IDX 79 49 35 51 67 52 47 53 66 54 48 55 51 56 65 57 84 58 49 59
REMARK SMILES IDX 50 60 64 62 85 63 52 64 36 65 37 66 45 67 38 68 40 69 46 70
REMARK SMILES IDX 39 71 41 72 42 73 43 74 44 75 68 76 69 77 77 78 70 79 72 80
REMARK SMILES IDX 78 81 71 82 73 83 74 84 75 85 76 86 53 87 54 88 62 89 55 90
REMARK SMILES IDX 57 91 63 92 56 93 58 94 59 95 60 96 61 97
REMARK H PARENT 17 7 5 14 10 19 10 20 10 21 24 31 83 50 51 61
REMARK Flexibility Score: inf
ROOT
ATOM      1  C   UNL A   1      33.410  29.459  27.101  1.00  0.00     0.002 C 
ENDROOT
BRANCH   1   2
ATOM      2  C   UNL A   1      32.509  28.273  27.456  1.00  0.00     0.021 C 
BRANCH   2   3
ATOM      3  C   UNL A   1      32.670  27.063  26.547  1.00  0.00     0.116 C 
BRANCH   3   4
ATOM      4  N   UNL A   1      31.627  26.077  26.785  1.00  0.00    -0.354 N 
ATOM      5  C   UNL A   1      31.675  24.722  26.645  1.00  0.00     0.242 C 
ATOM      6  O   UNL A   1      30.807  24.050  27.213  1.00  0.00    -0.273 OA
ATOM      7  H   UNL A   1      30.765  26.440  27.091  1.00  0.00     0.163 HD
BRANCH   5   8
ATOM      8  C   UNL A   1      32.765  24.036  25.809  1.00  0.00     0.174 C 
BRANCH   8   9
ATOM      9  C   UNL A   1      33.765  23.306  26.774  1.00  0.00     0.015 C 
ATOM     10  C   UNL A   1      33.439  21.831  27.021  1.00  0.00     0.010 C 
ATOM     11  C   UNL A   1      35.230  23.409  26.311  1.00  0.00     0.010 C 
ENDBRANCH   8   9
BRANCH   8  12
ATOM     12  N   UNL A   1      32.202  23.136  24.780  1.00  0.00    -0.338 N 
ATOM     13  C   UNL A   1      32.408  23.017  23.427  1.00  0.00     0.291 C 
ATOM     14  H   UNL A   1      31.549  22.491  25.137  1.00  0.00     0.164 HD
ATOM     15  O   UNL A   1      32.294  21.857  23.013  1.00  0.00    -0.267 OA
BRANCH  13  16
ATOM     16  C   UNL A   1      32.686  24.193  22.449  1.00  0.00     0.267 C 
ATOM     17  C   UNL A   1      33.883  25.052  22.870  1.00  0.00     0.100 C 
BRANCH  16  18
ATOM     18  N   UNL A   1      32.936  23.658  21.066  1.00  0.00    -0.337 N 
ATOM     19  H   UNL A   1      33.941  23.573  20.911  1.00  0.00     0.345 HD
ATOM     20  H   UNL A   1      32.540  24.297  20.377  1.00  0.00     0.345 HD
ATOM     21  H   UNL A   1      32.499  22.742  20.972  1.00  0.00     0.345 HD
ENDBRANCH  16  18
BRANCH  16  22
ATOM     22  C   UNL A   1      31.465  25.169  22.543  1.00  0.00     0.453 C 
ATOM     23  F   UNL A   1      31.546  26.054  23.557  1.00  0.00    -0.164 F 
ATOM     24  F   UNL A   1      31.250  25.848  21.391  1.00  0.00    -0.164 F 
ATOM     25  F   UNL A   1      30.328  24.442  22.760  1.00  0.00    -0.164 F 
ENDBRANCH  16  22
ENDBRANCH  13  16
ENDBRANCH   8  12
ENDBRANCH   5   8
ENDBRANCH   3   4
ENDBRANCH   2   3
ENDBRANCH   1   2
BRANCH   1  26
ATOM     26  C   UNL A   1      32.694  30.789  26.862  1.00  0.00     0.002 C 
BRANCH  26  27
ATOM     27  C   UNL A   1      33.062  31.925  27.813  1.00  0.00     0.021 C 
BRANCH  27  28
ATOM     28  C   UNL A   1      33.456  33.224  27.128  1.00  0.00     0.116 C 
BRANCH  28  29
ATOM     29  N   UNL A   1      32.876  34.393  27.768  1.00  0.00    -0.352 N 
ATOM     30  C   UNL A   1      33.192  34.951  28.980  1.00  0.00     0.251 C 
ATOM     31  H   UNL A   1      32.161  34.844  27.262  1.00  0.00     0.163 HD
ATOM     32  O   UNL A   1      32.518  35.867  29.431  1.00  0.00    -0.269 OA
BRANCH  30  33
ATOM     33  C   UNL A   1      34.335  34.410  29.745  1.00  0.00     0.039 A 
ATOM     34  C   UNL A   1      34.076  33.688  30.911  1.00  0.00     0.014 A 
ATOM     35  C   UNL A   1      35.648  34.590  29.299  1.00  0.00     0.014 A 
ATOM     36  C   UNL A   1      35.136  33.110  31.607  1.00  0.00     0.010 A 
ATOM     37  C   UNL A   1      36.692  33.938  29.946  1.00  0.00     0.010 A 
ATOM     38  C   UNL A   1      36.449  33.205  31.116  1.00  0.00    -0.014 A 
BRANCH  38  39
ATOM     39  C   UNL A   1      37.574  32.544  31.823  1.00  0.00     0.031 A 
ATOM     40  C   UNL A   1      38.306  31.398  31.179  1.00  0.00     0.074 A 
ATOM     41  C   UNL A   1      37.898  32.944  33.068  1.00  0.00     0.049 A 
ATOM     42  N   UNL A   1      39.313  30.703  31.642  1.00  0.00    -0.248 NA
ATOM     43  C   UNL A   1      37.833  30.954  29.858  1.00  0.00     0.031 C 
ATOM     44  C   UNL A   1      37.204  33.984  33.831  1.00  0.00     0.029 A 
ATOM     45  N   UNL A   1      38.884  32.511  33.919  1.00  0.00    -0.354 N 
ATOM     46  C   UNL A   1      39.571  29.725  30.688  1.00  0.00     0.074 A 
ATOM     47  C   UNL A   1      38.590  29.889  29.639  1.00  0.00     0.031 C 
ATOM     48  C   UNL A   1      37.794  34.119  35.029  1.00  0.00     0.029 A 
ATOM     49  C   UNL A   1      38.886  33.157  35.133  1.00  0.00     0.049 A 
ATOM     50  H   UNL A   1      39.528  31.805  33.683  1.00  0.00     0.167 HD
ATOM     51  C   UNL A   1      40.553  28.794  30.672  1.00  0.00     0.034 A 
ATOM     52  C   UNL A   1      39.677  32.990  36.210  1.00  0.00     0.034 A 
ATOM     53  C   UNL A   1      41.548  28.661  31.702  1.00  0.00     0.049 A 
ATOM     54  C   UNL A   1      40.788  31.979  36.147  1.00  0.00     0.074 A 
ATOM     55  C   UNL A   1      42.640  27.812  31.736  1.00  0.00     0.029 A 
ATOM     56  N   UNL A   1      41.567  29.385  32.883  1.00  0.00    -0.354 N 
ATOM     57  N   UNL A   1      41.118  31.176  35.165  1.00  0.00    -0.248 NA
ATOM     58  C   UNL A   1      41.660  31.877  37.325  1.00  0.00     0.031 C 
ATOM     59  C   UNL A   1      43.298  27.998  32.956  1.00  0.00     0.029 A 
ATOM     60  C   UNL A   1      42.642  28.992  33.662  1.00  0.00     0.049 A 
ATOM     61  H   UNL A   1      40.912  30.077  33.132  1.00  0.00     0.167 HD
ATOM     62  C   UNL A   1      42.257  30.501  35.591  1.00  0.00     0.074 A 
ATOM     63  C   UNL A   1      42.572  31.008  36.910  1.00  0.00     0.031 C 
ATOM     64  C   UNL A   1      42.968  29.538  34.954  1.00  0.00     0.034 A 
BRANCH  51  65
ATOM     65  C   UNL A   1      40.628  27.872  29.484  1.00  0.00     0.023 A 
ATOM     66  C   UNL A   1      39.814  26.722  29.435  1.00  0.00     0.012 A 
ATOM     67  C   UNL A   1      41.456  28.178  28.385  1.00  0.00     0.148 A 
ATOM     68  C   UNL A   1      39.846  25.873  28.330  1.00  0.00     0.002 A 
ATOM     69  C   UNL A   1      41.446  27.354  27.267  1.00  0.00     0.091 A 
ATOM     70  F   UNL A   1      42.239  29.263  28.458  1.00  0.00    -0.205 F 
ATOM     71  C   UNL A   1      40.652  26.195  27.242  1.00  0.00     0.022 A 
BRANCH  69  72
ATOM     72  S   UNL A   1      42.386  27.723  25.781  1.00  0.00     0.127 S 
ATOM     73  O   UNL A   1      41.917  29.071  25.463  1.00  0.00    -0.237 OA
ATOM     74  O   UNL A   1      43.765  27.657  26.269  1.00  0.00    -0.237 OA
ATOM     75  O   UNL A   1      42.032  26.695  24.813  1.00  0.00    -0.744 OA
ENDBRANCH  69  72
ENDBRANCH  51  65
BRANCH  52  76
ATOM     76  C   UNL A   1      39.479  33.835  37.421  1.00  0.00     0.023 A 
ATOM     77  C   UNL A   1      39.992  35.147  37.449  1.00  0.00     0.012 A 
ATOM     78  C   UNL A   1      38.772  33.352  38.538  1.00  0.00     0.148 A 
ATOM     79  C   UNL A   1      39.839  35.948  38.581  1.00  0.00     0.002 A 
ATOM     80  C   UNL A   1      38.572  34.175  39.640  1.00  0.00     0.091 A 
ATOM     81  F   UNL A   1      38.299  32.098  38.496  1.00  0.00    -0.205 F 
ATOM     82  C   UNL A   1      39.121  35.465  39.673  1.00  0.00     0.022 A 
BRANCH  80  83
ATOM     83  S   UNL A   1      37.550  33.683  41.033  1.00  0.00     0.127 S 
ATOM     84  O   UNL A   1      38.408  32.712  41.705  1.00  0.00    -0.237 OA
ATOM     85  O   UNL A   1      37.379  34.952  41.741  1.00  0.00    -0.237 OA
ATOM     86  O   UNL A   1      36.325  33.150  40.452  1.00  0.00    -0.744 OA
ENDBRANCH  80  83
ENDBRANCH  52  76
BRANCH  64  87
ATOM     87  C   UNL A   1      44.186  28.996  35.655  1.00  0.00     0.023 A 
ATOM     88  C   UNL A   1      45.447  29.588  35.440  1.00  0.00     0.012 A 
ATOM     89  C   UNL A   1      44.069  27.935  36.575  1.00  0.00     0.148 A 
ATOM     90  C   UNL A   1      46.579  29.104  36.097  1.00  0.00     0.002 A 
ATOM     91  C   UNL A   1      45.191  27.495  37.267  1.00  0.00     0.091 A 
ATOM     92  F   UNL A   1      42.864  27.374  36.753  1.00  0.00    -0.205 F 
ATOM     93  C   UNL A   1      46.448  28.067  37.017  1.00  0.00     0.022 A 
BRANCH  91  94
ATOM     94  S   UNL A   1      45.100  26.235  38.544  1.00  0.00     0.127 S 
ATOM     95  O   UNL A   1      46.491  26.162  38.989  1.00  0.00    -0.237 OA
ATOM     96  O   UNL A   1      44.181  26.840  39.509  1.00  0.00    -0.237 OA
ATOM     97  O   UNL A   1      44.589  25.038  37.892  1.00  0.00    -0.744 OA
ENDBRANCH  91  94
ENDBRANCH  64  87
ENDBRANCH  38  39
ENDBRANCH  30  33
ENDBRANCH  28  29
ENDBRANCH  27  28
ENDBRANCH  26  27
ENDBRANCH   1  26
TORSDOF 21
ENDMDL
