MODEL 1
REMARK VINA RESULT:     -11.7      0.000      0.000
REMARK SMILES O=C(NCCCCCCNC(=O)c1ccc(-c2c3nc(c(-c4cccc(S(=O)(=O)[O-])c4F)c4ccc([nH]4)c(-c4cccc(S(=O)(=O)[O-])c4F)c4nc(c(-c5cccc(S(=O)(=O)[O-])c5F)c5ccc2[nH]5)C=C4)C=C3)cc1)C1=Cc2c(Cl)ccc(Cl)c2O[C@@H]1C(F)(F)F
REMARK SMILES IDX 7 1 6 2 5 3 4 4 3 5 1 6 2 7 76 9 77 10 87 11 78 12 86 13
REMARK SMILES IDX 79 14 85 15 80 16 81 17 83 18 82 19 84 20 88 21 89 22 90 23
REMARK SMILES IDX 91 24 8 25 9 26 10 27 11 28 12 30 13 31 14 32 75 33 15 34
REMARK SMILES IDX 74 35 16 36 17 37 18 38 68 39 19 40 73 41 67 42 69 43 20 44
REMARK SMILES IDX 72 45 66 46 65 47 21 49 53 50 33 51 52 52 34 53 37 54 51 55
REMARK SMILES IDX 70 56 35 57 36 58 50 60 71 61 38 62 22 63 23 64 31 65 24 66
REMARK SMILES IDX 26 67 32 68 25 69 27 70 28 71 29 72 30 73 54 74 55 75 63 76
REMARK SMILES IDX 56 77 58 78 64 79 57 80 59 81 60 82 61 83 62 84 39 85 40 86
REMARK SMILES IDX 48 87 41 88 43 89 49 90 42 91 44 92 45 93 46 94 47 95
REMARK H PARENT 3 8 10 29 69 48 37 59
REMARK Flexibility Score: inf
ROOT
ATOM      1  C   UNL A   1      31.593  28.972  24.788  1.00  0.00     0.002 C 
ENDROOT
BRANCH   1   2
ATOM      2  C   UNL A   1      30.825  29.314  23.504  1.00  0.00     0.002 C 
BRANCH   2   3
ATOM      3  C   UNL A   1      30.881  28.283  22.381  1.00  0.00     0.021 C 
BRANCH   3   4
ATOM      4  C   UNL A   1      30.987  26.827  22.811  1.00  0.00     0.116 C 
BRANCH   4   5
ATOM      5  N   UNL A   1      32.037  26.059  22.165  1.00  0.00    -0.352 N 
ATOM      6  O   UNL A   1      33.415  24.323  21.804  1.00  0.00    -0.270 OA
ATOM      7  C   UNL A   1      32.656  24.911  22.576  1.00  0.00     0.251 C 
ATOM      8  H   UNL A   1      32.348  26.418  21.304  1.00  0.00     0.163 HD
BRANCH   7   9
ATOM      9  C   UNL A   1      32.371  24.278  23.899  1.00  0.00     0.067 C 
ATOM     10  C   UNL A   1      32.224  22.949  24.043  1.00  0.00     0.027 C 
ATOM     11  C   UNL A   1      32.918  25.074  25.055  1.00  0.00     0.314 C 
ATOM     12  C   UNL A   1      33.391  22.322  24.736  1.00  0.00     0.037 A 
ATOM     13  O   UNL A   1      34.164  24.505  25.530  1.00  0.00    -0.474 OA
ATOM     14  C   UNL A   1      33.673  20.955  24.548  1.00  0.00     0.052 A 
ATOM     15  C   UNL A   1      34.360  23.156  25.333  1.00  0.00     0.148 A 
ATOM     16  Cl  UNL A   1      32.542  19.888  23.788  1.00  0.00    -0.084 Cl
ATOM     17  C   UNL A   1      34.934  20.448  24.865  1.00  0.00     0.023 A 
ATOM     18  C   UNL A   1      35.625  22.635  25.638  1.00  0.00     0.083 A 
ATOM     19  C   UNL A   1      35.916  21.292  25.388  1.00  0.00     0.026 A 
ATOM     20  Cl  UNL A   1      36.894  23.657  26.208  1.00  0.00    -0.080 Cl
BRANCH  11  21
ATOM     21  C   UNL A   1      31.895  25.242  26.190  1.00  0.00     0.429 C 
ATOM     22  F   UNL A   1      32.084  26.406  26.857  1.00  0.00    -0.167 F 
ATOM     23  F   UNL A   1      30.625  25.265  25.717  1.00  0.00    -0.167 F 
ATOM     24  F   UNL A   1      31.960  24.241  27.099  1.00  0.00    -0.167 F 
ENDBRANCH  11  21
ENDBRANCH   7   9
ENDBRANCH   4   5
ENDBRANCH   3   4
ENDBRANCH   2   3
ENDBRANCH   1   2
BRANCH   1  25
ATOM     25  C   UNL A   1      33.110  28.792  24.662  1.00  0.00     0.021 C 
BRANCH  25  26
ATOM     26  C   UNL A   1      33.920  28.964  25.945  1.00  0.00     0.116 C 
BRANCH  26  27
ATOM     27  N   UNL A   1      33.714  30.256  26.575  1.00  0.00    -0.352 N 
ATOM     28  C   UNL A   1      34.432  30.882  27.564  1.00  0.00     0.251 C 
ATOM     29  H   UNL A   1      32.939  30.762  26.241  1.00  0.00     0.163 HD
ATOM     30  O   UNL A   1      34.000  31.922  28.055  1.00  0.00    -0.269 OA
BRANCH  28  31
ATOM     31  C   UNL A   1      35.708  30.309  28.056  1.00  0.00     0.039 A 
ATOM     32  C   UNL A   1      36.858  30.474  27.279  1.00  0.00     0.014 A 
ATOM     33  C   UNL A   1      35.772  29.584  29.248  1.00  0.00     0.014 A 
ATOM     34  C   UNL A   1      38.078  29.956  27.721  1.00  0.00     0.010 A 
ATOM     35  C   UNL A   1      37.002  29.132  29.723  1.00  0.00     0.010 A 
ATOM     36  C   UNL A   1      38.168  29.304  28.961  1.00  0.00    -0.014 A 
BRANCH  36  37
ATOM     37  C   UNL A   1      39.470  28.799  29.471  1.00  0.00     0.031 A 
ATOM     38  C   UNL A   1      40.184  29.516  30.586  1.00  0.00     0.074 A 
ATOM     39  C   UNL A   1      40.050  27.736  28.879  1.00  0.00     0.049 A 
ATOM     40  N   UNL A   1      41.346  29.251  31.126  1.00  0.00    -0.248 NA
ATOM     41  C   UNL A   1      39.519  30.702  31.149  1.00  0.00     0.031 C 
ATOM     42  C   UNL A   1      39.499  27.001  27.739  1.00  0.00     0.029 A 
ATOM     43  N   UNL A   1      41.242  27.105  29.136  1.00  0.00    -0.354 N 
ATOM     44  C   UNL A   1      41.564  30.249  32.069  1.00  0.00     0.074 A 
ATOM     45  C   UNL A   1      40.433  31.149  31.998  1.00  0.00     0.031 C 
ATOM     46  C   UNL A   1      40.352  26.024  27.393  1.00  0.00     0.029 A 
ATOM     47  C   UNL A   1      41.521  26.078  28.264  1.00  0.00     0.049 A 
ATOM     48  H   UNL A   1      41.840  27.364  29.874  1.00  0.00     0.167 HD
ATOM     49  C   UNL A   1      42.594  30.389  32.939  1.00  0.00     0.034 A 
ATOM     50  C   UNL A   1      42.601  25.278  28.169  1.00  0.00     0.034 A 
ATOM     51  C   UNL A   1      43.702  29.476  33.029  1.00  0.00     0.049 A 
ATOM     52  C   UNL A   1      43.718  25.430  29.164  1.00  0.00     0.074 A 
ATOM     53  C   UNL A   1      44.755  29.486  33.926  1.00  0.00     0.029 A 
ATOM     54  N   UNL A   1      43.909  28.396  32.185  1.00  0.00    -0.354 N 
ATOM     55  N   UNL A   1      43.832  26.289  30.148  1.00  0.00    -0.248 NA
ATOM     56  C   UNL A   1      44.835  24.480  29.062  1.00  0.00     0.031 C 
ATOM     57  C   UNL A   1      45.613  28.428  33.606  1.00  0.00     0.029 A 
ATOM     58  C   UNL A   1      45.076  27.737  32.532  1.00  0.00     0.049 A 
ATOM     59  H   UNL A   1      43.312  28.134  31.447  1.00  0.00     0.167 HD
ATOM     60  C   UNL A   1      45.015  25.963  30.803  1.00  0.00     0.074 A 
ATOM     61  C   UNL A   1      45.569  24.814  30.114  1.00  0.00     0.031 C 
ATOM     62  C   UNL A   1      45.596  26.569  31.868  1.00  0.00     0.034 A 
BRANCH  49  63
ATOM     63  C   UNL A   1      42.542  31.552  33.898  1.00  0.00     0.023 A 
ATOM     64  C   UNL A   1      43.065  32.802  33.506  1.00  0.00     0.012 A 
ATOM     65  C   UNL A   1      41.944  31.423  35.167  1.00  0.00     0.148 A 
ATOM     66  C   UNL A   1      43.035  33.892  34.375  1.00  0.00     0.002 A 
ATOM     67  C   UNL A   1      41.874  32.528  36.009  1.00  0.00     0.091 A 
ATOM     68  F   UNL A   1      41.469  30.225  35.533  1.00  0.00    -0.205 F 
ATOM     69  C   UNL A   1      42.432  33.757  35.621  1.00  0.00     0.022 A 
BRANCH  67  70
ATOM     70  S   UNL A   1      41.047  32.479  37.604  1.00  0.00     0.127 S 
ATOM     71  O   UNL A   1      41.920  31.586  38.362  1.00  0.00    -0.237 OA
ATOM     72  O   UNL A   1      41.099  33.882  38.019  1.00  0.00    -0.237 OA
ATOM     73  O   UNL A   1      39.707  31.974  37.344  1.00  0.00    -0.744 OA
ENDBRANCH  67  70
ENDBRANCH  49  63
BRANCH  50  74
ATOM     74  C   UNL A   1      42.646  24.227  27.114  1.00  0.00     0.023 A 
ATOM     75  C   UNL A   1      43.391  24.448  25.939  1.00  0.00     0.012 A 
ATOM     76  C   UNL A   1      41.993  22.990  27.292  1.00  0.00     0.148 A 
ATOM     77  C   UNL A   1      43.460  23.469  24.947  1.00  0.00     0.002 A 
ATOM     78  C   UNL A   1      42.115  21.998  26.327  1.00  0.00     0.091 A 
ATOM     79  F   UNL A   1      41.284  22.804  28.413  1.00  0.00    -0.205 F 
ATOM     80  C   UNL A   1      42.834  22.241  25.146  1.00  0.00     0.022 A 
BRANCH  78  81
ATOM     81  S   UNL A   1      41.462  20.343  26.562  1.00  0.00     0.127 S 
ATOM     82  O   UNL A   1      40.022  20.586  26.560  1.00  0.00    -0.237 OA
ATOM     83  O   UNL A   1      41.974  19.646  25.382  1.00  0.00    -0.237 OA
ATOM     84  O   UNL A   1      42.021  19.873  27.824  1.00  0.00    -0.744 OA
ENDBRANCH  78  81
ENDBRANCH  50  74
BRANCH  62  85
ATOM     85  C   UNL A   1      46.886  25.986  32.386  1.00  0.00     0.023 A 
ATOM     86  C   UNL A   1      48.120  26.478  31.916  1.00  0.00     0.012 A 
ATOM     87  C   UNL A   1      46.873  25.001  33.393  1.00  0.00     0.148 A 
ATOM     88  C   UNL A   1      49.320  25.974  32.416  1.00  0.00     0.002 A 
ATOM     89  C   UNL A   1      48.072  24.541  33.923  1.00  0.00     0.091 A 
ATOM     90  F   UNL A   1      45.690  24.532  33.814  1.00  0.00    -0.205 F 
ATOM     91  C   UNL A   1      49.297  25.016  33.427  1.00  0.00     0.022 A 
BRANCH  89  92
ATOM     92  S   UNL A   1      48.139  23.380  35.292  1.00  0.00     0.127 S 
ATOM     93  O   UNL A   1      49.580  23.243  35.497  1.00  0.00    -0.237 OA
ATOM     94  O   UNL A   1      47.439  24.110  36.350  1.00  0.00    -0.237 OA
ATOM     95  O   UNL A   1      47.456  22.178  34.834  1.00  0.00    -0.744 OA
ENDBRANCH  89  92
ENDBRANCH  62  85
ENDBRANCH  36  37
ENDBRANCH  28  31
ENDBRANCH  26  27
ENDBRANCH  25  26
ENDBRANCH   1  25
TORSDOF 17
ENDMDL
MODEL 2
REMARK VINA RESULT:     -11.6      3.406      8.665
REMARK SMILES O=C(NCCCCCCNC(=O)c1ccc(-c2c3nc(c(-c4cccc(S(=O)(=O)[O-])c4F)c4ccc([nH]4)c(-c4cccc(S(=O)(=O)[O-])c4F)c4nc(c(-c5cccc(S(=O)(=O)[O-])c5F)c5ccc2[nH]5)C=C4)C=C3)cc1)C1=Cc2c(Cl)ccc(Cl)c2O[C@@H]1C(F)(F)F
REMARK SMILES IDX 7 1 6 2 5 3 4 4 3 5 1 6 2 7 76 9 77 10 87 11 78 12 86 13
REMARK SMILES IDX 79 14 85 15 80 16 81 17 83 18 82 19 84 20 88 21 89 22 90 23
REMARK SMILES IDX 91 24 8 25 9 26 10 27 11 28 12 30 13 31 14 32 75 33 15 34
REMARK SMILES IDX 74 35 16 36 17 37 18 38 68 39 19 40 73 41 67 42 69 43 20 44
REMARK SMILES IDX 72 45 66 46 65 47 21 49 53 50 33 51 52 52 34 53 37 54 51 55
REMARK SMILES IDX 70 56 35 57 36 58 50 60 71 61 38 62 22 63 23 64 31 65 24 66
REMARK SMILES IDX 26 67 32 68 25 69 27 70 28 71 29 72 30 73 54 74 55 75 63 76
REMARK SMILES IDX 56 77 58 78 64 79 57 80 59 81 60 82 61 83 62 84 39 85 40 86
REMARK SMILES IDX 48 87 41 88 43 89 49 90 42 91 44 92 45 93 46 94 47 95
REMARK H PARENT 3 8 10 29 69 48 37 59
REMARK Flexibility Score: inf
ROOT
ATOM      1  C   UNL A   1      31.620  30.751  26.118  1.00  0.00     0.002 C 
ENDROOT
BRANCH   1   2
ATOM      2  C   UNL A   1      31.970  29.646  27.124  1.00  0.00     0.002 C 
BRANCH   2   3
ATOM      3  C   UNL A   1      32.372  28.295  26.541  1.00  0.00     0.021 C 
BRANCH   3   4
ATOM      4  C   UNL A   1      31.231  27.381  26.115  1.00  0.00     0.116 C 
BRANCH   4   5
ATOM      5  N   UNL A   1      31.180  26.093  26.782  1.00  0.00    -0.352 N 
ATOM      6  O   UNL A   1      31.781  23.985  27.270  1.00  0.00    -0.270 OA
ATOM      7  C   UNL A   1      31.835  24.930  26.483  1.00  0.00     0.251 C 
ATOM      8  H   UNL A   1      30.587  26.050  27.565  1.00  0.00     0.163 HD
BRANCH   7   9
ATOM      9  C   UNL A   1      32.704  24.789  25.276  1.00  0.00     0.067 C 
ATOM     10  C   UNL A   1      34.035  24.620  25.365  1.00  0.00     0.027 C 
ATOM     11  C   UNL A   1      31.977  24.191  24.100  1.00  0.00     0.314 C 
ATOM     12  C   UNL A   1      34.454  23.228  25.014  1.00  0.00     0.037 A 
ATOM     13  O   UNL A   1      32.288  22.782  23.963  1.00  0.00    -0.474 OA
ATOM     14  C   UNL A   1      35.669  22.711  25.506  1.00  0.00     0.052 A 
ATOM     15  C   UNL A   1      33.506  22.352  24.444  1.00  0.00     0.148 A 
ATOM     16  Cl  UNL A   1      36.856  23.726  26.250  1.00  0.00    -0.084 Cl
ATOM     17  C   UNL A   1      35.893  21.333  25.512  1.00  0.00     0.023 A 
ATOM     18  C   UNL A   1      33.742  20.971  24.466  1.00  0.00     0.083 A 
ATOM     19  C   UNL A   1      34.922  20.463  25.014  1.00  0.00     0.026 A 
ATOM     20  Cl  UNL A   1      32.536  19.854  23.937  1.00  0.00    -0.080 Cl
BRANCH  11  21
ATOM     21  C   UNL A   1      32.231  24.964  22.795  1.00  0.00     0.429 C 
ATOM     22  F   UNL A   1      32.822  26.159  23.035  1.00  0.00    -0.167 F 
ATOM     23  F   UNL A   1      33.054  24.281  21.963  1.00  0.00    -0.167 F 
ATOM     24  F   UNL A   1      31.089  25.209  22.109  1.00  0.00    -0.167 F 
ENDBRANCH  11  21
ENDBRANCH   7   9
ENDBRANCH   4   5
ENDBRANCH   3   4
ENDBRANCH   2   3
ENDBRANCH   1   2
BRANCH   1  25
ATOM     25  C   UNL A   1      31.459  32.170  26.674  1.00  0.00     0.021 C 
BRANCH  25  26
ATOM     26  C   UNL A   1      32.719  32.825  27.234  1.00  0.00     0.116 C 
BRANCH  26  27
ATOM     27  N   UNL A   1      32.494  34.185  27.692  1.00  0.00    -0.352 N 
ATOM     28  C   UNL A   1      33.109  34.893  28.696  1.00  0.00     0.251 C 
ATOM     29  H   UNL A   1      31.792  34.676  27.207  1.00  0.00     0.163 HD
ATOM     30  O   UNL A   1      32.666  35.994  29.013  1.00  0.00    -0.269 OA
BRANCH  28  31
ATOM     31  C   UNL A   1      34.283  34.337  29.409  1.00  0.00     0.039 A 
ATOM     32  C   UNL A   1      34.065  33.570  30.558  1.00  0.00     0.014 A 
ATOM     33  C   UNL A   1      35.588  34.594  28.983  1.00  0.00     0.014 A 
ATOM     34  C   UNL A   1      35.150  33.022  31.247  1.00  0.00     0.010 A 
ATOM     35  C   UNL A   1      36.664  33.986  29.627  1.00  0.00     0.010 A 
ATOM     36  C   UNL A   1      36.459  33.201  30.772  1.00  0.00    -0.014 A 
BRANCH  36  37
ATOM     37  C   UNL A   1      37.618  32.575  31.461  1.00  0.00     0.031 A 
ATOM     38  C   UNL A   1      38.347  31.418  30.832  1.00  0.00     0.074 A 
ATOM     39  C   UNL A   1      37.971  33.000  32.691  1.00  0.00     0.049 A 
ATOM     40  N   UNL A   1      39.346  30.717  31.305  1.00  0.00    -0.248 NA
ATOM     41  C   UNL A   1      37.875  30.971  29.512  1.00  0.00     0.031 C 
ATOM     42  C   UNL A   1      37.296  34.059  33.442  1.00  0.00     0.029 A 
ATOM     43  N   UNL A   1      38.965  32.574  33.536  1.00  0.00    -0.354 N 
ATOM     44  C   UNL A   1      39.602  29.732  30.358  1.00  0.00     0.074 A 
ATOM     45  C   UNL A   1      38.626  29.900  29.303  1.00  0.00     0.031 C 
ATOM     46  C   UNL A   1      37.892  34.199  34.637  1.00  0.00     0.029 A 
ATOM     47  C   UNL A   1      38.971  33.223  34.749  1.00  0.00     0.049 A 
ATOM     48  H   UNL A   1      39.612  31.871  33.297  1.00  0.00     0.167 HD
ATOM     49  C   UNL A   1      40.580  28.792  30.348  1.00  0.00     0.034 A 
ATOM     50  C   UNL A   1      39.749  33.044  35.836  1.00  0.00     0.034 A 
ATOM     51  C   UNL A   1      41.567  28.647  31.383  1.00  0.00     0.049 A 
ATOM     52  C   UNL A   1      40.848  32.018  35.791  1.00  0.00     0.074 A 
ATOM     53  C   UNL A   1      42.644  27.780  31.431  1.00  0.00     0.029 A 
ATOM     54  N   UNL A   1      41.595  29.380  32.560  1.00  0.00    -0.354 N 
ATOM     55  N   UNL A   1      41.169  31.198  34.821  1.00  0.00    -0.248 NA
ATOM     56  C   UNL A   1      41.715  31.920  36.974  1.00  0.00     0.031 C 
ATOM     57  C   UNL A   1      43.305  27.969  32.649  1.00  0.00     0.029 A 
ATOM     58  C   UNL A   1      42.662  28.979  33.346  1.00  0.00     0.049 A 
ATOM     59  H   UNL A   1      40.950  30.083  32.802  1.00  0.00     0.167 HD
ATOM     60  C   UNL A   1      42.294  30.509  35.260  1.00  0.00     0.074 A 
ATOM     61  C   UNL A   1      42.610  31.025  36.577  1.00  0.00     0.031 C 
ATOM     62  C   UNL A   1      42.993  29.529  34.635  1.00  0.00     0.034 A 
BRANCH  49  63
ATOM     63  C   UNL A   1      40.654  27.878  29.151  1.00  0.00     0.023 A 
ATOM     64  C   UNL A   1      39.812  26.750  29.083  1.00  0.00     0.012 A 
ATOM     65  C   UNL A   1      41.525  28.153  28.078  1.00  0.00     0.148 A 
ATOM     66  C   UNL A   1      39.864  25.885  27.991  1.00  0.00     0.002 A 
ATOM     67  C   UNL A   1      41.536  27.313  26.970  1.00  0.00     0.091 A 
ATOM     68  F   UNL A   1      42.333  29.219  28.165  1.00  0.00    -0.205 F 
ATOM     69  C   UNL A   1      40.719  26.171  26.931  1.00  0.00     0.022 A 
BRANCH  67  70
ATOM     70  S   UNL A   1      42.544  27.639  25.518  1.00  0.00     0.127 S 
ATOM     71  O   UNL A   1      41.983  28.902  25.046  1.00  0.00    -0.237 OA
ATOM     72  O   UNL A   1      43.886  27.744  26.092  1.00  0.00    -0.237 OA
ATOM     73  O   UNL A   1      42.351  26.499  24.634  1.00  0.00    -0.744 OA
ENDBRANCH  67  70
ENDBRANCH  49  63
BRANCH  50  74
ATOM     74  C   UNL A   1      39.540  33.898  37.038  1.00  0.00     0.023 A 
ATOM     75  C   UNL A   1      39.896  35.260  36.997  1.00  0.00     0.012 A 
ATOM     76  C   UNL A   1      38.948  33.377  38.206  1.00  0.00     0.148 A 
ATOM     77  C   UNL A   1      39.692  36.081  38.107  1.00  0.00     0.002 A 
ATOM     78  C   UNL A   1      38.695  34.213  39.286  1.00  0.00     0.091 A 
ATOM     79  F   UNL A   1      38.626  32.076  38.227  1.00  0.00    -0.205 F 
ATOM     80  C   UNL A   1      39.081  35.562  39.246  1.00  0.00     0.022 A 
BRANCH  78  81
ATOM     81  S   UNL A   1      37.787  33.664  40.735  1.00  0.00     0.127 S 
ATOM     82  O   UNL A   1      36.464  33.398  40.176  1.00  0.00    -0.237 OA
ATOM     83  O   UNL A   1      38.542  32.476  41.131  1.00  0.00    -0.237 OA
ATOM     84  O   UNL A   1      37.860  34.766  41.687  1.00  0.00    -0.744 OA
ENDBRANCH  78  81
ENDBRANCH  50  74
BRANCH  62  85
ATOM     85  C   UNL A   1      44.196  28.966  35.349  1.00  0.00     0.023 A 
ATOM     86  C   UNL A   1      45.462  29.556  35.167  1.00  0.00     0.012 A 
ATOM     87  C   UNL A   1      44.055  27.898  36.256  1.00  0.00     0.148 A 
ATOM     88  C   UNL A   1      46.576  29.069  35.851  1.00  0.00     0.002 A 
ATOM     89  C   UNL A   1      45.159  27.452  36.973  1.00  0.00     0.091 A 
ATOM     90  F   UNL A   1      42.846  27.337  36.402  1.00  0.00    -0.205 F 
ATOM     91  C   UNL A   1      46.422  28.027  36.762  1.00  0.00     0.022 A 
BRANCH  89  92
ATOM     92  S   UNL A   1      45.038  26.181  38.237  1.00  0.00     0.127 S 
ATOM     93  O   UNL A   1      44.828  24.979  37.431  1.00  0.00    -0.237 OA
ATOM     94  O   UNL A   1      46.350  26.261  38.882  1.00  0.00    -0.237 OA
ATOM     95  O   UNL A   1      43.921  26.565  39.088  1.00  0.00    -0.744 OA
ENDBRANCH  89  92
ENDBRANCH  62  85
ENDBRANCH  36  37
ENDBRANCH  28  31
ENDBRANCH  26  27
ENDBRANCH  25  26
ENDBRANCH   1  25
TORSDOF 17
ENDMDL
MODEL 3
REMARK VINA RESULT:     -11.6      1.979      2.646
REMARK SMILES O=C(NCCCCCCNC(=O)c1ccc(-c2c3nc(c(-c4cccc(S(=O)(=O)[O-])c4F)c4ccc([nH]4)c(-c4cccc(S(=O)(=O)[O-])c4F)c4nc(c(-c5cccc(S(=O)(=O)[O-])c5F)c5ccc2[nH]5)C=C4)C=C3)cc1)C1=Cc2c(Cl)ccc(Cl)c2O[C@@H]1C(F)(F)F
REMARK SMILES IDX 7 1 6 2 5 3 4 4 3 5 1 6 2 7 76 9 77 10 87 11 78 12 86 13
REMARK SMILES IDX 79 14 85 15 80 16 81 17 83 18 82 19 84 20 88 21 89 22 90 23
REMARK SMILES IDX 91 24 8 25 9 26 10 27 11 28 12 30 13 31 14 32 75 33 15 34
REMARK SMILES IDX 74 35 16 36 17 37 18 38 68 39 19 40 73 41 67 42 69 43 20 44
REMARK SMILES IDX 72 45 66 46 65 47 21 49 53 50 33 51 52 52 34 53 37 54 51 55
REMARK SMILES IDX 70 56 35 57 36 58 50 60 71 61 38 62 22 63 23 64 31 65 24 66
REMARK SMILES IDX 26 67 32 68 25 69 27 70 28 71 29 72 30 73 54 74 55 75 63 76
REMARK SMILES IDX 56 77 58 78 64 79 57 80 59 81 60 82 61 83 62 84 39 85 40 86
REMARK SMILES IDX 48 87 41 88 43 89 49 90 42 91 44 92 45 93 46 94 47 95
REMARK H PARENT 3 8 10 29 69 48 37 59
REMARK Flexibility Score: inf
ROOT
ATOM      1  C   UNL A   1      31.333  27.547  24.889  1.00  0.00     0.002 C 
ENDROOT
BRANCH   1   2
ATOM      2  C   UNL A   1      31.236  26.505  23.767  1.00  0.00     0.002 C 
BRANCH   2   3
ATOM      3  C   UNL A   1      30.219  25.385  23.962  1.00  0.00     0.021 C 
BRANCH   3   4
ATOM      4  C   UNL A   1      30.436  24.129  23.131  1.00  0.00     0.116 C 
BRANCH   4   5
ATOM      5  N   UNL A   1      31.737  24.016  22.496  1.00  0.00    -0.352 N 
ATOM      6  O   UNL A   1      33.837  23.284  22.186  1.00  0.00    -0.270 OA
ATOM      7  C   UNL A   1      32.877  23.409  22.946  1.00  0.00     0.251 C 
ATOM      8  H   UNL A   1      31.809  24.439  21.611  1.00  0.00     0.163 HD
BRANCH   7   9
ATOM      9  C   UNL A   1      32.974  22.797  24.305  1.00  0.00     0.067 C 
ATOM     10  C   UNL A   1      33.296  21.504  24.489  1.00  0.00     0.027 C 
ATOM     11  C   UNL A   1      33.352  23.794  25.369  1.00  0.00     0.314 C 
ATOM     12  C   UNL A   1      34.676  21.337  25.039  1.00  0.00     0.037 A 
ATOM     13  O   UNL A   1      34.762  23.696  25.690  1.00  0.00    -0.474 OA
ATOM     14  C   UNL A   1      35.375  20.130  24.839  1.00  0.00     0.052 A 
ATOM     15  C   UNL A   1      35.374  22.477  25.493  1.00  0.00     0.148 A 
ATOM     16  Cl  UNL A   1      34.586  18.709  24.248  1.00  0.00    -0.084 Cl
ATOM     17  C   UNL A   1      36.761  20.087  25.001  1.00  0.00     0.023 A 
ATOM     18  C   UNL A   1      36.766  22.420  25.643  1.00  0.00     0.083 A 
ATOM     19  C   UNL A   1      37.458  21.235  25.380  1.00  0.00     0.026 A 
ATOM     20  Cl  UNL A   1      37.677  23.834  26.030  1.00  0.00    -0.080 Cl
BRANCH  11  21
ATOM     21  C   UNL A   1      32.469  23.682  26.622  1.00  0.00     0.429 C 
ATOM     22  F   UNL A   1      32.139  24.904  27.105  1.00  0.00    -0.167 F 
ATOM     23  F   UNL A   1      31.305  23.040  26.356  1.00  0.00    -0.167 F 
ATOM     24  F   UNL A   1      33.075  23.003  27.625  1.00  0.00    -0.167 F 
ENDBRANCH  11  21
ENDBRANCH   7   9
ENDBRANCH   4   5
ENDBRANCH   3   4
ENDBRANCH   2   3
ENDBRANCH   1   2
BRANCH   1  25
ATOM     25  C   UNL A   1      31.866  28.932  24.507  1.00  0.00     0.021 C 
BRANCH  25  26
ATOM     26  C   UNL A   1      32.951  29.513  25.410  1.00  0.00     0.116 C 
BRANCH  26  27
ATOM     27  N   UNL A   1      32.621  30.835  25.914  1.00  0.00    -0.352 N 
ATOM     28  C   UNL A   1      33.182  31.556  26.939  1.00  0.00     0.251 C 
ATOM     29  H   UNL A   1      31.879  31.283  25.448  1.00  0.00     0.163 HD
ATOM     30  O   UNL A   1      32.654  32.606  27.294  1.00  0.00    -0.269 OA
BRANCH  28  31
ATOM     31  C   UNL A   1      34.401  31.073  27.630  1.00  0.00     0.039 A 
ATOM     32  C   UNL A   1      35.441  31.978  27.862  1.00  0.00     0.014 A 
ATOM     33  C   UNL A   1      34.544  29.738  28.014  1.00  0.00     0.014 A 
ATOM     34  C   UNL A   1      36.598  31.558  28.522  1.00  0.00     0.010 A 
ATOM     35  C   UNL A   1      35.666  29.337  28.737  1.00  0.00     0.010 A 
ATOM     36  C   UNL A   1      36.711  30.239  28.991  1.00  0.00    -0.014 A 
BRANCH  36  37
ATOM     37  C   UNL A   1      37.911  29.792  29.746  1.00  0.00     0.031 A 
ATOM     38  C   UNL A   1      38.190  30.328  31.124  1.00  0.00     0.074 A 
ATOM     39  C   UNL A   1      38.793  28.958  29.160  1.00  0.00     0.049 A 
ATOM     40  N   UNL A   1      39.208  30.090  31.912  1.00  0.00    -0.248 NA
ATOM     41  C   UNL A   1      37.213  31.277  31.681  1.00  0.00     0.031 C 
ATOM     42  C   UNL A   1      38.679  28.429  27.800  1.00  0.00     0.029 A 
ATOM     43  N   UNL A   1      39.974  28.431  29.624  1.00  0.00    -0.354 N 
ATOM     44  C   UNL A   1      39.010  30.878  33.040  1.00  0.00     0.074 A 
ATOM     45  C   UNL A   1      37.795  31.633  32.816  1.00  0.00     0.031 C 
ATOM     46  C   UNL A   1      39.745  27.657  27.537  1.00  0.00     0.029 A 
ATOM     47  C   UNL A   1      40.633  27.658  28.696  1.00  0.00     0.049 A 
ATOM     48  H   UNL A   1      40.316  28.592  30.533  1.00  0.00     0.167 HD
ATOM     49  C   UNL A   1      39.751  30.946  34.173  1.00  0.00     0.034 A 
ATOM     50  C   UNL A   1      41.823  27.030  28.765  1.00  0.00     0.034 A 
ATOM     51  C   UNL A   1      40.941  30.172  34.405  1.00  0.00     0.049 A 
ATOM     52  C   UNL A   1      42.613  27.092  30.043  1.00  0.00     0.074 A 
ATOM     53  C   UNL A   1      41.718  30.111  35.547  1.00  0.00     0.029 A 
ATOM     54  N   UNL A   1      41.533  29.332  33.474  1.00  0.00    -0.354 N 
ATOM     55  N   UNL A   1      42.330  27.724  31.156  1.00  0.00    -0.248 NA
ATOM     56  C   UNL A   1      43.866  26.325  30.090  1.00  0.00     0.031 C 
ATOM     57  C   UNL A   1      42.797  29.255  35.297  1.00  0.00     0.029 A 
ATOM     58  C   UNL A   1      42.672  28.756  34.010  1.00  0.00     0.049 A 
ATOM     59  H   UNL A   1      41.193  29.170  32.565  1.00  0.00     0.167 HD
ATOM     60  C   UNL A   1      43.349  27.405  32.046  1.00  0.00     0.074 A 
ATOM     61  C   UNL A   1      44.246  26.507  31.347  1.00  0.00     0.031 C 
ATOM     62  C   UNL A   1      43.533  27.829  33.321  1.00  0.00     0.034 A 
BRANCH  49  63
ATOM     63  C   UNL A   1      39.262  31.859  35.270  1.00  0.00     0.023 A 
ATOM     64  C   UNL A   1      38.249  31.415  36.145  1.00  0.00     0.012 A 
ATOM     65  C   UNL A   1      39.828  33.134  35.462  1.00  0.00     0.148 A 
ATOM     66  C   UNL A   1      37.775  32.240  37.164  1.00  0.00     0.002 A 
ATOM     67  C   UNL A   1      39.384  33.932  36.511  1.00  0.00     0.091 A 
ATOM     68  F   UNL A   1      40.776  33.550  34.611  1.00  0.00    -0.205 F 
ATOM     69  C   UNL A   1      38.348  33.494  37.353  1.00  0.00     0.022 A 
BRANCH  67  70
ATOM     70  S   UNL A   1      40.112  35.531  36.888  1.00  0.00     0.127 S 
ATOM     71  O   UNL A   1      39.623  35.766  38.245  1.00  0.00    -0.237 OA
ATOM     72  O   UNL A   1      41.545  35.246  36.796  1.00  0.00    -0.237 OA
ATOM     73  O   UNL A   1      39.611  36.448  35.874  1.00  0.00    -0.744 OA
ENDBRANCH  67  70
ENDBRANCH  49  63
BRANCH  50  74
ATOM     74  C   UNL A   1      42.310  26.245  27.596  1.00  0.00     0.023 A 
ATOM     75  C   UNL A   1      43.161  26.853  26.653  1.00  0.00     0.012 A 
ATOM     76  C   UNL A   1      41.970  24.886  27.440  1.00  0.00     0.148 A 
ATOM     77  C   UNL A   1      43.642  26.130  25.560  1.00  0.00     0.002 A 
ATOM     78  C   UNL A   1      42.499  24.157  26.383  1.00  0.00     0.091 A 
ATOM     79  F   UNL A   1      41.151  24.331  28.344  1.00  0.00    -0.205 F 
ATOM     80  C   UNL A   1      43.322  24.781  25.431  1.00  0.00     0.022 A 
BRANCH  78  81
ATOM     81  S   UNL A   1      42.255  22.386  26.218  1.00  0.00     0.127 S 
ATOM     82  O   UNL A   1      42.824  21.888  27.467  1.00  0.00    -0.237 OA
ATOM     83  O   UNL A   1      40.798  22.291  26.121  1.00  0.00    -0.237 OA
ATOM     84  O   UNL A   1      42.963  22.001  25.003  1.00  0.00    -0.744 OA
ENDBRANCH  78  81
ENDBRANCH  50  74
BRANCH  62  85
ATOM     85  C   UNL A   1      44.733  27.303  34.067  1.00  0.00     0.023 A 
ATOM     86  C   UNL A   1      45.939  28.033  34.065  1.00  0.00     0.012 A 
ATOM     87  C   UNL A   1      44.641  26.122  34.829  1.00  0.00     0.148 A 
ATOM     88  C   UNL A   1      47.044  27.576  34.782  1.00  0.00     0.002 A 
ATOM     89  C   UNL A   1      45.730  25.701  35.582  1.00  0.00     0.091 A 
ATOM     90  F   UNL A   1      43.492  25.432  34.804  1.00  0.00    -0.205 F 
ATOM     91  C   UNL A   1      46.937  26.419  35.550  1.00  0.00     0.022 A 
BRANCH  89  92
ATOM     92  S   UNL A   1      45.654  24.278  36.677  1.00  0.00     0.127 S 
ATOM     93  O   UNL A   1      47.022  24.222  37.188  1.00  0.00    -0.237 OA
ATOM     94  O   UNL A   1      44.652  24.698  37.659  1.00  0.00    -0.237 OA
ATOM     95  O   UNL A   1      45.251  23.153  35.845  1.00  0.00    -0.744 OA
ENDBRANCH  89  92
ENDBRANCH  62  85
ENDBRANCH  36  37
ENDBRANCH  28  31
ENDBRANCH  26  27
ENDBRANCH  25  26
ENDBRANCH   1  25
TORSDOF 17
ENDMDL
