MODEL 1
REMARK VINA RESULT:     -12.7      0.000      0.000
REMARK SMILES N#Cc1cccnc1N1CC[NH+]([C@@H](C(=O)NCCCCCCNC(=O)c2ccc(-c3c4nc(c(-c5cccc(S(=O)(=O)[O-])c5F)c5ccc([nH]5)c(-c5cccc(S(=O)(=O)[O-])c5F)c5nc(c(-c6cccc(S(=O)(=O)[O-])c6F)c6ccc3[nH]6)C=C5)C=C4)cc2)c2c[nH]c3cc(CO)ccc23)CC1
REMARK SMILES IDX 19 1 18 2 17 3 16 4 14 5 15 6 13 8 12 9 9 10 10 11 101 12
REMARK SMILES IDX 11 13 100 14 8 16 3 17 4 18 5 19 7 20 6 21 2 22 1 23 89 24
REMARK SMILES IDX 90 25 99 26 91 27 92 28 98 29 93 31 97 32 94 33 95 34 96 35
REMARK SMILES IDX 20 37 21 38 22 39 23 40 24 41 25 43 26 44 27 45 88 46 28 47
REMARK SMILES IDX 87 48 29 49 30 50 31 51 81 52 32 53 86 54 80 55 82 56 33 57
REMARK SMILES IDX 85 58 79 59 78 60 34 62 66 63 46 64 65 65 47 66 50 67 64 68
REMARK SMILES IDX 83 69 48 70 49 71 63 73 84 74 51 75 35 76 36 77 44 78 37 79
REMARK SMILES IDX 39 80 45 81 38 82 40 83 41 84 42 85 43 86 67 87 68 88 76 89
REMARK SMILES IDX 69 90 71 91 77 92 70 93 72 94 73 95 74 96 75 97 52 98 53 99
REMARK SMILES IDX 61 100 54 101 56 102 62 103 55 104 57 105 58 106 59 107
REMARK SMILES IDX 60 108
REMARK H PARENT 16 7 12 15 91 30 96 36 23 42 82 61 50 72
REMARK Flexibility Score: inf
ROOT
ATOM      1  C   UNL A   1      31.710  29.867  25.828  1.00  0.00     0.002 C 
ENDROOT
BRANCH   1   2
ATOM      2  C   UNL A   1      31.873  29.355  27.273  1.00  0.00     0.021 C 
BRANCH   2   3
ATOM      3  C   UNL A   1      31.940  27.815  27.480  1.00  0.00     0.116 C 
BRANCH   3   4
ATOM      4  N   UNL A   1      32.693  27.074  26.473  1.00  0.00    -0.351 N 
ATOM      5  C   UNL A   1      32.412  26.369  25.331  1.00  0.00     0.283 C 
ATOM      6  O   UNL A   1      33.433  25.995  24.742  1.00  0.00    -0.268 OA
ATOM      7  H   UNL A   1      33.659  27.083  26.663  1.00  0.00     0.163 HD
BRANCH   5   8
ATOM      8  C   UNL A   1      30.975  26.119  24.789  1.00  0.00     0.307 C 
BRANCH   8   9
ATOM      9  N   UNL A   1      30.475  24.685  24.741  1.00  0.00    -0.318 N 
ATOM     10  N   UNL A   1      32.600  22.613  24.655  1.00  0.00    -0.344 N 
ATOM     11  C   UNL A   1      32.262  23.410  23.471  1.00  0.00     0.179 C 
ATOM     12  C   UNL A   1      32.199  23.226  25.936  1.00  0.00     0.179 C 
ATOM     13  C   UNL A   1      30.791  23.840  23.568  1.00  0.00     0.284 C 
ATOM     14  C   UNL A   1      30.768  23.831  25.896  1.00  0.00     0.284 C 
ATOM     15  H   UNL A   1      29.494  24.961  24.705  1.00  0.00     0.349 HD
BRANCH  10  16
ATOM     16  C   UNL A   1      33.896  22.083  24.664  1.00  0.00     0.146 A 
ATOM     17  C   UNL A   1      34.123  20.717  24.873  1.00  0.00     0.095 A 
ATOM     18  C   UNL A   1      35.437  20.247  24.969  1.00  0.00     0.025 A 
ATOM     19  C   UNL A   1      36.495  21.139  24.849  1.00  0.00     0.022 A 
ATOM     20  N   UNL A   1      34.935  22.943  24.504  1.00  0.00    -0.238 NA
ATOM     21  C   UNL A   1      36.195  22.466  24.611  1.00  0.00     0.113 A 
BRANCH  17  22
ATOM     22  C   UNL A   1      33.038  19.782  24.974  1.00  0.00     0.103 C 
ATOM     23  N   UNL A   1      32.149  19.059  25.085  1.00  0.00    -0.192 NA
ENDBRANCH  17  22
ENDBRANCH  10  16
ENDBRANCH   8   9
BRANCH   8  24
ATOM     24  C   UNL A   1      30.653  26.771  23.412  1.00  0.00     0.044 A 
ATOM     25  C   UNL A   1      31.608  27.007  22.428  1.00  0.00     0.094 A 
ATOM     26  C   UNL A   1      29.545  27.618  23.027  1.00  0.00     0.009 A 
ATOM     27  N   UNL A   1      31.384  28.299  22.002  1.00  0.00    -0.361 N 
ATOM     28  C   UNL A   1      30.161  28.737  22.459  1.00  0.00     0.046 A 
ATOM     29  C   UNL A   1      28.177  27.729  23.345  1.00  0.00     0.011 A 
ATOM     30  H   UNL A   1      32.006  28.829  21.453  1.00  0.00     0.166 HD
ATOM     31  C   UNL A   1      29.608  30.027  22.565  1.00  0.00     0.032 A 
ATOM     32  C   UNL A   1      27.567  28.987  23.345  1.00  0.00     0.007 A 
ATOM     33  C   UNL A   1      28.322  30.142  23.122  1.00  0.00    -0.021 A 
BRANCH  33  34
ATOM     34  C   UNL A   1      27.764  31.485  23.521  1.00  0.00     0.191 C 
BRANCH  34  35
ATOM     35  O   UNL A   1      27.676  32.374  22.405  1.00  0.00    -0.392 OA
ATOM     36  H   UNL A   1      28.508  32.347  21.905  1.00  0.00     0.211 HD
ENDBRANCH  34  35
ENDBRANCH  33  34
ENDBRANCH   8  24
ENDBRANCH   5   8
ENDBRANCH   3   4
ENDBRANCH   2   3
ENDBRANCH   1   2
BRANCH   1  37
ATOM     37  C   UNL A   1      31.150  31.287  25.707  1.00  0.00     0.002 C 
BRANCH  37  38
ATOM     38  C   UNL A   1      31.286  32.169  26.952  1.00  0.00     0.021 C 
BRANCH  38  39
ATOM     39  C   UNL A   1      32.631  32.877  27.112  1.00  0.00     0.116 C 
BRANCH  39  40
ATOM     40  N   UNL A   1      32.483  34.227  27.644  1.00  0.00    -0.352 N 
ATOM     41  C   UNL A   1      33.129  34.813  28.708  1.00  0.00     0.251 C 
ATOM     42  H   UNL A   1      31.832  34.797  27.176  1.00  0.00     0.163 HD
ATOM     43  O   UNL A   1      32.737  35.889  29.152  1.00  0.00    -0.269 OA
BRANCH  41  44
ATOM     44  C   UNL A   1      34.290  34.137  29.327  1.00  0.00     0.039 A 
ATOM     45  C   UNL A   1      35.581  34.465  28.906  1.00  0.00     0.014 A 
ATOM     46  C   UNL A   1      34.099  33.174  30.323  1.00  0.00     0.014 A 
ATOM     47  C   UNL A   1      36.685  33.872  29.528  1.00  0.00     0.010 A 
ATOM     48  C   UNL A   1      35.200  32.632  30.982  1.00  0.00     0.010 A 
ATOM     49  C   UNL A   1      36.505  32.970  30.590  1.00  0.00    -0.014 A 
BRANCH  49  50
ATOM     50  C   UNL A   1      37.664  32.373  31.306  1.00  0.00     0.031 A 
ATOM     51  C   UNL A   1      38.405  31.208  30.707  1.00  0.00     0.074 A 
ATOM     52  C   UNL A   1      37.998  32.822  32.533  1.00  0.00     0.049 A 
ATOM     53  N   UNL A   1      39.395  30.513  31.206  1.00  0.00    -0.248 NA
ATOM     54  C   UNL A   1      37.960  30.744  29.381  1.00  0.00     0.031 C 
ATOM     55  C   UNL A   1      37.306  33.887  33.262  1.00  0.00     0.029 A 
ATOM     56  N   UNL A   1      38.981  32.412  33.401  1.00  0.00    -0.354 N 
ATOM     57  C   UNL A   1      39.673  29.520  30.275  1.00  0.00     0.074 A 
ATOM     58  C   UNL A   1      38.721  29.676  29.197  1.00  0.00     0.031 C 
ATOM     59  C   UNL A   1      37.879  34.041  34.466  1.00  0.00     0.029 A 
ATOM     60  C   UNL A   1      38.962  33.072  34.608  1.00  0.00     0.049 A 
ATOM     61  H   UNL A   1      39.638  31.714  33.179  1.00  0.00     0.167 HD
ATOM     62  C   UNL A   1      40.653  28.584  30.295  1.00  0.00     0.034 A 
ATOM     63  C   UNL A   1      39.723  32.909  35.709  1.00  0.00     0.034 A 
ATOM     64  C   UNL A   1      41.622  28.453  31.348  1.00  0.00     0.049 A 
ATOM     65  C   UNL A   1      40.833  31.892  35.688  1.00  0.00     0.074 A 
ATOM     66  C   UNL A   1      42.694  27.581  31.428  1.00  0.00     0.029 A 
ATOM     67  N   UNL A   1      41.637  29.211  32.508  1.00  0.00    -0.354 N 
ATOM     68  N   UNL A   1      41.177  31.066  34.730  1.00  0.00    -0.248 NA
ATOM     69  C   UNL A   1      41.688  31.814  36.882  1.00  0.00     0.031 C 
ATOM     70  C   UNL A   1      43.350  27.806  32.643  1.00  0.00     0.029 A 
ATOM     71  C   UNL A   1      42.700  28.832  33.309  1.00  0.00     0.049 A 
ATOM     72  H   UNL A   1      40.988  29.917  32.729  1.00  0.00     0.167 HD
ATOM     73  C   UNL A   1      42.305  30.395  35.190  1.00  0.00     0.074 A 
ATOM     74  C   UNL A   1      42.601  30.929  36.503  1.00  0.00     0.031 C 
ATOM     75  C   UNL A   1      43.019  29.413  34.587  1.00  0.00     0.034 A 
BRANCH  62  76
ATOM     76  C   UNL A   1      40.770  27.672  29.100  1.00  0.00     0.023 A 
ATOM     77  C   UNL A   1      39.939  26.535  29.019  1.00  0.00     0.012 A 
ATOM     78  C   UNL A   1      41.646  27.964  28.037  1.00  0.00     0.148 A 
ATOM     79  C   UNL A   1      40.003  25.684  27.917  1.00  0.00     0.002 A 
ATOM     80  C   UNL A   1      41.672  27.134  26.921  1.00  0.00     0.091 A 
ATOM     81  F   UNL A   1      42.440  29.038  28.137  1.00  0.00    -0.205 F 
ATOM     82  C   UNL A   1      40.861  25.988  26.865  1.00  0.00     0.022 A 
BRANCH  80  83
ATOM     83  S   UNL A   1      42.683  27.478  25.475  1.00  0.00     0.127 S 
ATOM     84  O   UNL A   1      42.436  26.293  24.654  1.00  0.00    -0.237 OA
ATOM     85  O   UNL A   1      42.081  28.710  24.965  1.00  0.00    -0.237 OA
ATOM     86  O   UNL A   1      44.046  27.625  25.964  1.00  0.00    -0.744 OA
ENDBRANCH  80  83
ENDBRANCH  62  76
BRANCH  63  87
ATOM     87  C   UNL A   1      39.499  33.771  36.905  1.00  0.00     0.023 A 
ATOM     88  C   UNL A   1      39.875  35.129  36.863  1.00  0.00     0.012 A 
ATOM     89  C   UNL A   1      38.895  33.263  38.071  1.00  0.00     0.148 A 
ATOM     90  C   UNL A   1      39.689  35.953  37.974  1.00  0.00     0.002 A 
ATOM     91  C   UNL A   1      38.659  34.104  39.153  1.00  0.00     0.091 A 
ATOM     92  F   UNL A   1      38.556  31.967  38.099  1.00  0.00    -0.205 F 
ATOM     93  C   UNL A   1      39.072  35.445  39.113  1.00  0.00     0.022 A 
BRANCH  91  94
ATOM     94  S   UNL A   1      37.747  33.566  40.603  1.00  0.00     0.127 S 
ATOM     95  O   UNL A   1      37.642  34.804  41.370  1.00  0.00    -0.237 OA
ATOM     96  O   UNL A   1      36.490  33.096  40.018  1.00  0.00    -0.237 OA
ATOM     97  O   UNL A   1      38.554  32.511  41.203  1.00  0.00    -0.744 OA
ENDBRANCH  91  94
ENDBRANCH  63  87
BRANCH  75  98
ATOM     98  C   UNL A   1      44.217  28.867  35.321  1.00  0.00     0.023 A 
ATOM     99  C   UNL A   1      45.471  29.494  35.177  1.00  0.00     0.012 A 
ATOM    100  C   UNL A   1      44.083  27.782  36.209  1.00  0.00     0.148 A 
ATOM    101  C   UNL A   1      46.579  29.031  35.884  1.00  0.00     0.002 A 
ATOM    102  C   UNL A   1      45.182  27.355  36.945  1.00  0.00     0.091 A 
ATOM    103  F   UNL A   1      42.886  27.187  36.317  1.00  0.00    -0.205 F 
ATOM    104  C   UNL A   1      46.433  27.971  36.776  1.00  0.00     0.022 A 
BRANCH 102 105
ATOM    105  S   UNL A   1      45.066  26.060  38.185  1.00  0.00     0.127 S 
ATOM    106  O   UNL A   1      46.445  25.985  38.666  1.00  0.00    -0.237 OA
ATOM    107  O   UNL A   1      44.118  26.630  39.144  1.00  0.00    -0.237 OA
ATOM    108  O   UNL A   1      44.580  24.878  37.487  1.00  0.00    -0.744 OA
ENDBRANCH 102 105
ENDBRANCH  75  98
ENDBRANCH  49  50
ENDBRANCH  41  44
ENDBRANCH  39  40
ENDBRANCH  38  39
ENDBRANCH  37  38
ENDBRANCH   1  37
TORSDOF 22
ENDMDL
MODEL 2
REMARK VINA RESULT:     -12.5      1.261      7.235
REMARK SMILES N#Cc1cccnc1N1CC[NH+]([C@@H](C(=O)NCCCCCCNC(=O)c2ccc(-c3c4nc(c(-c5cccc(S(=O)(=O)[O-])c5F)c5ccc([nH]5)c(-c5cccc(S(=O)(=O)[O-])c5F)c5nc(c(-c6cccc(S(=O)(=O)[O-])c6F)c6ccc3[nH]6)C=C5)C=C4)cc2)c2c[nH]c3cc(CO)ccc23)CC1
REMARK SMILES IDX 19 1 18 2 17 3 16 4 14 5 15 6 13 8 12 9 9 10 10 11 101 12
REMARK SMILES IDX 11 13 100 14 8 16 3 17 4 18 5 19 7 20 6 21 2 22 1 23 89 24
REMARK SMILES IDX 90 25 99 26 91 27 92 28 98 29 93 31 97 32 94 33 95 34 96 35
REMARK SMILES IDX 20 37 21 38 22 39 23 40 24 41 25 43 26 44 27 45 88 46 28 47
REMARK SMILES IDX 87 48 29 49 30 50 31 51 81 52 32 53 86 54 80 55 82 56 33 57
REMARK SMILES IDX 85 58 79 59 78 60 34 62 66 63 46 64 65 65 47 66 50 67 64 68
REMARK SMILES IDX 83 69 48 70 49 71 63 73 84 74 51 75 35 76 36 77 44 78 37 79
REMARK SMILES IDX 39 80 45 81 38 82 40 83 41 84 42 85 43 86 67 87 68 88 76 89
REMARK SMILES IDX 69 90 71 91 77 92 70 93 72 94 73 95 74 96 75 97 52 98 53 99
REMARK SMILES IDX 61 100 54 101 56 102 62 103 55 104 57 105 58 106 59 107
REMARK SMILES IDX 60 108
REMARK H PARENT 16 7 12 15 91 30 96 36 23 42 82 61 50 72
REMARK Flexibility Score: inf
ROOT
ATOM      1  C   UNL A   1      31.491  29.826  25.732  1.00  0.00     0.002 C 
ENDROOT
BRANCH   1   2
ATOM      2  C   UNL A   1      31.792  29.388  27.179  1.00  0.00     0.021 C 
BRANCH   2   3
ATOM      3  C   UNL A   1      31.952  27.864  27.445  1.00  0.00     0.116 C 
BRANCH   3   4
ATOM      4  N   UNL A   1      32.688  27.120  26.428  1.00  0.00    -0.351 N 
ATOM      5  C   UNL A   1      32.388  26.410  25.293  1.00  0.00     0.283 C 
ATOM      6  O   UNL A   1      33.399  26.033  24.688  1.00  0.00    -0.268 OA
ATOM      7  H   UNL A   1      33.657  27.129  26.601  1.00  0.00     0.163 HD
BRANCH   5   8
ATOM      8  C   UNL A   1      30.942  26.157  24.777  1.00  0.00     0.307 C 
BRANCH   8   9
ATOM      9  N   UNL A   1      30.447  24.721  24.733  1.00  0.00    -0.318 N 
ATOM     10  N   UNL A   1      32.577  22.656  24.618  1.00  0.00    -0.344 N 
ATOM     11  C   UNL A   1      32.223  23.455  23.439  1.00  0.00     0.179 C 
ATOM     12  C   UNL A   1      32.190  23.265  25.904  1.00  0.00     0.179 C 
ATOM     13  C   UNL A   1      30.752  23.879  23.554  1.00  0.00     0.284 C 
ATOM     14  C   UNL A   1      30.756  23.866  25.882  1.00  0.00     0.284 C 
ATOM     15  H   UNL A   1      29.464  24.994  24.708  1.00  0.00     0.349 HD
BRANCH  10  16
ATOM     16  C   UNL A   1      33.875  22.131  24.610  1.00  0.00     0.146 A 
ATOM     17  C   UNL A   1      34.112  20.773  24.854  1.00  0.00     0.095 A 
ATOM     18  C   UNL A   1      35.430  20.310  24.931  1.00  0.00     0.025 A 
ATOM     19  C   UNL A   1      36.482  21.201  24.759  1.00  0.00     0.022 A 
ATOM     20  N   UNL A   1      34.906  22.989  24.399  1.00  0.00    -0.238 NA
ATOM     21  C   UNL A   1      36.170  22.519  24.490  1.00  0.00     0.113 A 
BRANCH  17  22
ATOM     22  C   UNL A   1      33.033  19.838  25.009  1.00  0.00     0.103 C 
ATOM     23  N   UNL A   1      32.141  19.118  25.117  1.00  0.00    -0.192 NA
ENDBRANCH  17  22
ENDBRANCH  10  16
ENDBRANCH   8   9
BRANCH   8  24
ATOM     24  C   UNL A   1      30.592  26.813  23.409  1.00  0.00     0.044 A 
ATOM     25  C   UNL A   1      31.536  27.103  22.429  1.00  0.00     0.094 A 
ATOM     26  C   UNL A   1      29.448  27.617  23.036  1.00  0.00     0.009 A 
ATOM     27  N   UNL A   1      31.257  28.390  22.021  1.00  0.00    -0.361 N 
ATOM     28  C   UNL A   1      30.017  28.769  22.483  1.00  0.00     0.046 A 
ATOM     29  C   UNL A   1      28.078  27.666  23.355  1.00  0.00     0.011 A 
ATOM     30  H   UNL A   1      31.856  28.954  21.479  1.00  0.00     0.166 HD
ATOM     31  C   UNL A   1      29.409  30.033  22.607  1.00  0.00     0.032 A 
ATOM     32  C   UNL A   1      27.415  28.898  23.372  1.00  0.00     0.007 A 
ATOM     33  C   UNL A   1      28.120  30.086  23.166  1.00  0.00    -0.021 A 
BRANCH  33  34
ATOM     34  C   UNL A   1      27.505  31.399  23.583  1.00  0.00     0.191 C 
BRANCH  34  35
ATOM     35  O   UNL A   1      28.236  32.513  23.065  1.00  0.00    -0.392 OA
ATOM     36  H   UNL A   1      29.052  32.197  22.646  1.00  0.00     0.211 HD
ENDBRANCH  34  35
ENDBRANCH  33  34
ENDBRANCH   8  24
ENDBRANCH   5   8
ENDBRANCH   3   4
ENDBRANCH   2   3
ENDBRANCH   1   2
BRANCH   1  37
ATOM     37  C   UNL A   1      31.038  31.280  25.581  1.00  0.00     0.002 C 
BRANCH  37  38
ATOM     38  C   UNL A   1      31.227  32.173  26.811  1.00  0.00     0.021 C 
BRANCH  38  39
ATOM     39  C   UNL A   1      32.629  32.755  26.991  1.00  0.00     0.116 C 
BRANCH  39  40
ATOM     40  N   UNL A   1      32.602  34.083  27.593  1.00  0.00    -0.352 N 
ATOM     41  C   UNL A   1      33.348  34.575  28.640  1.00  0.00     0.251 C 
ATOM     42  H   UNL A   1      31.962  34.715  27.193  1.00  0.00     0.163 HD
ATOM     43  O   UNL A   1      33.053  35.650  29.155  1.00  0.00    -0.269 OA
BRANCH  41  44
ATOM     44  C   UNL A   1      34.497  33.797  29.152  1.00  0.00     0.039 A 
ATOM     45  C   UNL A   1      35.796  34.208  28.845  1.00  0.00     0.014 A 
ATOM     46  C   UNL A   1      34.287  32.659  29.937  1.00  0.00     0.014 A 
ATOM     47  C   UNL A   1      36.887  33.512  29.376  1.00  0.00     0.010 A 
ATOM     48  C   UNL A   1      35.373  32.006  30.514  1.00  0.00     0.010 A 
ATOM     49  C   UNL A   1      36.685  32.421  30.237  1.00  0.00    -0.014 A 
BRANCH  49  50
ATOM     50  C   UNL A   1      37.830  31.702  30.861  1.00  0.00     0.031 A 
ATOM     51  C   UNL A   1      38.246  32.022  32.272  1.00  0.00     0.074 A 
ATOM     52  C   UNL A   1      38.547  30.825  30.131  1.00  0.00     0.049 A 
ATOM     53  N   UNL A   1      39.252  31.551  32.963  1.00  0.00    -0.248 NA
ATOM     54  C   UNL A   1      37.440  33.020  32.995  1.00  0.00     0.031 C 
ATOM     55  C   UNL A   1      38.301  30.490  28.727  1.00  0.00     0.029 A 
ATOM     56  N   UNL A   1      39.655  30.081  30.459  1.00  0.00    -0.354 N 
ATOM     57  C   UNL A   1      39.218  32.211  34.185  1.00  0.00     0.074 A 
ATOM     58  C   UNL A   1      38.115  33.145  34.128  1.00  0.00     0.031 C 
ATOM     59  C   UNL A   1      39.233  29.618  28.311  1.00  0.00     0.029 A 
ATOM     60  C   UNL A   1      40.157  29.346  29.409  1.00  0.00     0.049 A 
ATOM     61  H   UNL A   1      40.050  30.073  31.360  1.00  0.00     0.167 HD
ATOM     62  C   UNL A   1      40.008  32.033  35.271  1.00  0.00     0.034 A 
ATOM     63  C   UNL A   1      41.244  28.552  29.335  1.00  0.00     0.034 A 
ATOM     64  C   UNL A   1      41.082  31.079  35.341  1.00  0.00     0.049 A 
ATOM     65  C   UNL A   1      42.080  28.338  30.568  1.00  0.00     0.074 A 
ATOM     66  C   UNL A   1      41.896  30.776  36.417  1.00  0.00     0.029 A 
ATOM     67  N   UNL A   1      41.493  30.274  34.290  1.00  0.00    -0.354 N 
ATOM     68  N   UNL A   1      41.935  28.856  31.763  1.00  0.00    -0.248 NA
ATOM     69  C   UNL A   1      43.204  27.396  30.456  1.00  0.00     0.031 C 
ATOM     70  C   UNL A   1      42.808  29.795  36.013  1.00  0.00     0.029 A 
ATOM     71  C   UNL A   1      42.547  29.472  34.692  1.00  0.00     0.049 A 
ATOM     72  H   UNL A   1      41.093  30.272  33.391  1.00  0.00     0.167 HD
ATOM     73  C   UNL A   1      42.924  28.281  32.553  1.00  0.00     0.074 A 
ATOM     74  C   UNL A   1      43.647  27.355  31.706  1.00  0.00     0.031 C 
ATOM     75  C   UNL A   1      43.219  28.512  33.856  1.00  0.00     0.034 A 
BRANCH  62  76
ATOM     76  C   UNL A   1      39.692  32.842  36.504  1.00  0.00     0.023 A 
ATOM     77  C   UNL A   1      40.284  34.112  36.663  1.00  0.00     0.012 A 
ATOM     78  C   UNL A   1      38.773  32.382  37.467  1.00  0.00     0.148 A 
ATOM     79  C   UNL A   1      39.994  34.898  37.777  1.00  0.00     0.002 A 
ATOM     80  C   UNL A   1      38.456  33.191  38.554  1.00  0.00     0.091 A 
ATOM     81  F   UNL A   1      38.233  31.166  37.309  1.00  0.00    -0.205 F 
ATOM     82  C   UNL A   1      39.075  34.441  38.717  1.00  0.00     0.022 A 
BRANCH  80  83
ATOM     83  S   UNL A   1      37.225  32.734  39.780  1.00  0.00     0.127 S 
ATOM     84  O   UNL A   1      36.014  32.644  38.964  1.00  0.00    -0.237 OA
ATOM     85  O   UNL A   1      37.732  31.449  40.262  1.00  0.00    -0.237 OA
ATOM     86  O   UNL A   1      37.231  33.799  40.772  1.00  0.00    -0.744 OA
ENDBRANCH  80  83
ENDBRANCH  62  76
BRANCH  63  87
ATOM     87  C   UNL A   1      41.571  27.853  28.059  1.00  0.00     0.023 A 
ATOM     88  C   UNL A   1      42.118  28.585  26.986  1.00  0.00     0.012 A 
ATOM     89  C   UNL A   1      41.366  26.468  27.910  1.00  0.00     0.148 A 
ATOM     90  C   UNL A   1      42.419  27.957  25.776  1.00  0.00     0.002 A 
ATOM     91  C   UNL A   1      41.723  25.838  26.723  1.00  0.00     0.091 A 
ATOM     92  F   UNL A   1      40.832  25.789  28.935  1.00  0.00    -0.205 F 
ATOM     93  C   UNL A   1      42.233  26.583  25.648  1.00  0.00     0.022 A 
BRANCH  91  94
ATOM     94  S   UNL A   1      41.645  24.054  26.524  1.00  0.00     0.127 S 
ATOM     95  O   UNL A   1      42.260  23.586  27.763  1.00  0.00    -0.237 OA
ATOM     96  O   UNL A   1      40.203  23.820  26.425  1.00  0.00    -0.237 OA
ATOM     97  O   UNL A   1      42.380  23.766  25.299  1.00  0.00    -0.744 OA
ENDBRANCH  91  94
ENDBRANCH  63  87
BRANCH  75  98
ATOM     98  C   UNL A   1      44.352  27.728  34.467  1.00  0.00     0.023 A 
ATOM     99  C   UNL A   1      45.655  28.264  34.463  1.00  0.00     0.012 A 
ATOM    100  C   UNL A   1      44.110  26.498  35.111  1.00  0.00     0.148 A 
ATOM    101  C   UNL A   1      46.706  27.573  35.065  1.00  0.00     0.002 A 
ATOM    102  C   UNL A   1      45.153  25.838  35.749  1.00  0.00     0.091 A 
ATOM    103  F   UNL A   1      42.867  25.996  35.087  1.00  0.00    -0.205 F 
ATOM    104  C   UNL A   1      46.454  26.368  35.718  1.00  0.00     0.022 A 
BRANCH 102 105
ATOM    105  S   UNL A   1      44.904  24.331  36.693  1.00  0.00     0.127 S 
ATOM    106  O   UNL A   1      46.277  23.967  37.040  1.00  0.00    -0.237 OA
ATOM    107  O   UNL A   1      44.095  24.798  37.820  1.00  0.00    -0.237 OA
ATOM    108  O   UNL A   1      44.219  23.407  35.800  1.00  0.00    -0.744 OA
ENDBRANCH 102 105
ENDBRANCH  75  98
ENDBRANCH  49  50
ENDBRANCH  41  44
ENDBRANCH  39  40
ENDBRANCH  38  39
ENDBRANCH  37  38
ENDBRANCH   1  37
TORSDOF 22
ENDMDL
MODEL 3
REMARK VINA RESULT:     -12.1      5.525     11.962
REMARK SMILES N#Cc1cccnc1N1CC[NH+]([C@@H](C(=O)NCCCCCCNC(=O)c2ccc(-c3c4nc(c(-c5cccc(S(=O)(=O)[O-])c5F)c5ccc([nH]5)c(-c5cccc(S(=O)(=O)[O-])c5F)c5nc(c(-c6cccc(S(=O)(=O)[O-])c6F)c6ccc3[nH]6)C=C5)C=C4)cc2)c2c[nH]c3cc(CO)ccc23)CC1
REMARK SMILES IDX 19 1 18 2 17 3 16 4 14 5 15 6 13 8 12 9 9 10 10 11 101 12
REMARK SMILES IDX 11 13 100 14 8 16 3 17 4 18 5 19 7 20 6 21 2 22 1 23 89 24
REMARK SMILES IDX 90 25 99 26 91 27 92 28 98 29 93 31 97 32 94 33 95 34 96 35
REMARK SMILES IDX 20 37 21 38 22 39 23 40 24 41 25 43 26 44 27 45 88 46 28 47
REMARK SMILES IDX 87 48 29 49 30 50 31 51 81 52 32 53 86 54 80 55 82 56 33 57
REMARK SMILES IDX 85 58 79 59 78 60 34 62 66 63 46 64 65 65 47 66 50 67 64 68
REMARK SMILES IDX 83 69 48 70 49 71 63 73 84 74 51 75 35 76 36 77 44 78 37 79
REMARK SMILES IDX 39 80 45 81 38 82 40 83 41 84 42 85 43 86 67 87 68 88 76 89
REMARK SMILES IDX 69 90 71 91 77 92 70 93 72 94 73 95 74 96 75 97 52 98 53 99
REMARK SMILES IDX 61 100 54 101 56 102 62 103 55 104 57 105 58 106 59 107
REMARK SMILES IDX 60 108
REMARK H PARENT 16 7 12 15 91 30 96 36 23 42 82 61 50 72
REMARK Flexibility Score: inf
ROOT
ATOM      1  C   UNL A   1      38.202  23.568  26.647  1.00  0.00     0.002 C 
ENDROOT
BRANCH   1   2
ATOM      2  C   UNL A   1      37.064  23.738  25.622  1.00  0.00     0.021 C 
BRANCH   2   3
ATOM      3  C   UNL A   1      36.540  22.454  24.918  1.00  0.00     0.116 C 
BRANCH   3   4
ATOM      4  N   UNL A   1      35.765  22.672  23.701  1.00  0.00    -0.351 N 
ATOM      5  C   UNL A   1      34.482  23.038  23.383  1.00  0.00     0.283 C 
ATOM      6  O   UNL A   1      34.320  23.192  22.167  1.00  0.00    -0.268 OA
ATOM      7  H   UNL A   1      36.306  22.517  22.893  1.00  0.00     0.163 HD
BRANCH   5   8
ATOM      8  C   UNL A   1      33.362  23.298  24.432  1.00  0.00     0.307 C 
BRANCH   8   9
ATOM      9  N   UNL A   1      33.585  24.408  25.445  1.00  0.00    -0.318 N 
ATOM     10  N   UNL A   1      32.110  26.927  24.901  1.00  0.00    -0.344 N 
ATOM     11  C   UNL A   1      33.304  26.560  24.133  1.00  0.00     0.179 C 
ATOM     12  C   UNL A   1      31.439  25.791  25.563  1.00  0.00     0.179 C 
ATOM     13  C   UNL A   1      34.205  25.680  25.012  1.00  0.00     0.284 C 
ATOM     14  C   UNL A   1      32.436  24.820  26.256  1.00  0.00     0.284 C 
ATOM     15  H   UNL A   1      34.262  23.867  25.983  1.00  0.00     0.349 HD
BRANCH  10  16
ATOM     16  C   UNL A   1      31.230  27.799  24.249  1.00  0.00     0.146 A 
ATOM     17  C   UNL A   1      31.161  29.155  24.593  1.00  0.00     0.095 A 
ATOM     18  C   UNL A   1      30.201  29.969  23.983  1.00  0.00     0.025 A 
ATOM     19  C   UNL A   1      29.337  29.425  23.041  1.00  0.00     0.022 A 
ATOM     20  N   UNL A   1      30.412  27.282  23.297  1.00  0.00    -0.238 NA
ATOM     21  C   UNL A   1      29.487  28.088  22.729  1.00  0.00     0.113 A 
BRANCH  17  22
ATOM     22  C   UNL A   1      32.064  29.734  25.547  1.00  0.00     0.103 C 
ATOM     23  N   UNL A   1      32.801  30.228  26.282  1.00  0.00    -0.192 NA
ENDBRANCH  17  22
ENDBRANCH  10  16
ENDBRANCH   8   9
BRANCH   8  24
ATOM     24  C   UNL A   1      32.869  22.045  25.214  1.00  0.00     0.044 A 
ATOM     25  C   UNL A   1      33.093  21.846  26.572  1.00  0.00     0.094 A 
ATOM     26  C   UNL A   1      32.524  20.727  24.725  1.00  0.00     0.009 A 
ATOM     27  N   UNL A   1      33.536  20.545  26.685  1.00  0.00    -0.361 N 
ATOM     28  C   UNL A   1      33.296  19.867  25.511  1.00  0.00     0.046 A 
ATOM     29  C   UNL A   1      31.927  20.183  23.572  1.00  0.00     0.011 A 
ATOM     30  H   UNL A   1      33.959  20.159  27.486  1.00  0.00     0.166 HD
ATOM     31  C   UNL A   1      33.808  18.655  25.008  1.00  0.00     0.032 A 
ATOM     32  C   UNL A   1      32.330  18.925  23.111  1.00  0.00     0.007 A 
ATOM     33  C   UNL A   1      33.383  18.248  23.731  1.00  0.00    -0.021 A 
BRANCH  33  34
ATOM     34  C   UNL A   1      34.073  17.120  23.004  1.00  0.00     0.191 C 
BRANCH  34  35
ATOM     35  O   UNL A   1      34.363  16.027  23.878  1.00  0.00    -0.392 OA
ATOM     36  H   UNL A   1      33.535  15.590  24.135  1.00  0.00     0.211 HD
ENDBRANCH  34  35
ENDBRANCH  33  34
ENDBRANCH   8  24
ENDBRANCH   5   8
ENDBRANCH   3   4
ENDBRANCH   2   3
ENDBRANCH   1   2
BRANCH   1  37
ATOM     37  C   UNL A   1      39.414  22.782  26.139  1.00  0.00     0.002 C 
BRANCH  37  38
ATOM     38  C   UNL A   1      39.568  21.360  26.689  1.00  0.00     0.021 C 
BRANCH  38  39
ATOM     39  C   UNL A   1      39.627  20.253  25.637  1.00  0.00     0.116 C 
BRANCH  39  40
ATOM     40  N   UNL A   1      40.562  19.194  26.001  1.00  0.00    -0.352 N 
ATOM     41  C   UNL A   1      41.895  19.291  26.329  1.00  0.00     0.251 C 
ATOM     42  H   UNL A   1      40.186  18.285  26.015  1.00  0.00     0.163 HD
ATOM     43  O   UNL A   1      42.586  18.279  26.408  1.00  0.00    -0.269 OA
BRANCH  41  44
ATOM     44  C   UNL A   1      42.497  20.620  26.571  1.00  0.00     0.039 A 
ATOM     45  C   UNL A   1      42.950  21.377  25.488  1.00  0.00     0.014 A 
ATOM     46  C   UNL A   1      42.615  21.115  27.873  1.00  0.00     0.014 A 
ATOM     47  C   UNL A   1      43.466  22.659  25.706  1.00  0.00     0.010 A 
ATOM     48  C   UNL A   1      43.072  22.415  28.081  1.00  0.00     0.010 A 
ATOM     49  C   UNL A   1      43.506  23.200  27.002  1.00  0.00    -0.014 A 
BRANCH  49  50
ATOM     50  C   UNL A   1      43.996  24.583  27.250  1.00  0.00     0.031 A 
ATOM     51  C   UNL A   1      43.049  25.643  27.746  1.00  0.00     0.074 A 
ATOM     52  C   UNL A   1      45.269  24.907  26.950  1.00  0.00     0.049 A 
ATOM     53  N   UNL A   1      43.271  26.915  27.960  1.00  0.00    -0.248 NA
ATOM     54  C   UNL A   1      41.662  25.227  28.015  1.00  0.00     0.031 C 
ATOM     55  C   UNL A   1      46.264  23.994  26.383  1.00  0.00     0.029 A 
ATOM     56  N   UNL A   1      45.936  26.105  27.045  1.00  0.00    -0.354 N 
ATOM     57  C   UNL A   1      42.055  27.454  28.359  1.00  0.00     0.074 A 
ATOM     58  C   UNL A   1      41.086  26.380  28.321  1.00  0.00     0.031 C 
ATOM     59  C   UNL A   1      47.408  24.665  26.172  1.00  0.00     0.029 A 
ATOM     60  C   UNL A   1      47.225  26.059  26.565  1.00  0.00     0.049 A 
ATOM     61  H   UNL A   1      45.530  26.918  27.422  1.00  0.00     0.167 HD
ATOM     62  C   UNL A   1      41.772  28.718  28.757  1.00  0.00     0.034 A 
ATOM     63  C   UNL A   1      48.151  27.031  26.446  1.00  0.00     0.034 A 
ATOM     64  C   UNL A   1      42.743  29.776  28.830  1.00  0.00     0.049 A 
ATOM     65  C   UNL A   1      47.827  28.417  26.936  1.00  0.00     0.074 A 
ATOM     66  C   UNL A   1      42.571  31.072  29.284  1.00  0.00     0.029 A 
ATOM     67  N   UNL A   1      44.067  29.663  28.437  1.00  0.00    -0.354 N 
ATOM     68  N   UNL A   1      46.712  28.867  27.457  1.00  0.00    -0.248 NA
ATOM     69  C   UNL A   1      48.901  29.419  26.861  1.00  0.00     0.031 C 
ATOM     70  C   UNL A   1      43.790  31.746  29.154  1.00  0.00     0.029 A 
ATOM     71  C   UNL A   1      44.726  30.863  28.640  1.00  0.00     0.049 A 
ATOM     72  H   UNL A   1      44.479  28.849  28.069  1.00  0.00     0.167 HD
ATOM     73  C   UNL A   1      46.958  30.191  27.803  1.00  0.00     0.074 A 
ATOM     74  C   UNL A   1      48.337  30.463  27.455  1.00  0.00     0.031 C 
ATOM     75  C   UNL A   1      46.114  31.104  28.344  1.00  0.00     0.034 A 
BRANCH  62  76
ATOM     76  C   UNL A   1      40.365  29.007  29.216  1.00  0.00     0.023 A 
ATOM     77  C   UNL A   1      39.400  29.405  28.267  1.00  0.00     0.012 A 
ATOM     78  C   UNL A   1      39.981  28.831  30.559  1.00  0.00     0.148 A 
ATOM     79  C   UNL A   1      38.085  29.655  28.651  1.00  0.00     0.002 A 
ATOM     80  C   UNL A   1      38.656  29.040  30.927  1.00  0.00     0.091 A 
ATOM     81  F   UNL A   1      40.914  28.469  31.450  1.00  0.00    -0.205 F 
ATOM     82  C   UNL A   1      37.711  29.464  29.978  1.00  0.00     0.022 A 
BRANCH  80  83
ATOM     83  S   UNL A   1      38.050  28.746  32.593  1.00  0.00     0.127 S 
ATOM     84  O   UNL A   1      36.687  29.268  32.508  1.00  0.00    -0.237 OA
ATOM     85  O   UNL A   1      38.139  27.289  32.700  1.00  0.00    -0.237 OA
ATOM     86  O   UNL A   1      38.944  29.475  33.481  1.00  0.00    -0.744 OA
ENDBRANCH  80  83
ENDBRANCH  62  76
BRANCH  63  87
ATOM     87  C   UNL A   1      49.498  26.713  25.889  1.00  0.00     0.023 A 
ATOM     88  C   UNL A   1      50.411  25.967  26.661  1.00  0.00     0.012 A 
ATOM     89  C   UNL A   1      49.870  27.122  24.594  1.00  0.00     0.148 A 
ATOM     90  C   UNL A   1      51.682  25.669  26.169  1.00  0.00     0.002 A 
ATOM     91  C   UNL A   1      51.116  26.771  24.087  1.00  0.00     0.091 A 
ATOM     92  F   UNL A   1      48.995  27.842  23.878  1.00  0.00    -0.205 F 
ATOM     93  C   UNL A   1      52.031  26.060  24.880  1.00  0.00     0.022 A 
BRANCH  91  94
ATOM     94  S   UNL A   1      51.591  27.115  22.389  1.00  0.00     0.127 S 
ATOM     95  O   UNL A   1      51.876  28.546  22.441  1.00  0.00    -0.237 OA
ATOM     96  O   UNL A   1      52.767  26.259  22.221  1.00  0.00    -0.237 OA
ATOM     97  O   UNL A   1      50.448  26.721  21.577  1.00  0.00    -0.744 OA
ENDBRANCH  91  94
ENDBRANCH  63  87
BRANCH  75  98
ATOM     98  C   UNL A   1      46.659  32.479  28.629  1.00  0.00     0.023 A 
ATOM     99  C   UNL A   1      47.213  32.764  29.893  1.00  0.00     0.012 A 
ATOM    100  C   UNL A   1      46.691  33.463  27.621  1.00  0.00     0.148 A 
ATOM    101  C   UNL A   1      47.763  34.017  30.158  1.00  0.00     0.002 A 
ATOM    102  C   UNL A   1      47.282  34.694  27.878  1.00  0.00     0.091 A 
ATOM    103  F   UNL A   1      46.141  33.179  26.431  1.00  0.00    -0.205 F 
ATOM    104  C   UNL A   1      47.809  34.977  29.149  1.00  0.00     0.022 A 
BRANCH 102 105
ATOM    105  S   UNL A   1      47.471  35.955  26.613  1.00  0.00     0.127 S 
ATOM    106  O   UNL A   1      48.206  35.230  25.577  1.00  0.00    -0.237 OA
ATOM    107  O   UNL A   1      46.081  36.263  26.270  1.00  0.00    -0.237 OA
ATOM    108  O   UNL A   1      48.194  37.050  27.243  1.00  0.00    -0.744 OA
ENDBRANCH 102 105
ENDBRANCH  75  98
ENDBRANCH  49  50
ENDBRANCH  41  44
ENDBRANCH  39  40
ENDBRANCH  38  39
ENDBRANCH  37  38
ENDBRANCH   1  37
TORSDOF 22
ENDMDL
