MODEL 1
REMARK VINA RESULT:     -10.6      0.000      0.000
REMARK SMILES CC[C@@H](C)[C@@H](C(=O)NCCCCCCNC(=O)c1ccc(-c2c3nc(c(-c4cccc(S(=O)(=O)[O-])c4F)c4ccc([nH]4)c(-c4cccc(S(=O)(=O)[O-])c4F)c4nc(c(-c5cccc(S(=O)(=O)[O-])c5F)c5ccc2[nH]5)C=C4)C=C3)cc1)S(=O)(=O)c1ccc(OC)cc1
REMARK SMILES IDX 11 1 10 2 9 3 8 4 6 5 7 6 5 8 3 9 4 10 2 11 1 12 81 13 82 14
REMARK SMILES IDX 83 15 84 16 85 17 91 18 86 19 90 20 87 21 88 22 89 23 12 24
REMARK SMILES IDX 13 25 14 26 15 27 16 28 17 30 18 31 19 32 80 33 20 34 79 35
REMARK SMILES IDX 21 36 22 37 23 38 73 39 24 40 78 41 72 42 74 43 25 44 77 45
REMARK SMILES IDX 71 46 70 47 26 49 58 50 38 51 57 52 39 53 42 54 56 55 75 56
REMARK SMILES IDX 40 57 41 58 55 60 76 61 43 62 27 63 28 64 36 65 29 66 31 67
REMARK SMILES IDX 37 68 30 69 32 70 33 71 34 72 35 73 59 74 60 75 68 76 61 77
REMARK SMILES IDX 63 78 69 79 62 80 64 81 65 82 66 83 67 84 44 85 45 86 53 87
REMARK SMILES IDX 46 88 48 89 54 90 47 91 49 92 50 93 51 94 52 95
REMARK H PARENT 8 7 15 29 74 48 42 59
REMARK Flexibility Score: inf
ROOT
ATOM      1  C   UNL A   1      31.763  29.333  26.361  1.00  0.00     0.002 C 
ENDROOT
BRANCH   1   2
ATOM      2  C   UNL A   1      33.209  28.965  26.695  1.00  0.00     0.021 C 
BRANCH   2   3
ATOM      3  C   UNL A   1      33.880  27.990  25.711  1.00  0.00     0.116 C 
BRANCH   3   4
ATOM      4  N   UNL A   1      33.865  26.655  26.286  1.00  0.00    -0.355 N 
ATOM      5  C   UNL A   1      33.208  25.532  25.870  1.00  0.00     0.239 C 
ATOM      6  O   UNL A   1      32.827  24.779  26.769  1.00  0.00    -0.274 OA
ATOM      7  H   UNL A   1      34.411  26.544  27.097  1.00  0.00     0.163 HD
BRANCH   5   8
ATOM      8  C   UNL A   1      32.984  25.213  24.388  1.00  0.00     0.205 C 
BRANCH   8   9
ATOM      9  C   UNL A   1      31.504  24.873  24.005  1.00  0.00     0.014 C 
ATOM     10  C   UNL A   1      31.226  24.952  22.496  1.00  0.00     0.009 C 
BRANCH   9  11
ATOM     11  C   UNL A   1      30.480  25.776  24.718  1.00  0.00     0.002 C 
ATOM     12  C   UNL A   1      30.226  27.119  24.039  1.00  0.00     0.004 C 
ENDBRANCH   9  11
ENDBRANCH   8   9
BRANCH   8  13
ATOM     13  S   UNL A   1      34.208  23.905  24.006  1.00  0.00     0.190 S 
ATOM     14  O   UNL A   1      34.512  23.899  22.592  1.00  0.00    -0.223 OA
ATOM     15  O   UNL A   1      35.322  24.085  24.933  1.00  0.00    -0.223 OA
BRANCH  13  16
ATOM     16  C   UNL A   1      33.510  22.290  24.357  1.00  0.00     0.068 A 
ATOM     17  C   UNL A   1      32.660  21.695  23.421  1.00  0.00     0.024 A 
ATOM     18  C   UNL A   1      33.823  21.600  25.530  1.00  0.00     0.024 A 
ATOM     19  C   UNL A   1      32.197  20.390  23.630  1.00  0.00     0.048 A 
ATOM     20  C   UNL A   1      33.403  20.278  25.708  1.00  0.00     0.048 A 
ATOM     21  C   UNL A   1      32.604  19.659  24.749  1.00  0.00     0.118 A 
BRANCH  21  22
ATOM     22  O   UNL A   1      32.140  18.374  24.817  1.00  0.00    -0.497 OA
ATOM     23  C   UNL A   1      33.090  17.392  25.221  1.00  0.00     0.278 C 
ENDBRANCH  21  22
ENDBRANCH  13  16
ENDBRANCH   8  13
ENDBRANCH   5   8
ENDBRANCH   3   4
ENDBRANCH   2   3
ENDBRANCH   1   2
BRANCH   1  24
ATOM     24  C   UNL A   1      31.579  30.727  25.760  1.00  0.00     0.002 C 
BRANCH  24  25
ATOM     25  C   UNL A   1      31.444  31.871  26.771  1.00  0.00     0.021 C 
BRANCH  25  26
ATOM     26  C   UNL A   1      32.756  32.510  27.224  1.00  0.00     0.116 C 
BRANCH  26  27
ATOM     27  N   UNL A   1      32.594  33.913  27.567  1.00  0.00    -0.352 N 
ATOM     28  C   UNL A   1      33.194  34.653  28.556  1.00  0.00     0.251 C 
ATOM     29  H   UNL A   1      31.957  34.409  27.004  1.00  0.00     0.163 HD
ATOM     30  O   UNL A   1      32.763  35.772  28.820  1.00  0.00    -0.269 OA
BRANCH  28  31
ATOM     31  C   UNL A   1      34.345  34.109  29.310  1.00  0.00     0.039 A 
ATOM     32  C   UNL A   1      34.098  33.360  30.464  1.00  0.00     0.014 A 
ATOM     33  C   UNL A   1      35.660  34.366  28.912  1.00  0.00     0.014 A 
ATOM     34  C   UNL A   1      35.168  32.825  31.187  1.00  0.00     0.010 A 
ATOM     35  C   UNL A   1      36.723  33.778  29.598  1.00  0.00     0.010 A 
ATOM     36  C   UNL A   1      36.489  33.006  30.746  1.00  0.00    -0.014 A 
BRANCH  36  37
ATOM     37  C   UNL A   1      37.624  32.366  31.460  1.00  0.00     0.031 A 
ATOM     38  C   UNL A   1      38.388  31.230  30.836  1.00  0.00     0.074 A 
ATOM     39  C   UNL A   1      37.926  32.769  32.711  1.00  0.00     0.049 A 
ATOM     40  N   UNL A   1      39.405  30.560  31.316  1.00  0.00    -0.248 NA
ATOM     41  C   UNL A   1      37.939  30.769  29.512  1.00  0.00     0.031 C 
ATOM     42  C   UNL A   1      37.204  33.798  33.463  1.00  0.00     0.029 A 
ATOM     43  N   UNL A   1      38.903  32.349  33.579  1.00  0.00    -0.354 N 
ATOM     44  C   UNL A   1      39.700  29.584  30.371  1.00  0.00     0.074 A 
ATOM     45  C   UNL A   1      38.732  29.727  29.303  1.00  0.00     0.031 C 
ATOM     46  C   UNL A   1      37.766  33.934  34.674  1.00  0.00     0.029 A 
ATOM     47  C   UNL A   1      38.875  32.991  34.794  1.00  0.00     0.049 A 
ATOM     48  H   UNL A   1      39.562  31.653  33.352  1.00  0.00     0.167 HD
ATOM     49  C   UNL A   1      40.703  28.674  30.373  1.00  0.00     0.034 A 
ATOM     50  C   UNL A   1      39.653  32.842  35.885  1.00  0.00     0.034 A 
ATOM     51  C   UNL A   1      41.689  28.562  31.416  1.00  0.00     0.049 A 
ATOM     52  C   UNL A   1      40.792  31.861  35.840  1.00  0.00     0.074 A 
ATOM     53  C   UNL A   1      42.800  27.738  31.465  1.00  0.00     0.029 A 
ATOM     54  N   UNL A   1      41.681  29.290  32.596  1.00  0.00    -0.354 N 
ATOM     55  N   UNL A   1      41.163  31.072  34.861  1.00  0.00    -0.248 NA
ATOM     56  C   UNL A   1      41.645  31.779  37.035  1.00  0.00     0.031 C 
ATOM     57  C   UNL A   1      43.452  27.954  32.684  1.00  0.00     0.029 A 
ATOM     58  C   UNL A   1      42.759  28.926  33.385  1.00  0.00     0.049 A 
ATOM     59  H   UNL A   1      41.007  29.966  32.837  1.00  0.00     0.167 HD
ATOM     60  C   UNL A   1      42.307  30.421  35.309  1.00  0.00     0.074 A 
ATOM     61  C   UNL A   1      42.584  30.930  36.637  1.00  0.00     0.031 C 
ATOM     62  C   UNL A   1      43.050  29.473  34.686  1.00  0.00     0.034 A 
BRANCH  49  63
ATOM     63  C   UNL A   1      40.825  27.761  29.181  1.00  0.00     0.023 A 
ATOM     64  C   UNL A   1      40.013  26.610  29.104  1.00  0.00     0.012 A 
ATOM     65  C   UNL A   1      41.689  28.069  28.112  1.00  0.00     0.148 A 
ATOM     66  C   UNL A   1      40.082  25.763  27.999  1.00  0.00     0.002 A 
ATOM     67  C   UNL A   1      41.721  27.241  26.993  1.00  0.00     0.091 A 
ATOM     68  F   UNL A   1      42.469  29.154  28.210  1.00  0.00    -0.205 F 
ATOM     69  C   UNL A   1      40.926  26.084  26.941  1.00  0.00     0.022 A 
BRANCH  67  70
ATOM     70  S   UNL A   1      42.719  27.607  25.545  1.00  0.00     0.127 S 
ATOM     71  O   UNL A   1      42.498  26.416  24.726  1.00  0.00    -0.237 OA
ATOM     72  O   UNL A   1      42.088  28.824  25.034  1.00  0.00    -0.237 OA
ATOM     73  O   UNL A   1      44.080  27.788  26.032  1.00  0.00    -0.744 OA
ENDBRANCH  67  70
ENDBRANCH  49  63
BRANCH  50  74
ATOM     74  C   UNL A   1      39.425  33.701  37.081  1.00  0.00     0.023 A 
ATOM     75  C   UNL A   1      39.853  35.042  37.060  1.00  0.00     0.012 A 
ATOM     76  C   UNL A   1      38.757  33.211  38.218  1.00  0.00     0.148 A 
ATOM     77  C   UNL A   1      39.646  35.872  38.162  1.00  0.00     0.002 A 
ATOM     78  C   UNL A   1      38.504  34.059  39.291  1.00  0.00     0.091 A 
ATOM     79  F   UNL A   1      38.370  31.927  38.226  1.00  0.00    -0.205 F 
ATOM     80  C   UNL A   1      38.961  35.385  39.272  1.00  0.00     0.022 A 
BRANCH  78  81
ATOM     81  S   UNL A   1      37.508  33.553  40.698  1.00  0.00     0.127 S 
ATOM     82  O   UNL A   1      36.305  33.043  40.045  1.00  0.00    -0.237 OA
ATOM     83  O   UNL A   1      38.353  32.532  41.318  1.00  0.00    -0.237 OA
ATOM     84  O   UNL A   1      37.333  34.754  41.505  1.00  0.00    -0.744 OA
ENDBRANCH  78  81
ENDBRANCH  50  74
BRANCH  62  85
ATOM     85  C   UNL A   1      44.248  28.932  35.424  1.00  0.00     0.023 A 
ATOM     86  C   UNL A   1      45.515  29.512  35.215  1.00  0.00     0.012 A 
ATOM     87  C   UNL A   1      44.109  27.893  36.364  1.00  0.00     0.148 A 
ATOM     88  C   UNL A   1      46.632  29.043  35.905  1.00  0.00     0.002 A 
ATOM     89  C   UNL A   1      45.219  27.462  37.083  1.00  0.00     0.091 A 
ATOM     90  F   UNL A   1      42.900  27.339  36.534  1.00  0.00    -0.205 F 
ATOM     91  C   UNL A   1      46.483  28.027  36.846  1.00  0.00     0.022 A 
BRANCH  89  92
ATOM     92  S   UNL A   1      45.101  26.224  38.380  1.00  0.00     0.127 S 
ATOM     93  O   UNL A   1      44.556  25.080  37.651  1.00  0.00    -0.237 OA
ATOM     94  O   UNL A   1      46.496  26.075  38.796  1.00  0.00    -0.237 OA
ATOM     95  O   UNL A   1      44.227  26.795  39.397  1.00  0.00    -0.744 OA
ENDBRANCH  89  92
ENDBRANCH  62  85
ENDBRANCH  36  37
ENDBRANCH  28  31
ENDBRANCH  26  27
ENDBRANCH  25  26
ENDBRANCH  24  25
ENDBRANCH   1  24
TORSDOF 21
ENDMDL
MODEL 2
REMARK VINA RESULT:     -10.5      1.665      2.036
REMARK SMILES CC[C@@H](C)[C@@H](C(=O)NCCCCCCNC(=O)c1ccc(-c2c3nc(c(-c4cccc(S(=O)(=O)[O-])c4F)c4ccc([nH]4)c(-c4cccc(S(=O)(=O)[O-])c4F)c4nc(c(-c5cccc(S(=O)(=O)[O-])c5F)c5ccc2[nH]5)C=C4)C=C3)cc1)S(=O)(=O)c1ccc(OC)cc1
REMARK SMILES IDX 11 1 10 2 9 3 8 4 6 5 7 6 5 8 3 9 4 10 2 11 1 12 81 13 82 14
REMARK SMILES IDX 83 15 84 16 85 17 91 18 86 19 90 20 87 21 88 22 89 23 12 24
REMARK SMILES IDX 13 25 14 26 15 27 16 28 17 30 18 31 19 32 80 33 20 34 79 35
REMARK SMILES IDX 21 36 22 37 23 38 73 39 24 40 78 41 72 42 74 43 25 44 77 45
REMARK SMILES IDX 71 46 70 47 26 49 58 50 38 51 57 52 39 53 42 54 56 55 75 56
REMARK SMILES IDX 40 57 41 58 55 60 76 61 43 62 27 63 28 64 36 65 29 66 31 67
REMARK SMILES IDX 37 68 30 69 32 70 33 71 34 72 35 73 59 74 60 75 68 76 61 77
REMARK SMILES IDX 63 78 69 79 62 80 64 81 65 82 66 83 67 84 44 85 45 86 53 87
REMARK SMILES IDX 46 88 48 89 54 90 47 91 49 92 50 93 51 94 52 95
REMARK H PARENT 8 7 15 29 74 48 42 59
REMARK Flexibility Score: inf
ROOT
ATOM      1  C   UNL A   1      32.766  29.841  25.696  1.00  0.00     0.002 C 
ENDROOT
BRANCH   1   2
ATOM      2  C   UNL A   1      32.809  28.619  26.613  1.00  0.00     0.021 C 
BRANCH   2   3
ATOM      3  C   UNL A   1      31.439  28.138  27.124  1.00  0.00     0.116 C 
BRANCH   3   4
ATOM      4  N   UNL A   1      31.452  26.687  27.216  1.00  0.00    -0.355 N 
ATOM      5  C   UNL A   1      31.281  25.748  26.238  1.00  0.00     0.239 C 
ATOM      6  O   UNL A   1      30.714  24.713  26.592  1.00  0.00    -0.274 OA
ATOM      7  H   UNL A   1      31.607  26.327  28.118  1.00  0.00     0.163 HD
BRANCH   5   8
ATOM      8  C   UNL A   1      31.787  25.953  24.805  1.00  0.00     0.205 C 
BRANCH   8   9
ATOM      9  C   UNL A   1      30.767  25.556  23.685  1.00  0.00     0.014 C 
ATOM     10  C   UNL A   1      31.305  25.766  22.262  1.00  0.00     0.009 C 
BRANCH   9  11
ATOM     11  C   UNL A   1      29.431  26.314  23.798  1.00  0.00     0.002 C 
ATOM     12  C   UNL A   1      29.525  27.819  23.566  1.00  0.00     0.004 C 
ENDBRANCH   9  11
ENDBRANCH   8   9
BRANCH   8  13
ATOM     13  S   UNL A   1      33.390  25.070  24.749  1.00  0.00     0.190 S 
ATOM     14  O   UNL A   1      34.107  25.408  23.539  1.00  0.00    -0.223 OA
ATOM     15  O   UNL A   1      34.059  25.327  26.022  1.00  0.00    -0.223 OA
BRANCH  13  16
ATOM     16  C   UNL A   1      33.112  23.299  24.668  1.00  0.00     0.068 A 
ATOM     17  C   UNL A   1      33.234  22.536  25.833  1.00  0.00     0.024 A 
ATOM     18  C   UNL A   1      32.745  22.672  23.477  1.00  0.00     0.024 A 
ATOM     19  C   UNL A   1      32.912  21.174  25.809  1.00  0.00     0.048 A 
ATOM     20  C   UNL A   1      32.373  21.324  23.470  1.00  0.00     0.048 A 
ATOM     21  C   UNL A   1      32.435  20.573  24.641  1.00  0.00     0.118 A 
BRANCH  21  22
ATOM     22  O   UNL A   1      32.094  19.253  24.751  1.00  0.00    -0.497 OA
ATOM     23  C   UNL A   1      32.572  18.399  23.716  1.00  0.00     0.278 C 
ENDBRANCH  21  22
ENDBRANCH  13  16
ENDBRANCH   8  13
ENDBRANCH   5   8
ENDBRANCH   3   4
ENDBRANCH   2   3
ENDBRANCH   1   2
BRANCH   1  24
ATOM     24  C   UNL A   1      31.390  30.495  25.562  1.00  0.00     0.002 C 
BRANCH  24  25
ATOM     25  C   UNL A   1      31.257  31.891  26.180  1.00  0.00     0.021 C 
BRANCH  25  26
ATOM     26  C   UNL A   1      32.240  32.212  27.306  1.00  0.00     0.116 C 
BRANCH  26  27
ATOM     27  N   UNL A   1      32.501  33.637  27.416  1.00  0.00    -0.352 N 
ATOM     28  C   UNL A   1      33.466  34.303  28.132  1.00  0.00     0.251 C 
ATOM     29  H   UNL A   1      31.894  34.214  26.899  1.00  0.00     0.163 HD
ATOM     30  O   UNL A   1      33.387  35.522  28.265  1.00  0.00    -0.269 OA
BRANCH  28  31
ATOM     31  C   UNL A   1      34.589  33.565  28.750  1.00  0.00     0.039 A 
ATOM     32  C   UNL A   1      35.896  33.927  28.415  1.00  0.00     0.014 A 
ATOM     33  C   UNL A   1      34.362  32.496  29.623  1.00  0.00     0.014 A 
ATOM     34  C   UNL A   1      36.975  33.253  28.994  1.00  0.00     0.010 A 
ATOM     35  C   UNL A   1      35.439  31.868  30.249  1.00  0.00     0.010 A 
ATOM     36  C   UNL A   1      36.756  32.235  29.938  1.00  0.00    -0.014 A 
BRANCH  36  37
ATOM     37  C   UNL A   1      37.898  31.576  30.623  1.00  0.00     0.031 A 
ATOM     38  C   UNL A   1      38.704  30.511  29.931  1.00  0.00     0.074 A 
ATOM     39  C   UNL A   1      38.169  31.894  31.905  1.00  0.00     0.049 A 
ATOM     40  N   UNL A   1      39.733  29.836  30.378  1.00  0.00    -0.248 NA
ATOM     41  C   UNL A   1      38.289  30.137  28.569  1.00  0.00     0.031 C 
ATOM     42  C   UNL A   1      37.405  32.843  32.719  1.00  0.00     0.029 A 
ATOM     43  N   UNL A   1      39.144  31.438  32.757  1.00  0.00    -0.354 N 
ATOM     44  C   UNL A   1      40.070  28.942  29.369  1.00  0.00     0.074 A 
ATOM     45  C   UNL A   1      39.116  29.136  28.298  1.00  0.00     0.031 C 
ATOM     46  C   UNL A   1      37.945  32.905  33.946  1.00  0.00     0.029 A 
ATOM     47  C   UNL A   1      39.078  31.988  34.016  1.00  0.00     0.049 A 
ATOM     48  H   UNL A   1      39.826  30.779  32.492  1.00  0.00     0.167 HD
ATOM     49  C   UNL A   1      41.100  28.062  29.322  1.00  0.00     0.034 A 
ATOM     50  C   UNL A   1      39.843  31.780  35.106  1.00  0.00     0.034 A 
ATOM     51  C   UNL A   1      42.073  27.901  30.371  1.00  0.00     0.049 A 
ATOM     52  C   UNL A   1      41.011  30.837  35.009  1.00  0.00     0.074 A 
ATOM     53  C   UNL A   1      43.207  27.107  30.378  1.00  0.00     0.029 A 
ATOM     54  N   UNL A   1      42.026  28.539  31.601  1.00  0.00    -0.354 N 
ATOM     55  N   UNL A   1      41.421  30.134  33.982  1.00  0.00    -0.248 NA
ATOM     56  C   UNL A   1      41.848  30.691  36.209  1.00  0.00     0.031 C 
ATOM     57  C   UNL A   1      43.833  27.251  31.622  1.00  0.00     0.029 A 
ATOM     58  C   UNL A   1      43.101  28.149  32.380  1.00  0.00     0.049 A 
ATOM     59  H   UNL A   1      41.328  29.176  31.880  1.00  0.00     0.167 HD
ATOM     60  C   UNL A   1      42.576  29.484  34.400  1.00  0.00     0.074 A 
ATOM     61  C   UNL A   1      42.817  29.901  35.767  1.00  0.00     0.031 C 
ATOM     62  C   UNL A   1      43.356  28.606  33.722  1.00  0.00     0.034 A 
BRANCH  49  63
ATOM     63  C   UNL A   1      41.267  27.244  28.068  1.00  0.00     0.023 A 
ATOM     64  C   UNL A   1      41.869  27.830  26.935  1.00  0.00     0.012 A 
ATOM     65  C   UNL A   1      40.892  25.887  28.026  1.00  0.00     0.148 A 
ATOM     66  C   UNL A   1      42.065  27.089  25.771  1.00  0.00     0.002 A 
ATOM     67  C   UNL A   1      41.130  25.143  26.874  1.00  0.00     0.091 A 
ATOM     68  F   UNL A   1      40.303  25.351  29.104  1.00  0.00    -0.205 F 
ATOM     69  C   UNL A   1      41.706  25.745  25.744  1.00  0.00     0.022 A 
BRANCH  67  70
ATOM     70  S   UNL A   1      40.773  23.385  26.766  1.00  0.00     0.127 S 
ATOM     71  O   UNL A   1      41.161  22.923  28.098  1.00  0.00    -0.237 OA
ATOM     72  O   UNL A   1      39.332  23.377  26.514  1.00  0.00    -0.237 OA
ATOM     73  O   UNL A   1      41.584  22.879  25.667  1.00  0.00    -0.744 OA
ENDBRANCH  67  70
ENDBRANCH  49  63
BRANCH  50  74
ATOM     74  C   UNL A   1      39.573  32.541  36.357  1.00  0.00     0.023 A 
ATOM     75  C   UNL A   1      40.254  33.752  36.591  1.00  0.00     0.012 A 
ATOM     76  C   UNL A   1      38.621  32.097  37.294  1.00  0.00     0.148 A 
ATOM     77  C   UNL A   1      40.014  34.490  37.751  1.00  0.00     0.002 A 
ATOM     78  C   UNL A   1      38.346  32.866  38.420  1.00  0.00     0.091 A 
ATOM     79  F   UNL A   1      37.992  30.935  37.061  1.00  0.00    -0.205 F 
ATOM     80  C   UNL A   1      39.053  34.054  38.658  1.00  0.00     0.022 A 
BRANCH  78  81
ATOM     81  S   UNL A   1      37.026  32.450  39.565  1.00  0.00     0.127 S 
ATOM     82  O   UNL A   1      35.843  32.576  38.716  1.00  0.00    -0.237 OA
ATOM     83  O   UNL A   1      37.371  31.080  39.944  1.00  0.00    -0.237 OA
ATOM     84  O   UNL A   1      37.133  33.415  40.652  1.00  0.00    -0.744 OA
ENDBRANCH  78  81
ENDBRANCH  50  74
BRANCH  62  85
ATOM     85  C   UNL A   1      44.557  28.045  34.439  1.00  0.00     0.023 A 
ATOM     86  C   UNL A   1      45.782  28.743  34.397  1.00  0.00     0.012 A 
ATOM     87  C   UNL A   1      44.460  26.864  35.201  1.00  0.00     0.148 A 
ATOM     88  C   UNL A   1      46.899  28.254  35.073  1.00  0.00     0.002 A 
ATOM     89  C   UNL A   1      45.565  26.409  35.910  1.00  0.00     0.091 A 
ATOM     90  F   UNL A   1      43.294  26.204  35.212  1.00  0.00    -0.205 F 
ATOM     91  C   UNL A   1      46.789  27.096  35.838  1.00  0.00     0.022 A 
BRANCH  89  92
ATOM     92  S   UNL A   1      45.488  24.978  36.994  1.00  0.00     0.127 S 
ATOM     93  O   UNL A   1      45.210  23.901  36.046  1.00  0.00    -0.237 OA
ATOM     94  O   UNL A   1      46.832  24.951  37.572  1.00  0.00    -0.237 OA
ATOM     95  O   UNL A   1      44.427  25.261  37.952  1.00  0.00    -0.744 OA
ENDBRANCH  89  92
ENDBRANCH  62  85
ENDBRANCH  36  37
ENDBRANCH  28  31
ENDBRANCH  26  27
ENDBRANCH  25  26
ENDBRANCH  24  25
ENDBRANCH   1  24
TORSDOF 21
ENDMDL
MODEL 3
REMARK VINA RESULT:     -10.3      1.461      7.700
REMARK SMILES CC[C@@H](C)[C@@H](C(=O)NCCCCCCNC(=O)c1ccc(-c2c3nc(c(-c4cccc(S(=O)(=O)[O-])c4F)c4ccc([nH]4)c(-c4cccc(S(=O)(=O)[O-])c4F)c4nc(c(-c5cccc(S(=O)(=O)[O-])c5F)c5ccc2[nH]5)C=C4)C=C3)cc1)S(=O)(=O)c1ccc(OC)cc1
REMARK SMILES IDX 11 1 10 2 9 3 8 4 6 5 7 6 5 8 3 9 4 10 2 11 1 12 81 13 82 14
REMARK SMILES IDX 83 15 84 16 85 17 91 18 86 19 90 20 87 21 88 22 89 23 12 24
REMARK SMILES IDX 13 25 14 26 15 27 16 28 17 30 18 31 19 32 80 33 20 34 79 35
REMARK SMILES IDX 21 36 22 37 23 38 73 39 24 40 78 41 72 42 74 43 25 44 77 45
REMARK SMILES IDX 71 46 70 47 26 49 58 50 38 51 57 52 39 53 42 54 56 55 75 56
REMARK SMILES IDX 40 57 41 58 55 60 76 61 43 62 27 63 28 64 36 65 29 66 31 67
REMARK SMILES IDX 37 68 30 69 32 70 33 71 34 72 35 73 59 74 60 75 68 76 61 77
REMARK SMILES IDX 63 78 69 79 62 80 64 81 65 82 66 83 67 84 44 85 45 86 53 87
REMARK SMILES IDX 46 88 48 89 54 90 47 91 49 92 50 93 51 94 52 95
REMARK H PARENT 8 7 15 29 74 48 42 59
REMARK Flexibility Score: inf
ROOT
ATOM      1  C   UNL A   1      31.641  29.103  25.799  1.00  0.00     0.002 C 
ENDROOT
BRANCH   1   2
ATOM      2  C   UNL A   1      33.061  28.852  26.306  1.00  0.00     0.021 C 
BRANCH   2   3
ATOM      3  C   UNL A   1      33.919  27.933  25.418  1.00  0.00     0.116 C 
BRANCH   3   4
ATOM      4  N   UNL A   1      33.961  26.607  26.013  1.00  0.00    -0.355 N 
ATOM      5  C   UNL A   1      33.161  25.522  25.785  1.00  0.00     0.239 C 
ATOM      6  O   UNL A   1      32.955  24.803  26.765  1.00  0.00    -0.274 OA
ATOM      7  H   UNL A   1      34.671  26.470  26.679  1.00  0.00     0.163 HD
BRANCH   5   8
ATOM      8  C   UNL A   1      32.585  25.202  24.402  1.00  0.00     0.205 C 
BRANCH   8   9
ATOM      9  C   UNL A   1      31.109  24.676  24.410  1.00  0.00     0.014 C 
ATOM     10  C   UNL A   1      30.533  24.443  23.005  1.00  0.00     0.009 C 
BRANCH   9  11
ATOM     11  C   UNL A   1      30.146  25.612  25.163  1.00  0.00     0.002 C 
ATOM     12  C   UNL A   1      29.159  26.365  24.276  1.00  0.00     0.004 C 
ENDBRANCH   9  11
ENDBRANCH   8   9
BRANCH   8  13
ATOM     13  S   UNL A   1      33.810  24.075  23.638  1.00  0.00     0.190 S 
ATOM     14  O   UNL A   1      33.686  24.100  22.197  1.00  0.00    -0.223 OA
ATOM     15  O   UNL A   1      35.111  24.417  24.208  1.00  0.00    -0.223 OA
BRANCH  13  16
ATOM     16  C   UNL A   1      33.471  22.382  24.124  1.00  0.00     0.068 A 
ATOM     17  C   UNL A   1      33.940  21.918  25.357  1.00  0.00     0.024 A 
ATOM     18  C   UNL A   1      32.722  21.526  23.313  1.00  0.00     0.024 A 
ATOM     19  C   UNL A   1      33.589  20.636  25.797  1.00  0.00     0.048 A 
ATOM     20  C   UNL A   1      32.330  20.268  23.781  1.00  0.00     0.048 A 
ATOM     21  C   UNL A   1      32.745  19.825  25.035  1.00  0.00     0.118 A 
BRANCH  21  22
ATOM     22  O   UNL A   1      32.420  18.619  25.593  1.00  0.00    -0.497 OA
ATOM     23  C   UNL A   1      32.319  17.523  24.688  1.00  0.00     0.278 C 
ENDBRANCH  21  22
ENDBRANCH  13  16
ENDBRANCH   8  13
ENDBRANCH   5   8
ENDBRANCH   3   4
ENDBRANCH   2   3
ENDBRANCH   1   2
BRANCH   1  24
ATOM     24  C   UNL A   1      31.349  30.552  25.404  1.00  0.00     0.002 C 
BRANCH  24  25
ATOM     25  C   UNL A   1      31.349  31.565  26.554  1.00  0.00     0.021 C 
BRANCH  25  26
ATOM     26  C   UNL A   1      32.700  32.210  26.865  1.00  0.00     0.116 C 
BRANCH  26  27
ATOM     27  N   UNL A   1      32.560  33.584  27.317  1.00  0.00    -0.352 N 
ATOM     28  C   UNL A   1      33.199  34.246  28.336  1.00  0.00     0.251 C 
ATOM     29  H   UNL A   1      31.908  34.124  26.815  1.00  0.00     0.163 HD
ATOM     30  O   UNL A   1      32.786  35.345  28.697  1.00  0.00    -0.269 OA
BRANCH  28  31
ATOM     31  C   UNL A   1      34.370  33.642  29.008  1.00  0.00     0.039 A 
ATOM     32  C   UNL A   1      34.156  32.660  29.980  1.00  0.00     0.014 A 
ATOM     33  C   UNL A   1      35.671  34.063  28.716  1.00  0.00     0.014 A 
ATOM     34  C   UNL A   1      35.246  32.065  30.620  1.00  0.00     0.010 A 
ATOM     35  C   UNL A   1      36.760  33.424  29.310  1.00  0.00     0.010 A 
ATOM     36  C   UNL A   1      36.560  32.422  30.271  1.00  0.00    -0.014 A 
BRANCH  36  37
ATOM     37  C   UNL A   1      37.723  31.731  30.884  1.00  0.00     0.031 A 
ATOM     38  C   UNL A   1      38.137  32.024  32.301  1.00  0.00     0.074 A 
ATOM     39  C   UNL A   1      38.454  30.881  30.136  1.00  0.00     0.049 A 
ATOM     40  N   UNL A   1      39.122  31.511  32.994  1.00  0.00    -0.248 NA
ATOM     41  C   UNL A   1      37.361  33.041  33.029  1.00  0.00     0.031 C 
ATOM     42  C   UNL A   1      38.212  30.580  28.722  1.00  0.00     0.029 A 
ATOM     43  N   UNL A   1      39.559  30.130  30.449  1.00  0.00    -0.354 N 
ATOM     44  C   UNL A   1      39.103  32.159  34.223  1.00  0.00     0.074 A 
ATOM     45  C   UNL A   1      38.029  33.128  34.171  1.00  0.00     0.031 C 
ATOM     46  C   UNL A   1      39.135  29.705  28.295  1.00  0.00     0.029 A 
ATOM     47  C   UNL A   1      40.045  29.395  29.393  1.00  0.00     0.049 A 
ATOM     48  H   UNL A   1      39.966  30.119  31.346  1.00  0.00     0.167 HD
ATOM     49  C   UNL A   1      39.885  31.946  35.309  1.00  0.00     0.034 A 
ATOM     50  C   UNL A   1      41.104  28.565  29.315  1.00  0.00     0.034 A 
ATOM     51  C   UNL A   1      40.925  30.952  35.372  1.00  0.00     0.049 A 
ATOM     52  C   UNL A   1      41.922  28.307  30.550  1.00  0.00     0.074 A 
ATOM     53  C   UNL A   1      41.707  30.593  36.457  1.00  0.00     0.029 A 
ATOM     54  N   UNL A   1      41.334  30.163  34.309  1.00  0.00    -0.354 N 
ATOM     55  N   UNL A   1      41.774  28.797  31.756  1.00  0.00    -0.248 NA
ATOM     56  C   UNL A   1      43.030  27.347  30.424  1.00  0.00     0.031 C 
ATOM     57  C   UNL A   1      42.603  29.601  36.041  1.00  0.00     0.029 A 
ATOM     58  C   UNL A   1      42.365  29.329  34.704  1.00  0.00     0.049 A 
ATOM     59  H   UNL A   1      40.948  30.193  33.403  1.00  0.00     0.167 HD
ATOM     60  C   UNL A   1      42.748  28.188  32.539  1.00  0.00     0.074 A 
ATOM     61  C   UNL A   1      43.462  27.270  31.675  1.00  0.00     0.031 C 
ATOM     62  C   UNL A   1      43.038  28.386  33.848  1.00  0.00     0.034 A 
BRANCH  49  63
ATOM     63  C   UNL A   1      39.608  32.762  36.545  1.00  0.00     0.023 A 
ATOM     64  C   UNL A   1      40.233  34.017  36.700  1.00  0.00     0.012 A 
ATOM     65  C   UNL A   1      38.688  32.324  37.517  1.00  0.00     0.148 A 
ATOM     66  C   UNL A   1      39.973  34.808  37.817  1.00  0.00     0.002 A 
ATOM     67  C   UNL A   1      38.401  33.139  38.609  1.00  0.00     0.091 A 
ATOM     68  F   UNL A   1      38.118  31.121  37.365  1.00  0.00    -0.205 F 
ATOM     69  C   UNL A   1      39.050  34.375  38.765  1.00  0.00     0.022 A 
BRANCH  67  70
ATOM     70  S   UNL A   1      37.171  32.705  39.845  1.00  0.00     0.127 S 
ATOM     71  O   UNL A   1      37.314  33.804  40.800  1.00  0.00    -0.237 OA
ATOM     72  O   UNL A   1      35.931  32.729  39.070  1.00  0.00    -0.237 OA
ATOM     73  O   UNL A   1      37.551  31.391  40.343  1.00  0.00    -0.744 OA
ENDBRANCH  67  70
ENDBRANCH  49  63
BRANCH  50  74
ATOM     74  C   UNL A   1      41.397  27.858  28.036  1.00  0.00     0.023 A 
ATOM     75  C   UNL A   1      41.930  28.582  26.952  1.00  0.00     0.012 A 
ATOM     76  C   UNL A   1      41.190  26.472  27.902  1.00  0.00     0.148 A 
ATOM     77  C   UNL A   1      42.222  27.944  25.746  1.00  0.00     0.002 A 
ATOM     78  C   UNL A   1      41.536  25.833  26.716  1.00  0.00     0.091 A 
ATOM     79  F   UNL A   1      40.669  25.802  28.940  1.00  0.00    -0.205 F 
ATOM     80  C   UNL A   1      42.037  26.569  25.632  1.00  0.00     0.022 A 
BRANCH  78  81
ATOM     81  S   UNL A   1      41.463  24.047  26.534  1.00  0.00     0.127 S 
ATOM     82  O   UNL A   1      40.030  23.824  26.355  1.00  0.00    -0.237 OA
ATOM     83  O   UNL A   1      42.275  23.829  25.336  1.00  0.00    -0.237 OA
ATOM     84  O   UNL A   1      42.043  23.505  27.755  1.00  0.00    -0.744 OA
ENDBRANCH  78  81
ENDBRANCH  50  74
BRANCH  62  85
ATOM     85  C   UNL A   1      44.168  27.582  34.439  1.00  0.00     0.023 A 
ATOM     86  C   UNL A   1      45.420  28.194  34.653  1.00  0.00     0.012 A 
ATOM     87  C   UNL A   1      43.974  26.245  34.836  1.00  0.00     0.148 A 
ATOM     88  C   UNL A   1      46.471  27.475  35.221  1.00  0.00     0.002 A 
ATOM     89  C   UNL A   1      45.013  25.550  35.445  1.00  0.00     0.091 A 
ATOM     90  F   UNL A   1      42.784  25.674  34.605  1.00  0.00    -0.205 F 
ATOM     91  C   UNL A   1      46.266  26.159  35.627  1.00  0.00     0.022 A 
BRANCH  89  92
ATOM     92  S   UNL A   1      44.809  23.882  36.082  1.00  0.00     0.127 S 
ATOM     93  O   UNL A   1      44.929  24.097  37.523  1.00  0.00    -0.237 OA
ATOM     94  O   UNL A   1      43.462  23.536  35.625  1.00  0.00    -0.237 OA
ATOM     95  O   UNL A   1      45.872  23.091  35.474  1.00  0.00    -0.744 OA
ENDBRANCH  89  92
ENDBRANCH  62  85
ENDBRANCH  36  37
ENDBRANCH  28  31
ENDBRANCH  26  27
ENDBRANCH  25  26
ENDBRANCH  24  25
ENDBRANCH   1  24
TORSDOF 21
ENDMDL
