MODEL 1
REMARK VINA RESULT:     -11.2      0.000      0.000
REMARK SMILES [NH3+]Cc1ccc(C(=O)N2[C@@H](C(=O)NCCCCCCNC(=O)c3ccc(-c4c5nc(c(-c6cccc(S(=O)(=O)[O-])c6F)c6ccc([nH]6)c(-c6cccc(S(=O)(=O)[O-])c6F)c6nc(c(-c7cccc(S(=O)(=O)[O-])c7F)c7ccc4[nH]7)C=C6)C=C5)cc3)C[C@H]3CCCC[C@@H]32)o1
REMARK SMILES IDX 16 1 15 2 14 3 13 4 11 5 12 6 10 8 9 9 92 10 86 11 87 12
REMARK SMILES IDX 91 13 88 14 90 15 89 16 7 17 8 18 6 19 3 20 4 21 93 22 5 23
REMARK SMILES IDX 2 24 1 25 17 29 18 30 19 31 20 32 21 33 22 35 23 36 24 37
REMARK SMILES IDX 85 38 25 39 84 40 26 41 27 42 28 43 78 44 29 45 83 46 77 47
REMARK SMILES IDX 79 48 30 49 82 50 76 51 75 52 31 54 63 55 43 56 62 57 44 58
REMARK SMILES IDX 47 59 61 60 80 61 45 62 46 63 60 65 81 66 48 67 32 68 33 69
REMARK SMILES IDX 41 70 34 71 36 72 42 73 35 74 37 75 38 76 39 77 40 78 64 79
REMARK SMILES IDX 65 80 73 81 66 82 68 83 74 84 67 85 69 86 70 87 71 88 72 89
REMARK SMILES IDX 49 90 50 91 58 92 51 93 53 94 59 95 52 96 54 97 55 98 56 99
REMARK SMILES IDX 57 100
REMARK H PARENT 13 7 1 26 1 27 1 28 20 34 79 53 47 64
REMARK Flexibility Score: inf
ROOT
ATOM      1  C   UNL A   1      34.203  22.401  23.597  1.00  0.00     0.002 C 
ENDROOT
BRANCH   1   2
ATOM      2  C   UNL A   1      32.990  22.576  22.672  1.00  0.00     0.021 C 
BRANCH   2   3
ATOM      3  C   UNL A   1      32.815  23.991  22.120  1.00  0.00     0.116 C 
BRANCH   3   4
ATOM      4  N   UNL A   1      31.539  24.548  22.526  1.00  0.00    -0.354 N 
ATOM      5  C   UNL A   1      31.252  25.690  23.216  1.00  0.00     0.242 C 
ATOM      6  O   UNL A   1      30.073  25.880  23.530  1.00  0.00    -0.273 OA
ATOM      7  H   UNL A   1      30.752  24.018  22.262  1.00  0.00     0.163 HD
BRANCH   5   8
ATOM      8  C   UNL A   1      32.351  26.752  23.444  1.00  0.00     0.175 C 
ATOM      9  N   UNL A   1      32.782  26.779  24.855  1.00  0.00    -0.321 N 
ATOM     10  C   UNL A   1      32.057  27.809  25.565  1.00  0.00     0.089 C 
ATOM     11  C   UNL A   1      31.703  28.137  23.213  1.00  0.00     0.041 C 
ATOM     12  C   UNL A   1      32.045  28.902  24.490  1.00  0.00     0.014 C 
ATOM     13  C   UNL A   1      32.650  28.382  26.849  1.00  0.00     0.025 C 
ATOM     14  C   UNL A   1      31.147  30.057  24.888  1.00  0.00     0.006 C 
ATOM     15  C   UNL A   1      31.834  29.600  27.305  1.00  0.00     0.002 C 
ATOM     16  C   UNL A   1      31.661  30.655  26.205  1.00  0.00     0.000 C 
BRANCH   9  17
ATOM     17  C   UNL A   1      33.639  25.884  25.466  1.00  0.00     0.290 C 
ATOM     18  O   UNL A   1      34.861  25.972  25.309  1.00  0.00    -0.265 OA
BRANCH  17  19
ATOM     19  C   UNL A   1      33.025  24.750  26.141  1.00  0.00     0.192 A 
ATOM     20  C   UNL A   1      33.042  22.738  27.064  1.00  0.00     0.159 A 
ATOM     21  C   UNL A   1      31.716  23.083  26.913  1.00  0.00     0.052 A 
ATOM     22  O   UNL A   1      33.836  23.753  26.618  1.00  0.00    -0.450 OA
ATOM     23  C   UNL A   1      31.705  24.356  26.297  1.00  0.00     0.057 A 
BRANCH  20  24
ATOM     24  C   UNL A   1      33.749  21.527  27.563  1.00  0.00     0.335 C 
BRANCH  24  25
ATOM     25  N   UNL A   1      33.338  20.312  26.862  1.00  0.00    -0.351 N 
ATOM     26  H   UNL A   1      34.148  19.891  26.409  1.00  0.00     0.344 HD
ATOM     27  H   UNL A   1      32.638  20.547  26.157  1.00  0.00     0.344 HD
ATOM     28  H   UNL A   1      32.939  19.652  27.529  1.00  0.00     0.344 HD
ENDBRANCH  24  25
ENDBRANCH  20  24
ENDBRANCH  17  19
ENDBRANCH   9  17
ENDBRANCH   5   8
ENDBRANCH   3   4
ENDBRANCH   2   3
ENDBRANCH   1   2
BRANCH   1  29
ATOM     29  C   UNL A   1      35.368  23.366  23.349  1.00  0.00     0.002 C 
BRANCH  29  30
ATOM     30  C   UNL A   1      36.739  22.884  23.832  1.00  0.00     0.021 C 
BRANCH  30  31
ATOM     31  C   UNL A   1      37.054  23.176  25.297  1.00  0.00     0.116 C 
BRANCH  31  32
ATOM     32  N   UNL A   1      38.020  22.246  25.856  1.00  0.00    -0.352 N 
ATOM     33  C   UNL A   1      39.184  22.513  26.535  1.00  0.00     0.251 C 
ATOM     34  H   UNL A   1      37.812  21.292  25.730  1.00  0.00     0.163 HD
ATOM     35  O   UNL A   1      39.957  21.598  26.807  1.00  0.00    -0.269 OA
BRANCH  33  36
ATOM     36  C   UNL A   1      39.520  23.903  26.916  1.00  0.00     0.039 A 
ATOM     37  C   UNL A   1      39.277  24.318  28.230  1.00  0.00     0.014 A 
ATOM     38  C   UNL A   1      40.054  24.799  25.985  1.00  0.00     0.014 A 
ATOM     39  C   UNL A   1      39.623  25.614  28.624  1.00  0.00     0.010 A 
ATOM     40  C   UNL A   1      40.441  26.074  26.393  1.00  0.00     0.010 A 
ATOM     41  C   UNL A   1      40.229  26.494  27.715  1.00  0.00    -0.014 A 
BRANCH  41  42
ATOM     42  C   UNL A   1      40.663  27.851  28.130  1.00  0.00     0.031 A 
ATOM     43  C   UNL A   1      42.124  28.212  28.137  1.00  0.00     0.074 A 
ATOM     44  C   UNL A   1      39.750  28.728  28.591  1.00  0.00     0.049 A 
ATOM     45  N   UNL A   1      42.695  29.322  28.525  1.00  0.00    -0.248 NA
ATOM     46  C   UNL A   1      43.067  27.184  27.666  1.00  0.00     0.031 C 
ATOM     47  C   UNL A   1      38.314  28.469  28.710  1.00  0.00     0.029 A 
ATOM     48  N   UNL A   1      39.899  30.004  29.076  1.00  0.00    -0.354 N 
ATOM     49  C   UNL A   1      44.061  29.116  28.386  1.00  0.00     0.074 A 
ATOM     50  C   UNL A   1      44.236  27.767  27.892  1.00  0.00     0.031 C 
ATOM     51  C   UNL A   1      37.716  29.548  29.239  1.00  0.00     0.029 A 
ATOM     52  C   UNL A   1      38.724  30.569  29.510  1.00  0.00     0.049 A 
ATOM     53  H   UNL A   1      40.766  30.471  29.108  1.00  0.00     0.167 HD
ATOM     54  C   UNL A   1      45.076  29.980  28.619  1.00  0.00     0.034 A 
ATOM     55  C   UNL A   1      38.484  31.776  30.063  1.00  0.00     0.034 A 
ATOM     56  C   UNL A   1      44.899  31.342  29.043  1.00  0.00     0.049 A 
ATOM     57  C   UNL A   1      39.623  32.742  30.239  1.00  0.00     0.074 A 
ATOM     58  C   UNL A   1      45.862  32.323  29.209  1.00  0.00     0.029 A 
ATOM     59  N   UNL A   1      43.681  31.917  29.363  1.00  0.00    -0.354 N 
ATOM     60  N   UNL A   1      40.889  32.585  29.939  1.00  0.00    -0.248 NA
ATOM     61  C   UNL A   1      39.296  34.064  30.793  1.00  0.00     0.031 C 
ATOM     62  C   UNL A   1      45.222  33.495  29.627  1.00  0.00     0.029 A 
ATOM     63  C   UNL A   1      43.863  33.240  29.725  1.00  0.00     0.049 A 
ATOM     64  H   UNL A   1      42.813  31.453  29.337  1.00  0.00     0.167 HD
ATOM     65  C   UNL A   1      41.504  33.795  30.238  1.00  0.00     0.074 A 
ATOM     66  C   UNL A   1      40.468  34.684  30.723  1.00  0.00     0.031 C 
ATOM     67  C   UNL A   1      42.812  34.133  30.140  1.00  0.00     0.034 A 
BRANCH  54  68
ATOM     68  C   UNL A   1      46.476  29.504  28.341  1.00  0.00     0.023 A 
ATOM     69  C   UNL A   1      46.982  29.594  27.029  1.00  0.00     0.012 A 
ATOM     70  C   UNL A   1      47.308  29.035  29.375  1.00  0.00     0.148 A 
ATOM     71  C   UNL A   1      48.290  29.207  26.745  1.00  0.00     0.002 A 
ATOM     72  C   UNL A   1      48.622  28.679  29.090  1.00  0.00     0.091 A 
ATOM     73  F   UNL A   1      46.799  28.931  30.611  1.00  0.00    -0.205 F 
ATOM     74  C   UNL A   1      49.112  28.759  27.776  1.00  0.00     0.022 A 
BRANCH  72  75
ATOM     75  S   UNL A   1      49.773  28.151  30.365  1.00  0.00     0.127 S 
ATOM     76  O   UNL A   1      49.136  26.928  30.850  1.00  0.00    -0.237 OA
ATOM     77  O   UNL A   1      51.005  27.937  29.605  1.00  0.00    -0.237 OA
ATOM     78  O   UNL A   1      49.838  29.251  31.319  1.00  0.00    -0.744 OA
ENDBRANCH  72  75
ENDBRANCH  54  68
BRANCH  55  79
ATOM     79  C   UNL A   1      37.088  32.167  30.404  1.00  0.00     0.023 A 
ATOM     80  C   UNL A   1      36.608  31.927  31.706  1.00  0.00     0.012 A 
ATOM     81  C   UNL A   1      36.250  32.809  29.472  1.00  0.00     0.148 A 
ATOM     82  C   UNL A   1      35.314  32.297  32.067  1.00  0.00     0.002 A 
ATOM     83  C   UNL A   1      34.976  33.219  29.854  1.00  0.00     0.091 A 
ATOM     84  F   UNL A   1      36.711  33.012  28.230  1.00  0.00    -0.205 F 
ATOM     85  C   UNL A   1      34.501  32.953  31.146  1.00  0.00     0.022 A 
BRANCH  83  86
ATOM     86  S   UNL A   1      33.943  34.188  28.750  1.00  0.00     0.127 S 
ATOM     87  O   UNL A   1      34.844  35.267  28.358  1.00  0.00    -0.237 OA
ATOM     88  O   UNL A   1      33.628  33.232  27.686  1.00  0.00    -0.237 OA
ATOM     89  O   UNL A   1      32.791  34.570  29.558  1.00  0.00    -0.744 OA
ENDBRANCH  83  86
ENDBRANCH  55  79
BRANCH  67  90
ATOM     90  C   UNL A   1      43.206  35.527  30.546  1.00  0.00     0.023 A 
ATOM     91  C   UNL A   1      43.662  35.758  31.858  1.00  0.00     0.012 A 
ATOM     92  C   UNL A   1      43.210  36.581  29.614  1.00  0.00     0.148 A 
ATOM     93  C   UNL A   1      44.098  37.025  32.243  1.00  0.00     0.002 A 
ATOM     94  C   UNL A   1      43.679  37.834  29.995  1.00  0.00     0.091 A 
ATOM     95  F   UNL A   1      42.748  36.348  28.377  1.00  0.00    -0.205 F 
ATOM     96  C   UNL A   1      44.118  38.060  31.310  1.00  0.00     0.022 A 
BRANCH  94  97
ATOM     97  S   UNL A   1      43.809  39.189  28.822  1.00  0.00     0.127 S 
ATOM     98  O   UNL A   1      42.433  39.308  28.346  1.00  0.00    -0.237 OA
ATOM     99  O   UNL A   1      44.260  40.299  29.665  1.00  0.00    -0.237 OA
ATOM    100  O   UNL A   1      44.789  38.755  27.836  1.00  0.00    -0.744 OA
ENDBRANCH  94  97
ENDBRANCH  67  90
ENDBRANCH  41  42
ENDBRANCH  33  36
ENDBRANCH  31  32
ENDBRANCH  30  31
ENDBRANCH  29  30
ENDBRANCH   1  29
TORSDOF 20
ENDMDL
MODEL 2
REMARK VINA RESULT:     -11.2      4.758      9.861
REMARK SMILES [NH3+]Cc1ccc(C(=O)N2[C@@H](C(=O)NCCCCCCNC(=O)c3ccc(-c4c5nc(c(-c6cccc(S(=O)(=O)[O-])c6F)c6ccc([nH]6)c(-c6cccc(S(=O)(=O)[O-])c6F)c6nc(c(-c7cccc(S(=O)(=O)[O-])c7F)c7ccc4[nH]7)C=C6)C=C5)cc3)C[C@H]3CCCC[C@@H]32)o1
REMARK SMILES IDX 16 1 15 2 14 3 13 4 11 5 12 6 10 8 9 9 92 10 86 11 87 12
REMARK SMILES IDX 91 13 88 14 90 15 89 16 7 17 8 18 6 19 3 20 4 21 93 22 5 23
REMARK SMILES IDX 2 24 1 25 17 29 18 30 19 31 20 32 21 33 22 35 23 36 24 37
REMARK SMILES IDX 85 38 25 39 84 40 26 41 27 42 28 43 78 44 29 45 83 46 77 47
REMARK SMILES IDX 79 48 30 49 82 50 76 51 75 52 31 54 63 55 43 56 62 57 44 58
REMARK SMILES IDX 47 59 61 60 80 61 45 62 46 63 60 65 81 66 48 67 32 68 33 69
REMARK SMILES IDX 41 70 34 71 36 72 42 73 35 74 37 75 38 76 39 77 40 78 64 79
REMARK SMILES IDX 65 80 73 81 66 82 68 83 74 84 67 85 69 86 70 87 71 88 72 89
REMARK SMILES IDX 49 90 50 91 58 92 51 93 53 94 59 95 52 96 54 97 55 98 56 99
REMARK SMILES IDX 57 100
REMARK H PARENT 13 7 1 26 1 27 1 28 20 34 79 53 47 64
REMARK Flexibility Score: inf
ROOT
ATOM      1  C   UNL A   1      32.732  29.582  25.603  1.00  0.00     0.002 C 
ENDROOT
BRANCH   1   2
ATOM      2  C   UNL A   1      33.386  29.326  24.237  1.00  0.00     0.021 C 
BRANCH   2   3
ATOM      3  C   UNL A   1      34.040  27.952  24.096  1.00  0.00     0.116 C 
BRANCH   3   4
ATOM      4  N   UNL A   1      33.730  27.114  25.239  1.00  0.00    -0.354 N 
ATOM      5  C   UNL A   1      33.724  25.756  25.365  1.00  0.00     0.242 C 
ATOM      6  O   UNL A   1      33.312  25.288  26.430  1.00  0.00    -0.273 OA
ATOM      7  H   UNL A   1      33.482  27.604  26.057  1.00  0.00     0.163 HD
BRANCH   5   8
ATOM      8  C   UNL A   1      34.359  24.876  24.264  1.00  0.00     0.175 C 
ATOM      9  N   UNL A   1      33.328  24.308  23.375  1.00  0.00    -0.321 N 
ATOM     10  C   UNL A   1      32.980  22.977  23.822  1.00  0.00     0.089 C 
ATOM     11  C   UNL A   1      34.982  23.645  24.965  1.00  0.00     0.041 C 
ATOM     12  C   UNL A   1      34.370  22.466  24.212  1.00  0.00     0.014 C 
ATOM     13  C   UNL A   1      32.353  22.002  22.829  1.00  0.00     0.025 C 
ATOM     14  C   UNL A   1      34.286  21.132  24.928  1.00  0.00     0.006 C 
ATOM     15  C   UNL A   1      32.274  20.601  23.449  1.00  0.00     0.002 C 
ATOM     16  C   UNL A   1      33.619  20.110  24.000  1.00  0.00     0.000 C 
BRANCH   9  17
ATOM     17  C   UNL A   1      32.675  24.969  22.351  1.00  0.00     0.290 C 
ATOM     18  O   UNL A   1      33.160  25.011  21.216  1.00  0.00    -0.265 OA
BRANCH  17  19
ATOM     19  C   UNL A   1      31.502  25.748  22.722  1.00  0.00     0.192 A 
ATOM     20  C   UNL A   1      30.271  27.587  22.768  1.00  0.00     0.159 A 
ATOM     21  C   UNL A   1      29.718  26.728  23.694  1.00  0.00     0.052 A 
ATOM     22  O   UNL A   1      31.337  26.989  22.163  1.00  0.00    -0.450 OA
ATOM     23  C   UNL A   1      30.522  25.564  23.685  1.00  0.00     0.057 A 
BRANCH  20  24
ATOM     24  C   UNL A   1      29.972  28.981  22.338  1.00  0.00     0.335 C 
BRANCH  24  25
ATOM     25  N   UNL A   1      31.126  29.633  21.721  1.00  0.00    -0.351 N 
ATOM     26  H   UNL A   1      31.608  30.201  22.417  1.00  0.00     0.344 HD
ATOM     27  H   UNL A   1      30.811  30.228  20.955  1.00  0.00     0.344 HD
ATOM     28  H   UNL A   1      31.765  28.924  21.359  1.00  0.00     0.344 HD
ENDBRANCH  24  25
ENDBRANCH  20  24
ENDBRANCH  17  19
ENDBRANCH   9  17
ENDBRANCH   5   8
ENDBRANCH   3   4
ENDBRANCH   2   3
ENDBRANCH   1   2
BRANCH   1  29
ATOM     29  C   UNL A   1      31.444  30.412  25.574  1.00  0.00     0.002 C 
BRANCH  29  30
ATOM     30  C   UNL A   1      31.451  31.672  26.444  1.00  0.00     0.021 C 
BRANCH  30  31
ATOM     31  C   UNL A   1      32.762  31.951  27.177  1.00  0.00     0.116 C 
BRANCH  31  32
ATOM     32  N   UNL A   1      32.953  33.364  27.460  1.00  0.00    -0.352 N 
ATOM     33  C   UNL A   1      33.923  33.970  28.220  1.00  0.00     0.251 C 
ATOM     34  H   UNL A   1      32.295  33.970  27.049  1.00  0.00     0.163 HD
ATOM     35  O   UNL A   1      33.843  35.169  28.471  1.00  0.00    -0.269 OA
BRANCH  33  36
ATOM     36  C   UNL A   1      35.050  33.174  28.758  1.00  0.00     0.039 A 
ATOM     37  C   UNL A   1      36.354  33.524  28.394  1.00  0.00     0.014 A 
ATOM     38  C   UNL A   1      34.825  32.082  29.601  1.00  0.00     0.014 A 
ATOM     39  C   UNL A   1      37.436  32.814  28.921  1.00  0.00     0.010 A 
ATOM     40  C   UNL A   1      35.907  31.405  30.162  1.00  0.00     0.010 A 
ATOM     41  C   UNL A   1      37.222  31.764  29.827  1.00  0.00    -0.014 A 
BRANCH  41  42
ATOM     42  C   UNL A   1      38.358  31.038  30.449  1.00  0.00     0.031 A 
ATOM     43  C   UNL A   1      38.849  31.425  31.817  1.00  0.00     0.074 A 
ATOM     44  C   UNL A   1      39.008  30.093  29.742  1.00  0.00     0.049 A 
ATOM     45  N   UNL A   1      39.863  30.951  32.491  1.00  0.00    -0.248 NA
ATOM     46  C   UNL A   1      38.118  32.501  32.507  1.00  0.00     0.031 C 
ATOM     47  C   UNL A   1      38.680  29.685  28.374  1.00  0.00     0.029 A 
ATOM     48  N   UNL A   1      40.102  29.329  30.063  1.00  0.00    -0.354 N 
ATOM     49  C   UNL A   1      39.920  31.692  33.665  1.00  0.00     0.074 A 
ATOM     50  C   UNL A   1      38.847  32.661  33.604  1.00  0.00     0.031 C 
ATOM     51  C   UNL A   1      39.556  28.749  27.974  1.00  0.00     0.029 A 
ATOM     52  C   UNL A   1      40.515  28.502  29.045  1.00  0.00     0.049 A 
ATOM     53  H   UNL A   1      40.548  29.368  30.941  1.00  0.00     0.167 HD
ATOM     54  C   UNL A   1      40.769  31.559  34.710  1.00  0.00     0.034 A 
ATOM     55  C   UNL A   1      41.550  27.639  28.983  1.00  0.00     0.034 A 
ATOM     56  C   UNL A   1      41.790  30.551  34.801  1.00  0.00     0.049 A 
ATOM     57  C   UNL A   1      42.429  27.460  30.190  1.00  0.00     0.074 A 
ATOM     58  C   UNL A   1      42.633  30.274  35.864  1.00  0.00     0.029 A 
ATOM     59  N   UNL A   1      42.104  29.653  33.796  1.00  0.00    -0.354 N 
ATOM     60  N   UNL A   1      42.358  28.054  31.356  1.00  0.00    -0.248 NA
ATOM     61  C   UNL A   1      43.507  26.464  30.087  1.00  0.00     0.031 C 
ATOM     62  C   UNL A   1      43.456  29.203  35.500  1.00  0.00     0.029 A 
ATOM     63  C   UNL A   1      43.127  28.818  34.210  1.00  0.00     0.049 A 
ATOM     64  H   UNL A   1      41.665  29.614  32.916  1.00  0.00     0.167 HD
ATOM     65  C   UNL A   1      43.359  27.485  32.136  1.00  0.00     0.074 A 
ATOM     66  C   UNL A   1      44.010  26.483  31.316  1.00  0.00     0.031 C 
ATOM     67  C   UNL A   1      43.720  27.779  33.408  1.00  0.00     0.034 A 
BRANCH  54  68
ATOM     68  C   UNL A   1      40.578  32.478  35.886  1.00  0.00     0.023 A 
ATOM     69  C   UNL A   1      41.371  33.639  35.982  1.00  0.00     0.012 A 
ATOM     70  C   UNL A   1      39.583  32.235  36.851  1.00  0.00     0.148 A 
ATOM     71  C   UNL A   1      41.189  34.537  37.032  1.00  0.00     0.002 A 
ATOM     72  C   UNL A   1      39.386  33.151  37.879  1.00  0.00     0.091 A 
ATOM     73  F   UNL A   1      38.858  31.111  36.757  1.00  0.00    -0.205 F 
ATOM     74  C   UNL A   1      40.191  34.299  37.974  1.00  0.00     0.022 A 
BRANCH  72  75
ATOM     75  S   UNL A   1      38.084  32.960  39.101  1.00  0.00     0.127 S 
ATOM     76  O   UNL A   1      36.928  32.665  38.257  1.00  0.00    -0.237 OA
ATOM     77  O   UNL A   1      38.563  31.828  39.896  1.00  0.00    -0.237 OA
ATOM     78  O   UNL A   1      38.031  34.223  39.825  1.00  0.00    -0.744 OA
ENDBRANCH  72  75
ENDBRANCH  54  68
BRANCH  55  79
ATOM     79  C   UNL A   1      41.750  26.814  27.760  1.00  0.00     0.023 A 
ATOM     80  C   UNL A   1      42.342  27.404  26.626  1.00  0.00     0.012 A 
ATOM     81  C   UNL A   1      41.404  25.451  27.722  1.00  0.00     0.148 A 
ATOM     82  C   UNL A   1      42.562  26.658  25.469  1.00  0.00     0.002 A 
ATOM     83  C   UNL A   1      41.672  24.700  26.581  1.00  0.00     0.091 A 
ATOM     84  F   UNL A   1      40.823  24.907  28.800  1.00  0.00    -0.205 F 
ATOM     85  C   UNL A   1      42.239  25.303  25.449  1.00  0.00     0.022 A 
BRANCH  83  86
ATOM     86  S   UNL A   1      41.401  22.924  26.553  1.00  0.00     0.127 S 
ATOM     87  O   UNL A   1      41.986  22.507  27.823  1.00  0.00    -0.237 OA
ATOM     88  O   UNL A   1      39.942  22.825  26.484  1.00  0.00    -0.237 OA
ATOM     89  O   UNL A   1      42.079  22.464  25.347  1.00  0.00    -0.744 OA
ENDBRANCH  83  86
ENDBRANCH  55  79
BRANCH  67  90
ATOM     90  C   UNL A   1      44.859  27.003  34.008  1.00  0.00     0.023 A 
ATOM     91  C   UNL A   1      46.170  27.505  33.893  1.00  0.00     0.012 A 
ATOM     92  C   UNL A   1      44.627  25.834  34.756  1.00  0.00     0.148 A 
ATOM     93  C   UNL A   1      47.237  26.843  34.498  1.00  0.00     0.002 A 
ATOM     94  C   UNL A   1      45.692  25.198  35.386  1.00  0.00     0.091 A 
ATOM     95  F   UNL A   1      43.376  25.357  34.833  1.00  0.00    -0.205 F 
ATOM     96  C   UNL A   1      46.997  25.697  35.254  1.00  0.00     0.022 A 
BRANCH  94  97
ATOM     97  S   UNL A   1      45.443  23.765  36.442  1.00  0.00     0.127 S 
ATOM     98  O   UNL A   1      44.530  22.954  35.639  1.00  0.00    -0.237 OA
ATOM     99  O   UNL A   1      46.796  23.219  36.563  1.00  0.00    -0.237 OA
ATOM    100  O   UNL A   1      44.899  24.291  37.687  1.00  0.00    -0.744 OA
ENDBRANCH  94  97
ENDBRANCH  67  90
ENDBRANCH  41  42
ENDBRANCH  33  36
ENDBRANCH  31  32
ENDBRANCH  30  31
ENDBRANCH  29  30
ENDBRANCH   1  29
TORSDOF 20
ENDMDL
MODEL 3
REMARK VINA RESULT:     -11.1      4.936      8.765
REMARK SMILES [NH3+]Cc1ccc(C(=O)N2[C@@H](C(=O)NCCCCCCNC(=O)c3ccc(-c4c5nc(c(-c6cccc(S(=O)(=O)[O-])c6F)c6ccc([nH]6)c(-c6cccc(S(=O)(=O)[O-])c6F)c6nc(c(-c7cccc(S(=O)(=O)[O-])c7F)c7ccc4[nH]7)C=C6)C=C5)cc3)C[C@H]3CCCC[C@@H]32)o1
REMARK SMILES IDX 16 1 15 2 14 3 13 4 11 5 12 6 10 8 9 9 92 10 86 11 87 12
REMARK SMILES IDX 91 13 88 14 90 15 89 16 7 17 8 18 6 19 3 20 4 21 93 22 5 23
REMARK SMILES IDX 2 24 1 25 17 29 18 30 19 31 20 32 21 33 22 35 23 36 24 37
REMARK SMILES IDX 85 38 25 39 84 40 26 41 27 42 28 43 78 44 29 45 83 46 77 47
REMARK SMILES IDX 79 48 30 49 82 50 76 51 75 52 31 54 63 55 43 56 62 57 44 58
REMARK SMILES IDX 47 59 61 60 80 61 45 62 46 63 60 65 81 66 48 67 32 68 33 69
REMARK SMILES IDX 41 70 34 71 36 72 42 73 35 74 37 75 38 76 39 77 40 78 64 79
REMARK SMILES IDX 65 80 73 81 66 82 68 83 74 84 67 85 69 86 70 87 71 88 72 89
REMARK SMILES IDX 49 90 50 91 58 92 51 93 53 94 59 95 52 96 54 97 55 98 56 99
REMARK SMILES IDX 57 100
REMARK H PARENT 13 7 1 26 1 27 1 28 20 34 79 53 47 64
REMARK Flexibility Score: inf
ROOT
ATOM      1  C   UNL A   1      32.908  29.428  26.010  1.00  0.00     0.002 C 
ENDROOT
BRANCH   1   2
ATOM      2  C   UNL A   1      33.349  29.057  24.587  1.00  0.00     0.021 C 
BRANCH   2   3
ATOM      3  C   UNL A   1      34.042  27.699  24.474  1.00  0.00     0.116 C 
BRANCH   3   4
ATOM      4  N   UNL A   1      33.618  26.813  25.541  1.00  0.00    -0.354 N 
ATOM      5  C   UNL A   1      33.562  25.451  25.591  1.00  0.00     0.242 C 
ATOM      6  O   UNL A   1      33.054  24.942  26.593  1.00  0.00    -0.273 OA
ATOM      7  H   UNL A   1      33.322  27.268  26.363  1.00  0.00     0.163 HD
BRANCH   5   8
ATOM      8  C   UNL A   1      34.254  24.610  24.495  1.00  0.00     0.175 C 
ATOM      9  N   UNL A   1      33.268  24.044  23.554  1.00  0.00    -0.321 N 
ATOM     10  C   UNL A   1      32.929  22.698  23.956  1.00  0.00     0.089 C 
ATOM     11  C   UNL A   1      34.873  23.374  25.190  1.00  0.00     0.041 C 
ATOM     12  C   UNL A   1      34.313  22.202  24.387  1.00  0.00     0.014 C 
ATOM     13  C   UNL A   1      32.359  21.735  22.918  1.00  0.00     0.025 C 
ATOM     14  C   UNL A   1      34.228  20.850  25.069  1.00  0.00     0.006 C 
ATOM     15  C   UNL A   1      32.283  20.319  23.502  1.00  0.00     0.002 C 
ATOM     16  C   UNL A   1      33.615  19.839  24.092  1.00  0.00     0.000 C 
BRANCH   9  17
ATOM     17  C   UNL A   1      32.642  24.718  22.522  1.00  0.00     0.290 C 
ATOM     18  O   UNL A   1      33.153  24.767  21.399  1.00  0.00    -0.265 OA
BRANCH  17  19
ATOM     19  C   UNL A   1      31.466  25.500  22.873  1.00  0.00     0.192 A 
ATOM     20  C   UNL A   1      30.317  27.382  23.072  1.00  0.00     0.159 A 
ATOM     21  C   UNL A   1      29.615  26.424  23.773  1.00  0.00     0.052 A 
ATOM     22  O   UNL A   1      31.426  26.821  22.509  1.00  0.00    -0.450 OA
ATOM     23  C   UNL A   1      30.364  25.229  23.670  1.00  0.00     0.057 A 
BRANCH  20  24
ATOM     24  C   UNL A   1      30.135  28.842  22.843  1.00  0.00     0.335 C 
BRANCH  24  25
ATOM     25  N   UNL A   1      31.083  29.376  21.867  1.00  0.00    -0.351 N 
ATOM     26  H   UNL A   1      30.584  29.641  21.019  1.00  0.00     0.344 HD
ATOM     27  H   UNL A   1      31.778  28.663  21.644  1.00  0.00     0.344 HD
ATOM     28  H   UNL A   1      31.549  30.194  22.258  1.00  0.00     0.344 HD
ENDBRANCH  24  25
ENDBRANCH  20  24
ENDBRANCH  17  19
ENDBRANCH   9  17
ENDBRANCH   5   8
ENDBRANCH   3   4
ENDBRANCH   2   3
ENDBRANCH   1   2
BRANCH   1  29
ATOM     29  C   UNL A   1      31.491  29.999  26.134  1.00  0.00     0.002 C 
BRANCH  29  30
ATOM     30  C   UNL A   1      31.406  31.511  26.361  1.00  0.00     0.021 C 
BRANCH  30  31
ATOM     31  C   UNL A   1      32.659  32.153  26.953  1.00  0.00     0.116 C 
BRANCH  31  32
ATOM     32  N   UNL A   1      32.452  33.544  27.319  1.00  0.00    -0.352 N 
ATOM     33  C   UNL A   1      33.104  34.294  28.268  1.00  0.00     0.251 C 
ATOM     34  H   UNL A   1      31.747  34.014  26.818  1.00  0.00     0.163 HD
ATOM     35  O   UNL A   1      32.695  35.418  28.545  1.00  0.00    -0.269 OA
BRANCH  33  36
ATOM     36  C   UNL A   1      34.281  33.739  28.973  1.00  0.00     0.039 A 
ATOM     37  C   UNL A   1      34.078  32.789  29.978  1.00  0.00     0.014 A 
ATOM     38  C   UNL A   1      35.576  34.163  28.659  1.00  0.00     0.014 A 
ATOM     39  C   UNL A   1      35.177  32.221  30.629  1.00  0.00     0.010 A 
ATOM     40  C   UNL A   1      36.671  33.562  29.276  1.00  0.00     0.010 A 
ATOM     41  C   UNL A   1      36.482  32.586  30.268  1.00  0.00    -0.014 A 
BRANCH  41  42
ATOM     42  C   UNL A   1      37.664  31.949  30.901  1.00  0.00     0.031 A 
ATOM     43  C   UNL A   1      38.438  30.887  30.168  1.00  0.00     0.074 A 
ATOM     44  C   UNL A   1      37.983  32.259  32.172  1.00  0.00     0.049 A 
ATOM     45  N   UNL A   1      39.454  30.176  30.582  1.00  0.00    -0.248 NA
ATOM     46  C   UNL A   1      37.998  30.566  28.800  1.00  0.00     0.031 C 
ATOM     47  C   UNL A   1      37.261  33.212  33.017  1.00  0.00     0.029 A 
ATOM     48  N   UNL A   1      38.978  31.780  32.988  1.00  0.00    -0.354 N 
ATOM     49  C   UNL A   1      39.752  29.299  29.548  1.00  0.00     0.074 A 
ATOM     50  C   UNL A   1      38.797  29.554  28.490  1.00  0.00     0.031 C 
ATOM     51  C   UNL A   1      37.833  33.244  34.231  1.00  0.00     0.029 A 
ATOM     52  C   UNL A   1      38.950  32.305  34.258  1.00  0.00     0.049 A 
ATOM     53  H   UNL A   1      39.649  31.122  32.691  1.00  0.00     0.167 HD
ATOM     54  C   UNL A   1      40.747  28.385  29.472  1.00  0.00     0.034 A 
ATOM     55  C   UNL A   1      39.738  32.059  35.325  1.00  0.00     0.034 A 
ATOM     56  C   UNL A   1      41.737  28.180  30.494  1.00  0.00     0.049 A 
ATOM     57  C   UNL A   1      40.882  31.093  35.185  1.00  0.00     0.074 A 
ATOM     58  C   UNL A   1      42.843  27.347  30.465  1.00  0.00     0.029 A 
ATOM     59  N   UNL A   1      41.746  28.815  31.724  1.00  0.00    -0.354 N 
ATOM     60  N   UNL A   1      41.249  30.398  34.137  1.00  0.00    -0.248 NA
ATOM     61  C   UNL A   1      41.745  30.906  36.362  1.00  0.00     0.031 C 
ATOM     62  C   UNL A   1      43.523  27.483  31.680  1.00  0.00     0.029 A 
ATOM     63  C   UNL A   1      42.837  28.397  32.465  1.00  0.00     0.049 A 
ATOM     64  H   UNL A   1      41.075  29.468  32.027  1.00  0.00     0.167 HD
ATOM     65  C   UNL A   1      42.400  29.716  34.515  1.00  0.00     0.074 A 
ATOM     66  C   UNL A   1      42.682  30.097  35.885  1.00  0.00     0.031 C 
ATOM     67  C   UNL A   1      43.144  28.837  33.802  1.00  0.00     0.034 A 
BRANCH  54  68
ATOM     68  C   UNL A   1      40.868  27.587  28.203  1.00  0.00     0.023 A 
ATOM     69  C   UNL A   1      41.489  28.174  27.082  1.00  0.00     0.012 A 
ATOM     70  C   UNL A   1      40.433  26.251  28.134  1.00  0.00     0.148 A 
ATOM     71  C   UNL A   1      41.661  27.448  25.905  1.00  0.00     0.002 A 
ATOM     72  C   UNL A   1      40.635  25.522  26.966  1.00  0.00     0.091 A 
ATOM     73  F   UNL A   1      39.819  25.720  29.202  1.00  0.00    -0.205 F 
ATOM     74  C   UNL A   1      41.243  26.121  25.851  1.00  0.00     0.022 A 
BRANCH  72  75
ATOM     75  S   UNL A   1      40.187  23.788  26.825  1.00  0.00     0.127 S 
ATOM     76  O   UNL A   1      41.088  23.335  25.768  1.00  0.00    -0.237 OA
ATOM     77  O   UNL A   1      40.503  23.273  28.158  1.00  0.00    -0.237 OA
ATOM     78  O   UNL A   1      38.767  23.772  26.495  1.00  0.00    -0.744 OA
ENDBRANCH  72  75
ENDBRANCH  54  68
BRANCH  55  79
ATOM     79  C   UNL A   1      39.522  32.812  36.591  1.00  0.00     0.023 A 
ATOM     80  C   UNL A   1      40.193  34.036  36.783  1.00  0.00     0.012 A 
ATOM     81  C   UNL A   1      38.633  32.356  37.582  1.00  0.00     0.148 A 
ATOM     82  C   UNL A   1      40.000  34.779  37.947  1.00  0.00     0.002 A 
ATOM     83  C   UNL A   1      38.408  33.126  38.720  1.00  0.00     0.091 A 
ATOM     84  F   UNL A   1      38.017  31.180  37.397  1.00  0.00    -0.205 F 
ATOM     85  C   UNL A   1      39.100  34.330  38.911  1.00  0.00     0.022 A 
BRANCH  83  86
ATOM     86  S   UNL A   1      37.159  32.662  39.924  1.00  0.00     0.127 S 
ATOM     87  O   UNL A   1      35.950  32.619  39.107  1.00  0.00    -0.237 OA
ATOM     88  O   UNL A   1      37.633  31.357  40.390  1.00  0.00    -0.237 OA
ATOM     89  O   UNL A   1      37.216  33.706  40.940  1.00  0.00    -0.744 OA
ENDBRANCH  83  86
ENDBRANCH  55  79
BRANCH  67  90
ATOM     90  C   UNL A   1      44.347  28.234  34.471  1.00  0.00     0.023 A 
ATOM     91  C   UNL A   1      45.568  28.936  34.455  1.00  0.00     0.012 A 
ATOM     92  C   UNL A   1      44.252  27.025  35.185  1.00  0.00     0.148 A 
ATOM     93  C   UNL A   1      46.682  28.434  35.126  1.00  0.00     0.002 A 
ATOM     94  C   UNL A   1      45.358  26.547  35.880  1.00  0.00     0.091 A 
ATOM     95  F   UNL A   1      43.089  26.357  35.167  1.00  0.00    -0.205 F 
ATOM     96  C   UNL A   1      46.575  27.247  35.848  1.00  0.00     0.022 A 
BRANCH  94  97
ATOM     97  S   UNL A   1      45.266  25.069  36.898  1.00  0.00     0.127 S 
ATOM     98  O   UNL A   1      46.614  25.005  37.458  1.00  0.00    -0.237 OA
ATOM     99  O   UNL A   1      44.220  25.410  37.864  1.00  0.00    -0.237 OA
ATOM    100  O   UNL A   1      44.905  23.992  35.985  1.00  0.00    -0.744 OA
ENDBRANCH  94  97
ENDBRANCH  67  90
ENDBRANCH  41  42
ENDBRANCH  33  36
ENDBRANCH  31  32
ENDBRANCH  30  31
ENDBRANCH  29  30
ENDBRANCH   1  29
TORSDOF 20
ENDMDL
