MODEL 1
REMARK VINA RESULT:     -13.6      0.000      0.000
REMARK SMILES Cc1cc(C(=O)NCCCCCCNC(=O)c2ccc(-c3c4nc(c(-c5cccc(S(=O)(=O)[O-])c5F)c5ccc([nH]5)c(-c5cccc(S(=O)(=O)[O-])c5F)c5nc(c(-c6cccc(S(=O)(=O)[O-])c6F)c6ccc3[nH]6)C=C5)C=C4)cc2)ccc1NC(=O)N1C[C@@H](C)[C@H](C)C1
REMARK SMILES IDX 11 1 10 2 9 3 8 4 7 5 5 6 6 7 4 9 1 10 2 11 3 12 82 13 81 14
REMARK SMILES IDX 80 15 83 16 84 17 85 19 86 20 87 21 92 22 88 23 90 24 89 25
REMARK SMILES IDX 91 26 12 27 13 28 14 29 15 30 16 32 17 33 18 34 79 35 19 36
REMARK SMILES IDX 78 37 20 38 21 39 22 40 72 41 23 42 77 43 71 44 73 45 24 46
REMARK SMILES IDX 76 47 70 48 69 49 25 51 57 52 37 53 56 54 38 55 41 56 55 57
REMARK SMILES IDX 74 58 39 59 40 60 54 62 75 63 42 64 26 65 27 66 35 67 28 68
REMARK SMILES IDX 30 69 36 70 29 71 31 72 32 73 33 74 34 75 58 76 59 77 67 78
REMARK SMILES IDX 60 79 62 80 68 81 61 82 63 83 64 84 65 85 66 86 43 87 44 88
REMARK SMILES IDX 52 89 45 90 47 91 53 92 46 93 48 94 49 95 50 96 51 97
REMARK H PARENT 7 8 83 18 14 31 73 50 41 61
REMARK Flexibility Score: inf
ROOT
ATOM      1  C   UNL A   1      33.836  28.276  26.646  1.00  0.00     0.002 C 
ENDROOT
BRANCH   1   2
ATOM      2  C   UNL A   1      32.431  28.356  27.266  1.00  0.00     0.002 C 
BRANCH   2   3
ATOM      3  C   UNL A   1      31.426  29.262  26.544  1.00  0.00     0.021 C 
BRANCH   3   4
ATOM      4  C   UNL A   1      31.874  29.716  25.152  1.00  0.00     0.116 C 
BRANCH   4   5
ATOM      5  N   UNL A   1      30.744  29.845  24.247  1.00  0.00    -0.352 N 
ATOM      6  C   UNL A   1      30.065  28.904  23.512  1.00  0.00     0.251 C 
ATOM      7  O   UNL A   1      29.042  29.236  22.914  1.00  0.00    -0.269 OA
ATOM      8  H   UNL A   1      30.408  30.763  24.143  1.00  0.00     0.163 HD
BRANCH   6   9
ATOM      9  C   UNL A   1      30.488  27.481  23.498  1.00  0.00     0.040 A 
ATOM     10  C   UNL A   1      32.704  25.341  21.292  1.00  0.00     0.046 C 
ATOM     11  C   UNL A   1      31.656  25.683  22.315  1.00  0.00    -0.027 A 
ATOM     12  C   UNL A   1      31.345  27.049  22.480  1.00  0.00     0.019 A 
ATOM     13  C   UNL A   1      31.018  24.744  23.146  1.00  0.00     0.045 A 
ATOM     14  C   UNL A   1      30.327  25.209  24.271  1.00  0.00     0.027 A 
ATOM     15  C   UNL A   1      30.086  26.567  24.463  1.00  0.00     0.016 A 
BRANCH  13  16
ATOM     16  N   UNL A   1      31.096  23.364  22.871  1.00  0.00    -0.308 N 
ATOM     17  C   UNL A   1      32.131  22.491  23.048  1.00  0.00     0.321 C 
ATOM     18  H   UNL A   1      30.277  22.968  22.493  1.00  0.00     0.171 HD
ATOM     19  O   UNL A   1      32.189  21.494  22.326  1.00  0.00    -0.248 OA
ATOM     20  N   UNL A   1      33.044  22.728  24.043  1.00  0.00    -0.324 N 
ATOM     21  C   UNL A   1      34.417  22.276  23.922  1.00  0.00     0.125 C 
ATOM     22  C   UNL A   1      32.688  22.976  25.435  1.00  0.00     0.125 C 
ATOM     23  C   UNL A   1      34.890  22.014  25.349  1.00  0.00     0.010 C 
ATOM     24  C   UNL A   1      34.015  22.954  26.200  1.00  0.00     0.010 C 
ATOM     25  C   UNL A   1      36.380  22.266  25.522  1.00  0.00     0.010 C 
ATOM     26  C   UNL A   1      33.877  22.491  27.648  1.00  0.00     0.010 C 
ENDBRANCH  13  16
ENDBRANCH   6   9
ENDBRANCH   4   5
ENDBRANCH   3   4
ENDBRANCH   2   3
ENDBRANCH   1   2
BRANCH   1  27
ATOM     27  C   UNL A   1      34.613  29.591  26.580  1.00  0.00     0.021 C 
BRANCH  27  28
ATOM     28  C   UNL A   1      34.407  30.491  27.789  1.00  0.00     0.116 C 
BRANCH  28  29
ATOM     29  N   UNL A   1      35.425  31.515  27.926  1.00  0.00    -0.352 N 
ATOM     30  C   UNL A   1      36.740  31.403  28.335  1.00  0.00     0.251 C 
ATOM     31  H   UNL A   1      35.135  32.426  27.692  1.00  0.00     0.163 HD
ATOM     32  O   UNL A   1      37.348  32.432  28.622  1.00  0.00    -0.269 OA
BRANCH  30  33
ATOM     33  C   UNL A   1      37.434  30.090  28.282  1.00  0.00     0.039 A 
ATOM     34  C   UNL A   1      37.424  29.305  29.442  1.00  0.00     0.014 A 
ATOM     35  C   UNL A   1      38.267  29.743  27.223  1.00  0.00     0.014 A 
ATOM     36  C   UNL A   1      38.432  28.363  29.648  1.00  0.00     0.010 A 
ATOM     37  C   UNL A   1      39.313  28.879  27.453  1.00  0.00     0.010 A 
ATOM     38  C   UNL A   1      39.439  28.256  28.696  1.00  0.00    -0.014 A 
BRANCH  38  39
ATOM     39  C   UNL A   1      40.686  27.532  28.872  1.00  0.00     0.031 A 
ATOM     40  C   UNL A   1      40.712  26.075  28.664  1.00  0.00     0.074 A 
ATOM     41  C   UNL A   1      41.828  28.244  29.003  1.00  0.00     0.049 A 
ATOM     42  N   UNL A   1      41.728  25.327  28.914  1.00  0.00    -0.248 NA
ATOM     43  C   UNL A   1      39.564  25.343  28.150  1.00  0.00     0.031 C 
ATOM     44  C   UNL A   1      43.198  27.780  28.817  1.00  0.00     0.029 A 
ATOM     45  N   UNL A   1      41.986  29.523  29.546  1.00  0.00    -0.354 N 
ATOM     46  C   UNL A   1      41.478  24.081  28.382  1.00  0.00     0.074 A 
ATOM     47  C   UNL A   1      40.092  24.129  27.978  1.00  0.00     0.031 C 
ATOM     48  C   UNL A   1      44.021  28.590  29.504  1.00  0.00     0.029 A 
ATOM     49  C   UNL A   1      43.173  29.459  30.302  1.00  0.00     0.049 A 
ATOM     50  H   UNL A   1      41.394  30.301  29.428  1.00  0.00     0.167 HD
ATOM     51  C   UNL A   1      42.520  23.213  28.251  1.00  0.00     0.034 A 
ATOM     52  C   UNL A   1      43.184  29.533  31.670  1.00  0.00     0.034 A 
ATOM     53  C   UNL A   1      43.719  23.738  28.930  1.00  0.00     0.049 A 
ATOM     54  C   UNL A   1      43.766  28.290  32.345  1.00  0.00     0.074 A 
ATOM     55  C   UNL A   1      44.851  24.432  28.535  1.00  0.00     0.029 A 
ATOM     56  N   UNL A   1      43.685  23.828  30.310  1.00  0.00    -0.354 N 
ATOM     57  N   UNL A   1      44.223  27.241  31.712  1.00  0.00    -0.248 NA
ATOM     58  C   UNL A   1      43.783  28.100  33.797  1.00  0.00     0.031 C 
ATOM     59  C   UNL A   1      45.445  25.007  29.704  1.00  0.00     0.029 A 
ATOM     60  C   UNL A   1      44.695  24.634  30.806  1.00  0.00     0.049 A 
ATOM     61  H   UNL A   1      43.020  23.371  30.875  1.00  0.00     0.167 HD
ATOM     62  C   UNL A   1      44.420  26.218  32.604  1.00  0.00     0.074 A 
ATOM     63  C   UNL A   1      44.171  26.819  33.903  1.00  0.00     0.031 C 
ATOM     64  C   UNL A   1      44.703  24.931  32.234  1.00  0.00     0.034 A 
BRANCH  51  65
ATOM     65  C   UNL A   1      42.557  21.983  27.357  1.00  0.00     0.023 A 
ATOM     66  C   UNL A   1      41.578  20.990  27.593  1.00  0.00     0.012 A 
ATOM     67  C   UNL A   1      43.504  21.679  26.352  1.00  0.00     0.148 A 
ATOM     68  C   UNL A   1      41.584  19.751  26.939  1.00  0.00     0.002 A 
ATOM     69  C   UNL A   1      43.550  20.423  25.739  1.00  0.00     0.091 A 
ATOM     70  F   UNL A   1      44.340  22.619  25.914  1.00  0.00    -0.205 F 
ATOM     71  C   UNL A   1      42.589  19.454  26.032  1.00  0.00     0.022 A 
BRANCH  69  72
ATOM     72  S   UNL A   1      44.867  19.944  24.603  1.00  0.00     0.127 S 
ATOM     73  O   UNL A   1      44.574  20.774  23.432  1.00  0.00    -0.237 OA
ATOM     74  O   UNL A   1      46.071  20.330  25.334  1.00  0.00    -0.237 OA
ATOM     75  O   UNL A   1      44.710  18.513  24.370  1.00  0.00    -0.744 OA
ENDBRANCH  69  72
ENDBRANCH  51  65
BRANCH  52  76
ATOM     76  C   UNL A   1      42.057  30.355  32.220  1.00  0.00     0.023 A 
ATOM     77  C   UNL A   1      42.005  31.718  31.834  1.00  0.00     0.012 A 
ATOM     78  C   UNL A   1      40.895  29.762  32.744  1.00  0.00     0.148 A 
ATOM     79  C   UNL A   1      40.789  32.401  31.781  1.00  0.00     0.002 A 
ATOM     80  C   UNL A   1      39.693  30.466  32.726  1.00  0.00     0.091 A 
ATOM     81  F   UNL A   1      40.951  28.503  33.192  1.00  0.00    -0.205 F 
ATOM     82  C   UNL A   1      39.625  31.760  32.188  1.00  0.00     0.022 A 
BRANCH  80  83
ATOM     83  S   UNL A   1      38.175  29.691  33.295  1.00  0.00     0.127 S 
ATOM     84  O   UNL A   1      38.246  29.937  34.732  1.00  0.00    -0.237 OA
ATOM     85  O   UNL A   1      37.142  30.450  32.592  1.00  0.00    -0.237 OA
ATOM     86  O   UNL A   1      38.291  28.305  32.865  1.00  0.00    -0.744 OA
ENDBRANCH  80  83
ENDBRANCH  52  76
BRANCH  64  87
ATOM     87  C   UNL A   1      45.009  23.841  33.239  1.00  0.00     0.023 A 
ATOM     88  C   UNL A   1      43.985  22.969  33.664  1.00  0.00     0.012 A 
ATOM     89  C   UNL A   1      46.255  23.740  33.904  1.00  0.00     0.148 A 
ATOM     90  C   UNL A   1      44.201  22.008  34.656  1.00  0.00     0.002 A 
ATOM     91  C   UNL A   1      46.432  22.858  34.964  1.00  0.00     0.091 A 
ATOM     92  F   UNL A   1      47.297  24.462  33.478  1.00  0.00    -0.205 F 
ATOM     93  C   UNL A   1      45.419  21.966  35.322  1.00  0.00     0.022 A 
BRANCH  91  94
ATOM     94  S   UNL A   1      47.894  22.906  36.012  1.00  0.00     0.127 S 
ATOM     95  O   UNL A   1      48.016  24.340  36.292  1.00  0.00    -0.237 OA
ATOM     96  O   UNL A   1      47.475  22.098  37.153  1.00  0.00    -0.237 OA
ATOM     97  O   UNL A   1      48.978  22.363  35.205  1.00  0.00    -0.744 OA
ENDBRANCH  91  94
ENDBRANCH  64  87
ENDBRANCH  38  39
ENDBRANCH  30  33
ENDBRANCH  28  29
ENDBRANCH  27  28
ENDBRANCH   1  27
TORSDOF 17
ENDMDL
MODEL 2
REMARK VINA RESULT:     -13.4      4.434     10.574
REMARK SMILES Cc1cc(C(=O)NCCCCCCNC(=O)c2ccc(-c3c4nc(c(-c5cccc(S(=O)(=O)[O-])c5F)c5ccc([nH]5)c(-c5cccc(S(=O)(=O)[O-])c5F)c5nc(c(-c6cccc(S(=O)(=O)[O-])c6F)c6ccc3[nH]6)C=C5)C=C4)cc2)ccc1NC(=O)N1C[C@@H](C)[C@H](C)C1
REMARK SMILES IDX 11 1 10 2 9 3 8 4 7 5 5 6 6 7 4 9 1 10 2 11 3 12 82 13 81 14
REMARK SMILES IDX 80 15 83 16 84 17 85 19 86 20 87 21 92 22 88 23 90 24 89 25
REMARK SMILES IDX 91 26 12 27 13 28 14 29 15 30 16 32 17 33 18 34 79 35 19 36
REMARK SMILES IDX 78 37 20 38 21 39 22 40 72 41 23 42 77 43 71 44 73 45 24 46
REMARK SMILES IDX 76 47 70 48 69 49 25 51 57 52 37 53 56 54 38 55 41 56 55 57
REMARK SMILES IDX 74 58 39 59 40 60 54 62 75 63 42 64 26 65 27 66 35 67 28 68
REMARK SMILES IDX 30 69 36 70 29 71 31 72 32 73 33 74 34 75 58 76 59 77 67 78
REMARK SMILES IDX 60 79 62 80 68 81 61 82 63 83 64 84 65 85 66 86 43 87 44 88
REMARK SMILES IDX 52 89 45 90 47 91 53 92 46 93 48 94 49 95 50 96 51 97
REMARK H PARENT 7 8 83 18 14 31 73 50 41 61
REMARK Flexibility Score: inf
ROOT
ATOM      1  C   UNL A   1      37.316  20.651  24.909  1.00  0.00     0.002 C 
ENDROOT
BRANCH   1   2
ATOM      2  C   UNL A   1      35.797  20.885  24.915  1.00  0.00     0.002 C 
BRANCH   2   3
ATOM      3  C   UNL A   1      34.925  19.649  25.170  1.00  0.00     0.021 C 
BRANCH   3   4
ATOM      4  C   UNL A   1      33.456  19.965  25.466  1.00  0.00     0.116 C 
BRANCH   4   5
ATOM      5  N   UNL A   1      33.295  20.542  26.789  1.00  0.00    -0.352 N 
ATOM      6  C   UNL A   1      33.180  21.850  27.195  1.00  0.00     0.251 C 
ATOM      7  O   UNL A   1      32.913  22.089  28.372  1.00  0.00    -0.269 OA
ATOM      8  H   UNL A   1      33.263  19.885  27.520  1.00  0.00     0.163 HD
BRANCH   6   9
ATOM      9  C   UNL A   1      33.282  22.971  26.227  1.00  0.00     0.040 A 
ATOM     10  C   UNL A   1      31.387  24.044  23.127  1.00  0.00     0.046 C 
ATOM     11  C   UNL A   1      32.505  23.968  24.130  1.00  0.00    -0.027 A 
ATOM     12  C   UNL A   1      32.367  23.025  25.170  1.00  0.00     0.019 A 
ATOM     13  C   UNL A   1      33.636  24.804  24.128  1.00  0.00     0.045 A 
ATOM     14  C   UNL A   1      34.422  24.867  25.284  1.00  0.00     0.027 A 
ATOM     15  C   UNL A   1      34.232  23.978  26.338  1.00  0.00     0.016 A 
BRANCH  13  16
ATOM     16  N   UNL A   1      33.955  25.586  22.999  1.00  0.00    -0.308 N 
ATOM     17  C   UNL A   1      33.223  26.544  22.359  1.00  0.00     0.321 C 
ATOM     18  H   UNL A   1      34.845  25.414  22.612  1.00  0.00     0.171 HD
ATOM     19  O   UNL A   1      33.441  26.750  21.164  1.00  0.00    -0.248 OA
ATOM     20  N   UNL A   1      32.305  27.271  23.072  1.00  0.00    -0.324 N 
ATOM     21  C   UNL A   1      31.120  27.812  22.432  1.00  0.00     0.125 C 
ATOM     22  C   UNL A   1      32.606  27.977  24.312  1.00  0.00     0.125 C 
ATOM     23  C   UNL A   1      30.777  29.080  23.208  1.00  0.00     0.010 C 
ATOM     24  C   UNL A   1      31.361  28.817  24.609  1.00  0.00     0.010 C 
ATOM     25  C   UNL A   1      29.283  29.362  23.227  1.00  0.00     0.010 C 
ATOM     26  C   UNL A   1      31.663  30.101  25.379  1.00  0.00     0.010 C 
ENDBRANCH  13  16
ENDBRANCH   6   9
ENDBRANCH   4   5
ENDBRANCH   3   4
ENDBRANCH   2   3
ENDBRANCH   1   2
BRANCH   1  27
ATOM     27  C   UNL A   1      38.186  21.909  24.951  1.00  0.00     0.021 C 
BRANCH  27  28
ATOM     28  C   UNL A   1      38.150  22.640  26.283  1.00  0.00     0.116 C 
BRANCH  28  29
ATOM     29  N   UNL A   1      39.420  22.628  26.982  1.00  0.00    -0.352 N 
ATOM     30  C   UNL A   1      40.207  23.685  27.400  1.00  0.00     0.251 C 
ATOM     31  H   UNL A   1      39.776  21.734  27.189  1.00  0.00     0.163 HD
ATOM     32  O   UNL A   1      41.363  23.447  27.745  1.00  0.00    -0.269 OA
BRANCH  30  33
ATOM     33  C   UNL A   1      39.619  25.039  27.570  1.00  0.00     0.039 A 
ATOM     34  C   UNL A   1      40.037  26.042  26.684  1.00  0.00     0.014 A 
ATOM     35  C   UNL A   1      38.874  25.380  28.694  1.00  0.00     0.014 A 
ATOM     36  C   UNL A   1      39.956  27.380  27.068  1.00  0.00     0.010 A 
ATOM     37  C   UNL A   1      38.867  26.690  29.117  1.00  0.00     0.010 A 
ATOM     38  C   UNL A   1      39.484  27.673  28.342  1.00  0.00    -0.014 A 
BRANCH  38  39
ATOM     39  C   UNL A   1      39.579  28.968  28.994  1.00  0.00     0.031 A 
ATOM     40  C   UNL A   1      38.613  30.024  28.651  1.00  0.00     0.074 A 
ATOM     41  C   UNL A   1      40.410  29.092  30.054  1.00  0.00     0.049 A 
ATOM     42  N   UNL A   1      38.686  31.236  29.075  1.00  0.00    -0.248 NA
ATOM     43  C   UNL A   1      37.471  29.780  27.782  1.00  0.00     0.031 C 
ATOM     44  C   UNL A   1      40.406  30.131  31.077  1.00  0.00     0.029 A 
ATOM     45  N   UNL A   1      41.592  28.388  30.307  1.00  0.00    -0.354 N 
ATOM     46  C   UNL A   1      37.505  31.869  28.754  1.00  0.00     0.074 A 
ATOM     47  C   UNL A   1      36.814  30.937  27.893  1.00  0.00     0.031 C 
ATOM     48  C   UNL A   1      41.630  30.197  31.625  1.00  0.00     0.029 A 
ATOM     49  C   UNL A   1      42.488  29.345  30.821  1.00  0.00     0.049 A 
ATOM     50  H   UNL A   1      41.761  27.429  30.156  1.00  0.00     0.167 HD
ATOM     51  C   UNL A   1      37.222  33.056  29.361  1.00  0.00     0.034 A 
ATOM     52  C   UNL A   1      43.597  29.764  30.133  1.00  0.00     0.034 A 
ATOM     53  C   UNL A   1      38.392  33.542  30.115  1.00  0.00     0.049 A 
ATOM     54  C   UNL A   1      43.598  31.264  29.832  1.00  0.00     0.074 A 
ATOM     55  C   UNL A   1      38.800  33.495  31.438  1.00  0.00     0.029 A 
ATOM     56  N   UNL A   1      39.505  33.930  29.391  1.00  0.00    -0.354 N 
ATOM     57  N   UNL A   1      42.654  32.097  30.183  1.00  0.00    -0.248 NA
ATOM     58  C   UNL A   1      44.627  31.917  29.019  1.00  0.00     0.031 C 
ATOM     59  C   UNL A   1      40.203  33.781  31.476  1.00  0.00     0.029 A 
ATOM     60  C   UNL A   1      40.633  34.036  30.185  1.00  0.00     0.049 A 
ATOM     61  H   UNL A   1      39.496  34.110  28.423  1.00  0.00     0.167 HD
ATOM     62  C   UNL A   1      42.835  33.293  29.537  1.00  0.00     0.074 A 
ATOM     63  C   UNL A   1      44.108  33.145  28.852  1.00  0.00     0.031 C 
ATOM     64  C   UNL A   1      41.912  34.303  29.536  1.00  0.00     0.034 A 
BRANCH  51  65
ATOM     65  C   UNL A   1      35.852  33.709  29.460  1.00  0.00     0.023 A 
ATOM     66  C   UNL A   1      35.176  33.969  28.246  1.00  0.00     0.012 A 
ATOM     67  C   UNL A   1      35.196  34.153  30.632  1.00  0.00     0.148 A 
ATOM     68  C   UNL A   1      33.976  34.689  28.187  1.00  0.00     0.002 A 
ATOM     69  C   UNL A   1      34.028  34.922  30.575  1.00  0.00     0.091 A 
ATOM     70  F   UNL A   1      35.644  33.784  31.831  1.00  0.00    -0.205 F 
ATOM     71  C   UNL A   1      33.416  35.193  29.351  1.00  0.00     0.022 A 
BRANCH  69  72
ATOM     72  S   UNL A   1      33.284  35.667  32.040  1.00  0.00     0.127 S 
ATOM     73  O   UNL A   1      34.412  36.410  32.608  1.00  0.00    -0.237 OA
ATOM     74  O   UNL A   1      32.233  36.505  31.468  1.00  0.00    -0.237 OA
ATOM     75  O   UNL A   1      32.821  34.564  32.873  1.00  0.00    -0.744 OA
ENDBRANCH  69  72
ENDBRANCH  51  65
BRANCH  52  76
ATOM     76  C   UNL A   1      44.156  28.710  29.225  1.00  0.00     0.023 A 
ATOM     77  C   UNL A   1      44.597  27.506  29.830  1.00  0.00     0.012 A 
ATOM     78  C   UNL A   1      43.897  28.710  27.843  1.00  0.00     0.148 A 
ATOM     79  C   UNL A   1      44.583  26.303  29.122  1.00  0.00     0.002 A 
ATOM     80  C   UNL A   1      43.924  27.511  27.135  1.00  0.00     0.091 A 
ATOM     81  F   UNL A   1      43.563  29.858  27.243  1.00  0.00    -0.205 F 
ATOM     82  C   UNL A   1      44.205  26.299  27.784  1.00  0.00     0.022 A 
BRANCH  80  83
ATOM     83  S   UNL A   1      43.497  27.472  25.390  1.00  0.00     0.127 S 
ATOM     84  O   UNL A   1      44.772  27.824  24.772  1.00  0.00    -0.237 OA
ATOM     85  O   UNL A   1      43.080  26.085  25.192  1.00  0.00    -0.237 OA
ATOM     86  O   UNL A   1      42.420  28.441  25.259  1.00  0.00    -0.744 OA
ENDBRANCH  80  83
ENDBRANCH  52  76
BRANCH  64  87
ATOM     87  C   UNL A   1      42.175  35.649  28.893  1.00  0.00     0.023 A 
ATOM     88  C   UNL A   1      41.769  35.884  27.563  1.00  0.00     0.012 A 
ATOM     89  C   UNL A   1      42.954  36.655  29.514  1.00  0.00     0.148 A 
ATOM     90  C   UNL A   1      42.072  37.078  26.901  1.00  0.00     0.002 A 
ATOM     91  C   UNL A   1      43.344  37.792  28.815  1.00  0.00     0.091 A 
ATOM     92  F   UNL A   1      43.280  36.542  30.807  1.00  0.00    -0.205 F 
ATOM     93  C   UNL A   1      42.878  38.023  27.520  1.00  0.00     0.022 A 
BRANCH  91  94
ATOM     94  S   UNL A   1      44.565  38.942  29.469  1.00  0.00     0.127 S 
ATOM     95  O   UNL A   1      43.871  39.484  30.641  1.00  0.00    -0.237 OA
ATOM     96  O   UNL A   1      45.681  38.054  29.779  1.00  0.00    -0.237 OA
ATOM     97  O   UNL A   1      44.796  39.916  28.411  1.00  0.00    -0.744 OA
ENDBRANCH  91  94
ENDBRANCH  64  87
ENDBRANCH  38  39
ENDBRANCH  30  33
ENDBRANCH  28  29
ENDBRANCH  27  28
ENDBRANCH   1  27
TORSDOF 17
ENDMDL
MODEL 3
REMARK VINA RESULT:     -13.3      4.253     10.492
REMARK SMILES Cc1cc(C(=O)NCCCCCCNC(=O)c2ccc(-c3c4nc(c(-c5cccc(S(=O)(=O)[O-])c5F)c5ccc([nH]5)c(-c5cccc(S(=O)(=O)[O-])c5F)c5nc(c(-c6cccc(S(=O)(=O)[O-])c6F)c6ccc3[nH]6)C=C5)C=C4)cc2)ccc1NC(=O)N1C[C@@H](C)[C@H](C)C1
REMARK SMILES IDX 11 1 10 2 9 3 8 4 7 5 5 6 6 7 4 9 1 10 2 11 3 12 82 13 81 14
REMARK SMILES IDX 80 15 83 16 84 17 85 19 86 20 87 21 92 22 88 23 90 24 89 25
REMARK SMILES IDX 91 26 12 27 13 28 14 29 15 30 16 32 17 33 18 34 79 35 19 36
REMARK SMILES IDX 78 37 20 38 21 39 22 40 72 41 23 42 77 43 71 44 73 45 24 46
REMARK SMILES IDX 76 47 70 48 69 49 25 51 57 52 37 53 56 54 38 55 41 56 55 57
REMARK SMILES IDX 74 58 39 59 40 60 54 62 75 63 42 64 26 65 27 66 35 67 28 68
REMARK SMILES IDX 30 69 36 70 29 71 31 72 32 73 33 74 34 75 58 76 59 77 67 78
REMARK SMILES IDX 60 79 62 80 68 81 61 82 63 83 64 84 65 85 66 86 43 87 44 88
REMARK SMILES IDX 52 89 45 90 47 91 53 92 46 93 48 94 49 95 50 96 51 97
REMARK H PARENT 7 8 83 18 14 31 73 50 41 61
REMARK Flexibility Score: inf
ROOT
ATOM      1  C   UNL A   1      37.152  21.189  24.633  1.00  0.00     0.002 C 
ENDROOT
BRANCH   1   2
ATOM      2  C   UNL A   1      36.368  22.510  24.562  1.00  0.00     0.002 C 
BRANCH   2   3
ATOM      3  C   UNL A   1      35.053  22.558  25.351  1.00  0.00     0.021 C 
BRANCH   3   4
ATOM      4  C   UNL A   1      34.890  21.429  26.372  1.00  0.00     0.116 C 
BRANCH   4   5
ATOM      5  N   UNL A   1      34.031  20.373  25.863  1.00  0.00    -0.352 N 
ATOM      6  C   UNL A   1      32.886  20.429  25.107  1.00  0.00     0.251 C 
ATOM      7  O   UNL A   1      32.401  19.382  24.678  1.00  0.00    -0.269 OA
ATOM      8  H   UNL A   1      34.318  19.463  26.101  1.00  0.00     0.163 HD
BRANCH   6   9
ATOM      9  C   UNL A   1      32.275  21.726  24.722  1.00  0.00     0.040 A 
ATOM     10  C   UNL A   1      30.272  24.404  26.502  1.00  0.00     0.046 C 
ATOM     11  C   UNL A   1      30.848  23.610  25.362  1.00  0.00    -0.027 A 
ATOM     12  C   UNL A   1      31.585  22.455  25.696  1.00  0.00     0.019 A 
ATOM     13  C   UNL A   1      30.748  23.974  24.007  1.00  0.00     0.045 A 
ATOM     14  C   UNL A   1      31.599  23.354  23.085  1.00  0.00     0.027 A 
ATOM     15  C   UNL A   1      32.378  22.256  23.442  1.00  0.00     0.016 A 
BRANCH  13  16
ATOM     16  N   UNL A   1      29.835  24.962  23.589  1.00  0.00    -0.308 N 
ATOM     17  C   UNL A   1      29.812  26.303  23.848  1.00  0.00     0.321 C 
ATOM     18  H   UNL A   1      29.099  24.635  23.022  1.00  0.00     0.171 HD
ATOM     19  O   UNL A   1      28.728  26.888  23.823  1.00  0.00    -0.248 OA
ATOM     20  N   UNL A   1      30.992  26.959  24.084  1.00  0.00    -0.324 N 
ATOM     21  C   UNL A   1      31.038  28.134  24.933  1.00  0.00     0.125 C 
ATOM     22  C   UNL A   1      32.152  26.896  23.202  1.00  0.00     0.125 C 
ATOM     23  C   UNL A   1      32.191  28.981  24.399  1.00  0.00     0.010 C 
ATOM     24  C   UNL A   1      33.126  27.948  23.742  1.00  0.00     0.010 C 
ATOM     25  C   UNL A   1      32.870  29.790  25.493  1.00  0.00     0.010 C 
ATOM     26  C   UNL A   1      34.023  28.556  22.667  1.00  0.00     0.010 C 
ENDBRANCH  13  16
ENDBRANCH   6   9
ENDBRANCH   4   5
ENDBRANCH   3   4
ENDBRANCH   2   3
ENDBRANCH   1   2
BRANCH   1  27
ATOM     27  C   UNL A   1      38.430  21.215  25.473  1.00  0.00     0.021 C 
BRANCH  27  28
ATOM     28  C   UNL A   1      38.692  22.548  26.157  1.00  0.00     0.116 C 
BRANCH  28  29
ATOM     29  N   UNL A   1      39.832  22.522  27.053  1.00  0.00    -0.352 N 
ATOM     30  C   UNL A   1      40.529  23.570  27.624  1.00  0.00     0.251 C 
ATOM     31  H   UNL A   1      40.158  21.624  27.289  1.00  0.00     0.163 HD
ATOM     32  O   UNL A   1      41.617  23.328  28.145  1.00  0.00    -0.269 OA
BRANCH  30  33
ATOM     33  C   UNL A   1      39.907  24.915  27.734  1.00  0.00     0.039 A 
ATOM     34  C   UNL A   1      40.349  25.908  26.850  1.00  0.00     0.014 A 
ATOM     35  C   UNL A   1      39.100  25.265  28.813  1.00  0.00     0.014 A 
ATOM     36  C   UNL A   1      40.223  27.252  27.199  1.00  0.00     0.010 A 
ATOM     37  C   UNL A   1      39.047  26.582  29.206  1.00  0.00     0.010 A 
ATOM     38  C   UNL A   1      39.682  27.562  28.441  1.00  0.00    -0.014 A 
BRANCH  38  39
ATOM     39  C   UNL A   1      39.720  28.872  29.069  1.00  0.00     0.031 A 
ATOM     40  C   UNL A   1      38.729  29.889  28.681  1.00  0.00     0.074 A 
ATOM     41  C   UNL A   1      40.519  29.043  30.147  1.00  0.00     0.049 A 
ATOM     42  N   UNL A   1      38.754  31.111  29.082  1.00  0.00    -0.248 NA
ATOM     43  C   UNL A   1      37.619  29.591  27.788  1.00  0.00     0.031 C 
ATOM     44  C   UNL A   1      40.455  30.101  31.148  1.00  0.00     0.029 A 
ATOM     45  N   UNL A   1      41.715  28.382  30.444  1.00  0.00    -0.354 N 
ATOM     46  C   UNL A   1      37.561  31.698  28.718  1.00  0.00     0.074 A 
ATOM     47  C   UNL A   1      36.923  30.728  27.859  1.00  0.00     0.031 C 
ATOM     48  C   UNL A   1      41.662  30.217  31.726  1.00  0.00     0.029 A 
ATOM     49  C   UNL A   1      42.567  29.377  30.961  1.00  0.00     0.049 A 
ATOM     50  H   UNL A   1      41.919  27.427  30.317  1.00  0.00     0.167 HD
ATOM     51  C   UNL A   1      37.225  32.888  29.293  1.00  0.00     0.034 A 
ATOM     52  C   UNL A   1      43.679  29.818  30.293  1.00  0.00     0.034 A 
ATOM     53  C   UNL A   1      38.359  33.426  30.066  1.00  0.00     0.049 A 
ATOM     54  C   UNL A   1      43.641  31.311  29.961  1.00  0.00     0.074 A 
ATOM     55  C   UNL A   1      38.735  33.418  31.400  1.00  0.00     0.029 A 
ATOM     56  N   UNL A   1      39.478  33.835  29.363  1.00  0.00    -0.354 N 
ATOM     57  N   UNL A   1      42.662  32.121  30.271  1.00  0.00    -0.248 NA
ATOM     58  C   UNL A   1      44.669  31.982  29.162  1.00  0.00     0.031 C 
ATOM     59  C   UNL A   1      40.126  33.749  31.468  1.00  0.00     0.029 A 
ATOM     60  C   UNL A   1      40.581  33.993  30.183  1.00  0.00     0.049 A 
ATOM     61  H   UNL A   1      39.489  33.996  28.391  1.00  0.00     0.167 HD
ATOM     62  C   UNL A   1      42.822  33.308  29.606  1.00  0.00     0.074 A 
ATOM     63  C   UNL A   1      44.116  33.188  28.956  1.00  0.00     0.031 C 
ATOM     64  C   UNL A   1      41.867  34.289  29.561  1.00  0.00     0.034 A 
BRANCH  51  65
ATOM     65  C   UNL A   1      35.833  33.498  29.345  1.00  0.00     0.023 A 
ATOM     66  C   UNL A   1      35.126  33.587  28.123  1.00  0.00     0.012 A 
ATOM     67  C   UNL A   1      35.181  34.055  30.469  1.00  0.00     0.148 A 
ATOM     68  C   UNL A   1      33.898  34.251  28.006  1.00  0.00     0.002 A 
ATOM     69  C   UNL A   1      33.985  34.769  30.348  1.00  0.00     0.091 A 
ATOM     70  F   UNL A   1      35.664  33.849  31.693  1.00  0.00    -0.205 F 
ATOM     71  C   UNL A   1      33.341  34.870  29.114  1.00  0.00     0.022 A 
BRANCH  69  72
ATOM     72  S   UNL A   1      33.238  35.656  31.729  1.00  0.00     0.127 S 
ATOM     73  O   UNL A   1      32.787  34.558  32.587  1.00  0.00    -0.237 OA
ATOM     74  O   UNL A   1      34.366  36.418  32.262  1.00  0.00    -0.237 OA
ATOM     75  O   UNL A   1      32.155  36.455  31.169  1.00  0.00    -0.744 OA
ENDBRANCH  69  72
ENDBRANCH  51  65
BRANCH  52  76
ATOM     76  C   UNL A   1      44.295  28.766  29.420  1.00  0.00     0.023 A 
ATOM     77  C   UNL A   1      44.742  27.581  30.059  1.00  0.00     0.012 A 
ATOM     78  C   UNL A   1      44.086  28.740  28.031  1.00  0.00     0.148 A 
ATOM     79  C   UNL A   1      44.781  26.368  29.369  1.00  0.00     0.002 A 
ATOM     80  C   UNL A   1      44.166  27.532  27.342  1.00  0.00     0.091 A 
ATOM     81  F   UNL A   1      43.746  29.871  27.402  1.00  0.00    -0.205 F 
ATOM     82  C   UNL A   1      44.452  26.336  28.019  1.00  0.00     0.022 A 
BRANCH  80  83
ATOM     83  S   UNL A   1      43.802  27.458  25.584  1.00  0.00     0.127 S 
ATOM     84  O   UNL A   1      43.431  26.055  25.424  1.00  0.00    -0.237 OA
ATOM     85  O   UNL A   1      42.698  28.406  25.444  1.00  0.00    -0.237 OA
ATOM     86  O   UNL A   1      45.036  27.883  24.940  1.00  0.00    -0.744 OA
ENDBRANCH  80  83
ENDBRANCH  52  76
BRANCH  64  87
ATOM     87  C   UNL A   1      42.104  35.629  28.898  1.00  0.00     0.023 A 
ATOM     88  C   UNL A   1      41.627  35.861  27.591  1.00  0.00     0.012 A 
ATOM     89  C   UNL A   1      42.924  36.632  29.469  1.00  0.00     0.148 A 
ATOM     90  C   UNL A   1      41.901  37.049  26.907  1.00  0.00     0.002 A 
ATOM     91  C   UNL A   1      43.283  37.763  28.744  1.00  0.00     0.091 A 
ATOM     92  F   UNL A   1      43.320  36.523  30.743  1.00  0.00    -0.205 F 
ATOM     93  C   UNL A   1      42.748  37.992  27.475  1.00  0.00     0.022 A 
BRANCH  91  94
ATOM     94  S   UNL A   1      44.546  38.907  29.323  1.00  0.00     0.127 S 
ATOM     95  O   UNL A   1      43.889  39.520  30.481  1.00  0.00    -0.237 OA
ATOM     96  O   UNL A   1      45.644  38.003  29.654  1.00  0.00    -0.237 OA
ATOM     97  O   UNL A   1      44.783  39.826  28.219  1.00  0.00    -0.744 OA
ENDBRANCH  91  94
ENDBRANCH  64  87
ENDBRANCH  38  39
ENDBRANCH  30  33
ENDBRANCH  28  29
ENDBRANCH  27  28
ENDBRANCH   1  27
TORSDOF 17
ENDMDL
