MODEL 1
REMARK VINA RESULT:     -12.6      0.000      0.000
REMARK SMILES O=C(NCCCCCCNC(=O)c1cc(S(=O)(=O)Nc2cc(F)ccc2F)cc2c1OCCO2)c1ccc(-c2c3nc(c(-c4cccc(S(=O)(=O)[O-])c4F)c4ccc([nH]4)c(-c4cccc(S(=O)(=O)[O-])c4F)c4nc(c(-c5cccc(S(=O)(=O)[O-])c5F)c5ccc2[nH]5)C=C4)C=C3)cc1
REMARK SMILES IDX 6 1 5 2 4 3 3 4 1 5 2 6 35 8 36 9 97 10 37 11 96 12 38 13
REMARK SMILES IDX 39 14 40 15 90 16 41 17 95 18 89 19 91 20 42 21 94 22 88 23
REMARK SMILES IDX 87 24 43 26 75 27 55 28 74 29 56 30 59 31 73 32 92 33 57 34
REMARK SMILES IDX 58 35 72 37 93 38 60 39 44 40 45 41 53 42 46 43 48 44 54 45
REMARK SMILES IDX 47 46 49 47 50 48 51 49 52 50 76 51 77 52 85 53 78 54 80 55
REMARK SMILES IDX 86 56 79 57 81 58 82 59 83 60 84 61 61 62 62 63 70 64 63 65
REMARK SMILES IDX 65 66 71 67 64 68 66 69 67 70 68 71 69 72 7 73 8 74 9 75
REMARK SMILES IDX 10 76 11 77 12 79 13 80 14 81 30 82 15 83 29 84 31 85 28 86
REMARK SMILES IDX 34 87 32 88 33 89 16 90 17 91 18 92 19 93 20 95 21 96 26 97
REMARK SMILES IDX 22 98 25 99 27 100 23 101 24 102
REMARK H PARENT 3 7 91 25 59 36 10 78 19 94
REMARK Flexibility Score: inf
ROOT
ATOM      1  C   UNL A   1      35.675  21.650  24.534  1.00  0.00     0.002 C 
ENDROOT
BRANCH   1   2
ATOM      2  C   UNL A   1      36.818  20.730  24.967  1.00  0.00     0.021 C 
BRANCH   2   3
ATOM      3  C   UNL A   1      37.991  21.406  25.669  1.00  0.00     0.116 C 
BRANCH   3   4
ATOM      4  N   UNL A   1      39.093  20.503  25.952  1.00  0.00    -0.352 N 
ATOM      5  O   UNL A   1      41.174  19.868  26.532  1.00  0.00    -0.269 OA
ATOM      6  C   UNL A   1      40.338  20.767  26.477  1.00  0.00     0.251 C 
ATOM      7  H   UNL A   1      38.923  19.557  25.735  1.00  0.00     0.163 HD
BRANCH   6   8
ATOM      8  C   UNL A   1      40.685  22.134  26.933  1.00  0.00     0.039 A 
ATOM      9  C   UNL A   1      40.283  23.262  26.215  1.00  0.00     0.014 A 
ATOM     10  C   UNL A   1      41.430  22.290  28.107  1.00  0.00     0.014 A 
ATOM     11  C   UNL A   1      40.766  24.519  26.570  1.00  0.00     0.010 A 
ATOM     12  C   UNL A   1      41.843  23.566  28.511  1.00  0.00     0.010 A 
ATOM     13  C   UNL A   1      41.558  24.687  27.718  1.00  0.00    -0.014 A 
BRANCH  13  14
ATOM     14  C   UNL A   1      42.047  26.047  28.075  1.00  0.00     0.031 A 
ATOM     15  C   UNL A   1      43.426  26.511  27.683  1.00  0.00     0.074 A 
ATOM     16  C   UNL A   1      41.225  26.883  28.740  1.00  0.00     0.049 A 
ATOM     17  N   UNL A   1      43.970  27.692  27.839  1.00  0.00    -0.248 NA
ATOM     18  C   UNL A   1      44.315  25.528  27.044  1.00  0.00     0.031 C 
ATOM     19  C   UNL A   1      39.888  26.537  29.225  1.00  0.00     0.029 A 
ATOM     20  N   UNL A   1      41.384  28.193  29.115  1.00  0.00    -0.354 N 
ATOM     21  C   UNL A   1      45.271  27.584  27.361  1.00  0.00     0.074 A 
ATOM     22  C   UNL A   1      45.440  26.218  26.914  1.00  0.00     0.031 C 
ATOM     23  C   UNL A   1      39.333  27.616  29.794  1.00  0.00     0.029 A 
ATOM     24  C   UNL A   1      40.284  28.721  29.750  1.00  0.00     0.049 A 
ATOM     25  H   UNL A   1      42.206  28.707  28.944  1.00  0.00     0.167 HD
ATOM     26  C   UNL A   1      46.231  28.538  27.281  1.00  0.00     0.034 A 
ATOM     27  C   UNL A   1      40.061  29.956  30.238  1.00  0.00     0.034 A 
ATOM     28  C   UNL A   1      46.045  29.910  27.674  1.00  0.00     0.049 A 
ATOM     29  C   UNL A   1      41.122  31.008  30.082  1.00  0.00     0.074 A 
ATOM     30  C   UNL A   1      46.932  30.966  27.554  1.00  0.00     0.029 A 
ATOM     31  N   UNL A   1      44.898  30.418  28.264  1.00  0.00    -0.354 N 
ATOM     32  N   UNL A   1      42.287  30.921  29.488  1.00  0.00    -0.248 NA
ATOM     33  C   UNL A   1      40.824  32.338  30.634  1.00  0.00     0.031 C 
ATOM     34  C   UNL A   1      46.323  32.112  28.082  1.00  0.00     0.029 A 
ATOM     35  C   UNL A   1      45.055  31.770  28.520  1.00  0.00     0.049 A 
ATOM     36  H   UNL A   1      44.090  29.895  28.471  1.00  0.00     0.167 HD
ATOM     37  C   UNL A   1      42.851  32.189  29.571  1.00  0.00     0.074 A 
ATOM     38  C   UNL A   1      41.887  33.032  30.248  1.00  0.00     0.031 C 
ATOM     39  C   UNL A   1      44.066  32.611  29.144  1.00  0.00     0.034 A 
BRANCH  26  40
ATOM     40  C   UNL A   1      47.564  28.148  26.697  1.00  0.00     0.023 A 
ATOM     41  C   UNL A   1      48.647  27.886  27.559  1.00  0.00     0.012 A 
ATOM     42  C   UNL A   1      47.726  27.966  25.310  1.00  0.00     0.148 A 
ATOM     43  C   UNL A   1      49.879  27.474  27.050  1.00  0.00     0.002 A 
ATOM     44  C   UNL A   1      48.945  27.520  24.812  1.00  0.00     0.091 A 
ATOM     45  F   UNL A   1      46.692  28.242  24.502  1.00  0.00    -0.205 F 
ATOM     46  C   UNL A   1      50.024  27.281  25.678  1.00  0.00     0.022 A 
BRANCH  44  47
ATOM     47  S   UNL A   1      49.203  27.173  23.066  1.00  0.00     0.127 S 
ATOM     48  O   UNL A   1      48.387  25.975  22.881  1.00  0.00    -0.237 OA
ATOM     49  O   UNL A   1      48.671  28.377  22.426  1.00  0.00    -0.237 OA
ATOM     50  O   UNL A   1      50.639  26.991  22.908  1.00  0.00    -0.744 OA
ENDBRANCH  44  47
ENDBRANCH  26  40
BRANCH  27  51
ATOM     51  C   UNL A   1      38.739  30.280  30.846  1.00  0.00     0.023 A 
ATOM     52  C   UNL A   1      38.508  29.964  32.199  1.00  0.00     0.012 A 
ATOM     53  C   UNL A   1      37.737  30.943  30.113  1.00  0.00     0.148 A 
ATOM     54  C   UNL A   1      37.294  30.286  32.806  1.00  0.00     0.002 A 
ATOM     55  C   UNL A   1      36.552  31.312  30.740  1.00  0.00     0.091 A 
ATOM     56  F   UNL A   1      37.966  31.216  28.821  1.00  0.00    -0.205 F 
ATOM     57  C   UNL A   1      36.323  30.972  32.082  1.00  0.00     0.022 A 
BRANCH  55  58
ATOM     58  S   UNL A   1      35.317  32.324  29.917  1.00  0.00     0.127 S 
ATOM     59  O   UNL A   1      34.855  31.430  28.860  1.00  0.00    -0.237 OA
ATOM     60  O   UNL A   1      34.350  32.562  30.990  1.00  0.00    -0.237 OA
ATOM     61  O   UNL A   1      36.027  33.518  29.481  1.00  0.00    -0.744 OA
ENDBRANCH  55  58
ENDBRANCH  27  51
BRANCH  39  62
ATOM     62  C   UNL A   1      44.419  34.057  29.375  1.00  0.00     0.023 A 
ATOM     63  C   UNL A   1      44.991  34.444  30.603  1.00  0.00     0.012 A 
ATOM     64  C   UNL A   1      44.243  35.016  28.360  1.00  0.00     0.148 A 
ATOM     65  C   UNL A   1      45.352  35.771  30.828  1.00  0.00     0.002 A 
ATOM     66  C   UNL A   1      44.645  36.329  28.576  1.00  0.00     0.091 A 
ATOM     67  F   UNL A   1      43.675  34.635  27.206  1.00  0.00    -0.205 F 
ATOM     68  C   UNL A   1      45.190  36.711  29.812  1.00  0.00     0.022 A 
BRANCH  66  69
ATOM     69  S   UNL A   1      44.550  37.575  27.284  1.00  0.00     0.127 S 
ATOM     70  O   UNL A   1      45.681  37.212  26.434  1.00  0.00    -0.237 OA
ATOM     71  O   UNL A   1      43.236  37.321  26.693  1.00  0.00    -0.237 OA
ATOM     72  O   UNL A   1      44.659  38.856  27.970  1.00  0.00    -0.744 OA
ENDBRANCH  66  69
ENDBRANCH  39  62
ENDBRANCH  13  14
ENDBRANCH   6   8
ENDBRANCH   3   4
ENDBRANCH   2   3
ENDBRANCH   1   2
BRANCH   1  73
ATOM     73  C   UNL A   1      35.798  23.123  24.932  1.00  0.00     0.002 C 
BRANCH  73  74
ATOM     74  C   UNL A   1      34.988  23.573  26.151  1.00  0.00     0.021 C 
BRANCH  74  75
ATOM     75  C   UNL A   1      34.303  22.472  26.958  1.00  0.00     0.116 C 
BRANCH  75  76
ATOM     76  N   UNL A   1      32.999  22.846  27.483  1.00  0.00    -0.352 N 
ATOM     77  C   UNL A   1      31.843  23.128  26.788  1.00  0.00     0.255 C 
ATOM     78  H   UNL A   1      32.935  22.908  28.463  1.00  0.00     0.163 HD
ATOM     79  O   UNL A   1      30.820  23.453  27.386  1.00  0.00    -0.269 OA
BRANCH  77  80
ATOM     80  C   UNL A   1      31.869  23.194  25.310  1.00  0.00     0.087 A 
ATOM     81  C   UNL A   1      31.865  24.482  24.757  1.00  0.00     0.040 A 
ATOM     82  C   UNL A   1      32.015  22.075  24.492  1.00  0.00     0.174 A 
ATOM     83  C   UNL A   1      32.206  24.667  23.420  1.00  0.00     0.092 A 
ATOM     84  C   UNL A   1      32.231  22.263  23.121  1.00  0.00     0.163 A 
ATOM     85  O   UNL A   1      31.948  20.830  25.062  1.00  0.00    -0.485 OA
ATOM     86  C   UNL A   1      32.370  23.549  22.594  1.00  0.00     0.072 A 
ATOM     87  O   UNL A   1      32.382  21.228  22.235  1.00  0.00    -0.486 OA
ATOM     88  C   UNL A   1      32.503  19.823  24.208  1.00  0.00     0.271 C 
ATOM     89  C   UNL A   1      31.966  19.978  22.797  1.00  0.00     0.271 C 
BRANCH  83  90
ATOM     90  S   UNL A   1      32.645  26.250  22.724  1.00  0.00     0.262 S 
ATOM     91  O   UNL A   1      33.606  25.975  21.674  1.00  0.00    -0.201 OA
ATOM     92  O   UNL A   1      31.402  26.931  22.446  1.00  0.00    -0.201 OA
BRANCH  90  93
ATOM     93  N   UNL A   1      33.401  27.189  23.881  1.00  0.00    -0.277 N 
ATOM     94  H   UNL A   1      34.386  27.198  23.878  1.00  0.00     0.180 HD
BRANCH  93  95
ATOM     95  C   UNL A   1      32.748  27.978  24.871  1.00  0.00     0.087 A 
ATOM     96  C   UNL A   1      32.009  29.128  24.596  1.00  0.00     0.069 A 
ATOM     97  C   UNL A   1      32.972  27.610  26.207  1.00  0.00     0.147 A 
ATOM     98  C   UNL A   1      31.639  29.957  25.656  1.00  0.00     0.125 A 
ATOM     99  C   UNL A   1      32.587  28.431  27.259  1.00  0.00     0.044 A 
ATOM    100  F   UNL A   1      33.656  26.486  26.474  1.00  0.00    -0.205 F 
ATOM    101  F   UNL A   1      31.025  31.119  25.396  1.00  0.00    -0.207 F 
ATOM    102  C   UNL A   1      31.939  29.630  26.978  1.00  0.00     0.042 A 
ENDBRANCH  93  95
ENDBRANCH  90  93
ENDBRANCH  83  90
ENDBRANCH  77  80
ENDBRANCH  75  76
ENDBRANCH  74  75
ENDBRANCH  73  74
ENDBRANCH   1  73
TORSDOF 19
ENDMDL
MODEL 2
REMARK VINA RESULT:     -12.4      1.482      1.794
REMARK SMILES O=C(NCCCCCCNC(=O)c1cc(S(=O)(=O)Nc2cc(F)ccc2F)cc2c1OCCO2)c1ccc(-c2c3nc(c(-c4cccc(S(=O)(=O)[O-])c4F)c4ccc([nH]4)c(-c4cccc(S(=O)(=O)[O-])c4F)c4nc(c(-c5cccc(S(=O)(=O)[O-])c5F)c5ccc2[nH]5)C=C4)C=C3)cc1
REMARK SMILES IDX 6 1 5 2 4 3 3 4 1 5 2 6 35 8 36 9 97 10 37 11 96 12 38 13
REMARK SMILES IDX 39 14 40 15 90 16 41 17 95 18 89 19 91 20 42 21 94 22 88 23
REMARK SMILES IDX 87 24 43 26 75 27 55 28 74 29 56 30 59 31 73 32 92 33 57 34
REMARK SMILES IDX 58 35 72 37 93 38 60 39 44 40 45 41 53 42 46 43 48 44 54 45
REMARK SMILES IDX 47 46 49 47 50 48 51 49 52 50 76 51 77 52 85 53 78 54 80 55
REMARK SMILES IDX 86 56 79 57 81 58 82 59 83 60 84 61 61 62 62 63 70 64 63 65
REMARK SMILES IDX 65 66 71 67 64 68 66 69 67 70 68 71 69 72 7 73 8 74 9 75
REMARK SMILES IDX 10 76 11 77 12 79 13 80 14 81 30 82 15 83 29 84 31 85 28 86
REMARK SMILES IDX 34 87 32 88 33 89 16 90 17 91 18 92 19 93 20 95 21 96 26 97
REMARK SMILES IDX 22 98 25 99 27 100 23 101 24 102
REMARK H PARENT 3 7 91 25 59 36 10 78 19 94
REMARK Flexibility Score: inf
ROOT
ATOM      1  C   UNL A   1      34.921  22.407  24.824  1.00  0.00     0.002 C 
ENDROOT
BRANCH   1   2
ATOM      2  C   UNL A   1      35.807  22.593  23.592  1.00  0.00     0.021 C 
BRANCH   2   3
ATOM      3  C   UNL A   1      37.308  22.447  23.820  1.00  0.00     0.116 C 
BRANCH   3   4
ATOM      4  N   UNL A   1      37.661  21.282  24.614  1.00  0.00    -0.352 N 
ATOM      5  O   UNL A   1      38.750  20.067  26.165  1.00  0.00    -0.269 OA
ATOM      6  C   UNL A   1      38.496  21.177  25.703  1.00  0.00     0.251 C 
ATOM      7  H   UNL A   1      37.237  20.440  24.329  1.00  0.00     0.163 HD
BRANCH   6   8
ATOM      8  C   UNL A   1      39.121  22.387  26.289  1.00  0.00     0.039 A 
ATOM      9  C   UNL A   1      38.549  23.650  26.123  1.00  0.00     0.014 A 
ATOM     10  C   UNL A   1      40.305  22.254  27.021  1.00  0.00     0.014 A 
ATOM     11  C   UNL A   1      39.243  24.785  26.535  1.00  0.00     0.010 A 
ATOM     12  C   UNL A   1      40.959  23.392  27.510  1.00  0.00     0.010 A 
ATOM     13  C   UNL A   1      40.460  24.672  27.227  1.00  0.00    -0.014 A 
BRANCH  13  14
ATOM     14  C   UNL A   1      41.170  25.906  27.663  1.00  0.00     0.031 A 
ATOM     15  C   UNL A   1      42.593  26.179  27.248  1.00  0.00     0.074 A 
ATOM     16  C   UNL A   1      40.511  26.804  28.423  1.00  0.00     0.049 A 
ATOM     17  N   UNL A   1      43.321  27.245  27.468  1.00  0.00    -0.248 NA
ATOM     18  C   UNL A   1      43.294  25.124  26.500  1.00  0.00     0.031 C 
ATOM     19  C   UNL A   1      39.151  26.632  28.937  1.00  0.00     0.029 A 
ATOM     20  N   UNL A   1      40.888  28.039  28.887  1.00  0.00    -0.354 N 
ATOM     21  C   UNL A   1      44.573  26.974  26.928  1.00  0.00     0.074 A 
ATOM     22  C   UNL A   1      44.510  25.639  26.374  1.00  0.00     0.031 C 
ATOM     23  C   UNL A   1      38.792  27.736  29.609  1.00  0.00     0.029 A 
ATOM     24  C   UNL A   1      39.905  28.678  29.607  1.00  0.00     0.049 A 
ATOM     25  H   UNL A   1      41.776  28.430  28.720  1.00  0.00     0.167 HD
ATOM     26  C   UNL A   1      45.669  27.771  26.878  1.00  0.00     0.034 A 
ATOM     27  C   UNL A   1      39.896  29.890  30.194  1.00  0.00     0.034 A 
ATOM     28  C   UNL A   1      45.716  29.119  27.380  1.00  0.00     0.049 A 
ATOM     29  C   UNL A   1      41.105  30.773  30.071  1.00  0.00     0.074 A 
ATOM     30  C   UNL A   1      46.755  30.030  27.302  1.00  0.00     0.029 A 
ATOM     31  N   UNL A   1      44.683  29.750  28.055  1.00  0.00    -0.354 N 
ATOM     32  N   UNL A   1      42.223  30.554  29.424  1.00  0.00    -0.248 NA
ATOM     33  C   UNL A   1      41.039  32.084  30.734  1.00  0.00     0.031 C 
ATOM     34  C   UNL A   1      46.352  31.210  27.939  1.00  0.00     0.029 A 
ATOM     35  C   UNL A   1      45.060  31.036  28.404  1.00  0.00     0.049 A 
ATOM     36  H   UNL A   1      43.809  29.344  28.257  1.00  0.00     0.167 HD
ATOM     37  C   UNL A   1      42.983  31.707  29.577  1.00  0.00     0.074 A 
ATOM     38  C   UNL A   1      42.186  32.633  30.355  1.00  0.00     0.031 C 
ATOM     39  C   UNL A   1      44.236  31.968  29.130  1.00  0.00     0.034 A 
BRANCH  26  40
ATOM     40  C   UNL A   1      46.906  27.226  26.210  1.00  0.00     0.023 A 
ATOM     41  C   UNL A   1      47.109  27.458  24.836  1.00  0.00     0.012 A 
ATOM     42  C   UNL A   1      47.897  26.555  26.952  1.00  0.00     0.148 A 
ATOM     43  C   UNL A   1      48.268  27.009  24.202  1.00  0.00     0.002 A 
ATOM     44  C   UNL A   1      49.067  26.142  26.322  1.00  0.00     0.091 A 
ATOM     45  F   UNL A   1      47.678  26.322  28.254  1.00  0.00    -0.205 F 
ATOM     46  C   UNL A   1      49.250  26.360  24.947  1.00  0.00     0.022 A 
BRANCH  44  47
ATOM     47  S   UNL A   1      50.419  25.365  27.216  1.00  0.00     0.127 S 
ATOM     48  O   UNL A   1      50.763  26.401  28.188  1.00  0.00    -0.237 OA
ATOM     49  O   UNL A   1      49.775  24.182  27.791  1.00  0.00    -0.237 OA
ATOM     50  O   UNL A   1      51.436  25.071  26.217  1.00  0.00    -0.744 OA
ENDBRANCH  44  47
ENDBRANCH  26  40
BRANCH  27  51
ATOM     51  C   UNL A   1      38.662  30.366  30.880  1.00  0.00     0.023 A 
ATOM     52  C   UNL A   1      38.545  30.206  32.275  1.00  0.00     0.012 A 
ATOM     53  C   UNL A   1      37.635  31.020  30.174  1.00  0.00     0.148 A 
ATOM     54  C   UNL A   1      37.417  30.673  32.951  1.00  0.00     0.002 A 
ATOM     55  C   UNL A   1      36.541  31.533  30.862  1.00  0.00     0.091 A 
ATOM     56  F   UNL A   1      37.753  31.144  28.845  1.00  0.00    -0.205 F 
ATOM     57  C   UNL A   1      36.423  31.348  32.248  1.00  0.00     0.022 A 
BRANCH  55  58
ATOM     58  S   UNL A   1      35.295  32.540  30.050  1.00  0.00     0.127 S 
ATOM     59  O   UNL A   1      34.846  31.655  28.979  1.00  0.00    -0.237 OA
ATOM     60  O   UNL A   1      34.322  32.752  31.123  1.00  0.00    -0.237 OA
ATOM     61  O   UNL A   1      35.990  33.749  29.631  1.00  0.00    -0.744 OA
ENDBRANCH  55  58
ENDBRANCH  27  51
BRANCH  39  62
ATOM     62  C   UNL A   1      44.821  33.317  29.453  1.00  0.00     0.023 A 
ATOM     63  C   UNL A   1      45.569  33.486  30.636  1.00  0.00     0.012 A 
ATOM     64  C   UNL A   1      44.684  34.398  28.562  1.00  0.00     0.148 A 
ATOM     65  C   UNL A   1      46.144  34.718  30.941  1.00  0.00     0.002 A 
ATOM     66  C   UNL A   1      45.295  35.612  28.851  1.00  0.00     0.091 A 
ATOM     67  F   UNL A   1      43.949  34.227  27.453  1.00  0.00    -0.205 F 
ATOM     68  C   UNL A   1      46.017  35.778  30.044  1.00  0.00     0.022 A 
BRANCH  66  69
ATOM     69  S   UNL A   1      45.252  36.995  27.704  1.00  0.00     0.127 S 
ATOM     70  O   UNL A   1      46.140  36.530  26.641  1.00  0.00    -0.237 OA
ATOM     71  O   UNL A   1      43.837  37.055  27.333  1.00  0.00    -0.237 OA
ATOM     72  O   UNL A   1      45.720  38.147  28.463  1.00  0.00    -0.744 OA
ENDBRANCH  66  69
ENDBRANCH  39  62
ENDBRANCH  13  14
ENDBRANCH   6   8
ENDBRANCH   3   4
ENDBRANCH   2   3
ENDBRANCH   1   2
BRANCH   1  73
ATOM     73  C   UNL A   1      34.848  23.589  25.795  1.00  0.00     0.002 C 
BRANCH  73  74
ATOM     74  C   UNL A   1      34.371  23.279  27.217  1.00  0.00     0.021 C 
BRANCH  74  75
ATOM     75  C   UNL A   1      33.423  22.091  27.374  1.00  0.00     0.116 C 
BRANCH  75  76
ATOM     76  N   UNL A   1      32.071  22.460  27.761  1.00  0.00    -0.352 N 
ATOM     77  C   UNL A   1      31.003  22.778  26.951  1.00  0.00     0.255 C 
ATOM     78  H   UNL A   1      31.896  22.486  28.729  1.00  0.00     0.163 HD
ATOM     79  O   UNL A   1      29.920  23.092  27.440  1.00  0.00    -0.269 OA
BRANCH  77  80
ATOM     80  C   UNL A   1      31.197  22.899  25.488  1.00  0.00     0.087 A 
ATOM     81  C   UNL A   1      31.058  24.188  24.958  1.00  0.00     0.040 A 
ATOM     82  C   UNL A   1      31.617  21.844  24.678  1.00  0.00     0.174 A 
ATOM     83  C   UNL A   1      31.525  24.469  23.678  1.00  0.00     0.092 A 
ATOM     84  C   UNL A   1      31.965  22.110  23.349  1.00  0.00     0.163 A 
ATOM     85  O   UNL A   1      31.679  20.585  25.217  1.00  0.00    -0.485 OA
ATOM     86  C   UNL A   1      31.963  23.420  22.862  1.00  0.00     0.072 A 
ATOM     87  O   UNL A   1      32.385  21.143  22.473  1.00  0.00    -0.486 OA
ATOM     88  C   UNL A   1      32.486  19.706  24.425  1.00  0.00     0.271 C 
ATOM     89  C   UNL A   1      32.106  19.825  22.961  1.00  0.00     0.271 C 
BRANCH  83  90
ATOM     90  S   UNL A   1      31.789  26.124  23.066  1.00  0.00     0.262 S 
ATOM     91  O   UNL A   1      32.263  25.978  21.703  1.00  0.00    -0.201 OA
ATOM     92  O   UNL A   1      30.587  26.867  23.368  1.00  0.00    -0.201 OA
BRANCH  90  93
ATOM     93  N   UNL A   1      32.992  26.872  23.952  1.00  0.00    -0.277 N 
ATOM     94  H   UNL A   1      33.923  26.683  23.695  1.00  0.00     0.180 HD
BRANCH  93  95
ATOM     95  C   UNL A   1      32.789  27.761  25.047  1.00  0.00     0.087 A 
ATOM     96  C   UNL A   1      32.350  27.363  26.309  1.00  0.00     0.069 A 
ATOM     97  C   UNL A   1      32.946  29.129  24.776  1.00  0.00     0.147 A 
ATOM     98  C   UNL A   1      31.941  28.341  27.216  1.00  0.00     0.125 A 
ATOM     99  C   UNL A   1      32.552  30.099  25.689  1.00  0.00     0.044 A 
ATOM    100  F   UNL A   1      33.400  29.513  23.572  1.00  0.00    -0.205 F 
ATOM    101  F   UNL A   1      31.414  27.968  28.390  1.00  0.00    -0.207 F 
ATOM    102  C   UNL A   1      32.018  29.699  26.910  1.00  0.00     0.042 A 
ENDBRANCH  93  95
ENDBRANCH  90  93
ENDBRANCH  83  90
ENDBRANCH  77  80
ENDBRANCH  75  76
ENDBRANCH  74  75
ENDBRANCH  73  74
ENDBRANCH   1  73
TORSDOF 19
ENDMDL
MODEL 3
REMARK VINA RESULT:     -12.3      1.366      1.759
REMARK SMILES O=C(NCCCCCCNC(=O)c1cc(S(=O)(=O)Nc2cc(F)ccc2F)cc2c1OCCO2)c1ccc(-c2c3nc(c(-c4cccc(S(=O)(=O)[O-])c4F)c4ccc([nH]4)c(-c4cccc(S(=O)(=O)[O-])c4F)c4nc(c(-c5cccc(S(=O)(=O)[O-])c5F)c5ccc2[nH]5)C=C4)C=C3)cc1
REMARK SMILES IDX 6 1 5 2 4 3 3 4 1 5 2 6 35 8 36 9 97 10 37 11 96 12 38 13
REMARK SMILES IDX 39 14 40 15 90 16 41 17 95 18 89 19 91 20 42 21 94 22 88 23
REMARK SMILES IDX 87 24 43 26 75 27 55 28 74 29 56 30 59 31 73 32 92 33 57 34
REMARK SMILES IDX 58 35 72 37 93 38 60 39 44 40 45 41 53 42 46 43 48 44 54 45
REMARK SMILES IDX 47 46 49 47 50 48 51 49 52 50 76 51 77 52 85 53 78 54 80 55
REMARK SMILES IDX 86 56 79 57 81 58 82 59 83 60 84 61 61 62 62 63 70 64 63 65
REMARK SMILES IDX 65 66 71 67 64 68 66 69 67 70 68 71 69 72 7 73 8 74 9 75
REMARK SMILES IDX 10 76 11 77 12 79 13 80 14 81 30 82 15 83 29 84 31 85 28 86
REMARK SMILES IDX 34 87 32 88 33 89 16 90 17 91 18 92 19 93 20 95 21 96 26 97
REMARK SMILES IDX 22 98 25 99 27 100 23 101 24 102
REMARK H PARENT 3 7 91 25 59 36 10 78 19 94
REMARK Flexibility Score: inf
ROOT
ATOM      1  C   UNL A   1      36.671  23.321  23.960  1.00  0.00     0.002 C 
ENDROOT
BRANCH   1   2
ATOM      2  C   UNL A   1      36.894  21.834  24.239  1.00  0.00     0.021 C 
BRANCH   2   3
ATOM      3  C   UNL A   1      37.231  21.467  25.680  1.00  0.00     0.116 C 
BRANCH   3   4
ATOM      4  N   UNL A   1      38.329  20.523  25.794  1.00  0.00    -0.352 N 
ATOM      5  O   UNL A   1      40.439  19.806  26.115  1.00  0.00    -0.269 OA
ATOM      6  C   UNL A   1      39.628  20.726  26.200  1.00  0.00     0.251 C 
ATOM      7  H   UNL A   1      38.110  19.596  25.541  1.00  0.00     0.163 HD
BRANCH   6   8
ATOM      8  C   UNL A   1      40.061  22.055  26.696  1.00  0.00     0.039 A 
ATOM      9  C   UNL A   1      39.543  23.233  26.155  1.00  0.00     0.014 A 
ATOM     10  C   UNL A   1      41.006  22.121  27.725  1.00  0.00     0.014 A 
ATOM     11  C   UNL A   1      40.090  24.462  26.518  1.00  0.00     0.010 A 
ATOM     12  C   UNL A   1      41.493  23.364  28.150  1.00  0.00     0.010 A 
ATOM     13  C   UNL A   1      41.077  24.543  27.514  1.00  0.00    -0.014 A 
BRANCH  13  14
ATOM     14  C   UNL A   1      41.631  25.874  27.886  1.00  0.00     0.031 A 
ATOM     15  C   UNL A   1      43.004  26.303  27.438  1.00  0.00     0.074 A 
ATOM     16  C   UNL A   1      40.874  26.716  28.617  1.00  0.00     0.049 A 
ATOM     17  N   UNL A   1      43.596  27.460  27.601  1.00  0.00    -0.248 NA
ATOM     18  C   UNL A   1      43.824  25.312  26.724  1.00  0.00     0.031 C 
ATOM     19  C   UNL A   1      39.551  26.399  29.159  1.00  0.00     0.029 A 
ATOM     20  N   UNL A   1      41.097  28.007  29.022  1.00  0.00    -0.354 N 
ATOM     21  C   UNL A   1      44.867  27.323  27.053  1.00  0.00     0.074 A 
ATOM     22  C   UNL A   1      44.965  25.968  26.557  1.00  0.00     0.031 C 
ATOM     23  C   UNL A   1      39.064  27.478  29.789  1.00  0.00     0.029 A 
ATOM     24  C   UNL A   1      40.050  28.551  29.729  1.00  0.00     0.049 A 
ATOM     25  H   UNL A   1      41.928  28.498  28.825  1.00  0.00     0.167 HD
ATOM     26  C   UNL A   1      45.854  28.247  26.952  1.00  0.00     0.034 A 
ATOM     27  C   UNL A   1      39.896  29.777  30.264  1.00  0.00     0.034 A 
ATOM     28  C   UNL A   1      45.737  29.611  27.395  1.00  0.00     0.049 A 
ATOM     29  C   UNL A   1      40.984  30.797  30.085  1.00  0.00     0.074 A 
ATOM     30  C   UNL A   1      46.654  30.640  27.261  1.00  0.00     0.029 A 
ATOM     31  N   UNL A   1      44.640  30.138  28.058  1.00  0.00    -0.354 N 
ATOM     32  N   UNL A   1      42.113  30.690  29.430  1.00  0.00    -0.248 NA
ATOM     33  C   UNL A   1      40.761  32.118  30.692  1.00  0.00     0.031 C 
ATOM     34  C   UNL A   1      46.113  31.788  27.854  1.00  0.00     0.029 A 
ATOM     35  C   UNL A   1      44.858  31.476  28.346  1.00  0.00     0.049 A 
ATOM     36  H   UNL A   1      43.826  29.636  28.291  1.00  0.00     0.167 HD
ATOM     37  C   UNL A   1      42.726  31.935  29.521  1.00  0.00     0.074 A 
ATOM     38  C   UNL A   1      41.827  32.788  30.272  1.00  0.00     0.031 C 
ATOM     39  C   UNL A   1      43.931  32.329  29.045  1.00  0.00     0.034 A 
BRANCH  26  40
ATOM     40  C   UNL A   1      47.142  27.831  26.288  1.00  0.00     0.023 A 
ATOM     41  C   UNL A   1      48.169  27.261  27.067  1.00  0.00     0.012 A 
ATOM     42  C   UNL A   1      47.308  27.931  24.893  1.00  0.00     0.148 A 
ATOM     43  C   UNL A   1      49.351  26.820  26.472  1.00  0.00     0.002 A 
ATOM     44  C   UNL A   1      48.474  27.457  24.303  1.00  0.00     0.091 A 
ATOM     45  F   UNL A   1      46.331  28.497  24.171  1.00  0.00    -0.205 F 
ATOM     46  C   UNL A   1      49.499  26.908  25.090  1.00  0.00     0.022 A 
BRANCH  44  47
ATOM     47  S   UNL A   1      48.722  27.462  22.522  1.00  0.00     0.127 S 
ATOM     48  O   UNL A   1      50.063  28.032  22.413  1.00  0.00    -0.237 OA
ATOM     49  O   UNL A   1      48.636  26.039  22.190  1.00  0.00    -0.237 OA
ATOM     50  O   UNL A   1      47.644  28.275  21.976  1.00  0.00    -0.744 OA
ENDBRANCH  44  47
ENDBRANCH  26  40
BRANCH  27  51
ATOM     51  C   UNL A   1      38.619  30.126  30.949  1.00  0.00     0.023 A 
ATOM     52  C   UNL A   1      38.433  29.748  32.293  1.00  0.00     0.012 A 
ATOM     53  C   UNL A   1      37.617  30.871  30.299  1.00  0.00     0.148 A 
ATOM     54  C   UNL A   1      37.264  30.091  32.972  1.00  0.00     0.002 A 
ATOM     55  C   UNL A   1      36.479  31.257  30.999  1.00  0.00     0.091 A 
ATOM     56  F   UNL A   1      37.801  31.202  29.014  1.00  0.00    -0.205 F 
ATOM     57  C   UNL A   1      36.294  30.856  32.331  1.00  0.00     0.022 A 
BRANCH  55  58
ATOM     58  S   UNL A   1      35.257  32.365  30.287  1.00  0.00     0.127 S 
ATOM     59  O   UNL A   1      34.315  32.520  31.391  1.00  0.00    -0.237 OA
ATOM     60  O   UNL A   1      36.057  33.554  29.988  1.00  0.00    -0.237 OA
ATOM     61  O   UNL A   1      34.754  31.676  29.108  1.00  0.00    -0.744 OA
ENDBRANCH  55  58
ENDBRANCH  27  51
BRANCH  39  62
ATOM     62  C   UNL A   1      44.346  33.754  29.300  1.00  0.00     0.023 A 
ATOM     63  C   UNL A   1      45.331  34.027  30.271  1.00  0.00     0.012 A 
ATOM     64  C   UNL A   1      43.810  34.812  28.542  1.00  0.00     0.148 A 
ATOM     65  C   UNL A   1      45.751  35.335  30.504  1.00  0.00     0.002 A 
ATOM     66  C   UNL A   1      44.264  36.108  28.750  1.00  0.00     0.091 A 
ATOM     67  F   UNL A   1      42.857  34.537  27.640  1.00  0.00    -0.205 F 
ATOM     68  C   UNL A   1      45.227  36.375  29.737  1.00  0.00     0.022 A 
BRANCH  66  69
ATOM     69  S   UNL A   1      43.702  37.485  27.741  1.00  0.00     0.127 S 
ATOM     70  O   UNL A   1      42.677  38.083  28.592  1.00  0.00    -0.237 OA
ATOM     71  O   UNL A   1      44.917  38.287  27.593  1.00  0.00    -0.237 OA
ATOM     72  O   UNL A   1      43.226  36.889  26.499  1.00  0.00    -0.744 OA
ENDBRANCH  66  69
ENDBRANCH  39  62
ENDBRANCH  13  14
ENDBRANCH   6   8
ENDBRANCH   3   4
ENDBRANCH   2   3
ENDBRANCH   1   2
BRANCH   1  73
ATOM     73  C   UNL A   1      35.308  23.892  24.360  1.00  0.00     0.002 C 
BRANCH  73  74
ATOM     74  C   UNL A   1      35.085  24.153  25.852  1.00  0.00     0.021 C 
BRANCH  74  75
ATOM     75  C   UNL A   1      34.398  23.040  26.643  1.00  0.00     0.116 C 
BRANCH  75  76
ATOM     76  N   UNL A   1      33.130  23.432  27.235  1.00  0.00    -0.352 N 
ATOM     77  C   UNL A   1      31.913  23.613  26.616  1.00  0.00     0.255 C 
ATOM     78  H   UNL A   1      33.142  23.589  28.207  1.00  0.00     0.163 HD
ATOM     79  O   UNL A   1      30.930  23.970  27.262  1.00  0.00    -0.269 OA
BRANCH  77  80
ATOM     80  C   UNL A   1      31.817  23.533  25.141  1.00  0.00     0.087 A 
ATOM     81  C   UNL A   1      31.645  24.752  24.473  1.00  0.00     0.040 A 
ATOM     82  C   UNL A   1      32.007  22.354  24.421  1.00  0.00     0.174 A 
ATOM     83  C   UNL A   1      31.861  24.831  23.101  1.00  0.00     0.092 A 
ATOM     84  C   UNL A   1      32.097  22.422  23.025  1.00  0.00     0.163 A 
ATOM     85  O   UNL A   1      32.107  21.172  25.108  1.00  0.00    -0.485 OA
ATOM     86  C   UNL A   1      32.069  23.656  22.370  1.00  0.00     0.072 A 
ATOM     87  O   UNL A   1      32.280  21.321  22.229  1.00  0.00    -0.486 OA
ATOM     88  C   UNL A   1      32.690  20.138  24.307  1.00  0.00     0.271 C 
ATOM     89  C   UNL A   1      32.032  20.102  22.939  1.00  0.00     0.271 C 
BRANCH  83  90
ATOM     90  S   UNL A   1      32.088  26.369  22.225  1.00  0.00     0.262 S 
ATOM     91  O   UNL A   1      33.519  26.601  22.184  1.00  0.00    -0.201 OA
ATOM     92  O   UNL A   1      31.308  26.266  21.013  1.00  0.00    -0.201 OA
BRANCH  90  93
ATOM     93  N   UNL A   1      31.388  27.620  23.083  1.00  0.00    -0.277 N 
ATOM     94  H   UNL A   1      31.825  27.888  23.924  1.00  0.00     0.180 HD
BRANCH  93  95
ATOM     95  C   UNL A   1      30.214  28.335  22.706  1.00  0.00     0.087 A 
ATOM     96  C   UNL A   1      30.221  29.540  22.006  1.00  0.00     0.069 A 
ATOM     97  C   UNL A   1      28.996  27.823  23.179  1.00  0.00     0.147 A 
ATOM     98  C   UNL A   1      29.036  30.274  21.922  1.00  0.00     0.125 A 
ATOM     99  C   UNL A   1      27.816  28.550  23.078  1.00  0.00     0.044 A 
ATOM    100  F   UNL A   1      28.983  26.646  23.825  1.00  0.00    -0.205 F 
ATOM    101  F   UNL A   1      29.054  31.484  21.349  1.00  0.00    -0.207 F 
ATOM    102  C   UNL A   1      27.844  29.801  22.469  1.00  0.00     0.042 A 
ENDBRANCH  93  95
ENDBRANCH  90  93
ENDBRANCH  83  90
ENDBRANCH  77  80
ENDBRANCH  75  76
ENDBRANCH  74  75
ENDBRANCH  73  74
ENDBRANCH   1  73
TORSDOF 19
ENDMDL
