MODEL 1
REMARK VINA RESULT:     -10.3      0.000      0.000
REMARK SMILES CC(C)[C@@H]1CN(C(=O)Cc2ccsc2)C[C@H]1C(=O)NCCCCCCNC(=O)c1ccc(-c2c3nc(c(-c4cccc(S(=O)(=O)[O-])c4F)c4ccc([nH]4)c(-c4cccc(S(=O)(=O)[O-])c4F)c4nc(c(-c5cccc(S(=O)(=O)[O-])c5F)c5ccc2[nH]5)C=C4)C=C3)cc1
REMARK SMILES IDX 22 1 21 2 20 3 19 4 17 5 18 6 16 8 4 9 5 10 6 11 15 12 2 13
REMARK SMILES IDX 1 14 3 15 7 16 8 17 9 18 10 19 11 20 14 21 12 22 13 23 23 24
REMARK SMILES IDX 24 25 25 26 26 27 27 28 28 30 29 31 30 32 91 33 31 34 90 35
REMARK SMILES IDX 32 36 33 37 34 38 84 39 35 40 89 41 83 42 85 43 36 44 88 45
REMARK SMILES IDX 82 46 81 47 37 49 69 50 49 51 68 52 50 53 53 54 67 55 86 56
REMARK SMILES IDX 51 57 52 58 66 60 87 61 54 62 38 63 39 64 47 65 40 66 42 67
REMARK SMILES IDX 48 68 41 69 43 70 44 71 45 72 46 73 70 74 71 75 79 76 72 77
REMARK SMILES IDX 74 78 80 79 73 80 75 81 76 82 77 83 78 84 55 85 56 86 64 87
REMARK SMILES IDX 57 88 59 89 65 90 58 91 60 92 61 93 62 94 63 95
REMARK H PARENT 19 7 26 29 85 48 53 59
REMARK Flexibility Score: inf
ROOT
ATOM      1  C   UNL A   1      34.481  31.858  28.676  1.00  0.00     0.002 C 
ENDROOT
BRANCH   1   2
ATOM      2  C   UNL A   1      34.781  30.688  27.734  1.00  0.00     0.021 C 
BRANCH   2   3
ATOM      3  C   UNL A   1      33.555  30.177  26.984  1.00  0.00     0.116 C 
BRANCH   3   4
ATOM      4  N   UNL A   1      33.948  29.426  25.804  1.00  0.00    -0.356 N 
ATOM      5  C   UNL A   1      33.342  28.393  25.164  1.00  0.00     0.225 C 
ATOM      6  O   UNL A   1      33.928  27.888  24.203  1.00  0.00    -0.275 OA
ATOM      7  H   UNL A   1      34.798  29.715  25.399  1.00  0.00     0.163 HD
BRANCH   5   8
ATOM      8  C   UNL A   1      31.990  27.862  25.594  1.00  0.00     0.103 C 
ATOM      9  C   UNL A   1      31.092  27.357  24.442  1.00  0.00     0.025 C 
ATOM     10  C   UNL A   1      30.298  26.226  25.099  1.00  0.00     0.124 C 
ATOM     11  N   UNL A   1      31.204  25.685  26.097  1.00  0.00    -0.341 N 
ATOM     12  C   UNL A   1      32.118  26.702  26.579  1.00  0.00     0.133 C 
BRANCH   9  13
ATOM     13  C   UNL A   1      30.258  28.423  23.686  1.00  0.00    -0.012 C 
ATOM     14  C   UNL A   1      31.004  28.973  22.465  1.00  0.00     0.008 C 
ATOM     15  C   UNL A   1      28.856  27.978  23.269  1.00  0.00     0.008 C 
ENDBRANCH   9  13
BRANCH  11  16
ATOM     16  C   UNL A   1      31.227  24.415  26.638  1.00  0.00     0.227 C 
ATOM     17  O   UNL A   1      30.223  23.940  27.174  1.00  0.00    -0.275 OA
BRANCH  16  18
ATOM     18  C   UNL A   1      32.525  23.627  26.582  1.00  0.00     0.136 C 
BRANCH  18  19
ATOM     19  C   UNL A   1      33.084  23.430  25.197  1.00  0.00    -0.028 A 
ATOM     20  C   UNL A   1      32.454  22.589  24.216  1.00  0.00     0.016 A 
ATOM     21  C   UNL A   1      34.225  24.008  24.667  1.00  0.00     0.069 A 
ATOM     22  C   UNL A   1      33.153  22.532  23.032  1.00  0.00     0.065 A 
ATOM     23  S   UNL A   1      34.567  23.486  23.076  1.00  0.00    -0.152 S 
ENDBRANCH  18  19
ENDBRANCH  16  18
ENDBRANCH  11  16
ENDBRANCH   5   8
ENDBRANCH   3   4
ENDBRANCH   2   3
ENDBRANCH   1   2
BRANCH   1  24
ATOM     24  C   UNL A   1      34.561  33.241  28.023  1.00  0.00     0.002 C 
BRANCH  24  25
ATOM     25  C   UNL A   1      33.332  34.127  28.240  1.00  0.00     0.021 C 
BRANCH  25  26
ATOM     26  C   UNL A   1      33.645  35.510  28.798  1.00  0.00     0.116 C 
BRANCH  26  27
ATOM     27  N   UNL A   1      32.895  35.787  30.012  1.00  0.00    -0.352 N 
ATOM     28  C   UNL A   1      33.051  35.251  31.264  1.00  0.00     0.251 C 
ATOM     29  H   UNL A   1      32.174  36.452  29.923  1.00  0.00     0.163 HD
ATOM     30  O   UNL A   1      32.191  35.435  32.124  1.00  0.00    -0.269 OA
BRANCH  28  31
ATOM     31  C   UNL A   1      34.249  34.442  31.568  1.00  0.00     0.039 A 
ATOM     32  C   UNL A   1      35.506  34.927  31.201  1.00  0.00     0.014 A 
ATOM     33  C   UNL A   1      34.129  33.210  32.218  1.00  0.00     0.014 A 
ATOM     34  C   UNL A   1      36.648  34.196  31.532  1.00  0.00     0.010 A 
ATOM     35  C   UNL A   1      35.272  32.525  32.616  1.00  0.00     0.010 A 
ATOM     36  C   UNL A   1      36.543  33.005  32.269  1.00  0.00    -0.014 A 
BRANCH  36  37
ATOM     37  C   UNL A   1      37.752  32.253  32.690  1.00  0.00     0.031 A 
ATOM     38  C   UNL A   1      38.464  32.613  33.966  1.00  0.00     0.074 A 
ATOM     39  C   UNL A   1      38.253  31.296  31.884  1.00  0.00     0.049 A 
ATOM     40  N   UNL A   1      39.554  32.097  34.475  1.00  0.00    -0.248 NA
ATOM     41  C   UNL A   1      37.893  33.712  34.762  1.00  0.00     0.031 C 
ATOM     42  C   UNL A   1      37.697  30.907  30.587  1.00  0.00     0.029 A 
ATOM     43  N   UNL A   1      39.357  30.494  32.027  1.00  0.00    -0.354 N 
ATOM     44  C   UNL A   1      39.816  32.828  35.627  1.00  0.00     0.074 A 
ATOM     45  C   UNL A   1      38.796  33.848  35.722  1.00  0.00     0.031 C 
ATOM     46  C   UNL A   1      38.454  29.933  30.058  1.00  0.00     0.029 A 
ATOM     47  C   UNL A   1      39.567  29.652  30.960  1.00  0.00     0.049 A 
ATOM     48  H   UNL A   1      39.942  30.517  32.819  1.00  0.00     0.167 HD
ATOM     49  C   UNL A   1      40.800  32.649  36.541  1.00  0.00     0.034 A 
ATOM     50  C   UNL A   1      40.551  28.761  30.729  1.00  0.00     0.034 A 
ATOM     51  C   UNL A   1      41.796  31.613  36.458  1.00  0.00     0.049 A 
ATOM     52  C   UNL A   1      41.622  28.569  31.766  1.00  0.00     0.074 A 
ATOM     53  C   UNL A   1      42.784  31.296  37.373  1.00  0.00     0.029 A 
ATOM     54  N   UNL A   1      41.940  30.738  35.394  1.00  0.00    -0.354 N 
ATOM     55  N   UNL A   1      41.766  29.164  32.925  1.00  0.00    -0.248 NA
ATOM     56  C   UNL A   1      42.649  27.555  31.480  1.00  0.00     0.031 C 
ATOM     57  C   UNL A   1      43.548  30.250  36.844  1.00  0.00     0.029 A 
ATOM     58  C   UNL A   1      43.012  29.890  35.618  1.00  0.00     0.049 A 
ATOM     59  H   UNL A   1      41.366  30.720  34.594  1.00  0.00     0.167 HD
ATOM     60  C   UNL A   1      42.874  28.575  33.522  1.00  0.00     0.074 A 
ATOM     61  C   UNL A   1      43.352  27.561  32.605  1.00  0.00     0.031 C 
ATOM     62  C   UNL A   1      43.452  28.855  34.716  1.00  0.00     0.034 A 
BRANCH  49  63
ATOM     63  C   UNL A   1      40.823  33.573  37.732  1.00  0.00     0.023 A 
ATOM     64  C   UNL A   1      41.666  34.705  37.723  1.00  0.00     0.012 A 
ATOM     65  C   UNL A   1      39.983  33.349  38.841  1.00  0.00     0.148 A 
ATOM     66  C   UNL A   1      41.706  35.572  38.814  1.00  0.00     0.002 A 
ATOM     67  C   UNL A   1      39.992  34.245  39.903  1.00  0.00     0.091 A 
ATOM     68  F   UNL A   1      39.203  32.259  38.843  1.00  0.00    -0.205 F 
ATOM     69  C   UNL A   1      40.864  35.347  39.899  1.00  0.00     0.022 A 
BRANCH  67  70
ATOM     70  S   UNL A   1      38.887  34.090  41.311  1.00  0.00     0.127 S 
ATOM     71  O   UNL A   1      37.602  33.856  40.651  1.00  0.00    -0.237 OA
ATOM     72  O   UNL A   1      39.436  32.925  42.005  1.00  0.00    -0.237 OA
ATOM     73  O   UNL A   1      38.994  35.342  42.045  1.00  0.00    -0.744 OA
ENDBRANCH  67  70
ENDBRANCH  49  63
BRANCH  50  74
ATOM     74  C   UNL A   1      40.534  27.941  29.484  1.00  0.00     0.023 A 
ATOM     75  C   UNL A   1      39.593  26.900  29.356  1.00  0.00     0.012 A 
ATOM     76  C   UNL A   1      41.418  28.204  28.421  1.00  0.00     0.148 A 
ATOM     77  C   UNL A   1      39.556  26.115  28.202  1.00  0.00     0.002 A 
ATOM     78  C   UNL A   1      41.338  27.456  27.254  1.00  0.00     0.091 A 
ATOM     79  F   UNL A   1      42.308  29.196  28.569  1.00  0.00    -0.205 F 
ATOM     80  C   UNL A   1      40.420  26.399  27.148  1.00  0.00     0.022 A 
BRANCH  78  81
ATOM     81  S   UNL A   1      42.322  27.830  25.799  1.00  0.00     0.127 S 
ATOM     82  O   UNL A   1      41.921  26.763  24.885  1.00  0.00    -0.237 OA
ATOM     83  O   UNL A   1      41.834  29.163  25.444  1.00  0.00    -0.237 OA
ATOM     84  O   UNL A   1      43.710  27.793  26.240  1.00  0.00    -0.744 OA
ENDBRANCH  78  81
ENDBRANCH  50  74
BRANCH  62  85
ATOM     85  C   UNL A   1      44.645  28.031  35.127  1.00  0.00     0.023 A 
ATOM     86  C   UNL A   1      45.948  28.480  34.832  1.00  0.00     0.012 A 
ATOM     87  C   UNL A   1      44.474  26.845  35.868  1.00  0.00     0.148 A 
ATOM     88  C   UNL A   1      47.060  27.742  35.236  1.00  0.00     0.002 A 
ATOM     89  C   UNL A   1      45.588  26.143  36.313  1.00  0.00     0.091 A 
ATOM     90  F   UNL A   1      43.227  26.425  36.125  1.00  0.00    -0.205 F 
ATOM     91  C   UNL A   1      46.881  26.582  35.987  1.00  0.00     0.022 A 
BRANCH  89  92
ATOM     92  S   UNL A   1      45.458  24.696  37.369  1.00  0.00     0.127 S 
ATOM     93  O   UNL A   1      44.602  25.189  38.447  1.00  0.00    -0.237 OA
ATOM     94  O   UNL A   1      44.821  23.722  36.481  1.00  0.00    -0.237 OA
ATOM     95  O   UNL A   1      46.820  24.358  37.760  1.00  0.00    -0.744 OA
ENDBRANCH  89  92
ENDBRANCH  62  85
ENDBRANCH  36  37
ENDBRANCH  28  31
ENDBRANCH  26  27
ENDBRANCH  25  26
ENDBRANCH  24  25
ENDBRANCH   1  24
TORSDOF 20
ENDMDL
MODEL 2
REMARK VINA RESULT:     -10.1      2.057      3.284
REMARK SMILES CC(C)[C@@H]1CN(C(=O)Cc2ccsc2)C[C@H]1C(=O)NCCCCCCNC(=O)c1ccc(-c2c3nc(c(-c4cccc(S(=O)(=O)[O-])c4F)c4ccc([nH]4)c(-c4cccc(S(=O)(=O)[O-])c4F)c4nc(c(-c5cccc(S(=O)(=O)[O-])c5F)c5ccc2[nH]5)C=C4)C=C3)cc1
REMARK SMILES IDX 22 1 21 2 20 3 19 4 17 5 18 6 16 8 4 9 5 10 6 11 15 12 2 13
REMARK SMILES IDX 1 14 3 15 7 16 8 17 9 18 10 19 11 20 14 21 12 22 13 23 23 24
REMARK SMILES IDX 24 25 25 26 26 27 27 28 28 30 29 31 30 32 91 33 31 34 90 35
REMARK SMILES IDX 32 36 33 37 34 38 84 39 35 40 89 41 83 42 85 43 36 44 88 45
REMARK SMILES IDX 82 46 81 47 37 49 69 50 49 51 68 52 50 53 53 54 67 55 86 56
REMARK SMILES IDX 51 57 52 58 66 60 87 61 54 62 38 63 39 64 47 65 40 66 42 67
REMARK SMILES IDX 48 68 41 69 43 70 44 71 45 72 46 73 70 74 71 75 79 76 72 77
REMARK SMILES IDX 74 78 80 79 73 80 75 81 76 82 77 83 78 84 55 85 56 86 64 87
REMARK SMILES IDX 57 88 59 89 65 90 58 91 60 92 61 93 62 94 63 95
REMARK H PARENT 19 7 26 29 85 48 53 59
REMARK Flexibility Score: inf
ROOT
ATOM      1  C   UNL A   1      33.951  31.634  27.868  1.00  0.00     0.002 C 
ENDROOT
BRANCH   1   2
ATOM      2  C   UNL A   1      35.064  30.596  27.693  1.00  0.00     0.021 C 
BRANCH   2   3
ATOM      3  C   UNL A   1      34.579  29.271  27.113  1.00  0.00     0.116 C 
BRANCH   3   4
ATOM      4  N   UNL A   1      33.339  28.854  27.746  1.00  0.00    -0.356 N 
ATOM      5  C   UNL A   1      32.299  28.124  27.269  1.00  0.00     0.225 C 
ATOM      6  O   UNL A   1      31.323  27.961  28.007  1.00  0.00    -0.275 OA
ATOM      7  H   UNL A   1      33.236  29.151  28.679  1.00  0.00     0.163 HD
BRANCH   5   8
ATOM      8  C   UNL A   1      32.311  27.517  25.881  1.00  0.00     0.103 C 
ATOM      9  C   UNL A   1      31.892  26.030  25.816  1.00  0.00     0.025 C 
ATOM     10  C   UNL A   1      31.218  25.925  24.446  1.00  0.00     0.124 C 
ATOM     11  N   UNL A   1      30.631  27.236  24.234  1.00  0.00    -0.341 N 
ATOM     12  C   UNL A   1      31.388  28.264  24.921  1.00  0.00     0.133 C 
BRANCH   9  13
ATOM     13  C   UNL A   1      32.992  24.979  26.116  1.00  0.00    -0.012 C 
ATOM     14  C   UNL A   1      32.538  23.559  25.761  1.00  0.00     0.008 C 
ATOM     15  C   UNL A   1      34.350  25.256  25.470  1.00  0.00     0.008 C 
ENDBRANCH   9  13
BRANCH  11  16
ATOM     16  C   UNL A   1      29.551  27.577  23.444  1.00  0.00     0.227 C 
ATOM     17  O   UNL A   1      28.436  27.098  23.661  1.00  0.00    -0.275 OA
BRANCH  16  18
ATOM     18  C   UNL A   1      29.775  28.534  22.285  1.00  0.00     0.136 C 
BRANCH  18  19
ATOM     19  C   UNL A   1      29.099  29.873  22.434  1.00  0.00    -0.028 A 
ATOM     20  C   UNL A   1      28.173  30.164  23.494  1.00  0.00     0.016 A 
ATOM     21  C   UNL A   1      29.264  30.984  21.626  1.00  0.00     0.069 A 
ATOM     22  C   UNL A   1      27.655  31.437  23.417  1.00  0.00     0.065 A 
ATOM     23  S   UNL A   1      28.272  32.300  22.080  1.00  0.00    -0.152 S 
ENDBRANCH  18  19
ENDBRANCH  16  18
ENDBRANCH  11  16
ENDBRANCH   5   8
ENDBRANCH   3   4
ENDBRANCH   2   3
ENDBRANCH   1   2
BRANCH   1  24
ATOM     24  C   UNL A   1      34.430  33.011  28.338  1.00  0.00     0.002 C 
BRANCH  24  25
ATOM     25  C   UNL A   1      33.354  34.101  28.338  1.00  0.00     0.021 C 
BRANCH  25  26
ATOM     26  C   UNL A   1      33.792  35.415  28.973  1.00  0.00     0.116 C 
BRANCH  26  27
ATOM     27  N   UNL A   1      32.900  35.819  30.048  1.00  0.00    -0.352 N 
ATOM     28  C   UNL A   1      32.920  35.453  31.369  1.00  0.00     0.251 C 
ATOM     29  H   UNL A   1      32.182  36.442  29.792  1.00  0.00     0.163 HD
ATOM     30  O   UNL A   1      31.962  35.717  32.095  1.00  0.00    -0.269 OA
BRANCH  28  31
ATOM     31  C   UNL A   1      34.089  34.732  31.910  1.00  0.00     0.039 A 
ATOM     32  C   UNL A   1      33.977  33.367  32.185  1.00  0.00     0.014 A 
ATOM     33  C   UNL A   1      35.294  35.403  32.142  1.00  0.00     0.014 A 
ATOM     34  C   UNL A   1      35.092  32.665  32.646  1.00  0.00     0.010 A 
ATOM     35  C   UNL A   1      36.422  34.684  32.525  1.00  0.00     0.010 A 
ATOM     36  C   UNL A   1      36.330  33.311  32.791  1.00  0.00    -0.014 A 
BRANCH  36  37
ATOM     37  C   UNL A   1      37.542  32.563  33.212  1.00  0.00     0.031 A 
ATOM     38  C   UNL A   1      38.279  32.953  34.464  1.00  0.00     0.074 A 
ATOM     39  C   UNL A   1      38.024  31.581  32.424  1.00  0.00     0.049 A 
ATOM     40  N   UNL A   1      39.374  32.445  34.968  1.00  0.00    -0.248 NA
ATOM     41  C   UNL A   1      37.729  34.078  35.239  1.00  0.00     0.031 C 
ATOM     42  C   UNL A   1      37.443  31.160  31.148  1.00  0.00     0.029 A 
ATOM     43  N   UNL A   1      39.124  30.776  32.570  1.00  0.00    -0.354 N 
ATOM     44  C   UNL A   1      39.662  33.206  36.095  1.00  0.00     0.074 A 
ATOM     45  C   UNL A   1      38.649  34.235  36.179  1.00  0.00     0.031 C 
ATOM     46  C   UNL A   1      38.184  30.166  30.633  1.00  0.00     0.029 A 
ATOM     47  C   UNL A   1      39.311  29.903  31.523  1.00  0.00     0.049 A 
ATOM     48  H   UNL A   1      39.724  30.817  33.350  1.00  0.00     0.167 HD
ATOM     49  C   UNL A   1      40.660  33.046  36.997  1.00  0.00     0.034 A 
ATOM     50  C   UNL A   1      40.285  29.000  31.299  1.00  0.00     0.034 A 
ATOM     51  C   UNL A   1      41.648  32.002  36.925  1.00  0.00     0.049 A 
ATOM     52  C   UNL A   1      41.374  28.829  32.323  1.00  0.00     0.074 A 
ATOM     53  C   UNL A   1      42.650  31.703  37.831  1.00  0.00     0.029 A 
ATOM     54  N   UNL A   1      41.768  31.096  35.883  1.00  0.00    -0.354 N 
ATOM     55  N   UNL A   1      41.541  29.456  33.462  1.00  0.00    -0.248 NA
ATOM     56  C   UNL A   1      42.389  27.802  32.047  1.00  0.00     0.031 C 
ATOM     57  C   UNL A   1      43.399  30.638  37.318  1.00  0.00     0.029 A 
ATOM     58  C   UNL A   1      42.839  30.248  36.112  1.00  0.00     0.049 A 
ATOM     59  H   UNL A   1      41.180  31.060  35.094  1.00  0.00     0.167 HD
ATOM     60  C   UNL A   1      42.656  28.876  34.056  1.00  0.00     0.074 A 
ATOM     61  C   UNL A   1      43.112  27.834  33.159  1.00  0.00     0.031 C 
ATOM     62  C   UNL A   1      43.256  29.186  35.232  1.00  0.00     0.034 A 
BRANCH  49  63
ATOM     63  C   UNL A   1      40.710  34.002  38.160  1.00  0.00     0.023 A 
ATOM     64  C   UNL A   1      41.523  35.153  38.086  1.00  0.00     0.012 A 
ATOM     65  C   UNL A   1      39.922  33.789  39.309  1.00  0.00     0.148 A 
ATOM     66  C   UNL A   1      41.587  36.050  39.152  1.00  0.00     0.002 A 
ATOM     67  C   UNL A   1      39.953  34.714  40.346  1.00  0.00     0.091 A 
ATOM     68  F   UNL A   1      39.170  32.681  39.373  1.00  0.00    -0.205 F 
ATOM     69  C   UNL A   1      40.796  35.836  40.277  1.00  0.00     0.022 A 
BRANCH  67  70
ATOM     70  S   UNL A   1      38.912  34.571  41.803  1.00  0.00     0.127 S 
ATOM     71  O   UNL A   1      39.477  33.390  42.455  1.00  0.00    -0.237 OA
ATOM     72  O   UNL A   1      39.175  35.833  42.494  1.00  0.00    -0.237 OA
ATOM     73  O   UNL A   1      37.550  34.420  41.309  1.00  0.00    -0.744 OA
ENDBRANCH  67  70
ENDBRANCH  49  63
BRANCH  50  74
ATOM     74  C   UNL A   1      40.241  28.146  30.079  1.00  0.00     0.023 A 
ATOM     75  C   UNL A   1      39.318  27.084  30.011  1.00  0.00     0.012 A 
ATOM     76  C   UNL A   1      41.082  28.397  28.978  1.00  0.00     0.148 A 
ATOM     77  C   UNL A   1      39.256  26.267  28.881  1.00  0.00     0.002 A 
ATOM     78  C   UNL A   1      40.977  27.615  27.835  1.00  0.00     0.091 A 
ATOM     79  F   UNL A   1      41.957  29.408  29.068  1.00  0.00    -0.205 F 
ATOM     80  C   UNL A   1      40.078  26.539  27.790  1.00  0.00     0.022 A 
BRANCH  78  81
ATOM     81  S   UNL A   1      41.902  27.968  26.337  1.00  0.00     0.127 S 
ATOM     82  O   UNL A   1      41.453  29.321  26.020  1.00  0.00    -0.237 OA
ATOM     83  O   UNL A   1      43.284  27.870  26.810  1.00  0.00    -0.237 OA
ATOM     84  O   UNL A   1      41.518  26.936  25.383  1.00  0.00    -0.744 OA
ENDBRANCH  78  81
ENDBRANCH  50  74
BRANCH  62  85
ATOM     85  C   UNL A   1      44.451  28.365  35.645  1.00  0.00     0.023 A 
ATOM     86  C   UNL A   1      44.272  27.183  36.390  1.00  0.00     0.012 A 
ATOM     87  C   UNL A   1      45.748  28.732  35.233  1.00  0.00     0.148 A 
ATOM     88  C   UNL A   1      45.368  26.398  36.750  1.00  0.00     0.002 A 
ATOM     89  C   UNL A   1      46.828  27.918  35.549  1.00  0.00     0.091 A 
ATOM     90  F   UNL A   1      45.901  29.869  34.539  1.00  0.00    -0.205 F 
ATOM     91  C   UNL A   1      46.643  26.758  36.318  1.00  0.00     0.022 A 
BRANCH  89  92
ATOM     92  S   UNL A   1      48.491  28.247  34.954  1.00  0.00     0.127 S 
ATOM     93  O   UNL A   1      48.803  29.508  35.624  1.00  0.00    -0.237 OA
ATOM     94  O   UNL A   1      49.233  27.089  35.455  1.00  0.00    -0.237 OA
ATOM     95  O   UNL A   1      48.393  28.321  33.502  1.00  0.00    -0.744 OA
ENDBRANCH  89  92
ENDBRANCH  62  85
ENDBRANCH  36  37
ENDBRANCH  28  31
ENDBRANCH  26  27
ENDBRANCH  25  26
ENDBRANCH  24  25
ENDBRANCH   1  24
TORSDOF 20
ENDMDL
MODEL 3
REMARK VINA RESULT:      -9.6      6.584     11.462
REMARK SMILES CC(C)[C@@H]1CN(C(=O)Cc2ccsc2)C[C@H]1C(=O)NCCCCCCNC(=O)c1ccc(-c2c3nc(c(-c4cccc(S(=O)(=O)[O-])c4F)c4ccc([nH]4)c(-c4cccc(S(=O)(=O)[O-])c4F)c4nc(c(-c5cccc(S(=O)(=O)[O-])c5F)c5ccc2[nH]5)C=C4)C=C3)cc1
REMARK SMILES IDX 22 1 21 2 20 3 19 4 17 5 18 6 16 8 4 9 5 10 6 11 15 12 2 13
REMARK SMILES IDX 1 14 3 15 7 16 8 17 9 18 10 19 11 20 14 21 12 22 13 23 23 24
REMARK SMILES IDX 24 25 25 26 26 27 27 28 28 30 29 31 30 32 91 33 31 34 90 35
REMARK SMILES IDX 32 36 33 37 34 38 84 39 35 40 89 41 83 42 85 43 36 44 88 45
REMARK SMILES IDX 82 46 81 47 37 49 69 50 49 51 68 52 50 53 53 54 67 55 86 56
REMARK SMILES IDX 51 57 52 58 66 60 87 61 54 62 38 63 39 64 47 65 40 66 42 67
REMARK SMILES IDX 48 68 41 69 43 70 44 71 45 72 46 73 70 74 71 75 79 76 72 77
REMARK SMILES IDX 74 78 80 79 73 80 75 81 76 82 77 83 78 84 55 85 56 86 64 87
REMARK SMILES IDX 57 88 59 89 65 90 58 91 60 92 61 93 62 94 63 95
REMARK H PARENT 19 7 26 29 85 48 53 59
REMARK Flexibility Score: inf
ROOT
ATOM      1  C   UNL A   1      38.074  22.889  25.739  1.00  0.00     0.002 C 
ENDROOT
BRANCH   1   2
ATOM      2  C   UNL A   1      36.817  22.054  25.481  1.00  0.00     0.021 C 
BRANCH   2   3
ATOM      3  C   UNL A   1      35.826  22.066  26.640  1.00  0.00     0.116 C 
BRANCH   3   4
ATOM      4  N   UNL A   1      34.695  21.196  26.362  1.00  0.00    -0.356 N 
ATOM      5  C   UNL A   1      33.551  21.420  25.667  1.00  0.00     0.225 C 
ATOM      6  O   UNL A   1      32.711  20.516  25.633  1.00  0.00    -0.275 OA
ATOM      7  H   UNL A   1      34.772  20.291  26.743  1.00  0.00     0.163 HD
BRANCH   5   8
ATOM      8  C   UNL A   1      33.289  22.727  24.946  1.00  0.00     0.103 C 
ATOM      9  C   UNL A   1      32.230  22.650  23.822  1.00  0.00     0.025 C 
ATOM     10  C   UNL A   1      31.592  24.041  23.860  1.00  0.00     0.124 C 
ATOM     11  N   UNL A   1      31.681  24.439  25.254  1.00  0.00    -0.341 N 
ATOM     12  C   UNL A   1      32.823  23.824  25.901  1.00  0.00     0.133 C 
BRANCH   9  13
ATOM     13  C   UNL A   1      32.716  22.162  22.434  1.00  0.00    -0.012 C 
ATOM     14  C   UNL A   1      31.795  21.083  21.852  1.00  0.00     0.008 C 
ATOM     15  C   UNL A   1      32.932  23.262  21.396  1.00  0.00     0.008 C 
ENDBRANCH   9  13
BRANCH  11  16
ATOM     16  C   UNL A   1      30.887  25.332  25.945  1.00  0.00     0.227 C 
ATOM     17  O   UNL A   1      29.858  24.953  26.511  1.00  0.00    -0.275 OA
BRANCH  16  18
ATOM     18  C   UNL A   1      31.295  26.795  25.970  1.00  0.00     0.136 C 
BRANCH  18  19
ATOM     19  C   UNL A   1      30.718  27.630  24.857  1.00  0.00    -0.028 A 
ATOM     20  C   UNL A   1      31.019  29.026  24.693  1.00  0.00     0.016 A 
ATOM     21  C   UNL A   1      29.861  27.207  23.855  1.00  0.00     0.069 A 
ATOM     22  C   UNL A   1      30.358  29.595  23.630  1.00  0.00     0.065 A 
ATOM     23  S   UNL A   1      29.372  28.469  22.811  1.00  0.00    -0.152 S 
ENDBRANCH  18  19
ENDBRANCH  16  18
ENDBRANCH  11  16
ENDBRANCH   5   8
ENDBRANCH   3   4
ENDBRANCH   2   3
ENDBRANCH   1   2
BRANCH   1  24
ATOM     24  C   UNL A   1      39.259  22.101  26.306  1.00  0.00     0.002 C 
BRANCH  24  25
ATOM     25  C   UNL A   1      39.475  20.722  25.676  1.00  0.00     0.021 C 
BRANCH  25  26
ATOM     26  C   UNL A   1      40.091  19.692  26.616  1.00  0.00     0.116 C 
BRANCH  26  27
ATOM     27  N   UNL A   1      41.361  19.192  26.113  1.00  0.00    -0.352 N 
ATOM     28  C   UNL A   1      42.498  19.888  25.798  1.00  0.00     0.251 C 
ATOM     29  H   UNL A   1      41.409  18.218  25.979  1.00  0.00     0.163 HD
ATOM     30  O   UNL A   1      43.408  19.335  25.180  1.00  0.00    -0.269 OA
BRANCH  28  31
ATOM     31  C   UNL A   1      42.621  21.306  26.194  1.00  0.00     0.039 A 
ATOM     32  C   UNL A   1      42.701  21.627  27.550  1.00  0.00     0.014 A 
ATOM     33  C   UNL A   1      42.660  22.313  25.225  1.00  0.00     0.014 A 
ATOM     34  C   UNL A   1      42.871  22.959  27.933  1.00  0.00     0.010 A 
ATOM     35  C   UNL A   1      42.910  23.628  25.606  1.00  0.00     0.010 A 
ATOM     36  C   UNL A   1      43.007  23.966  26.963  1.00  0.00    -0.014 A 
BRANCH  36  37
ATOM     37  C   UNL A   1      43.259  25.377  27.351  1.00  0.00     0.031 A 
ATOM     38  C   UNL A   1      44.644  25.957  27.249  1.00  0.00     0.074 A 
ATOM     39  C   UNL A   1      42.256  26.113  27.869  1.00  0.00     0.049 A 
ATOM     40  N   UNL A   1      45.063  27.152  27.579  1.00  0.00    -0.248 NA
ATOM     41  C   UNL A   1      45.702  25.072  26.734  1.00  0.00     0.031 C 
ATOM     42  C   UNL A   1      40.888  25.640  28.089  1.00  0.00     0.029 A 
ATOM     43  N   UNL A   1      42.238  27.406  28.326  1.00  0.00    -0.354 N 
ATOM     44  C   UNL A   1      46.433  27.151  27.343  1.00  0.00     0.074 A 
ATOM     45  C   UNL A   1      46.781  25.826  26.882  1.00  0.00     0.031 C 
ATOM     46  C   UNL A   1      40.161  26.632  28.627  1.00  0.00     0.029 A 
ATOM     47  C   UNL A   1      41.017  27.798  28.822  1.00  0.00     0.049 A 
ATOM     48  H   UNL A   1      43.025  27.998  28.301  1.00  0.00     0.167 HD
ATOM     49  C   UNL A   1      47.317  28.169  27.471  1.00  0.00     0.034 A 
ATOM     50  C   UNL A   1      40.632  28.963  29.381  1.00  0.00     0.034 A 
ATOM     51  C   UNL A   1      46.960  29.495  27.902  1.00  0.00     0.049 A 
ATOM     52  C   UNL A   1      41.628  30.083  29.495  1.00  0.00     0.074 A 
ATOM     53  C   UNL A   1      47.764  30.617  27.985  1.00  0.00     0.029 A 
ATOM     54  N   UNL A   1      45.700  29.874  28.336  1.00  0.00    -0.354 N 
ATOM     55  N   UNL A   1      42.884  30.113  29.123  1.00  0.00    -0.248 NA
ATOM     56  C   UNL A   1      41.143  31.344  30.076  1.00  0.00     0.031 C 
ATOM     57  C   UNL A   1      46.997  31.667  28.504  1.00  0.00     0.029 A 
ATOM     58  C   UNL A   1      45.706  31.208  28.707  1.00  0.00     0.049 A 
ATOM     59  H   UNL A   1      44.914  29.281  28.376  1.00  0.00     0.167 HD
ATOM     60  C   UNL A   1      43.331  31.402  29.390  1.00  0.00     0.074 A 
ATOM     61  C   UNL A   1      42.204  32.129  29.936  1.00  0.00     0.031 C 
ATOM     62  C   UNL A   1      44.566  31.933  29.209  1.00  0.00     0.034 A 
BRANCH  49  63
ATOM     63  C   UNL A   1      48.753  27.897  27.102  1.00  0.00     0.023 A 
ATOM     64  C   UNL A   1      49.680  27.552  28.108  1.00  0.00     0.012 A 
ATOM     65  C   UNL A   1      49.178  27.939  25.760  1.00  0.00     0.148 A 
ATOM     66  C   UNL A   1      51.014  27.299  27.791  1.00  0.00     0.002 A 
ATOM     67  C   UNL A   1      50.498  27.637  25.446  1.00  0.00     0.091 A 
ATOM     68  F   UNL A   1      48.290  28.288  24.818  1.00  0.00    -0.205 F 
ATOM     69  C   UNL A   1      51.420  27.332  26.460  1.00  0.00     0.022 A 
BRANCH  67  70
ATOM     70  S   UNL A   1      51.101  27.573  23.755  1.00  0.00     0.127 S 
ATOM     71  O   UNL A   1      51.168  28.993  23.412  1.00  0.00    -0.237 OA
ATOM     72  O   UNL A   1      52.402  26.923  23.917  1.00  0.00    -0.237 OA
ATOM     73  O   UNL A   1      50.122  26.796  23.009  1.00  0.00    -0.744 OA
ENDBRANCH  67  70
ENDBRANCH  49  63
BRANCH  50  74
ATOM     74  C   UNL A   1      39.220  29.145  29.820  1.00  0.00     0.023 A 
ATOM     75  C   UNL A   1      38.849  28.772  31.126  1.00  0.00     0.012 A 
ATOM     76  C   UNL A   1      38.254  29.711  28.966  1.00  0.00     0.148 A 
ATOM     77  C   UNL A   1      37.532  28.929  31.564  1.00  0.00     0.002 A 
ATOM     78  C   UNL A   1      36.960  29.916  29.426  1.00  0.00     0.091 A 
ATOM     79  F   UNL A   1      38.629  30.052  27.725  1.00  0.00    -0.205 F 
ATOM     80  C   UNL A   1      36.591  29.510  30.718  1.00  0.00     0.022 A 
BRANCH  78  81
ATOM     81  S   UNL A   1      35.715  30.772  28.454  1.00  0.00     0.127 S 
ATOM     82  O   UNL A   1      35.163  29.683  27.651  1.00  0.00    -0.237 OA
ATOM     83  O   UNL A   1      34.824  31.283  29.496  1.00  0.00    -0.237 OA
ATOM     84  O   UNL A   1      36.430  31.802  27.714  1.00  0.00    -0.744 OA
ENDBRANCH  78  81
ENDBRANCH  50  74
BRANCH  62  85
ATOM     85  C   UNL A   1      44.762  33.383  29.567  1.00  0.00     0.023 A 
ATOM     86  C   UNL A   1      45.246  33.736  30.844  1.00  0.00     0.012 A 
ATOM     87  C   UNL A   1      44.533  34.394  28.613  1.00  0.00     0.148 A 
ATOM     88  C   UNL A   1      45.464  35.072  31.175  1.00  0.00     0.002 A 
ATOM     89  C   UNL A   1      44.802  35.719  28.933  1.00  0.00     0.091 A 
ATOM     90  F   UNL A   1      44.056  34.041  27.410  1.00  0.00    -0.205 F 
ATOM     91  C   UNL A   1      45.254  36.062  30.217  1.00  0.00     0.022 A 
BRANCH  89  92
ATOM     92  S   UNL A   1      44.658  37.049  27.734  1.00  0.00     0.127 S 
ATOM     93  O   UNL A   1      45.745  36.735  26.808  1.00  0.00    -0.237 OA
ATOM     94  O   UNL A   1      43.314  36.835  27.195  1.00  0.00    -0.237 OA
ATOM     95  O   UNL A   1      44.818  38.287  28.485  1.00  0.00    -0.744 OA
ENDBRANCH  89  92
ENDBRANCH  62  85
ENDBRANCH  36  37
ENDBRANCH  28  31
ENDBRANCH  26  27
ENDBRANCH  25  26
ENDBRANCH  24  25
ENDBRANCH   1  24
TORSDOF 20
ENDMDL
