MODEL 1
REMARK VINA RESULT:     -12.4      0.000      0.000
REMARK SMILES Cc1ccc(-c2cc(OCC(=O)NCCCCCCNC(=O)c3ccc(-c4c5nc(c(-c6cccc(S(=O)(=O)[O-])c6F)c6ccc([nH]6)c(-c6cccc(S(=O)(=O)[O-])c6F)c6nc(c(-c7cccc(S(=O)(=O)[O-])c7F)c7ccc4[nH]7)C=C6)C=C5)cc3)nc(NCc3ccc4c(c3)OCO4)n2)cc1
REMARK SMILES IDX 15 1 14 2 13 3 11 4 12 5 10 7 9 8 8 9 6 10 7 11 99 12 87 13
REMARK SMILES IDX 86 14 5 15 1 16 2 17 3 18 101 19 4 20 100 21 88 22 89 24
REMARK SMILES IDX 90 25 91 26 95 27 92 28 94 29 93 30 96 31 98 32 97 33 16 34
REMARK SMILES IDX 17 35 18 36 19 37 20 38 21 39 22 41 23 42 24 43 85 44 25 45
REMARK SMILES IDX 84 46 26 47 27 48 28 49 78 50 29 51 83 52 77 53 79 54 30 55
REMARK SMILES IDX 82 56 76 57 75 58 31 60 63 61 43 62 62 63 44 64 47 65 61 66
REMARK SMILES IDX 80 67 45 68 46 69 60 71 81 72 48 73 32 74 33 75 41 76 34 77
REMARK SMILES IDX 36 78 42 79 35 80 37 81 38 82 39 83 40 84 64 85 65 86 73 87
REMARK SMILES IDX 66 88 68 89 74 90 67 91 69 92 70 93 71 94 72 95 49 96 50 97
REMARK SMILES IDX 58 98 51 99 53 100 59 101 52 102 54 103 55 104 56 105 57 106
REMARK H PARENT 13 6 88 23 20 40 79 59 47 70
REMARK Flexibility Score: inf
ROOT
ATOM      1  C   UNL A   1      34.334  24.209  26.077  1.00  0.00     0.021 C 
ENDROOT
BRANCH   1   2
ATOM      2  C   UNL A   1      33.887  25.568  25.551  1.00  0.00     0.116 C 
BRANCH   2   3
ATOM      3  N   UNL A   1      33.104  26.304  26.522  1.00  0.00    -0.353 N 
ATOM      4  C   UNL A   1      31.753  26.462  26.562  1.00  0.00     0.258 C 
ATOM      5  O   UNL A   1      31.249  27.079  27.503  1.00  0.00    -0.271 OA
ATOM      6  H   UNL A   1      33.612  26.743  27.242  1.00  0.00     0.163 HD
BRANCH   4   7
ATOM      7  C   UNL A   1      30.889  25.848  25.454  1.00  0.00     0.331 C 
BRANCH   7   8
ATOM      8  O   UNL A   1      30.630  24.458  25.534  1.00  0.00    -0.467 OA
BRANCH   8   9
ATOM      9  C   UNL A   1      31.315  23.629  24.691  1.00  0.00     0.219 A 
ATOM     10  C   UNL A   1      32.242  21.631  23.936  1.00  0.00     0.080 A 
ATOM     11  C   UNL A   1      31.562  22.305  24.926  1.00  0.00     0.097 A 
ATOM     12  N   UNL A   1      32.715  22.236  22.832  1.00  0.00    -0.213 NA
ATOM     13  C   UNL A   1      32.422  23.533  22.682  1.00  0.00     0.226 A 
ATOM     14  N   UNL A   1      31.726  24.247  23.575  1.00  0.00    -0.177 NA
BRANCH  10  15
ATOM     15  C   UNL A   1      32.415  20.180  24.030  1.00  0.00     0.000 A 
ATOM     16  C   UNL A   1      33.221  15.944  24.341  1.00  0.00     0.044 C 
ATOM     17  C   UNL A   1      32.926  17.409  24.242  1.00  0.00    -0.051 A 
ATOM     18  C   UNL A   1      32.653  17.992  22.998  1.00  0.00     0.004 A 
ATOM     19  C   UNL A   1      32.927  18.215  25.383  1.00  0.00     0.004 A 
ATOM     20  C   UNL A   1      32.392  19.363  22.894  1.00  0.00     0.010 A 
ATOM     21  C   UNL A   1      32.676  19.584  25.277  1.00  0.00     0.010 A 
ENDBRANCH  10  15
BRANCH  13  22
ATOM     22  N   UNL A   1      32.802  24.212  21.559  1.00  0.00    -0.350 N 
ATOM     23  H   UNL A   1      33.593  23.897  21.065  1.00  0.00     0.164 HD
BRANCH  22  24
ATOM     24  C   UNL A   1      32.099  25.368  21.064  1.00  0.00     0.152 C 
BRANCH  24  25
ATOM     25  C   UNL A   1      32.289  26.592  21.947  1.00  0.00    -0.025 A 
ATOM     26  C   UNL A   1      33.607  27.012  22.258  1.00  0.00     0.009 A 
ATOM     27  C   UNL A   1      31.205  27.328  22.459  1.00  0.00     0.056 A 
ATOM     28  C   UNL A   1      33.844  28.093  23.117  1.00  0.00     0.051 A 
ATOM     29  C   UNL A   1      31.467  28.362  23.330  1.00  0.00     0.166 A 
ATOM     30  C   UNL A   1      32.750  28.727  23.661  1.00  0.00     0.165 A 
ATOM     31  O   UNL A   1      30.532  29.099  23.987  1.00  0.00    -0.454 OA
ATOM     32  O   UNL A   1      32.779  29.732  24.578  1.00  0.00    -0.454 OA
ATOM     33  C   UNL A   1      31.375  29.823  24.902  1.00  0.00     0.468 C 
ENDBRANCH  24  25
ENDBRANCH  22  24
ENDBRANCH  13  22
ENDBRANCH   8   9
ENDBRANCH   7   8
ENDBRANCH   4   7
ENDBRANCH   2   3
ENDBRANCH   1   2
BRANCH   1  34
ATOM     34  C   UNL A   1      35.554  23.595  25.375  1.00  0.00     0.002 C 
BRANCH  34  35
ATOM     35  C   UNL A   1      36.849  23.477  26.196  1.00  0.00     0.002 C 
BRANCH  35  36
ATOM     36  C   UNL A   1      37.941  22.562  25.639  1.00  0.00     0.021 C 
BRANCH  36  37
ATOM     37  C   UNL A   1      39.264  22.666  26.371  1.00  0.00     0.116 C 
BRANCH  37  38
ATOM     38  N   UNL A   1      40.097  21.494  26.247  1.00  0.00    -0.352 N 
ATOM     39  C   UNL A   1      41.474  21.407  26.201  1.00  0.00     0.251 C 
ATOM     40  H   UNL A   1      39.616  20.637  26.188  1.00  0.00     0.163 HD
ATOM     41  O   UNL A   1      41.960  20.371  25.749  1.00  0.00    -0.269 OA
BRANCH  39  42
ATOM     42  C   UNL A   1      42.338  22.453  26.821  1.00  0.00     0.039 A 
ATOM     43  C   UNL A   1      42.246  22.617  28.211  1.00  0.00     0.014 A 
ATOM     44  C   UNL A   1      43.017  23.409  26.073  1.00  0.00     0.014 A 
ATOM     45  C   UNL A   1      42.560  23.843  28.794  1.00  0.00     0.010 A 
ATOM     46  C   UNL A   1      43.248  24.646  26.619  1.00  0.00     0.010 A 
ATOM     47  C   UNL A   1      42.928  24.883  27.956  1.00  0.00    -0.014 A 
BRANCH  47  48
ATOM     48  C   UNL A   1      43.006  26.280  28.324  1.00  0.00     0.031 A 
ATOM     49  C   UNL A   1      41.800  27.116  28.248  1.00  0.00     0.074 A 
ATOM     50  C   UNL A   1      44.074  26.625  29.078  1.00  0.00     0.049 A 
ATOM     51  N   UNL A   1      41.782  28.380  28.490  1.00  0.00    -0.248 NA
ATOM     52  C   UNL A   1      40.497  26.580  27.863  1.00  0.00     0.031 C 
ATOM     53  C   UNL A   1      44.164  27.693  30.063  1.00  0.00     0.029 A 
ATOM     54  N   UNL A   1      45.382  26.130  29.001  1.00  0.00    -0.354 N 
ATOM     55  C   UNL A   1      40.460  28.726  28.660  1.00  0.00     0.074 A 
ATOM     56  C   UNL A   1      39.715  27.642  28.075  1.00  0.00     0.031 C 
ATOM     57  C   UNL A   1      45.460  27.958  30.293  1.00  0.00     0.029 A 
ATOM     58  C   UNL A   1      46.219  27.221  29.296  1.00  0.00     0.049 A 
ATOM     59  H   UNL A   1      45.659  25.210  28.785  1.00  0.00     0.167 HD
ATOM     60  C   UNL A   1      40.169  29.796  29.451  1.00  0.00     0.034 A 
ATOM     61  C   UNL A   1      47.052  27.787  28.370  1.00  0.00     0.034 A 
ATOM     62  C   UNL A   1      41.396  30.553  29.763  1.00  0.00     0.049 A 
ATOM     63  C   UNL A   1      46.713  29.243  28.087  1.00  0.00     0.074 A 
ATOM     64  C   UNL A   1      42.179  30.664  30.898  1.00  0.00     0.029 A 
ATOM     65  N   UNL A   1      42.141  31.101  28.720  1.00  0.00    -0.354 N 
ATOM     66  N   UNL A   1      45.656  29.853  28.551  1.00  0.00    -0.248 NA
ATOM     67  C   UNL A   1      47.525  30.128  27.255  1.00  0.00     0.031 C 
ATOM     68  C   UNL A   1      43.459  31.148  30.496  1.00  0.00     0.029 A 
ATOM     69  C   UNL A   1      43.436  31.383  29.130  1.00  0.00     0.049 A 
ATOM     70  H   UNL A   1      41.795  31.264  27.813  1.00  0.00     0.167 HD
ATOM     71  C   UNL A   1      45.550  31.103  28.009  1.00  0.00     0.074 A 
ATOM     72  C   UNL A   1      46.794  31.258  27.271  1.00  0.00     0.031 C 
ATOM     73  C   UNL A   1      44.425  31.871  28.166  1.00  0.00     0.034 A 
BRANCH  60  74
ATOM     74  C   UNL A   1      38.834  30.066  30.143  1.00  0.00     0.023 A 
ATOM     75  C   UNL A   1      38.504  29.237  31.240  1.00  0.00     0.012 A 
ATOM     76  C   UNL A   1      37.829  30.991  29.754  1.00  0.00     0.148 A 
ATOM     77  C   UNL A   1      37.266  29.306  31.896  1.00  0.00     0.002 A 
ATOM     78  C   UNL A   1      36.619  31.105  30.447  1.00  0.00     0.091 A 
ATOM     79  F   UNL A   1      37.976  31.725  28.652  1.00  0.00    -0.205 F 
ATOM     80  C   UNL A   1      36.327  30.251  31.511  1.00  0.00     0.022 A 
BRANCH  78  81
ATOM     81  S   UNL A   1      35.374  32.344  30.030  1.00  0.00     0.127 S 
ATOM     82  O   UNL A   1      36.187  33.542  29.826  1.00  0.00    -0.237 OA
ATOM     83  O   UNL A   1      34.784  31.796  28.808  1.00  0.00    -0.237 OA
ATOM     84  O   UNL A   1      34.457  32.406  31.162  1.00  0.00    -0.744 OA
ENDBRANCH  78  81
ENDBRANCH  60  74
BRANCH  61  85
ATOM     85  C   UNL A   1      47.586  26.798  27.384  1.00  0.00     0.023 A 
ATOM     86  C   UNL A   1      46.771  26.543  26.253  1.00  0.00     0.012 A 
ATOM     87  C   UNL A   1      48.962  26.514  27.304  1.00  0.00     0.148 A 
ATOM     88  C   UNL A   1      47.338  26.196  25.026  1.00  0.00     0.002 A 
ATOM     89  C   UNL A   1      49.519  26.162  26.075  1.00  0.00     0.091 A 
ATOM     90  F   UNL A   1      49.715  26.684  28.399  1.00  0.00    -0.205 F 
ATOM     91  C   UNL A   1      48.717  26.053  24.927  1.00  0.00     0.022 A 
BRANCH  89  92
ATOM     92  S   UNL A   1      51.297  25.971  25.864  1.00  0.00     0.127 S 
ATOM     93  O   UNL A   1      51.557  24.768  26.649  1.00  0.00    -0.237 OA
ATOM     94  O   UNL A   1      51.431  25.799  24.418  1.00  0.00    -0.237 OA
ATOM     95  O   UNL A   1      51.870  27.209  26.373  1.00  0.00    -0.744 OA
ENDBRANCH  89  92
ENDBRANCH  61  85
BRANCH  73  96
ATOM     96  C   UNL A   1      44.137  33.154  27.404  1.00  0.00     0.023 A 
ATOM     97  C   UNL A   1      44.117  33.206  25.997  1.00  0.00     0.012 A 
ATOM     98  C   UNL A   1      43.730  34.328  28.090  1.00  0.00     0.148 A 
ATOM     99  C   UNL A   1      43.786  34.376  25.303  1.00  0.00     0.002 A 
ATOM    100  C   UNL A   1      43.288  35.451  27.393  1.00  0.00     0.091 A 
ATOM    101  F   UNL A   1      43.785  34.375  29.428  1.00  0.00    -0.205 F 
ATOM    102  C   UNL A   1      43.350  35.493  26.000  1.00  0.00     0.022 A 
BRANCH 100 103
ATOM    103  S   UNL A   1      42.477  36.813  28.246  1.00  0.00     0.127 S 
ATOM    104  O   UNL A   1      42.222  37.747  27.152  1.00  0.00    -0.237 OA
ATOM    105  O   UNL A   1      41.279  36.173  28.793  1.00  0.00    -0.237 OA
ATOM    106  O   UNL A   1      43.432  37.250  29.256  1.00  0.00    -0.744 OA
ENDBRANCH 100 103
ENDBRANCH  73  96
ENDBRANCH  47  48
ENDBRANCH  39  42
ENDBRANCH  37  38
ENDBRANCH  36  37
ENDBRANCH  35  36
ENDBRANCH  34  35
ENDBRANCH   1  34
TORSDOF 22
ENDMDL
MODEL 2
REMARK VINA RESULT:     -12.0      5.194      8.795
REMARK SMILES Cc1ccc(-c2cc(OCC(=O)NCCCCCCNC(=O)c3ccc(-c4c5nc(c(-c6cccc(S(=O)(=O)[O-])c6F)c6ccc([nH]6)c(-c6cccc(S(=O)(=O)[O-])c6F)c6nc(c(-c7cccc(S(=O)(=O)[O-])c7F)c7ccc4[nH]7)C=C6)C=C5)cc3)nc(NCc3ccc4c(c3)OCO4)n2)cc1
REMARK SMILES IDX 15 1 14 2 13 3 11 4 12 5 10 7 9 8 8 9 6 10 7 11 99 12 87 13
REMARK SMILES IDX 86 14 5 15 1 16 2 17 3 18 101 19 4 20 100 21 88 22 89 24
REMARK SMILES IDX 90 25 91 26 95 27 92 28 94 29 93 30 96 31 98 32 97 33 16 34
REMARK SMILES IDX 17 35 18 36 19 37 20 38 21 39 22 41 23 42 24 43 85 44 25 45
REMARK SMILES IDX 84 46 26 47 27 48 28 49 78 50 29 51 83 52 77 53 79 54 30 55
REMARK SMILES IDX 82 56 76 57 75 58 31 60 63 61 43 62 62 63 44 64 47 65 61 66
REMARK SMILES IDX 80 67 45 68 46 69 60 71 81 72 48 73 32 74 33 75 41 76 34 77
REMARK SMILES IDX 36 78 42 79 35 80 37 81 38 82 39 83 40 84 64 85 65 86 73 87
REMARK SMILES IDX 66 88 68 89 74 90 67 91 69 92 70 93 71 94 72 95 49 96 50 97
REMARK SMILES IDX 58 98 51 99 53 100 59 101 52 102 54 103 55 104 56 105 57 106
REMARK H PARENT 13 6 88 23 20 40 79 59 47 70
REMARK Flexibility Score: inf
ROOT
ATOM      1  C   UNL A   1      39.586  24.753  27.964  1.00  0.00     0.021 C 
ENDROOT
BRANCH   1   2
ATOM      2  C   UNL A   1      39.031  24.454  26.575  1.00  0.00     0.116 C 
BRANCH   2   3
ATOM      3  N   UNL A   1      38.492  23.114  26.475  1.00  0.00    -0.353 N 
ATOM      4  C   UNL A   1      37.422  22.693  25.745  1.00  0.00     0.258 C 
ATOM      5  O   UNL A   1      37.138  21.494  25.734  1.00  0.00    -0.271 OA
ATOM      6  H   UNL A   1      38.956  22.422  26.999  1.00  0.00     0.163 HD
BRANCH   4   7
ATOM      7  C   UNL A   1      36.615  23.715  24.934  1.00  0.00     0.331 C 
BRANCH   7   8
ATOM      8  O   UNL A   1      35.731  24.555  25.653  1.00  0.00    -0.467 OA
BRANCH   8   9
ATOM      9  C   UNL A   1      34.443  24.657  25.211  1.00  0.00     0.219 A 
ATOM     10  C   UNL A   1      32.491  25.725  24.524  1.00  0.00     0.080 A 
ATOM     11  C   UNL A   1      33.776  25.833  25.006  1.00  0.00     0.097 A 
ATOM     12  N   UNL A   1      31.877  24.542  24.336  1.00  0.00    -0.213 NA
ATOM     13  C   UNL A   1      32.607  23.442  24.557  1.00  0.00     0.226 A 
ATOM     14  N   UNL A   1      33.877  23.464  24.981  1.00  0.00    -0.177 NA
BRANCH  10  15
ATOM     15  C   UNL A   1      31.758  26.929  24.128  1.00  0.00     0.000 A 
ATOM     16  C   UNL A   1      29.388  30.416  23.169  1.00  0.00     0.044 C 
ATOM     17  C   UNL A   1      30.225  29.217  23.498  1.00  0.00    -0.051 A 
ATOM     18  C   UNL A   1      30.205  28.092  22.663  1.00  0.00     0.004 A 
ATOM     19  C   UNL A   1      31.026  29.199  24.642  1.00  0.00     0.004 A 
ATOM     20  C   UNL A   1      30.971  26.962  22.971  1.00  0.00     0.010 A 
ATOM     21  C   UNL A   1      31.782  28.068  24.953  1.00  0.00     0.010 A 
ENDBRANCH  10  15
BRANCH  13  22
ATOM     22  N   UNL A   1      32.088  22.199  24.326  1.00  0.00    -0.350 N 
ATOM     23  H   UNL A   1      31.757  21.989  23.424  1.00  0.00     0.164 HD
BRANCH  22  24
ATOM     24  C   UNL A   1      32.003  21.183  25.344  1.00  0.00     0.152 C 
BRANCH  24  25
ATOM     25  C   UNL A   1      32.434  19.813  24.842  1.00  0.00    -0.025 A 
ATOM     26  C   UNL A   1      32.449  19.570  23.444  1.00  0.00     0.009 A 
ATOM     27  C   UNL A   1      32.828  18.781  25.713  1.00  0.00     0.056 A 
ATOM     28  C   UNL A   1      32.775  18.311  22.927  1.00  0.00     0.051 A 
ATOM     29  C   UNL A   1      33.108  17.543  25.178  1.00  0.00     0.166 A 
ATOM     30  C   UNL A   1      33.070  17.309  23.825  1.00  0.00     0.165 A 
ATOM     31  O   UNL A   1      33.400  16.422  25.891  1.00  0.00    -0.454 OA
ATOM     32  O   UNL A   1      33.323  16.007  23.520  1.00  0.00    -0.454 OA
ATOM     33  C   UNL A   1      33.346  15.434  24.845  1.00  0.00     0.468 C 
ENDBRANCH  24  25
ENDBRANCH  22  24
ENDBRANCH  13  22
ENDBRANCH   8   9
ENDBRANCH   7   8
ENDBRANCH   4   7
ENDBRANCH   2   3
ENDBRANCH   1   2
BRANCH   1  34
ATOM     34  C   UNL A   1      39.872  26.232  28.259  1.00  0.00     0.002 C 
BRANCH  34  35
ATOM     35  C   UNL A   1      40.235  27.126  27.062  1.00  0.00     0.002 C 
BRANCH  35  36
ATOM     36  C   UNL A   1      40.550  28.593  27.363  1.00  0.00     0.021 C 
BRANCH  36  37
ATOM     37  C   UNL A   1      39.541  29.265  28.272  1.00  0.00     0.116 C 
BRANCH  37  38
ATOM     38  N   UNL A   1      38.314  29.640  27.611  1.00  0.00    -0.352 N 
ATOM     39  C   UNL A   1      37.242  30.352  28.108  1.00  0.00     0.251 C 
ATOM     40  H   UNL A   1      38.231  29.347  26.675  1.00  0.00     0.163 HD
ATOM     41  O   UNL A   1      36.173  30.260  27.506  1.00  0.00    -0.269 OA
BRANCH  39  42
ATOM     42  C   UNL A   1      37.407  31.319  29.232  1.00  0.00     0.039 A 
ATOM     43  C   UNL A   1      37.731  32.642  28.894  1.00  0.00     0.014 A 
ATOM     44  C   UNL A   1      37.501  30.921  30.562  1.00  0.00     0.014 A 
ATOM     45  C   UNL A   1      38.412  33.450  29.803  1.00  0.00     0.010 A 
ATOM     46  C   UNL A   1      38.245  31.673  31.435  1.00  0.00     0.010 A 
ATOM     47  C   UNL A   1      38.777  32.894  31.018  1.00  0.00    -0.014 A 
BRANCH  47  48
ATOM     48  C   UNL A   1      39.721  33.456  31.959  1.00  0.00     0.031 A 
ATOM     49  C   UNL A   1      39.224  34.128  33.167  1.00  0.00     0.074 A 
ATOM     50  C   UNL A   1      40.986  32.987  31.865  1.00  0.00     0.049 A 
ATOM     51  N   UNL A   1      39.979  34.716  34.028  1.00  0.00    -0.248 NA
ATOM     52  C   UNL A   1      37.802  34.210  33.490  1.00  0.00     0.031 C 
ATOM     53  C   UNL A   1      41.972  32.862  32.928  1.00  0.00     0.029 A 
ATOM     54  N   UNL A   1      41.693  32.636  30.709  1.00  0.00    -0.354 N 
ATOM     55  C   UNL A   1      39.212  34.904  35.156  1.00  0.00     0.074 A 
ATOM     56  C   UNL A   1      37.851  34.760  34.708  1.00  0.00     0.031 C 
ATOM     57  C   UNL A   1      43.189  32.737  32.373  1.00  0.00     0.029 A 
ATOM     58  C   UNL A   1      43.028  33.004  30.954  1.00  0.00     0.049 A 
ATOM     59  H   UNL A   1      41.332  32.218  29.893  1.00  0.00     0.167 HD
ATOM     60  C   UNL A   1      39.840  34.964  36.363  1.00  0.00     0.034 A 
ATOM     61  C   UNL A   1      43.656  34.010  30.271  1.00  0.00     0.034 A 
ATOM     62  C   UNL A   1      41.299  35.082  36.176  1.00  0.00     0.049 A 
ATOM     63  C   UNL A   1      44.090  35.154  31.176  1.00  0.00     0.074 A 
ATOM     64  C   UNL A   1      42.349  34.194  36.326  1.00  0.00     0.029 A 
ATOM     65  N   UNL A   1      41.809  36.175  35.479  1.00  0.00    -0.354 N 
ATOM     66  N   UNL A   1      43.769  35.251  32.438  1.00  0.00    -0.248 NA
ATOM     67  C   UNL A   1      44.906  36.283  30.737  1.00  0.00     0.031 C 
ATOM     68  C   UNL A   1      43.455  34.701  35.581  1.00  0.00     0.029 A 
ATOM     69  C   UNL A   1      43.096  35.920  35.028  1.00  0.00     0.049 A 
ATOM     70  H   UNL A   1      41.322  37.016  35.326  1.00  0.00     0.167 HD
ATOM     71  C   UNL A   1      44.180  36.453  32.943  1.00  0.00     0.074 A 
ATOM     72  C   UNL A   1      44.964  37.024  31.859  1.00  0.00     0.031 C 
ATOM     73  C   UNL A   1      43.788  36.894  34.181  1.00  0.00     0.034 A 
BRANCH  60  74
ATOM     74  C   UNL A   1      39.201  34.697  37.724  1.00  0.00     0.023 A 
ATOM     75  C   UNL A   1      39.581  35.549  38.787  1.00  0.00     0.012 A 
ATOM     76  C   UNL A   1      38.339  33.626  38.080  1.00  0.00     0.148 A 
ATOM     77  C   UNL A   1      39.154  35.350  40.107  1.00  0.00     0.002 A 
ATOM     78  C   UNL A   1      37.861  33.463  39.386  1.00  0.00     0.091 A 
ATOM     79  F   UNL A   1      38.027  32.684  37.191  1.00  0.00    -0.205 F 
ATOM     80  C   UNL A   1      38.280  34.315  40.407  1.00  0.00     0.022 A 
BRANCH  78  81
ATOM     81  S   UNL A   1      36.685  32.168  39.834  1.00  0.00     0.127 S 
ATOM     82  O   UNL A   1      35.574  32.431  38.920  1.00  0.00    -0.237 OA
ATOM     83  O   UNL A   1      37.436  30.948  39.541  1.00  0.00    -0.237 OA
ATOM     84  O   UNL A   1      36.380  32.359  41.247  1.00  0.00    -0.744 OA
ENDBRANCH  78  81
ENDBRANCH  60  74
BRANCH  61  85
ATOM     85  C   UNL A   1      43.190  34.133  28.855  1.00  0.00     0.023 A 
ATOM     86  C   UNL A   1      42.385  35.261  28.560  1.00  0.00     0.012 A 
ATOM     87  C   UNL A   1      43.870  33.492  27.803  1.00  0.00     0.148 A 
ATOM     88  C   UNL A   1      42.407  35.844  27.292  1.00  0.00     0.002 A 
ATOM     89  C   UNL A   1      43.883  34.079  26.537  1.00  0.00     0.091 A 
ATOM     90  F   UNL A   1      44.568  32.382  28.074  1.00  0.00    -0.205 F 
ATOM     91  C   UNL A   1      43.195  35.279  26.294  1.00  0.00     0.022 A 
BRANCH  89  92
ATOM     92  S   UNL A   1      44.886  33.415  25.198  1.00  0.00     0.127 S 
ATOM     93  O   UNL A   1      45.378  32.174  25.789  1.00  0.00    -0.237 OA
ATOM     94  O   UNL A   1      43.909  33.236  24.125  1.00  0.00    -0.237 OA
ATOM     95  O   UNL A   1      45.883  34.441  24.932  1.00  0.00    -0.744 OA
ENDBRANCH  89  92
ENDBRANCH  61  85
BRANCH  73  96
ATOM     96  C   UNL A   1      44.003  38.303  34.707  1.00  0.00     0.023 A 
ATOM     97  C   UNL A   1      44.758  38.569  35.865  1.00  0.00     0.012 A 
ATOM     98  C   UNL A   1      43.568  39.429  33.959  1.00  0.00     0.148 A 
ATOM     99  C   UNL A   1      45.006  39.874  36.306  1.00  0.00     0.002 A 
ATOM    100  C   UNL A   1      43.919  40.723  34.337  1.00  0.00     0.091 A 
ATOM    101  F   UNL A   1      42.790  39.257  32.881  1.00  0.00    -0.205 F 
ATOM    102  C   UNL A   1      44.605  40.953  35.530  1.00  0.00     0.022 A 
BRANCH 100 103
ATOM    103  S   UNL A   1      43.646  42.119  33.235  1.00  0.00     0.127 S 
ATOM    104  O   UNL A   1      42.191  42.123  33.105  1.00  0.00    -0.237 OA
ATOM    105  O   UNL A   1      44.192  43.239  34.003  1.00  0.00    -0.237 OA
ATOM    106  O   UNL A   1      44.399  41.802  32.029  1.00  0.00    -0.744 OA
ENDBRANCH 100 103
ENDBRANCH  73  96
ENDBRANCH  47  48
ENDBRANCH  39  42
ENDBRANCH  37  38
ENDBRANCH  36  37
ENDBRANCH  35  36
ENDBRANCH  34  35
ENDBRANCH   1  34
TORSDOF 22
ENDMDL
MODEL 3
REMARK VINA RESULT:     -12.0      2.526      4.802
REMARK SMILES Cc1ccc(-c2cc(OCC(=O)NCCCCCCNC(=O)c3ccc(-c4c5nc(c(-c6cccc(S(=O)(=O)[O-])c6F)c6ccc([nH]6)c(-c6cccc(S(=O)(=O)[O-])c6F)c6nc(c(-c7cccc(S(=O)(=O)[O-])c7F)c7ccc4[nH]7)C=C6)C=C5)cc3)nc(NCc3ccc4c(c3)OCO4)n2)cc1
REMARK SMILES IDX 15 1 14 2 13 3 11 4 12 5 10 7 9 8 8 9 6 10 7 11 99 12 87 13
REMARK SMILES IDX 86 14 5 15 1 16 2 17 3 18 101 19 4 20 100 21 88 22 89 24
REMARK SMILES IDX 90 25 91 26 95 27 92 28 94 29 93 30 96 31 98 32 97 33 16 34
REMARK SMILES IDX 17 35 18 36 19 37 20 38 21 39 22 41 23 42 24 43 85 44 25 45
REMARK SMILES IDX 84 46 26 47 27 48 28 49 78 50 29 51 83 52 77 53 79 54 30 55
REMARK SMILES IDX 82 56 76 57 75 58 31 60 63 61 43 62 62 63 44 64 47 65 61 66
REMARK SMILES IDX 80 67 45 68 46 69 60 71 81 72 48 73 32 74 33 75 41 76 34 77
REMARK SMILES IDX 36 78 42 79 35 80 37 81 38 82 39 83 40 84 64 85 65 86 73 87
REMARK SMILES IDX 66 88 68 89 74 90 67 91 69 92 70 93 71 94 72 95 49 96 50 97
REMARK SMILES IDX 58 98 51 99 53 100 59 101 52 102 54 103 55 104 56 105 57 106
REMARK H PARENT 13 6 88 23 20 40 79 59 47 70
REMARK Flexibility Score: inf
ROOT
ATOM      1  C   UNL A   1      34.582  24.244  24.989  1.00  0.00     0.021 C 
ENDROOT
BRANCH   1   2
ATOM      2  C   UNL A   1      34.222  23.360  26.179  1.00  0.00     0.116 C 
BRANCH   2   3
ATOM      3  N   UNL A   1      33.420  22.218  25.793  1.00  0.00    -0.353 N 
ATOM      4  C   UNL A   1      32.068  22.080  25.867  1.00  0.00     0.258 C 
ATOM      5  O   UNL A   1      31.545  21.050  25.436  1.00  0.00    -0.271 OA
ATOM      6  H   UNL A   1      33.914  21.447  25.432  1.00  0.00     0.163 HD
BRANCH   4   7
ATOM      7  C   UNL A   1      31.226  23.217  26.458  1.00  0.00     0.331 C 
BRANCH   7   8
ATOM      8  O   UNL A   1      30.370  23.914  25.570  1.00  0.00    -0.467 OA
BRANCH   8   9
ATOM      9  C   UNL A   1      30.606  25.243  25.364  1.00  0.00     0.219 A 
ATOM     10  C   UNL A   1      30.413  27.319  24.325  1.00  0.00     0.080 A 
ATOM     11  C   UNL A   1      30.080  25.983  24.341  1.00  0.00     0.097 A 
ATOM     12  N   UNL A   1      31.268  27.870  25.206  1.00  0.00    -0.213 NA
ATOM     13  C   UNL A   1      31.731  27.073  26.177  1.00  0.00     0.226 A 
ATOM     14  N   UNL A   1      31.417  25.777  26.289  1.00  0.00    -0.177 NA
BRANCH  10  15
ATOM     15  C   UNL A   1      29.774  28.217  23.361  1.00  0.00     0.000 A 
ATOM     16  C   UNL A   1      27.948  31.097  20.703  1.00  0.00     0.044 C 
ATOM     17  C   UNL A   1      28.587  30.089  21.609  1.00  0.00    -0.051 A 
ATOM     18  C   UNL A   1      27.793  29.243  22.396  1.00  0.00     0.004 A 
ATOM     19  C   UNL A   1      29.978  29.984  21.691  1.00  0.00     0.004 A 
ATOM     20  C   UNL A   1      28.381  28.311  23.257  1.00  0.00     0.010 A 
ATOM     21  C   UNL A   1      30.563  29.059  22.558  1.00  0.00     0.010 A 
ENDBRANCH  10  15
BRANCH  13  22
ATOM     22  N   UNL A   1      32.549  27.564  27.155  1.00  0.00    -0.350 N 
ATOM     23  H   UNL A   1      32.248  27.510  28.090  1.00  0.00     0.164 HD
BRANCH  22  24
ATOM     24  C   UNL A   1      33.832  28.159  26.879  1.00  0.00     0.152 C 
BRANCH  24  25
ATOM     25  C   UNL A   1      33.887  29.633  27.250  1.00  0.00    -0.025 A 
ATOM     26  C   UNL A   1      32.689  30.392  27.215  1.00  0.00     0.009 A 
ATOM     27  C   UNL A   1      35.080  30.270  27.635  1.00  0.00     0.056 A 
ATOM     28  C   UNL A   1      32.688  31.766  27.483  1.00  0.00     0.051 A 
ATOM     29  C   UNL A   1      35.057  31.629  27.857  1.00  0.00     0.166 A 
ATOM     30  C   UNL A   1      33.897  32.360  27.771  1.00  0.00     0.165 A 
ATOM     31  O   UNL A   1      36.140  32.404  28.133  1.00  0.00    -0.454 OA
ATOM     32  O   UNL A   1      34.110  33.689  27.971  1.00  0.00    -0.454 OA
ATOM     33  C   UNL A   1      35.553  33.713  28.015  1.00  0.00     0.468 C 
ENDBRANCH  24  25
ENDBRANCH  22  24
ENDBRANCH  13  22
ENDBRANCH   8   9
ENDBRANCH   7   8
ENDBRANCH   4   7
ENDBRANCH   2   3
ENDBRANCH   1   2
BRANCH   1  34
ATOM     34  C   UNL A   1      35.910  23.911  24.295  1.00  0.00     0.002 C 
BRANCH  34  35
ATOM     35  C   UNL A   1      36.129  22.450  23.867  1.00  0.00     0.002 C 
BRANCH  35  36
ATOM     36  C   UNL A   1      37.430  21.784  24.318  1.00  0.00     0.021 C 
BRANCH  36  37
ATOM     37  C   UNL A   1      37.777  22.030  25.773  1.00  0.00     0.116 C 
BRANCH  37  38
ATOM     38  N   UNL A   1      39.154  21.752  26.102  1.00  0.00    -0.352 N 
ATOM     39  C   UNL A   1      40.207  22.632  26.250  1.00  0.00     0.251 C 
ATOM     40  H   UNL A   1      39.372  20.802  26.243  1.00  0.00     0.163 HD
ATOM     41  O   UNL A   1      41.344  22.168  26.186  1.00  0.00    -0.269 OA
BRANCH  39  42
ATOM     42  C   UNL A   1      39.980  24.056  26.629  1.00  0.00     0.039 A 
ATOM     43  C   UNL A   1      40.646  25.033  25.873  1.00  0.00     0.014 A 
ATOM     44  C   UNL A   1      39.362  24.430  27.818  1.00  0.00     0.014 A 
ATOM     45  C   UNL A   1      40.939  26.274  26.434  1.00  0.00     0.010 A 
ATOM     46  C   UNL A   1      39.716  25.614  28.413  1.00  0.00     0.010 A 
ATOM     47  C   UNL A   1      40.582  26.488  27.755  1.00  0.00    -0.014 A 
BRANCH  47  48
ATOM     48  C   UNL A   1      41.046  27.572  28.594  1.00  0.00     0.031 A 
ATOM     49  C   UNL A   1      40.186  28.746  28.799  1.00  0.00     0.074 A 
ATOM     50  C   UNL A   1      42.055  27.263  29.439  1.00  0.00     0.049 A 
ATOM     51  N   UNL A   1      40.534  29.787  29.471  1.00  0.00    -0.248 NA
ATOM     52  C   UNL A   1      38.845  28.846  28.227  1.00  0.00     0.031 C 
ATOM     53  C   UNL A   1      42.342  27.851  30.739  1.00  0.00     0.029 A 
ATOM     54  N   UNL A   1      43.138  26.405  29.214  1.00  0.00    -0.354 N 
ATOM     55  C   UNL A   1      39.378  30.489  29.730  1.00  0.00     0.074 A 
ATOM     56  C   UNL A   1      38.416  29.980  28.788  1.00  0.00     0.031 C 
ATOM     57  C   UNL A   1      43.611  27.566  31.070  1.00  0.00     0.029 A 
ATOM     58  C   UNL A   1      44.227  26.983  29.890  1.00  0.00     0.049 A 
ATOM     59  H   UNL A   1      43.138  25.570  28.691  1.00  0.00     0.167 HD
ATOM     60  C   UNL A   1      39.333  31.272  30.843  1.00  0.00     0.034 A 
ATOM     61  C   UNL A   1      45.314  27.499  29.238  1.00  0.00     0.034 A 
ATOM     62  C   UNL A   1      40.682  31.417  31.423  1.00  0.00     0.049 A 
ATOM     63  C   UNL A   1      45.493  28.990  29.482  1.00  0.00     0.074 A 
ATOM     64  C   UNL A   1      41.299  30.875  32.537  1.00  0.00     0.029 A 
ATOM     65  N   UNL A   1      41.696  31.985  30.654  1.00  0.00    -0.354 N 
ATOM     66  N   UNL A   1      44.628  29.738  30.114  1.00  0.00    -0.248 NA
ATOM     67  C   UNL A   1      46.647  29.763  29.030  1.00  0.00     0.031 C 
ATOM     68  C   UNL A   1      42.708  30.995  32.354  1.00  0.00     0.029 A 
ATOM     69  C   UNL A   1      42.946  31.657  31.159  1.00  0.00     0.049 A 
ATOM     70  H   UNL A   1      41.545  32.544  29.858  1.00  0.00     0.167 HD
ATOM     71  C   UNL A   1      44.996  31.053  30.047  1.00  0.00     0.074 A 
ATOM     72  C   UNL A   1      46.313  31.004  29.432  1.00  0.00     0.031 C 
ATOM     73  C   UNL A   1      44.159  32.063  30.447  1.00  0.00     0.034 A 
BRANCH  60  74
ATOM     74  C   UNL A   1      38.071  31.741  31.563  1.00  0.00     0.023 A 
ATOM     75  C   UNL A   1      36.851  31.141  31.172  1.00  0.00     0.012 A 
ATOM     76  C   UNL A   1      37.956  32.786  32.518  1.00  0.00     0.148 A 
ATOM     77  C   UNL A   1      35.609  31.554  31.673  1.00  0.00     0.002 A 
ATOM     78  C   UNL A   1      36.723  33.156  33.068  1.00  0.00     0.091 A 
ATOM     79  F   UNL A   1      39.021  33.512  32.857  1.00  0.00    -0.205 F 
ATOM     80  C   UNL A   1      35.543  32.551  32.635  1.00  0.00     0.022 A 
BRANCH  78  81
ATOM     81  S   UNL A   1      36.572  34.411  34.357  1.00  0.00     0.127 S 
ATOM     82  O   UNL A   1      35.699  35.399  33.724  1.00  0.00    -0.237 OA
ATOM     83  O   UNL A   1      35.952  33.664  35.451  1.00  0.00    -0.237 OA
ATOM     84  O   UNL A   1      37.925  34.875  34.641  1.00  0.00    -0.744 OA
ENDBRANCH  78  81
ENDBRANCH  60  74
BRANCH  61  85
ATOM     85  C   UNL A   1      45.638  26.767  27.975  1.00  0.00     0.023 A 
ATOM     86  C   UNL A   1      44.649  26.805  26.961  1.00  0.00     0.012 A 
ATOM     87  C   UNL A   1      46.969  26.488  27.612  1.00  0.00     0.148 A 
ATOM     88  C   UNL A   1      45.004  26.754  25.612  1.00  0.00     0.002 A 
ATOM     89  C   UNL A   1      47.314  26.433  26.261  1.00  0.00     0.091 A 
ATOM     90  F   UNL A   1      47.887  26.378  28.581  1.00  0.00    -0.205 F 
ATOM     91  C   UNL A   1      46.343  26.617  25.263  1.00  0.00     0.022 A 
BRANCH  89  92
ATOM     92  S   UNL A   1      49.026  26.269  25.730  1.00  0.00     0.127 S 
ATOM     93  O   UNL A   1      48.866  26.003  24.304  1.00  0.00    -0.237 OA
ATOM     94  O   UNL A   1      49.587  27.581  26.049  1.00  0.00    -0.237 OA
ATOM     95  O   UNL A   1      49.564  25.180  26.532  1.00  0.00    -0.744 OA
ENDBRANCH  89  92
ENDBRANCH  61  85
BRANCH  73  96
ATOM     96  C   UNL A   1      44.397  33.540  30.183  1.00  0.00     0.023 A 
ATOM     97  C   UNL A   1      45.140  34.353  31.061  1.00  0.00     0.012 A 
ATOM     98  C   UNL A   1      43.999  34.130  28.954  1.00  0.00     0.148 A 
ATOM     99  C   UNL A   1      45.410  35.697  30.777  1.00  0.00     0.002 A 
ATOM    100  C   UNL A   1      44.373  35.431  28.626  1.00  0.00     0.091 A 
ATOM    101  F   UNL A   1      43.235  33.438  28.097  1.00  0.00    -0.205 F 
ATOM    102  C   UNL A   1      45.046  36.231  29.550  1.00  0.00     0.022 A 
BRANCH 100 103
ATOM    103  S   UNL A   1      44.149  36.068  26.958  1.00  0.00     0.127 S 
ATOM    104  O   UNL A   1      44.796  37.375  27.043  1.00  0.00    -0.237 OA
ATOM    105  O   UNL A   1      44.867  35.084  26.146  1.00  0.00    -0.237 OA
ATOM    106  O   UNL A   1      42.708  36.076  26.745  1.00  0.00    -0.744 OA
ENDBRANCH 100 103
ENDBRANCH  73  96
ENDBRANCH  47  48
ENDBRANCH  39  42
ENDBRANCH  37  38
ENDBRANCH  36  37
ENDBRANCH  35  36
ENDBRANCH  34  35
ENDBRANCH   1  34
TORSDOF 22
ENDMDL
