MODEL 1
REMARK VINA RESULT:     -12.3      0.000      0.000
REMARK SMILES O=C(CC1(CC(=O)Nc2ccc3ccccc3n2)CCCCC1)NCCCCCCNC(=O)c1ccc(-c2c3nc(c(-c4cccc(S(=O)(=O)[O-])c4F)c4ccc([nH]4)c(-c4cccc(S(=O)(=O)[O-])c4F)c4nc(c(-c5cccc(S(=O)(=O)[O-])c5F)c5ccc2[nH]5)C=C4)C=C3)cc1
REMARK SMILES IDX 27 1 26 2 25 3 24 4 1 5 2 6 3 8 4 9 19 10 23 11 20 12 22 13
REMARK SMILES IDX 21 14 5 15 6 16 7 17 8 18 9 20 10 21 18 22 11 23 17 24 12 25
REMARK SMILES IDX 16 26 13 27 15 28 14 29 28 30 29 31 30 32 31 33 32 34 33 36
REMARK SMILES IDX 34 37 35 38 96 39 36 40 95 41 37 42 38 43 39 44 89 45 40 46
REMARK SMILES IDX 94 47 88 48 90 49 41 50 93 51 87 52 86 53 42 55 74 56 54 57
REMARK SMILES IDX 73 58 55 59 58 60 72 61 91 62 56 63 57 64 71 66 92 67 59 68
REMARK SMILES IDX 43 69 44 70 52 71 45 72 47 73 53 74 46 75 48 76 49 77 50 78
REMARK SMILES IDX 51 79 75 80 76 81 84 82 77 83 79 84 85 85 78 86 80 87 81 88
REMARK SMILES IDX 82 89 83 90 60 91 61 92 69 93 62 94 64 95 70 96 63 97 65 98
REMARK SMILES IDX 66 99 67 100 68 101
REMARK H PARENT 24 7 8 19 31 35 90 54 58 65
REMARK Flexibility Score: inf
ROOT
ATOM      1  C   UNL A   1      32.263  29.357  27.228  1.00  0.00     0.002 C 
ENDROOT
BRANCH   1   2
ATOM      2  C   UNL A   1      31.375  28.135  27.497  1.00  0.00     0.021 C 
BRANCH   2   3
ATOM      3  C   UNL A   1      31.367  27.071  26.399  1.00  0.00     0.116 C 
BRANCH   3   4
ATOM      4  N   UNL A   1      32.509  26.178  26.468  1.00  0.00    -0.356 N 
ATOM      5  O   UNL A   1      33.310  26.667  24.374  1.00  0.00    -0.275 OA
ATOM      6  C   UNL A   1      33.446  26.119  25.466  1.00  0.00     0.220 C 
ATOM      7  H   UNL A   1      32.616  25.598  27.257  1.00  0.00     0.163 HD
BRANCH   6   8
ATOM      8  C   UNL A   1      34.712  25.336  25.805  1.00  0.00     0.107 C 
BRANCH   8   9
ATOM      9  C   UNL A   1      34.732  23.841  25.348  1.00  0.00    -0.012 C 
ATOM     10  C   UNL A   1      35.644  23.728  24.078  1.00  0.00     0.008 C 
ATOM     11  C   UNL A   1      35.454  22.953  26.362  1.00  0.00     0.008 C 
ATOM     12  C   UNL A   1      35.899  22.288  23.595  1.00  0.00     0.001 C 
ATOM     13  C   UNL A   1      35.459  21.479  25.956  1.00  0.00     0.001 C 
ATOM     14  C   UNL A   1      36.288  21.305  24.699  1.00  0.00     0.000 C 
BRANCH   9  15
ATOM     15  C   UNL A   1      33.297  23.338  24.999  1.00  0.00     0.108 C 
BRANCH  15  16
ATOM     16  C   UNL A   1      32.393  22.581  25.980  1.00  0.00     0.226 C 
ATOM     17  O   UNL A   1      32.136  23.123  27.064  1.00  0.00    -0.275 OA
ATOM     18  N   UNL A   1      31.648  21.496  25.609  1.00  0.00    -0.311 N 
ATOM     19  H   UNL A   1      30.698  21.537  25.863  1.00  0.00     0.171 HD
BRANCH  18  20
ATOM     20  C   UNL A   1      32.030  20.336  24.927  1.00  0.00     0.133 A 
ATOM     21  C   UNL A   1      32.208  20.397  23.557  1.00  0.00     0.048 A 
ATOM     22  N   UNL A   1      32.151  19.181  25.587  1.00  0.00    -0.231 NA
ATOM     23  C   UNL A   1      32.789  19.301  22.915  1.00  0.00     0.014 A 
ATOM     24  C   UNL A   1      32.710  18.109  24.983  1.00  0.00     0.073 A 
ATOM     25  C   UNL A   1      33.142  18.164  23.653  1.00  0.00     0.000 A 
ATOM     26  C   UNL A   1      33.003  16.962  25.723  1.00  0.00     0.029 A 
ATOM     27  C   UNL A   1      33.959  17.139  23.138  1.00  0.00     0.010 A 
ATOM     28  C   UNL A   1      33.868  15.978  25.241  1.00  0.00     0.002 A 
ATOM     29  C   UNL A   1      34.366  16.080  23.951  1.00  0.00     0.001 A 
ENDBRANCH  18  20
ENDBRANCH  15  16
ENDBRANCH   9  15
ENDBRANCH   8   9
ENDBRANCH   6   8
ENDBRANCH   3   4
ENDBRANCH   2   3
ENDBRANCH   1   2
BRANCH   1  30
ATOM     30  C   UNL A   1      31.798  30.275  26.097  1.00  0.00     0.002 C 
BRANCH  30  31
ATOM     31  C   UNL A   1      31.553  31.730  26.489  1.00  0.00     0.021 C 
BRANCH  31  32
ATOM     32  C   UNL A   1      32.733  32.425  27.153  1.00  0.00     0.116 C 
BRANCH  32  33
ATOM     33  N   UNL A   1      32.468  33.824  27.465  1.00  0.00    -0.352 N 
ATOM     34  C   UNL A   1      33.059  34.617  28.419  1.00  0.00     0.251 C 
ATOM     35  H   UNL A   1      31.772  34.258  26.920  1.00  0.00     0.163 HD
ATOM     36  O   UNL A   1      32.614  35.740  28.653  1.00  0.00    -0.269 OA
BRANCH  34  37
ATOM     37  C   UNL A   1      34.217  34.100  29.181  1.00  0.00     0.039 A 
ATOM     38  C   UNL A   1      33.997  33.220  30.243  1.00  0.00     0.014 A 
ATOM     39  C   UNL A   1      35.519  34.458  28.824  1.00  0.00     0.014 A 
ATOM     40  C   UNL A   1      35.087  32.642  30.900  1.00  0.00     0.010 A 
ATOM     41  C   UNL A   1      36.600  33.818  29.421  1.00  0.00     0.010 A 
ATOM     42  C   UNL A   1      36.398  32.908  30.470  1.00  0.00    -0.014 A 
BRANCH  42  43
ATOM     43  C   UNL A   1      37.576  32.255  31.100  1.00  0.00     0.031 A 
ATOM     44  C   UNL A   1      38.357  31.219  30.335  1.00  0.00     0.074 A 
ATOM     45  C   UNL A   1      37.883  32.516  32.386  1.00  0.00     0.049 A 
ATOM     46  N   UNL A   1      39.351  30.471  30.739  1.00  0.00    -0.248 NA
ATOM     47  C   UNL A   1      37.950  30.968  28.941  1.00  0.00     0.031 C 
ATOM     48  C   UNL A   1      37.158  33.443  33.260  1.00  0.00     0.029 A 
ATOM     49  N   UNL A   1      38.865  32.002  33.197  1.00  0.00    -0.354 N 
ATOM     50  C   UNL A   1      39.658  29.635  29.671  1.00  0.00     0.074 A 
ATOM     51  C   UNL A   1      38.726  29.947  28.609  1.00  0.00     0.031 C 
ATOM     52  C   UNL A   1      37.719  33.429  34.480  1.00  0.00     0.029 A 
ATOM     53  C   UNL A   1      38.818  32.470  34.490  1.00  0.00     0.049 A 
ATOM     54  H   UNL A   1      39.540  31.358  32.882  1.00  0.00     0.167 HD
ATOM     55  C   UNL A   1      40.642  28.711  29.570  1.00  0.00     0.034 A 
ATOM     56  C   UNL A   1      39.565  32.151  35.566  1.00  0.00     0.034 A 
ATOM     57  C   UNL A   1      41.599  28.441  30.609  1.00  0.00     0.049 A 
ATOM     58  C   UNL A   1      40.678  31.147  35.413  1.00  0.00     0.074 A 
ATOM     59  C   UNL A   1      42.690  27.591  30.568  1.00  0.00     0.029 A 
ATOM     60  N   UNL A   1      41.578  29.007  31.873  1.00  0.00    -0.354 N 
ATOM     61  N   UNL A   1      41.049  30.483  34.345  1.00  0.00    -0.248 NA
ATOM     62  C   UNL A   1      41.499  30.876  36.602  1.00  0.00     0.031 C 
ATOM     63  C   UNL A   1      43.312  27.620  31.819  1.00  0.00     0.029 A 
ATOM     64  C   UNL A   1      42.630  28.519  32.625  1.00  0.00     0.049 A 
ATOM     65  H   UNL A   1      40.911  29.659  32.188  1.00  0.00     0.167 HD
ATOM     66  C   UNL A   1      42.173  29.754  34.721  1.00  0.00     0.074 A 
ATOM     67  C   UNL A   1      42.429  30.069  36.111  1.00  0.00     0.031 C 
ATOM     68  C   UNL A   1      42.916  28.893  33.985  1.00  0.00     0.034 A 
BRANCH  55  69
ATOM     69  C   UNL A   1      40.773  27.956  28.274  1.00  0.00     0.023 A 
ATOM     70  C   UNL A   1      41.394  28.570  27.167  1.00  0.00     0.012 A 
ATOM     71  C   UNL A   1      40.356  26.613  28.177  1.00  0.00     0.148 A 
ATOM     72  C   UNL A   1      41.573  27.870  25.975  1.00  0.00     0.002 A 
ATOM     73  C   UNL A   1      40.581  25.908  27.001  1.00  0.00     0.091 A 
ATOM     74  F   UNL A   1      39.751  26.054  29.234  1.00  0.00    -0.205 F 
ATOM     75  C   UNL A   1      41.178  26.537  25.896  1.00  0.00     0.022 A 
BRANCH  73  76
ATOM     76  S   UNL A   1      40.189  24.164  26.824  1.00  0.00     0.127 S 
ATOM     77  O   UNL A   1      41.173  23.741  25.828  1.00  0.00    -0.237 OA
ATOM     78  O   UNL A   1      40.432  23.658  28.175  1.00  0.00    -0.237 OA
ATOM     79  O   UNL A   1      38.800  24.103  26.390  1.00  0.00    -0.744 OA
ENDBRANCH  73  76
ENDBRANCH  55  69
BRANCH  56  80
ATOM     80  C   UNL A   1      39.326  32.823  36.877  1.00  0.00     0.023 A 
ATOM     81  C   UNL A   1      40.094  33.951  37.226  1.00  0.00     0.012 A 
ATOM     82  C   UNL A   1      38.351  32.352  37.777  1.00  0.00     0.148 A 
ATOM     83  C   UNL A   1      39.928  34.571  38.466  1.00  0.00     0.002 A 
ATOM     84  C   UNL A   1      38.150  33.009  38.986  1.00  0.00     0.091 A 
ATOM     85  F   UNL A   1      37.637  31.271  37.432  1.00  0.00    -0.205 F 
ATOM     86  C   UNL A   1      38.951  34.104  39.342  1.00  0.00     0.022 A 
BRANCH  84  87
ATOM     87  S   UNL A   1      36.830  32.560  40.116  1.00  0.00     0.127 S 
ATOM     88  O   UNL A   1      36.897  33.639  41.098  1.00  0.00    -0.237 OA
ATOM     89  O   UNL A   1      35.657  32.594  39.242  1.00  0.00    -0.237 OA
ATOM     90  O   UNL A   1      37.171  31.231  40.608  1.00  0.00    -0.744 OA
ENDBRANCH  84  87
ENDBRANCH  56  80
BRANCH  68  91
ATOM     91  C   UNL A   1      44.123  28.271  34.636  1.00  0.00     0.023 A 
ATOM     92  C   UNL A   1      45.356  28.953  34.639  1.00  0.00     0.012 A 
ATOM     93  C   UNL A   1      44.007  27.046  35.324  1.00  0.00     0.148 A 
ATOM     94  C   UNL A   1      46.463  28.409  35.291  1.00  0.00     0.002 A 
ATOM     95  C   UNL A   1      45.100  26.537  36.015  1.00  0.00     0.091 A 
ATOM     96  F   UNL A   1      42.830  26.405  35.295  1.00  0.00    -0.205 F 
ATOM     97  C   UNL A   1      46.332  27.211  35.989  1.00  0.00     0.022 A 
BRANCH  95  98
ATOM     98  S   UNL A   1      44.996  25.056  37.025  1.00  0.00     0.127 S 
ATOM     99  O   UNL A   1      46.405  24.796  37.317  1.00  0.00    -0.237 OA
ATOM    100  O   UNL A   1      44.212  25.516  38.171  1.00  0.00    -0.237 OA
ATOM    101  O   UNL A   1      44.335  24.052  36.202  1.00  0.00    -0.744 OA
ENDBRANCH  95  98
ENDBRANCH  68  91
ENDBRANCH  42  43
ENDBRANCH  34  37
ENDBRANCH  32  33
ENDBRANCH  31  32
ENDBRANCH  30  31
ENDBRANCH   1  30
TORSDOF 20
ENDMDL
MODEL 2
REMARK VINA RESULT:     -11.9      2.547      8.099
REMARK SMILES O=C(CC1(CC(=O)Nc2ccc3ccccc3n2)CCCCC1)NCCCCCCNC(=O)c1ccc(-c2c3nc(c(-c4cccc(S(=O)(=O)[O-])c4F)c4ccc([nH]4)c(-c4cccc(S(=O)(=O)[O-])c4F)c4nc(c(-c5cccc(S(=O)(=O)[O-])c5F)c5ccc2[nH]5)C=C4)C=C3)cc1
REMARK SMILES IDX 27 1 26 2 25 3 24 4 1 5 2 6 3 8 4 9 19 10 23 11 20 12 22 13
REMARK SMILES IDX 21 14 5 15 6 16 7 17 8 18 9 20 10 21 18 22 11 23 17 24 12 25
REMARK SMILES IDX 16 26 13 27 15 28 14 29 28 30 29 31 30 32 31 33 32 34 33 36
REMARK SMILES IDX 34 37 35 38 96 39 36 40 95 41 37 42 38 43 39 44 89 45 40 46
REMARK SMILES IDX 94 47 88 48 90 49 41 50 93 51 87 52 86 53 42 55 74 56 54 57
REMARK SMILES IDX 73 58 55 59 58 60 72 61 91 62 56 63 57 64 71 66 92 67 59 68
REMARK SMILES IDX 43 69 44 70 52 71 45 72 47 73 53 74 46 75 48 76 49 77 50 78
REMARK SMILES IDX 51 79 75 80 76 81 84 82 77 83 79 84 85 85 78 86 80 87 81 88
REMARK SMILES IDX 82 89 83 90 60 91 61 92 69 93 62 94 64 95 70 96 63 97 65 98
REMARK SMILES IDX 66 99 67 100 68 101
REMARK H PARENT 24 7 8 19 31 35 90 54 58 65
REMARK Flexibility Score: inf
ROOT
ATOM      1  C   UNL A   1      35.266  32.646  29.407  1.00  0.00     0.002 C 
ENDROOT
BRANCH   1   2
ATOM      2  C   UNL A   1      35.244  31.472  28.419  1.00  0.00     0.021 C 
BRANCH   2   3
ATOM      3  C   UNL A   1      33.947  31.301  27.628  1.00  0.00     0.116 C 
BRANCH   3   4
ATOM      4  N   UNL A   1      33.526  29.915  27.524  1.00  0.00    -0.356 N 
ATOM      5  O   UNL A   1      31.356  30.377  26.940  1.00  0.00    -0.275 OA
ATOM      6  C   UNL A   1      32.269  29.569  27.096  1.00  0.00     0.220 C 
ATOM      7  H   UNL A   1      34.162  29.202  27.767  1.00  0.00     0.163 HD
BRANCH   6   8
ATOM      8  C   UNL A   1      32.072  28.086  26.790  1.00  0.00     0.107 C 
BRANCH   8   9
ATOM      9  C   UNL A   1      32.135  27.688  25.279  1.00  0.00    -0.012 C 
ATOM     10  C   UNL A   1      32.142  29.002  24.425  1.00  0.00     0.008 C 
ATOM     11  C   UNL A   1      33.476  27.047  24.923  1.00  0.00     0.008 C 
ATOM     12  C   UNL A   1      32.364  28.788  22.916  1.00  0.00     0.001 C 
ATOM     13  C   UNL A   1      33.553  26.617  23.457  1.00  0.00     0.001 C 
ATOM     14  C   UNL A   1      33.515  27.844  22.569  1.00  0.00     0.000 C 
BRANCH   9  15
ATOM     15  C   UNL A   1      30.907  26.816  24.873  1.00  0.00     0.108 C 
BRANCH  15  16
ATOM     16  C   UNL A   1      30.469  25.551  25.622  1.00  0.00     0.226 C 
ATOM     17  O   UNL A   1      29.630  25.676  26.524  1.00  0.00    -0.275 OA
ATOM     18  N   UNL A   1      30.742  24.291  25.166  1.00  0.00    -0.311 N 
ATOM     19  H   UNL A   1      29.968  23.685  25.128  1.00  0.00     0.171 HD
BRANCH  18  20
ATOM     20  C   UNL A   1      31.954  23.732  24.745  1.00  0.00     0.133 A 
ATOM     21  C   UNL A   1      32.029  23.182  23.479  1.00  0.00     0.048 A 
ATOM     22  N   UNL A   1      32.991  23.674  25.585  1.00  0.00    -0.231 NA
ATOM     23  C   UNL A   1      33.286  22.819  22.988  1.00  0.00     0.014 A 
ATOM     24  C   UNL A   1      34.214  23.324  25.130  1.00  0.00     0.073 A 
ATOM     25  C   UNL A   1      34.423  22.982  23.789  1.00  0.00     0.000 A 
ATOM     26  C   UNL A   1      35.330  23.438  25.962  1.00  0.00     0.029 A 
ATOM     27  C   UNL A   1      35.735  22.889  23.285  1.00  0.00     0.010 A 
ATOM     28  C   UNL A   1      36.630  23.416  25.454  1.00  0.00     0.002 A 
ATOM     29  C   UNL A   1      36.831  23.164  24.105  1.00  0.00     0.001 A 
ENDBRANCH  18  20
ENDBRANCH  15  16
ENDBRANCH   9  15
ENDBRANCH   8   9
ENDBRANCH   6   8
ENDBRANCH   3   4
ENDBRANCH   2   3
ENDBRANCH   1   2
BRANCH   1  30
ATOM     30  C   UNL A   1      35.584  34.014  28.801  1.00  0.00     0.002 C 
BRANCH  30  31
ATOM     31  C   UNL A   1      34.424  35.004  28.765  1.00  0.00     0.021 C 
BRANCH  31  32
ATOM     32  C   UNL A   1      33.146  34.523  29.436  1.00  0.00     0.116 C 
BRANCH  32  33
ATOM     33  N   UNL A   1      32.595  35.493  30.373  1.00  0.00    -0.352 N 
ATOM     34  C   UNL A   1      32.928  35.699  31.691  1.00  0.00     0.251 C 
ATOM     35  H   UNL A   1      31.889  36.079  30.015  1.00  0.00     0.163 HD
ATOM     36  O   UNL A   1      32.260  36.463  32.386  1.00  0.00    -0.269 OA
BRANCH  34  37
ATOM     37  C   UNL A   1      34.078  34.973  32.273  1.00  0.00     0.039 A 
ATOM     38  C   UNL A   1      33.871  33.720  32.853  1.00  0.00     0.014 A 
ATOM     39  C   UNL A   1      35.363  35.517  32.215  1.00  0.00     0.014 A 
ATOM     40  C   UNL A   1      34.967  32.980  33.309  1.00  0.00     0.010 A 
ATOM     41  C   UNL A   1      36.458  34.746  32.590  1.00  0.00     0.010 A 
ATOM     42  C   UNL A   1      36.273  33.471  33.147  1.00  0.00    -0.014 A 
BRANCH  42  43
ATOM     43  C   UNL A   1      37.463  32.678  33.555  1.00  0.00     0.031 A 
ATOM     44  C   UNL A   1      38.246  33.076  34.778  1.00  0.00     0.074 A 
ATOM     45  C   UNL A   1      37.897  31.667  32.776  1.00  0.00     0.049 A 
ATOM     46  N   UNL A   1      39.361  32.575  35.243  1.00  0.00    -0.248 NA
ATOM     47  C   UNL A   1      37.725  34.205  35.568  1.00  0.00     0.031 C 
ATOM     48  C   UNL A   1      37.270  31.231  31.526  1.00  0.00     0.029 A 
ATOM     49  N   UNL A   1      38.988  30.842  32.902  1.00  0.00    -0.354 N 
ATOM     50  C   UNL A   1      39.697  33.350  36.347  1.00  0.00     0.074 A 
ATOM     51  C   UNL A   1      38.684  34.375  36.467  1.00  0.00     0.031 C 
ATOM     52  C   UNL A   1      37.987  30.222  31.002  1.00  0.00     0.029 A 
ATOM     53  C   UNL A   1      39.140  29.962  31.856  1.00  0.00     0.049 A 
ATOM     54  H   UNL A   1      39.603  30.877  33.670  1.00  0.00     0.167 HD
ATOM     55  C   UNL A   1      40.738  33.208  37.201  1.00  0.00     0.034 A 
ATOM     56  C   UNL A   1      40.109  29.059  31.603  1.00  0.00     0.034 A 
ATOM     57  C   UNL A   1      41.714  32.156  37.109  1.00  0.00     0.049 A 
ATOM     58  C   UNL A   1      41.235  28.897  32.592  1.00  0.00     0.074 A 
ATOM     59  C   UNL A   1      42.751  31.871  37.978  1.00  0.00     0.029 A 
ATOM     60  N   UNL A   1      41.780  31.223  36.087  1.00  0.00    -0.354 N 
ATOM     61  N   UNL A   1      41.445  29.540  33.715  1.00  0.00    -0.248 NA
ATOM     62  C   UNL A   1      42.235  27.861  32.298  1.00  0.00     0.031 C 
ATOM     63  C   UNL A   1      43.463  30.783  37.466  1.00  0.00     0.029 A 
ATOM     64  C   UNL A   1      42.844  30.367  36.298  1.00  0.00     0.049 A 
ATOM     65  H   UNL A   1      41.160  31.178  35.323  1.00  0.00     0.167 HD
ATOM     66  C   UNL A   1      42.572  28.955  34.283  1.00  0.00     0.074 A 
ATOM     67  C   UNL A   1      42.990  27.897  33.388  1.00  0.00     0.031 C 
ATOM     68  C   UNL A   1      43.209  29.274  35.436  1.00  0.00     0.034 A 
BRANCH  55  69
ATOM     69  C   UNL A   1      40.853  34.180  38.345  1.00  0.00     0.023 A 
ATOM     70  C   UNL A   1      41.665  35.325  38.209  1.00  0.00     0.012 A 
ATOM     71  C   UNL A   1      40.095  34.005  39.520  1.00  0.00     0.148 A 
ATOM     72  C   UNL A   1      41.745  36.265  39.235  1.00  0.00     0.002 A 
ATOM     73  C   UNL A   1      40.143  34.971  40.518  1.00  0.00     0.091 A 
ATOM     74  F   UNL A   1      39.343  32.902  39.637  1.00  0.00    -0.205 F 
ATOM     75  C   UNL A   1      40.974  36.094  40.382  1.00  0.00     0.022 A 
BRANCH  73  76
ATOM     76  S   UNL A   1      39.126  34.890  41.997  1.00  0.00     0.127 S 
ATOM     77  O   UNL A   1      39.962  35.596  42.967  1.00  0.00    -0.237 OA
ATOM     78  O   UNL A   1      37.926  35.618  41.582  1.00  0.00    -0.237 OA
ATOM     79  O   UNL A   1      38.918  33.475  42.268  1.00  0.00    -0.744 OA
ENDBRANCH  73  76
ENDBRANCH  55  69
BRANCH  56  80
ATOM     80  C   UNL A   1      40.038  28.195  30.388  1.00  0.00     0.023 A 
ATOM     81  C   UNL A   1      39.161  27.093  30.373  1.00  0.00     0.012 A 
ATOM     82  C   UNL A   1      40.833  28.455  29.255  1.00  0.00     0.148 A 
ATOM     83  C   UNL A   1      39.110  26.238  29.270  1.00  0.00     0.002 A 
ATOM     84  C   UNL A   1      40.735  27.634  28.138  1.00  0.00     0.091 A 
ATOM     85  F   UNL A   1      41.670  29.502  29.292  1.00  0.00    -0.205 F 
ATOM     86  C   UNL A   1      39.890  26.513  28.150  1.00  0.00     0.022 A 
BRANCH  84  87
ATOM     87  S   UNL A   1      41.603  27.986  26.606  1.00  0.00     0.127 S 
ATOM     88  O   UNL A   1      41.074  29.302  26.258  1.00  0.00    -0.237 OA
ATOM     89  O   UNL A   1      43.000  27.979  27.040  1.00  0.00    -0.237 OA
ATOM     90  O   UNL A   1      41.253  26.900  25.700  1.00  0.00    -0.744 OA
ENDBRANCH  84  87
ENDBRANCH  56  80
BRANCH  68  91
ATOM     91  C   UNL A   1      44.391  28.434  35.844  1.00  0.00     0.023 A 
ATOM     92  C   UNL A   1      45.687  28.781  35.416  1.00  0.00     0.012 A 
ATOM     93  C   UNL A   1      44.219  27.351  36.729  1.00  0.00     0.148 A 
ATOM     94  C   UNL A   1      46.792  28.041  35.838  1.00  0.00     0.002 A 
ATOM     95  C   UNL A   1      45.330  26.653  37.187  1.00  0.00     0.091 A 
ATOM     96  F   UNL A   1      42.976  27.028  37.112  1.00  0.00    -0.205 F 
ATOM     97  C   UNL A   1      46.616  26.989  36.733  1.00  0.00     0.022 A 
BRANCH  95  98
ATOM     98  S   UNL A   1      45.209  25.351  38.419  1.00  0.00     0.127 S 
ATOM     99  O   UNL A   1      46.614  25.004  38.623  1.00  0.00    -0.237 OA
ATOM    100  O   UNL A   1      44.582  26.045  39.543  1.00  0.00    -0.237 OA
ATOM    101  O   UNL A   1      44.390  24.305  37.820  1.00  0.00    -0.744 OA
ENDBRANCH  95  98
ENDBRANCH  68  91
ENDBRANCH  42  43
ENDBRANCH  34  37
ENDBRANCH  32  33
ENDBRANCH  31  32
ENDBRANCH  30  31
ENDBRANCH   1  30
TORSDOF 20
ENDMDL
MODEL 3
REMARK VINA RESULT:     -11.9      1.595      7.489
REMARK SMILES O=C(CC1(CC(=O)Nc2ccc3ccccc3n2)CCCCC1)NCCCCCCNC(=O)c1ccc(-c2c3nc(c(-c4cccc(S(=O)(=O)[O-])c4F)c4ccc([nH]4)c(-c4cccc(S(=O)(=O)[O-])c4F)c4nc(c(-c5cccc(S(=O)(=O)[O-])c5F)c5ccc2[nH]5)C=C4)C=C3)cc1
REMARK SMILES IDX 27 1 26 2 25 3 24 4 1 5 2 6 3 8 4 9 19 10 23 11 20 12 22 13
REMARK SMILES IDX 21 14 5 15 6 16 7 17 8 18 9 20 10 21 18 22 11 23 17 24 12 25
REMARK SMILES IDX 16 26 13 27 15 28 14 29 28 30 29 31 30 32 31 33 32 34 33 36
REMARK SMILES IDX 34 37 35 38 96 39 36 40 95 41 37 42 38 43 39 44 89 45 40 46
REMARK SMILES IDX 94 47 88 48 90 49 41 50 93 51 87 52 86 53 42 55 74 56 54 57
REMARK SMILES IDX 73 58 55 59 58 60 72 61 91 62 56 63 57 64 71 66 92 67 59 68
REMARK SMILES IDX 43 69 44 70 52 71 45 72 47 73 53 74 46 75 48 76 49 77 50 78
REMARK SMILES IDX 51 79 75 80 76 81 84 82 77 83 79 84 85 85 78 86 80 87 81 88
REMARK SMILES IDX 82 89 83 90 60 91 61 92 69 93 62 94 64 95 70 96 63 97 65 98
REMARK SMILES IDX 66 99 67 100 68 101
REMARK H PARENT 24 7 8 19 31 35 90 54 58 65
REMARK Flexibility Score: inf
ROOT
ATOM      1  C   UNL A   1      34.935  29.839  28.171  1.00  0.00     0.002 C 
ENDROOT
BRANCH   1   2
ATOM      2  C   UNL A   1      35.089  28.909  26.960  1.00  0.00     0.021 C 
BRANCH   2   3
ATOM      3  C   UNL A   1      33.847  28.760  26.082  1.00  0.00     0.116 C 
BRANCH   3   4
ATOM      4  N   UNL A   1      33.301  27.415  26.098  1.00  0.00    -0.356 N 
ATOM      5  O   UNL A   1      33.889  26.902  23.941  1.00  0.00    -0.275 OA
ATOM      6  C   UNL A   1      33.450  26.558  25.036  1.00  0.00     0.220 C 
ATOM      7  H   UNL A   1      32.808  27.108  26.895  1.00  0.00     0.163 HD
BRANCH   6   8
ATOM      8  C   UNL A   1      33.056  25.108  25.310  1.00  0.00     0.107 C 
BRANCH   8   9
ATOM      9  C   UNL A   1      34.224  24.068  25.284  1.00  0.00    -0.012 C 
ATOM     10  C   UNL A   1      34.317  23.471  23.837  1.00  0.00     0.008 C 
ATOM     11  C   UNL A   1      35.583  24.745  25.456  1.00  0.00     0.008 C 
ATOM     12  C   UNL A   1      35.523  22.544  23.600  1.00  0.00     0.001 C 
ATOM     13  C   UNL A   1      36.742  23.747  25.468  1.00  0.00     0.001 C 
ATOM     14  C   UNL A   1      36.857  23.093  24.106  1.00  0.00     0.000 C 
BRANCH   9  15
ATOM     15  C   UNL A   1      33.975  22.914  26.303  1.00  0.00     0.108 C 
BRANCH  15  16
ATOM     16  C   UNL A   1      32.581  22.419  26.713  1.00  0.00     0.226 C 
ATOM     17  O   UNL A   1      32.081  22.892  27.742  1.00  0.00    -0.275 OA
ATOM     18  N   UNL A   1      31.771  21.713  25.867  1.00  0.00    -0.311 N 
ATOM     19  H   UNL A   1      30.852  22.057  25.788  1.00  0.00     0.171 HD
BRANCH  18  20
ATOM     20  C   UNL A   1      32.048  20.576  25.099  1.00  0.00     0.133 A 
ATOM     21  C   UNL A   1      32.109  20.701  23.724  1.00  0.00     0.048 A 
ATOM     22  N   UNL A   1      32.180  19.386  25.691  1.00  0.00    -0.231 NA
ATOM     23  C   UNL A   1      32.589  19.620  22.982  1.00  0.00     0.014 A 
ATOM     24  C   UNL A   1      32.642  18.328  24.989  1.00  0.00     0.073 A 
ATOM     25  C   UNL A   1      32.961  18.436  23.631  1.00  0.00     0.000 A 
ATOM     26  C   UNL A   1      32.953  17.135  25.645  1.00  0.00     0.029 A 
ATOM     27  C   UNL A   1      33.689  17.410  22.997  1.00  0.00     0.010 A 
ATOM     28  C   UNL A   1      33.734  16.147  25.043  1.00  0.00     0.002 A 
ATOM     29  C   UNL A   1      34.123  16.298  23.720  1.00  0.00     0.001 A 
ENDBRANCH  18  20
ENDBRANCH  15  16
ENDBRANCH   9  15
ENDBRANCH   8   9
ENDBRANCH   6   8
ENDBRANCH   3   4
ENDBRANCH   2   3
ENDBRANCH   1   2
BRANCH   1  30
ATOM     30  C   UNL A   1      35.092  31.333  27.881  1.00  0.00     0.002 C 
BRANCH  30  31
ATOM     31  C   UNL A   1      33.814  32.161  27.986  1.00  0.00     0.021 C 
BRANCH  31  32
ATOM     32  C   UNL A   1      33.980  33.643  27.682  1.00  0.00     0.116 C 
BRANCH  32  33
ATOM     33  N   UNL A   1      33.259  34.500  28.614  1.00  0.00    -0.352 N 
ATOM     34  C   UNL A   1      33.457  34.656  29.965  1.00  0.00     0.251 C 
ATOM     35  H   UNL A   1      32.532  35.038  28.224  1.00  0.00     0.163 HD
ATOM     36  O   UNL A   1      32.661  35.312  30.636  1.00  0.00    -0.269 OA
BRANCH  34  37
ATOM     37  C   UNL A   1      34.619  34.007  30.611  1.00  0.00     0.039 A 
ATOM     38  C   UNL A   1      34.403  32.971  31.522  1.00  0.00     0.014 A 
ATOM     39  C   UNL A   1      35.921  34.400  30.290  1.00  0.00     0.014 A 
ATOM     40  C   UNL A   1      35.495  32.280  32.056  1.00  0.00     0.010 A 
ATOM     41  C   UNL A   1      37.001  33.657  30.754  1.00  0.00     0.010 A 
ATOM     42  C   UNL A   1      36.802  32.593  31.648  1.00  0.00    -0.014 A 
BRANCH  42  43
ATOM     43  C   UNL A   1      37.979  31.830  32.140  1.00  0.00     0.031 A 
ATOM     44  C   UNL A   1      38.642  32.226  33.434  1.00  0.00     0.074 A 
ATOM     45  C   UNL A   1      38.512  30.851  31.382  1.00  0.00     0.049 A 
ATOM     46  N   UNL A   1      39.730  31.750  33.983  1.00  0.00    -0.248 NA
ATOM     47  C   UNL A   1      38.017  33.319  34.198  1.00  0.00     0.031 C 
ATOM     48  C   UNL A   1      38.010  30.424  30.074  1.00  0.00     0.029 A 
ATOM     49  N   UNL A   1      39.617  30.059  31.585  1.00  0.00    -0.354 N 
ATOM     50  C   UNL A   1      39.944  32.511  35.127  1.00  0.00     0.074 A 
ATOM     51  C   UNL A   1      38.889  33.500  35.180  1.00  0.00     0.031 C 
ATOM     52  C   UNL A   1      38.802  29.450  29.594  1.00  0.00     0.029 A 
ATOM     53  C   UNL A   1      39.888  29.209  30.538  1.00  0.00     0.049 A 
ATOM     54  H   UNL A   1      40.162  30.097  32.403  1.00  0.00     0.167 HD
ATOM     55  C   UNL A   1      40.912  32.383  36.064  1.00  0.00     0.034 A 
ATOM     56  C   UNL A   1      40.905  28.344  30.352  1.00  0.00     0.034 A 
ATOM     57  C   UNL A   1      41.928  31.366  36.035  1.00  0.00     0.049 A 
ATOM     58  C   UNL A   1      41.947  28.196  31.430  1.00  0.00     0.074 A 
ATOM     59  C   UNL A   1      42.897  31.095  36.985  1.00  0.00     0.029 A 
ATOM     60  N   UNL A   1      42.112  30.459  35.004  1.00  0.00    -0.354 N 
ATOM     61  N   UNL A   1      42.039  28.820  32.579  1.00  0.00    -0.248 NA
ATOM     62  C   UNL A   1      43.004  27.200  31.203  1.00  0.00     0.031 C 
ATOM     63  C   UNL A   1      43.686  30.043  36.514  1.00  0.00     0.029 A 
ATOM     64  C   UNL A   1      43.184  29.633  35.289  1.00  0.00     0.049 A 
ATOM     65  H   UNL A   1      41.562  30.411  34.189  1.00  0.00     0.167 HD
ATOM     66  C   UNL A   1      43.133  28.259  33.231  1.00  0.00     0.074 A 
ATOM     67  C   UNL A   1      43.661  27.236  32.354  1.00  0.00     0.031 C 
ATOM     68  C   UNL A   1      43.658  28.573  34.440  1.00  0.00     0.034 A 
BRANCH  55  69
ATOM     69  C   UNL A   1      40.896  33.333  37.232  1.00  0.00     0.023 A 
ATOM     70  C   UNL A   1      41.670  34.511  37.185  1.00  0.00     0.012 A 
ATOM     71  C   UNL A   1      40.055  33.101  38.339  1.00  0.00     0.148 A 
ATOM     72  C   UNL A   1      41.629  35.429  38.233  1.00  0.00     0.002 A 
ATOM     73  C   UNL A   1      39.983  34.045  39.356  1.00  0.00     0.091 A 
ATOM     74  F   UNL A   1      39.341  31.967  38.373  1.00  0.00    -0.205 F 
ATOM     75  C   UNL A   1      40.777  35.202  39.311  1.00  0.00     0.022 A 
BRANCH  73  76
ATOM     76  S   UNL A   1      38.856  33.890  40.747  1.00  0.00     0.127 S 
ATOM     77  O   UNL A   1      39.420  32.743  41.457  1.00  0.00    -0.237 OA
ATOM     78  O   UNL A   1      39.031  35.174  41.425  1.00  0.00    -0.237 OA
ATOM     79  O   UNL A   1      37.534  33.678  40.174  1.00  0.00    -0.744 OA
ENDBRANCH  73  76
ENDBRANCH  55  69
BRANCH  56  80
ATOM     80  C   UNL A   1      40.967  27.506  29.118  1.00  0.00     0.023 A 
ATOM     81  C   UNL A   1      40.153  26.361  29.017  1.00  0.00     0.012 A 
ATOM     82  C   UNL A   1      41.827  27.832  28.052  1.00  0.00     0.148 A 
ATOM     83  C   UNL A   1      40.226  25.531  27.897  1.00  0.00     0.002 A 
ATOM     84  C   UNL A   1      41.853  27.033  26.915  1.00  0.00     0.091 A 
ATOM     85  F   UNL A   1      42.603  28.919  28.170  1.00  0.00    -0.205 F 
ATOM     86  C   UNL A   1      41.070  25.871  26.843  1.00  0.00     0.022 A 
BRANCH  84  87
ATOM     87  S   UNL A   1      42.810  27.465  25.457  1.00  0.00     0.127 S 
ATOM     88  O   UNL A   1      42.152  28.693  25.021  1.00  0.00    -0.237 OA
ATOM     89  O   UNL A   1      44.149  27.648  26.017  1.00  0.00    -0.237 OA
ATOM     90  O   UNL A   1      42.688  26.325  24.559  1.00  0.00    -0.744 OA
ENDBRANCH  84  87
ENDBRANCH  56  80
BRANCH  68  91
ATOM     91  C   UNL A   1      44.828  27.762  34.931  1.00  0.00     0.023 A 
ATOM     92  C   UNL A   1      46.144  28.230  34.740  1.00  0.00     0.012 A 
ATOM     93  C   UNL A   1      44.614  26.578  35.664  1.00  0.00     0.148 A 
ATOM     94  C   UNL A   1      47.229  27.514  35.244  1.00  0.00     0.002 A 
ATOM     95  C   UNL A   1      45.697  25.898  36.209  1.00  0.00     0.091 A 
ATOM     96  F   UNL A   1      43.356  26.142  35.821  1.00  0.00    -0.205 F 
ATOM     97  C   UNL A   1      47.005  26.358  35.989  1.00  0.00     0.022 A 
BRANCH  95  98
ATOM     98  S   UNL A   1      45.499  24.460  37.267  1.00  0.00     0.127 S 
ATOM     99  O   UNL A   1      44.607  24.976  38.304  1.00  0.00    -0.237 OA
ATOM    100  O   UNL A   1      44.884  23.491  36.360  1.00  0.00    -0.237 OA
ATOM    101  O   UNL A   1      46.838  24.104  37.717  1.00  0.00    -0.744 OA
ENDBRANCH  95  98
ENDBRANCH  68  91
ENDBRANCH  42  43
ENDBRANCH  34  37
ENDBRANCH  32  33
ENDBRANCH  31  32
ENDBRANCH  30  31
ENDBRANCH   1  30
TORSDOF 20
ENDMDL
