MODEL 1
REMARK VINA RESULT:     -10.7      0.000      0.000
REMARK SMILES C[C@@H](Sc1ccccc1[N+](=O)[O-])[C@@H](C)C(=O)NCCCCCCNC(=O)c1ccc(-c2c3nc(c(-c4cccc(S(=O)(=O)[O-])c4F)c4ccc([nH]4)c(-c4cccc(S(=O)(=O)[O-])c4F)c4nc(c(-c5cccc(S(=O)(=O)[O-])c5F)c5ccc2[nH]5)C=C4)C=C3)cc1
REMARK SMILES IDX 20 1 19 2 18 3 17 4 15 5 16 6 13 8 14 9 2 10 1 11 3 12 4 13
REMARK SMILES IDX 5 14 9 15 6 16 8 17 7 18 10 19 11 20 12 21 21 22 22 23 23 24
REMARK SMILES IDX 24 25 25 26 26 28 27 29 28 30 89 31 29 32 88 33 30 34 31 35
REMARK SMILES IDX 32 36 82 37 33 38 87 39 81 40 83 41 34 42 86 43 80 44 79 45
REMARK SMILES IDX 35 47 67 48 47 49 66 50 48 51 51 52 65 53 84 54 49 55 50 56
REMARK SMILES IDX 64 58 85 59 52 60 36 61 37 62 45 63 38 64 40 65 46 66 39 67
REMARK SMILES IDX 41 68 42 69 43 70 44 71 68 72 69 73 77 74 70 75 72 76 78 77
REMARK SMILES IDX 71 78 73 79 74 80 75 81 76 82 53 83 54 84 62 85 55 86 57 87
REMARK SMILES IDX 63 88 56 89 58 90 59 91 60 92 61 93
REMARK H PARENT 17 7 24 27 83 46 51 57
REMARK Flexibility Score: inf
ROOT
ATOM      1  C   UNL A   1      36.942  22.007  24.010  1.00  0.00     0.002 C 
ENDROOT
BRANCH   1   2
ATOM      2  C   UNL A   1      36.833  23.334  24.771  1.00  0.00     0.021 C 
BRANCH   2   3
ATOM      3  C   UNL A   1      35.543  24.102  24.491  1.00  0.00     0.116 C 
BRANCH   3   4
ATOM      4  N   UNL A   1      34.651  23.312  23.666  1.00  0.00    -0.356 N 
ATOM      5  C   UNL A   1      33.401  22.836  23.890  1.00  0.00     0.223 C 
ATOM      6  O   UNL A   1      32.883  22.164  22.993  1.00  0.00    -0.275 OA
ATOM      7  H   UNL A   1      35.019  23.078  22.784  1.00  0.00     0.163 HD
BRANCH   5   8
ATOM      8  C   UNL A   1      32.603  23.200  25.137  1.00  0.00     0.088 C 
ATOM      9  C   UNL A   1      33.139  22.362  26.310  1.00  0.00     0.019 C 
BRANCH   8  10
ATOM     10  C   UNL A   1      31.056  23.204  24.974  1.00  0.00     0.061 C 
ATOM     11  C   UNL A   1      30.392  23.142  26.357  1.00  0.00     0.020 C 
BRANCH  10  12
ATOM     12  S   UNL A   1      30.511  24.764  24.116  1.00  0.00    -0.115 SA
BRANCH  12  13
ATOM     13  C   UNL A   1      31.719  26.026  24.581  1.00  0.00     0.085 A 
ATOM     14  C   UNL A   1      31.814  26.433  25.923  1.00  0.00     0.022 A 
ATOM     15  C   UNL A   1      32.713  26.518  23.705  1.00  0.00     0.282 A 
ATOM     16  C   UNL A   1      32.853  27.254  26.383  1.00  0.00     0.002 A 
ATOM     17  C   UNL A   1      33.760  27.347  24.167  1.00  0.00     0.087 A 
ATOM     18  C   UNL A   1      33.834  27.701  25.509  1.00  0.00     0.007 A 
BRANCH  15  19
ATOM     19  N   UNL A   1      32.719  26.219  22.272  1.00  0.00     0.063 N 
ATOM     20  O   UNL A   1      31.723  26.570  21.619  1.00  0.00    -0.258 OA
ATOM     21  O   UNL A   1      33.661  25.565  21.809  1.00  0.00    -0.258 OA
ENDBRANCH  15  19
ENDBRANCH  12  13
ENDBRANCH  10  12
ENDBRANCH   8  10
ENDBRANCH   5   8
ENDBRANCH   3   4
ENDBRANCH   2   3
ENDBRANCH   1   2
BRANCH   1  22
ATOM     22  C   UNL A   1      36.518  20.767  24.805  1.00  0.00     0.002 C 
BRANCH  22  23
ATOM     23  C   UNL A   1      37.629  19.743  25.050  1.00  0.00     0.021 C 
BRANCH  23  24
ATOM     24  C   UNL A   1      38.959  20.342  25.490  1.00  0.00     0.116 C 
BRANCH  24  25
ATOM     25  N   UNL A   1      39.933  19.318  25.837  1.00  0.00    -0.352 N 
ATOM     26  C   UNL A   1      41.250  19.456  26.190  1.00  0.00     0.251 C 
ATOM     27  H   UNL A   1      39.598  18.392  25.813  1.00  0.00     0.163 HD
ATOM     28  O   UNL A   1      41.975  18.463  26.255  1.00  0.00    -0.269 OA
BRANCH  26  29
ATOM     29  C   UNL A   1      41.803  20.797  26.475  1.00  0.00     0.039 A 
ATOM     30  C   UNL A   1      42.209  21.600  25.407  1.00  0.00     0.014 A 
ATOM     31  C   UNL A   1      41.926  21.260  27.788  1.00  0.00     0.014 A 
ATOM     32  C   UNL A   1      42.684  22.890  25.655  1.00  0.00     0.010 A 
ATOM     33  C   UNL A   1      42.328  22.572  28.027  1.00  0.00     0.010 A 
ATOM     34  C   UNL A   1      42.716  23.400  26.964  1.00  0.00    -0.014 A 
BRANCH  34  35
ATOM     35  C   UNL A   1      43.122  24.805  27.226  1.00  0.00     0.031 A 
ATOM     36  C   UNL A   1      42.172  25.771  27.879  1.00  0.00     0.074 A 
ATOM     37  C   UNL A   1      44.331  25.230  26.810  1.00  0.00     0.049 A 
ATOM     38  N   UNL A   1      42.350  27.035  28.167  1.00  0.00    -0.248 NA
ATOM     39  C   UNL A   1      40.835  25.261  28.231  1.00  0.00     0.031 C 
ATOM     40  C   UNL A   1      45.313  24.413  26.091  1.00  0.00     0.029 A 
ATOM     41  N   UNL A   1      44.935  26.459  26.911  1.00  0.00    -0.354 N 
ATOM     42  C   UNL A   1      41.149  27.479  28.705  1.00  0.00     0.074 A 
ATOM     43  C   UNL A   1      40.234  26.359  28.671  1.00  0.00     0.031 C 
ATOM     44  C   UNL A   1      46.397  25.158  25.827  1.00  0.00     0.029 A 
ATOM     45  C   UNL A   1      46.179  26.512  26.326  1.00  0.00     0.049 A 
ATOM     46  H   UNL A   1      44.518  27.229  27.359  1.00  0.00     0.167 HD
ATOM     47  C   UNL A   1      40.842  28.697  29.209  1.00  0.00     0.034 A 
ATOM     48  C   UNL A   1      47.045  27.536  26.198  1.00  0.00     0.034 A 
ATOM     49  C   UNL A   1      41.764  29.800  29.270  1.00  0.00     0.049 A 
ATOM     50  C   UNL A   1      46.691  28.871  26.794  1.00  0.00     0.074 A 
ATOM     51  C   UNL A   1      41.578  31.047  29.841  1.00  0.00     0.029 A 
ATOM     52  N   UNL A   1      43.042  29.797  28.732  1.00  0.00    -0.354 N 
ATOM     53  N   UNL A   1      45.610  29.223  27.447  1.00  0.00    -0.248 NA
ATOM     54  C   UNL A   1      47.693  29.940  26.670  1.00  0.00     0.031 C 
ATOM     55  C   UNL A   1      42.729  31.809  29.617  1.00  0.00     0.029 A 
ATOM     56  C   UNL A   1      43.648  31.024  28.940  1.00  0.00     0.049 A 
ATOM     57  H   UNL A   1      43.458  29.033  28.270  1.00  0.00     0.167 HD
ATOM     58  C   UNL A   1      45.814  30.541  27.837  1.00  0.00     0.074 A 
ATOM     59  C   UNL A   1      47.134  30.915  27.373  1.00  0.00     0.031 C 
ATOM     60  C   UNL A   1      44.978  31.373  28.509  1.00  0.00     0.034 A 
BRANCH  47  61
ATOM     61  C   UNL A   1      39.460  28.894  29.778  1.00  0.00     0.023 A 
ATOM     62  C   UNL A   1      39.171  28.440  31.082  1.00  0.00     0.012 A 
ATOM     63  C   UNL A   1      38.467  29.579  29.050  1.00  0.00     0.148 A 
ATOM     64  C   UNL A   1      37.907  28.631  31.638  1.00  0.00     0.002 A 
ATOM     65  C   UNL A   1      37.224  29.808  29.631  1.00  0.00     0.091 A 
ATOM     66  F   UNL A   1      38.752  29.986  27.806  1.00  0.00    -0.205 F 
ATOM     67  C   UNL A   1      36.939  29.324  30.917  1.00  0.00     0.022 A 
BRANCH  65  68
ATOM     68  S   UNL A   1      35.935  30.758  28.818  1.00  0.00     0.127 S 
ATOM     69  O   UNL A   1      35.193  31.288  29.961  1.00  0.00    -0.237 OA
ATOM     70  O   UNL A   1      36.709  31.756  28.078  1.00  0.00    -0.237 OA
ATOM     71  O   UNL A   1      35.205  29.815  27.983  1.00  0.00    -0.744 OA
ENDBRANCH  65  68
ENDBRANCH  47  61
BRANCH  48  72
ATOM     72  C   UNL A   1      48.356  27.323  25.523  1.00  0.00     0.023 A 
ATOM     73  C   UNL A   1      49.460  26.877  26.275  1.00  0.00     0.012 A 
ATOM     74  C   UNL A   1      48.508  27.537  24.139  1.00  0.00     0.148 A 
ATOM     75  C   UNL A   1      50.702  26.682  25.668  1.00  0.00     0.002 A 
ATOM     76  C   UNL A   1      49.731  27.284  23.530  1.00  0.00     0.091 A 
ATOM     77  F   UNL A   1      47.447  27.970  23.444  1.00  0.00    -0.205 F 
ATOM     78  C   UNL A   1      50.835  26.875  24.295  1.00  0.00     0.022 A 
BRANCH  76  79
ATOM     79  S   UNL A   1      49.956  27.376  21.751  1.00  0.00     0.127 S 
ATOM     80  O   UNL A   1      48.776  26.667  21.262  1.00  0.00    -0.237 OA
ATOM     81  O   UNL A   1      49.947  28.821  21.520  1.00  0.00    -0.237 OA
ATOM     82  O   UNL A   1      51.236  26.735  21.482  1.00  0.00    -0.744 OA
ENDBRANCH  76  79
ENDBRANCH  48  72
BRANCH  60  83
ATOM     83  C   UNL A   1      45.474  32.764  28.808  1.00  0.00     0.023 A 
ATOM     84  C   UNL A   1      46.221  33.007  29.979  1.00  0.00     0.012 A 
ATOM     85  C   UNL A   1      45.248  33.818  27.902  1.00  0.00     0.148 A 
ATOM     86  C   UNL A   1      46.697  34.288  30.263  1.00  0.00     0.002 A 
ATOM     87  C   UNL A   1      45.770  35.080  28.166  1.00  0.00     0.091 A 
ATOM     88  F   UNL A   1      44.521  33.573  26.803  1.00  0.00    -0.205 F 
ATOM     89  C   UNL A   1      46.481  35.319  29.353  1.00  0.00     0.022 A 
BRANCH  87  90
ATOM     90  S   UNL A   1      45.627  36.443  27.006  1.00  0.00     0.127 S 
ATOM     91  O   UNL A   1      46.358  37.502  27.701  1.00  0.00    -0.237 OA
ATOM     92  O   UNL A   1      46.302  35.913  25.820  1.00  0.00    -0.237 OA
ATOM     93  O   UNL A   1      44.200  36.678  26.835  1.00  0.00    -0.744 OA
ENDBRANCH  87  90
ENDBRANCH  60  83
ENDBRANCH  34  35
ENDBRANCH  26  29
ENDBRANCH  24  25
ENDBRANCH  23  24
ENDBRANCH  22  23
ENDBRANCH   1  22
TORSDOF 20
ENDMDL
MODEL 2
REMARK VINA RESULT:     -10.7      1.828      7.896
REMARK SMILES C[C@@H](Sc1ccccc1[N+](=O)[O-])[C@@H](C)C(=O)NCCCCCCNC(=O)c1ccc(-c2c3nc(c(-c4cccc(S(=O)(=O)[O-])c4F)c4ccc([nH]4)c(-c4cccc(S(=O)(=O)[O-])c4F)c4nc(c(-c5cccc(S(=O)(=O)[O-])c5F)c5ccc2[nH]5)C=C4)C=C3)cc1
REMARK SMILES IDX 20 1 19 2 18 3 17 4 15 5 16 6 13 8 14 9 2 10 1 11 3 12 4 13
REMARK SMILES IDX 5 14 9 15 6 16 8 17 7 18 10 19 11 20 12 21 21 22 22 23 23 24
REMARK SMILES IDX 24 25 25 26 26 28 27 29 28 30 89 31 29 32 88 33 30 34 31 35
REMARK SMILES IDX 32 36 82 37 33 38 87 39 81 40 83 41 34 42 86 43 80 44 79 45
REMARK SMILES IDX 35 47 67 48 47 49 66 50 48 51 51 52 65 53 84 54 49 55 50 56
REMARK SMILES IDX 64 58 85 59 52 60 36 61 37 62 45 63 38 64 40 65 46 66 39 67
REMARK SMILES IDX 41 68 42 69 43 70 44 71 68 72 69 73 77 74 70 75 72 76 78 77
REMARK SMILES IDX 71 78 73 79 74 80 75 81 76 82 53 83 54 84 62 85 55 86 57 87
REMARK SMILES IDX 63 88 56 89 58 90 59 91 60 92 61 93
REMARK H PARENT 17 7 24 27 83 46 51 57
REMARK Flexibility Score: inf
ROOT
ATOM      1  C   UNL A   1      33.381  21.324  25.709  1.00  0.00     0.002 C 
ENDROOT
BRANCH   1   2
ATOM      2  C   UNL A   1      32.103  21.241  24.864  1.00  0.00     0.021 C 
BRANCH   2   3
ATOM      3  C   UNL A   1      31.745  22.545  24.156  1.00  0.00     0.116 C 
BRANCH   3   4
ATOM      4  N   UNL A   1      32.531  22.699  22.948  1.00  0.00    -0.356 N 
ATOM      5  C   UNL A   1      32.871  23.797  22.227  1.00  0.00     0.223 C 
ATOM      6  O   UNL A   1      33.549  23.618  21.211  1.00  0.00    -0.275 OA
ATOM      7  H   UNL A   1      32.881  21.854  22.583  1.00  0.00     0.163 HD
BRANCH   5   8
ATOM      8  C   UNL A   1      32.544  25.211  22.695  1.00  0.00     0.088 C 
ATOM      9  C   UNL A   1      31.905  25.968  21.519  1.00  0.00     0.019 C 
BRANCH   8  10
ATOM     10  C   UNL A   1      33.691  25.964  23.427  1.00  0.00     0.061 C 
ATOM     11  C   UNL A   1      33.471  27.479  23.308  1.00  0.00     0.020 C 
BRANCH  10  12
ATOM     12  S   UNL A   1      33.707  25.499  25.230  1.00  0.00    -0.115 SA
BRANCH  12  13
ATOM     13  C   UNL A   1      33.243  26.999  26.126  1.00  0.00     0.085 A 
ATOM     14  C   UNL A   1      34.246  27.876  26.575  1.00  0.00     0.022 A 
ATOM     15  C   UNL A   1      31.911  27.450  26.260  1.00  0.00     0.282 A 
ATOM     16  C   UNL A   1      33.951  29.144  27.097  1.00  0.00     0.002 A 
ATOM     17  C   UNL A   1      31.612  28.727  26.787  1.00  0.00     0.087 A 
ATOM     18  C   UNL A   1      32.637  29.575  27.191  1.00  0.00     0.007 A 
BRANCH  15  19
ATOM     19  N   UNL A   1      30.759  26.630  25.880  1.00  0.00     0.063 N 
ATOM     20  O   UNL A   1      30.364  25.795  26.710  1.00  0.00    -0.258 OA
ATOM     21  O   UNL A   1      30.301  26.748  24.737  1.00  0.00    -0.258 OA
ENDBRANCH  15  19
ENDBRANCH  12  13
ENDBRANCH  10  12
ENDBRANCH   8  10
ENDBRANCH   5   8
ENDBRANCH   3   4
ENDBRANCH   2   3
ENDBRANCH   1   2
BRANCH   1  22
ATOM     22  C   UNL A   1      34.613  20.655  25.089  1.00  0.00     0.002 C 
BRANCH  22  23
ATOM     23  C   UNL A   1      35.686  21.620  24.579  1.00  0.00     0.021 C 
BRANCH  23  24
ATOM     24  C   UNL A   1      36.721  22.027  25.621  1.00  0.00     0.116 C 
BRANCH  24  25
ATOM     25  N   UNL A   1      37.753  21.016  25.792  1.00  0.00    -0.352 N 
ATOM     26  C   UNL A   1      39.074  21.171  26.123  1.00  0.00     0.251 C 
ATOM     27  H   UNL A   1      37.462  20.087  25.646  1.00  0.00     0.163 HD
ATOM     28  O   UNL A   1      39.847  20.217  26.027  1.00  0.00    -0.269 OA
BRANCH  26  29
ATOM     29  C   UNL A   1      39.573  22.485  26.580  1.00  0.00     0.039 A 
ATOM     30  C   UNL A   1      40.616  22.525  27.509  1.00  0.00     0.014 A 
ATOM     31  C   UNL A   1      39.016  23.673  26.098  1.00  0.00     0.014 A 
ATOM     32  C   UNL A   1      41.137  23.757  27.910  1.00  0.00     0.010 A 
ATOM     33  C   UNL A   1      39.587  24.897  26.442  1.00  0.00     0.010 A 
ATOM     34  C   UNL A   1      40.650  24.953  27.354  1.00  0.00    -0.014 A 
BRANCH  34  35
ATOM     35  C   UNL A   1      41.267  26.260  27.698  1.00  0.00     0.031 A 
ATOM     36  C   UNL A   1      42.683  26.570  27.300  1.00  0.00     0.074 A 
ATOM     37  C   UNL A   1      40.567  27.146  28.435  1.00  0.00     0.049 A 
ATOM     38  N   UNL A   1      43.387  27.649  27.530  1.00  0.00    -0.248 NA
ATOM     39  C   UNL A   1      43.419  25.523  26.570  1.00  0.00     0.031 C 
ATOM     40  C   UNL A   1      39.213  26.931  28.953  1.00  0.00     0.029 A 
ATOM     41  N   UNL A   1      40.901  28.395  28.894  1.00  0.00    -0.354 N 
ATOM     42  C   UNL A   1      44.649  27.404  27.003  1.00  0.00     0.074 A 
ATOM     43  C   UNL A   1      44.628  26.059  26.473  1.00  0.00     0.031 C 
ATOM     44  C   UNL A   1      38.831  28.014  29.648  1.00  0.00     0.029 A 
ATOM     45  C   UNL A   1      39.919  28.986  29.653  1.00  0.00     0.049 A 
ATOM     46  H   UNL A   1      41.763  28.828  28.698  1.00  0.00     0.167 HD
ATOM     47  C   UNL A   1      45.718  28.231  26.940  1.00  0.00     0.034 A 
ATOM     48  C   UNL A   1      39.896  30.173  30.289  1.00  0.00     0.034 A 
ATOM     49  C   UNL A   1      45.726  29.580  27.441  1.00  0.00     0.049 A 
ATOM     50  C   UNL A   1      41.087  31.086  30.176  1.00  0.00     0.074 A 
ATOM     51  C   UNL A   1      46.731  30.528  27.347  1.00  0.00     0.029 A 
ATOM     52  N   UNL A   1      44.687  30.171  28.143  1.00  0.00    -0.354 N 
ATOM     53  N   UNL A   1      42.212  30.897  29.531  1.00  0.00    -0.248 NA
ATOM     54  C   UNL A   1      40.990  32.390  30.848  1.00  0.00     0.031 C 
ATOM     55  C   UNL A   1      46.313  31.679  28.021  1.00  0.00     0.029 A 
ATOM     56  C   UNL A   1      45.032  31.463  28.503  1.00  0.00     0.049 A 
ATOM     57  H   UNL A   1      43.829  29.737  28.353  1.00  0.00     0.167 HD
ATOM     58  C   UNL A   1      42.943  32.069  29.692  1.00  0.00     0.074 A 
ATOM     59  C   UNL A   1      42.121  32.970  30.471  1.00  0.00     0.031 C 
ATOM     60  C   UNL A   1      44.190  32.367  29.246  1.00  0.00     0.034 A 
BRANCH  47  61
ATOM     61  C   UNL A   1      46.964  27.717  26.264  1.00  0.00     0.023 A 
ATOM     62  C   UNL A   1      47.897  26.958  27.002  1.00  0.00     0.012 A 
ATOM     63  C   UNL A   1      47.185  27.933  24.889  1.00  0.00     0.148 A 
ATOM     64  C   UNL A   1      49.044  26.453  26.393  1.00  0.00     0.002 A 
ATOM     65  C   UNL A   1      48.308  27.384  24.279  1.00  0.00     0.091 A 
ATOM     66  F   UNL A   1      46.301  28.673  24.207  1.00  0.00    -0.205 F 
ATOM     67  C   UNL A   1      49.244  26.656  25.031  1.00  0.00     0.022 A 
BRANCH  65  68
ATOM     68  S   UNL A   1      48.616  27.521  22.515  1.00  0.00     0.127 S 
ATOM     69  O   UNL A   1      47.399  28.187  22.053  1.00  0.00    -0.237 OA
ATOM     70  O   UNL A   1      49.818  28.354  22.477  1.00  0.00    -0.237 OA
ATOM     71  O   UNL A   1      48.804  26.161  22.031  1.00  0.00    -0.744 OA
ENDBRANCH  65  68
ENDBRANCH  47  61
BRANCH  48  72
ATOM     72  C   UNL A   1      38.682  30.591  31.044  1.00  0.00     0.023 A 
ATOM     73  C   UNL A   1      38.612  30.356  32.431  1.00  0.00     0.012 A 
ATOM     74  C   UNL A   1      37.608  31.238  30.403  1.00  0.00     0.148 A 
ATOM     75  C   UNL A   1      37.481  30.726  33.160  1.00  0.00     0.002 A 
ATOM     76  C   UNL A   1      36.510  31.658  31.143  1.00  0.00     0.091 A 
ATOM     77  F   UNL A   1      37.690  31.444  29.081  1.00  0.00    -0.205 F 
ATOM     78  C   UNL A   1      36.435  31.386  32.518  1.00  0.00     0.022 A 
BRANCH  76  79
ATOM     79  S   UNL A   1      35.182  32.631  30.427  1.00  0.00     0.127 S 
ATOM     80  O   UNL A   1      34.228  32.694  31.531  1.00  0.00    -0.237 OA
ATOM     81  O   UNL A   1      35.861  33.892  30.126  1.00  0.00    -0.237 OA
ATOM     82  O   UNL A   1      34.742  31.893  29.251  1.00  0.00    -0.744 OA
ENDBRANCH  76  79
ENDBRANCH  48  72
BRANCH  60  83
ATOM     83  C   UNL A   1      44.734  33.735  29.565  1.00  0.00     0.023 A 
ATOM     84  C   UNL A   1      45.495  33.934  30.734  1.00  0.00     0.012 A 
ATOM     85  C   UNL A   1      44.536  34.812  28.679  1.00  0.00     0.148 A 
ATOM     86  C   UNL A   1      46.015  35.193  31.036  1.00  0.00     0.002 A 
ATOM     87  C   UNL A   1      45.101  36.050  28.960  1.00  0.00     0.091 A 
ATOM     88  F   UNL A   1      43.794  34.609  27.580  1.00  0.00    -0.205 F 
ATOM     89  C   UNL A   1      45.827  36.247  30.145  1.00  0.00     0.022 A 
BRANCH  87  90
ATOM     90  S   UNL A   1      44.995  37.438  27.824  1.00  0.00     0.127 S 
ATOM     91  O   UNL A   1      45.425  38.549  28.671  1.00  0.00    -0.237 OA
ATOM     92  O   UNL A   1      45.952  37.059  26.783  1.00  0.00    -0.237 OA
ATOM     93  O   UNL A   1      43.609  37.490  27.381  1.00  0.00    -0.744 OA
ENDBRANCH  87  90
ENDBRANCH  60  83
ENDBRANCH  34  35
ENDBRANCH  26  29
ENDBRANCH  24  25
ENDBRANCH  23  24
ENDBRANCH  22  23
ENDBRANCH   1  22
TORSDOF 20
ENDMDL
MODEL 3
REMARK VINA RESULT:     -10.6      3.207      8.414
REMARK SMILES C[C@@H](Sc1ccccc1[N+](=O)[O-])[C@@H](C)C(=O)NCCCCCCNC(=O)c1ccc(-c2c3nc(c(-c4cccc(S(=O)(=O)[O-])c4F)c4ccc([nH]4)c(-c4cccc(S(=O)(=O)[O-])c4F)c4nc(c(-c5cccc(S(=O)(=O)[O-])c5F)c5ccc2[nH]5)C=C4)C=C3)cc1
REMARK SMILES IDX 20 1 19 2 18 3 17 4 15 5 16 6 13 8 14 9 2 10 1 11 3 12 4 13
REMARK SMILES IDX 5 14 9 15 6 16 8 17 7 18 10 19 11 20 12 21 21 22 22 23 23 24
REMARK SMILES IDX 24 25 25 26 26 28 27 29 28 30 89 31 29 32 88 33 30 34 31 35
REMARK SMILES IDX 32 36 82 37 33 38 87 39 81 40 83 41 34 42 86 43 80 44 79 45
REMARK SMILES IDX 35 47 67 48 47 49 66 50 48 51 51 52 65 53 84 54 49 55 50 56
REMARK SMILES IDX 64 58 85 59 52 60 36 61 37 62 45 63 38 64 40 65 46 66 39 67
REMARK SMILES IDX 41 68 42 69 43 70 44 71 68 72 69 73 77 74 70 75 72 76 78 77
REMARK SMILES IDX 71 78 73 79 74 80 75 81 76 82 53 83 54 84 62 85 55 86 57 87
REMARK SMILES IDX 63 88 56 89 58 90 59 91 60 92 61 93
REMARK H PARENT 17 7 24 27 83 46 51 57
REMARK Flexibility Score: inf
ROOT
ATOM      1  C   UNL A   1      35.013  21.646  26.351  1.00  0.00     0.002 C 
ENDROOT
BRANCH   1   2
ATOM      2  C   UNL A   1      33.673  22.366  26.545  1.00  0.00     0.021 C 
BRANCH   2   3
ATOM      3  C   UNL A   1      33.728  23.863  26.248  1.00  0.00     0.116 C 
BRANCH   3   4
ATOM      4  N   UNL A   1      32.513  24.514  26.694  1.00  0.00    -0.356 N 
ATOM      5  C   UNL A   1      31.915  25.670  26.309  1.00  0.00     0.223 C 
ATOM      6  O   UNL A   1      30.874  25.989  26.892  1.00  0.00    -0.275 OA
ATOM      7  H   UNL A   1      32.035  24.032  27.407  1.00  0.00     0.163 HD
BRANCH   5   8
ATOM      8  C   UNL A   1      32.421  26.494  25.131  1.00  0.00     0.088 C 
ATOM      9  C   UNL A   1      33.676  27.258  25.585  1.00  0.00     0.019 C 
BRANCH   8  10
ATOM     10  C   UNL A   1      31.352  27.349  24.394  1.00  0.00     0.061 C 
ATOM     11  C   UNL A   1      32.009  28.611  23.817  1.00  0.00     0.020 C 
BRANCH  10  12
ATOM     12  S   UNL A   1      30.606  26.369  22.997  1.00  0.00    -0.115 SA
BRANCH  12  13
ATOM     13  C   UNL A   1      31.517  24.809  22.954  1.00  0.00     0.085 A 
ATOM     14  C   UNL A   1      31.020  23.695  23.653  1.00  0.00     0.022 A 
ATOM     15  C   UNL A   1      32.627  24.575  22.111  1.00  0.00     0.282 A 
ATOM     16  C   UNL A   1      31.566  22.413  23.501  1.00  0.00     0.002 A 
ATOM     17  C   UNL A   1      33.179  23.283  21.958  1.00  0.00     0.087 A 
ATOM     18  C   UNL A   1      32.636  22.203  22.645  1.00  0.00     0.007 A 
BRANCH  15  19
ATOM     19  N   UNL A   1      33.283  25.643  21.356  1.00  0.00     0.063 N 
ATOM     20  O   UNL A   1      34.020  26.413  21.994  1.00  0.00    -0.258 OA
ATOM     21  O   UNL A   1      33.006  25.777  20.158  1.00  0.00    -0.258 OA
ENDBRANCH  15  19
ENDBRANCH  12  13
ENDBRANCH  10  12
ENDBRANCH   8  10
ENDBRANCH   5   8
ENDBRANCH   3   4
ENDBRANCH   2   3
ENDBRANCH   1   2
BRANCH   1  22
ATOM     22  C   UNL A   1      35.395  21.368  24.893  1.00  0.00     0.002 C 
BRANCH  22  23
ATOM     23  C   UNL A   1      36.406  22.345  24.290  1.00  0.00     0.021 C 
BRANCH  23  24
ATOM     24  C   UNL A   1      37.299  23.044  25.309  1.00  0.00     0.116 C 
BRANCH  24  25
ATOM     25  N   UNL A   1      38.301  22.148  25.865  1.00  0.00    -0.352 N 
ATOM     26  C   UNL A   1      39.469  22.449  26.514  1.00  0.00     0.251 C 
ATOM     27  H   UNL A   1      38.113  21.187  25.758  1.00  0.00     0.163 HD
ATOM     28  O   UNL A   1      40.292  21.560  26.740  1.00  0.00    -0.269 OA
BRANCH  26  29
ATOM     29  C   UNL A   1      39.750  23.839  26.928  1.00  0.00     0.039 A 
ATOM     30  C   UNL A   1      39.749  24.152  28.290  1.00  0.00     0.014 A 
ATOM     31  C   UNL A   1      40.010  24.834  25.980  1.00  0.00     0.014 A 
ATOM     32  C   UNL A   1      40.066  25.449  28.701  1.00  0.00     0.010 A 
ATOM     33  C   UNL A   1      40.399  26.105  26.397  1.00  0.00     0.010 A 
ATOM     34  C   UNL A   1      40.427  26.428  27.760  1.00  0.00    -0.014 A 
BRANCH  34  35
ATOM     35  C   UNL A   1      40.864  27.780  28.196  1.00  0.00     0.031 A 
ATOM     36  C   UNL A   1      42.320  28.155  28.191  1.00  0.00     0.074 A 
ATOM     37  C   UNL A   1      39.947  28.650  28.664  1.00  0.00     0.049 A 
ATOM     38  N   UNL A   1      42.882  29.279  28.554  1.00  0.00    -0.248 NA
ATOM     39  C   UNL A   1      43.276  27.126  27.748  1.00  0.00     0.031 C 
ATOM     40  C   UNL A   1      38.514  28.377  28.796  1.00  0.00     0.029 A 
ATOM     41  N   UNL A   1      40.084  29.932  29.134  1.00  0.00    -0.354 N 
ATOM     42  C   UNL A   1      44.251  29.088  28.410  1.00  0.00     0.074 A 
ATOM     43  C   UNL A   1      44.439  27.725  27.963  1.00  0.00     0.031 C 
ATOM     44  C   UNL A   1      37.904  29.461  29.302  1.00  0.00     0.029 A 
ATOM     45  C   UNL A   1      38.903  30.492  29.560  1.00  0.00     0.049 A 
ATOM     46  H   UNL A   1      40.947  30.405  29.164  1.00  0.00     0.167 HD
ATOM     47  C   UNL A   1      45.258  29.972  28.605  1.00  0.00     0.034 A 
ATOM     48  C   UNL A   1      38.651  31.699  30.104  1.00  0.00     0.034 A 
ATOM     49  C   UNL A   1      45.065  31.335  29.020  1.00  0.00     0.049 A 
ATOM     50  C   UNL A   1      39.784  32.673  30.281  1.00  0.00     0.074 A 
ATOM     51  C   UNL A   1      46.012  32.335  29.161  1.00  0.00     0.029 A 
ATOM     52  N   UNL A   1      43.846  31.892  29.375  1.00  0.00    -0.354 N 
ATOM     53  N   UNL A   1      41.052  32.525  29.984  1.00  0.00    -0.248 NA
ATOM     54  C   UNL A   1      39.445  33.992  30.833  1.00  0.00     0.031 C 
ATOM     55  C   UNL A   1      45.372  33.484  29.634  1.00  0.00     0.029 A 
ATOM     56  C   UNL A   1      44.018  33.213  29.752  1.00  0.00     0.049 A 
ATOM     57  H   UNL A   1      42.983  31.417  29.361  1.00  0.00     0.167 HD
ATOM     58  C   UNL A   1      41.656  33.741  30.282  1.00  0.00     0.074 A 
ATOM     59  C   UNL A   1      40.609  34.622  30.757  1.00  0.00     0.031 C 
ATOM     60  C   UNL A   1      42.963  34.093  30.185  1.00  0.00     0.034 A 
BRANCH  47  61
ATOM     61  C   UNL A   1      46.665  29.505  28.328  1.00  0.00     0.023 A 
ATOM     62  C   UNL A   1      47.236  29.726  27.057  1.00  0.00     0.012 A 
ATOM     63  C   UNL A   1      47.441  28.904  29.338  1.00  0.00     0.148 A 
ATOM     64  C   UNL A   1      48.543  29.325  26.785  1.00  0.00     0.002 A 
ATOM     65  C   UNL A   1      48.760  28.550  29.072  1.00  0.00     0.091 A 
ATOM     66  F   UNL A   1      46.877  28.683  30.533  1.00  0.00    -0.205 F 
ATOM     67  C   UNL A   1      49.307  28.748  27.795  1.00  0.00     0.022 A 
BRANCH  65  68
ATOM     68  S   UNL A   1      49.852  27.873  30.327  1.00  0.00     0.127 S 
ATOM     69  O   UNL A   1      49.838  28.933  31.334  1.00  0.00    -0.237 OA
ATOM     70  O   UNL A   1      49.150  26.651  30.718  1.00  0.00    -0.237 OA
ATOM     71  O   UNL A   1      51.134  27.655  29.670  1.00  0.00    -0.744 OA
ENDBRANCH  65  68
ENDBRANCH  47  61
BRANCH  48  72
ATOM     72  C   UNL A   1      37.256  32.074  30.472  1.00  0.00     0.023 A 
ATOM     73  C   UNL A   1      36.784  31.804  31.771  1.00  0.00     0.012 A 
ATOM     74  C   UNL A   1      36.406  32.715  29.551  1.00  0.00     0.148 A 
ATOM     75  C   UNL A   1      35.478  32.134  32.136  1.00  0.00     0.002 A 
ATOM     76  C   UNL A   1      35.126  33.094  29.938  1.00  0.00     0.091 A 
ATOM     77  F   UNL A   1      36.871  32.954  28.317  1.00  0.00    -0.205 F 
ATOM     78  C   UNL A   1      34.653  32.788  31.224  1.00  0.00     0.022 A 
BRANCH  76  79
ATOM     79  S   UNL A   1      34.045  34.058  28.876  1.00  0.00     0.127 S 
ATOM     80  O   UNL A   1      33.054  34.554  29.828  1.00  0.00    -0.237 OA
ATOM     81  O   UNL A   1      34.962  35.073  28.354  1.00  0.00    -0.237 OA
ATOM     82  O   UNL A   1      33.548  33.128  27.871  1.00  0.00    -0.744 OA
ENDBRANCH  76  79
ENDBRANCH  48  72
BRANCH  60  83
ATOM     83  C   UNL A   1      43.334  35.501  30.574  1.00  0.00     0.023 A 
ATOM     84  C   UNL A   1      43.786  35.774  31.881  1.00  0.00     0.012 A 
ATOM     85  C   UNL A   1      43.287  36.544  29.628  1.00  0.00     0.148 A 
ATOM     86  C   UNL A   1      44.145  37.071  32.251  1.00  0.00     0.002 A 
ATOM     87  C   UNL A   1      43.696  37.823  29.989  1.00  0.00     0.091 A 
ATOM     88  F   UNL A   1      42.838  36.270  28.395  1.00  0.00    -0.205 F 
ATOM     89  C   UNL A   1      44.110  38.091  31.304  1.00  0.00     0.022 A 
BRANCH  87  90
ATOM     90  S   UNL A   1      43.778  39.176  28.812  1.00  0.00     0.127 S 
ATOM     91  O   UNL A   1      42.371  39.554  28.694  1.00  0.00    -0.237 OA
ATOM     92  O   UNL A   1      44.614  40.150  29.518  1.00  0.00    -0.237 OA
ATOM     93  O   UNL A   1      44.381  38.625  27.607  1.00  0.00    -0.744 OA
ENDBRANCH  87  90
ENDBRANCH  60  83
ENDBRANCH  34  35
ENDBRANCH  26  29
ENDBRANCH  24  25
ENDBRANCH  23  24
ENDBRANCH  22  23
ENDBRANCH   1  22
TORSDOF 20
ENDMDL
