MODEL 1
REMARK VINA RESULT:     -10.5      0.000      0.000
REMARK SMILES CC[C@H]1CO[C@H](C)C[N@H+]1[C@@H]1CC[C@]([NH2+]C(C)C)(C(=O)NCCCCCCNC(=O)c2ccc(-c3c4nc(c(-c5cccc(S(=O)(=O)[O-])c5F)c5ccc([nH]5)c(-c5cccc(S(=O)(=O)[O-])c5F)c5nc(c(-c6cccc(S(=O)(=O)[O-])c6F)c6ccc3[nH]6)C=C5)C=C4)cc2)C1
REMARK SMILES IDX 24 1 23 2 22 3 21 4 20 5 18 6 19 7 13 9 10 10 11 11 93 12
REMARK SMILES IDX 12 13 9 14 3 15 4 16 5 17 8 18 6 20 7 21 2 22 1 23 14 24
REMARK SMILES IDX 15 27 16 28 17 29 25 30 26 31 27 32 28 33 29 35 30 36 31 37
REMARK SMILES IDX 92 38 32 39 91 40 33 41 34 42 35 43 85 44 36 45 90 46 84 47
REMARK SMILES IDX 86 48 37 49 89 50 83 51 82 52 38 54 70 55 50 56 69 57 51 58
REMARK SMILES IDX 54 59 68 60 87 61 52 62 53 63 67 65 88 66 55 67 39 68 40 69
REMARK SMILES IDX 48 70 41 71 43 72 49 73 42 74 44 75 45 76 46 77 47 78 71 79
REMARK SMILES IDX 72 80 80 81 73 82 75 83 81 84 74 85 76 86 77 87 78 88 79 89
REMARK SMILES IDX 56 90 57 91 65 92 58 93 60 94 66 95 59 96 61 97 62 98 63 99
REMARK SMILES IDX 64 100
REMARK H PARENT 20 8 9 19 14 25 14 26 27 34 86 53 54 64
REMARK Flexibility Score: inf
ROOT
ATOM      1  C   UNL A   1      34.799  33.079  28.033  1.00  0.00     0.002 C 
ENDROOT
BRANCH   1   2
ATOM      2  C   UNL A   1      34.804  31.681  28.658  1.00  0.00     0.002 C 
BRANCH   2   3
ATOM      3  C   UNL A   1      34.814  30.536  27.646  1.00  0.00     0.021 C 
BRANCH   3   4
ATOM      4  C   UNL A   1      33.493  30.380  26.898  1.00  0.00     0.116 C 
BRANCH   4   5
ATOM      5  N   UNL A   1      32.575  29.535  27.635  1.00  0.00    -0.351 N 
ATOM      6  C   UNL A   1      31.912  28.390  27.291  1.00  0.00     0.281 C 
ATOM      7  O   UNL A   1      31.074  28.016  28.118  1.00  0.00    -0.268 OA
ATOM      8  H   UNL A   1      32.395  29.843  28.553  1.00  0.00     0.163 HD
BRANCH   6   9
ATOM      9  C   UNL A   1      32.254  27.594  25.980  1.00  0.00     0.181 C 
ATOM     10  C   UNL A   1      32.491  25.311  25.157  1.00  0.00     0.191 C 
ATOM     11  C   UNL A   1      33.886  25.747  25.608  1.00  0.00     0.072 C 
ATOM     12  C   UNL A   1      31.563  26.214  25.978  1.00  0.00     0.144 C 
ATOM     13  C   UNL A   1      33.772  27.250  25.882  1.00  0.00     0.085 C 
BRANCH  10  14
ATOM     14  N   UNL A   1      32.152  23.888  25.091  1.00  0.00    -0.326 N 
ATOM     15  C   UNL A   1      32.625  23.097  23.922  1.00  0.00     0.210 C 
ATOM     16  C   UNL A   1      34.078  22.558  24.096  1.00  0.00     0.225 C 
ATOM     17  O   UNL A   1      34.278  21.872  25.337  1.00  0.00    -0.366 OA
ATOM     18  C   UNL A   1      32.412  23.086  26.312  1.00  0.00     0.294 C 
ATOM     19  H   UNL A   1      31.148  24.029  24.978  1.00  0.00     0.348 HD
ATOM     20  C   UNL A   1      33.884  22.661  26.462  1.00  0.00     0.170 C 
ATOM     21  C   UNL A   1      34.103  21.832  27.721  1.00  0.00     0.045 C 
BRANCH  15  22
ATOM     22  C   UNL A   1      32.434  23.604  22.463  1.00  0.00     0.064 C 
ATOM     23  C   UNL A   1      33.144  22.911  21.313  1.00  0.00     0.010 C 
ENDBRANCH  15  22
ENDBRANCH  10  14
BRANCH   9  24
ATOM     24  N   UNL A   1      32.025  28.387  24.743  1.00  0.00    -0.331 N 
ATOM     25  H   UNL A   1      32.736  28.085  24.076  1.00  0.00     0.347 HD
ATOM     26  H   UNL A   1      32.049  29.344  25.095  1.00  0.00     0.347 HD
BRANCH  24  27
ATOM     27  C   UNL A   1      30.754  28.357  24.026  1.00  0.00     0.176 C 
ATOM     28  C   UNL A   1      30.281  29.818  23.998  1.00  0.00     0.075 C 
ATOM     29  C   UNL A   1      30.862  27.845  22.590  1.00  0.00     0.075 C 
ENDBRANCH  24  27
ENDBRANCH   9  24
ENDBRANCH   6   9
ENDBRANCH   4   5
ENDBRANCH   3   4
ENDBRANCH   2   3
ENDBRANCH   1   2
BRANCH   1  30
ATOM     30  C   UNL A   1      33.538  33.901  28.310  1.00  0.00     0.021 C 
BRANCH  30  31
ATOM     31  C   UNL A   1      33.812  35.327  28.778  1.00  0.00     0.116 C 
BRANCH  31  32
ATOM     32  N   UNL A   1      33.090  35.634  30.003  1.00  0.00    -0.352 N 
ATOM     33  C   UNL A   1      33.250  35.096  31.254  1.00  0.00     0.251 C 
ATOM     34  H   UNL A   1      32.392  36.324  29.924  1.00  0.00     0.163 HD
ATOM     35  O   UNL A   1      32.406  35.283  32.123  1.00  0.00    -0.269 OA
BRANCH  33  36
ATOM     36  C   UNL A   1      34.450  34.283  31.537  1.00  0.00     0.039 A 
ATOM     37  C   UNL A   1      35.713  34.823  31.293  1.00  0.00     0.014 A 
ATOM     38  C   UNL A   1      34.316  32.991  32.054  1.00  0.00     0.014 A 
ATOM     39  C   UNL A   1      36.851  34.080  31.613  1.00  0.00     0.010 A 
ATOM     40  C   UNL A   1      35.448  32.286  32.445  1.00  0.00     0.010 A 
ATOM     41  C   UNL A   1      36.726  32.817  32.216  1.00  0.00    -0.014 A 
BRANCH  41  42
ATOM     42  C   UNL A   1      37.920  32.029  32.614  1.00  0.00     0.031 A 
ATOM     43  C   UNL A   1      38.627  32.336  33.905  1.00  0.00     0.074 A 
ATOM     44  C   UNL A   1      38.415  31.102  31.772  1.00  0.00     0.049 A 
ATOM     45  N   UNL A   1      39.714  31.800  34.397  1.00  0.00    -0.248 NA
ATOM     46  C   UNL A   1      38.056  33.407  34.741  1.00  0.00     0.031 C 
ATOM     47  C   UNL A   1      37.856  30.763  30.461  1.00  0.00     0.029 A 
ATOM     48  N   UNL A   1      39.516  30.291  31.882  1.00  0.00    -0.354 N 
ATOM     49  C   UNL A   1      39.982  32.495  35.570  1.00  0.00     0.074 A 
ATOM     50  C   UNL A   1      38.962  33.512  35.703  1.00  0.00     0.031 C 
ATOM     51  C   UNL A   1      38.608  29.805  29.896  1.00  0.00     0.029 A 
ATOM     52  C   UNL A   1      39.722  29.489  30.784  1.00  0.00     0.049 A 
ATOM     53  H   UNL A   1      40.104  30.284  32.672  1.00  0.00     0.167 HD
ATOM     54  C   UNL A   1      40.974  32.292  36.468  1.00  0.00     0.034 A 
ATOM     55  C   UNL A   1      40.703  28.603  30.520  1.00  0.00     0.034 A 
ATOM     56  C   UNL A   1      41.960  31.252  36.350  1.00  0.00     0.049 A 
ATOM     57  C   UNL A   1      41.780  28.380  31.548  1.00  0.00     0.074 A 
ATOM     58  C   UNL A   1      42.943  30.893  37.255  1.00  0.00     0.029 A 
ATOM     59  N   UNL A   1      42.100  30.414  35.255  1.00  0.00    -0.354 N 
ATOM     60  N   UNL A   1      41.923  28.932  32.727  1.00  0.00    -0.248 NA
ATOM     61  C   UNL A   1      42.812  27.385  31.221  1.00  0.00     0.031 C 
ATOM     62  C   UNL A   1      43.704  29.867  36.687  1.00  0.00     0.029 A 
ATOM     63  C   UNL A   1      43.166  29.555  35.448  1.00  0.00     0.049 A 
ATOM     64  H   UNL A   1      41.524  30.428  34.456  1.00  0.00     0.167 HD
ATOM     65  C   UNL A   1      43.033  28.323  33.302  1.00  0.00     0.074 A 
ATOM     66  C   UNL A   1      43.516  27.349  32.344  1.00  0.00     0.031 C 
ATOM     67  C   UNL A   1      43.605  28.555  34.509  1.00  0.00     0.034 A 
BRANCH  54  68
ATOM     68  C   UNL A   1      41.030  33.196  37.672  1.00  0.00     0.023 A 
ATOM     69  C   UNL A   1      40.234  32.913  38.802  1.00  0.00     0.012 A 
ATOM     70  C   UNL A   1      41.906  34.298  37.704  1.00  0.00     0.148 A 
ATOM     71  C   UNL A   1      40.280  33.737  39.927  1.00  0.00     0.002 A 
ATOM     72  C   UNL A   1      41.983  35.084  38.847  1.00  0.00     0.091 A 
ATOM     73  F   UNL A   1      42.638  34.564  36.613  1.00  0.00    -0.205 F 
ATOM     74  C   UNL A   1      41.161  34.814  39.954  1.00  0.00     0.022 A 
BRANCH  72  75
ATOM     75  S   UNL A   1      43.147  36.442  39.010  1.00  0.00     0.127 S 
ATOM     76  O   UNL A   1      42.830  36.943  40.347  1.00  0.00    -0.237 OA
ATOM     77  O   UNL A   1      44.435  35.758  38.906  1.00  0.00    -0.237 OA
ATOM     78  O   UNL A   1      42.854  37.357  37.915  1.00  0.00    -0.744 OA
ENDBRANCH  72  75
ENDBRANCH  54  68
BRANCH  55  79
ATOM     79  C   UNL A   1      40.673  27.808  29.260  1.00  0.00     0.023 A 
ATOM     80  C   UNL A   1      39.723  26.777  29.120  1.00  0.00     0.012 A 
ATOM     81  C   UNL A   1      41.558  28.075  28.197  1.00  0.00     0.148 A 
ATOM     82  C   UNL A   1      39.677  26.004  27.960  1.00  0.00     0.002 A 
ATOM     83  C   UNL A   1      41.471  27.336  27.023  1.00  0.00     0.091 A 
ATOM     84  F   UNL A   1      42.459  29.055  28.353  1.00  0.00    -0.205 F 
ATOM     85  C   UNL A   1      40.543  26.288  26.909  1.00  0.00     0.022 A 
BRANCH  83  86
ATOM     86  S   UNL A   1      42.460  27.708  25.571  1.00  0.00     0.127 S 
ATOM     87  O   UNL A   1      41.877  28.973  25.127  1.00  0.00    -0.237 OA
ATOM     88  O   UNL A   1      43.803  27.816  26.143  1.00  0.00    -0.237 OA
ATOM     89  O   UNL A   1      42.278  26.580  24.669  1.00  0.00    -0.744 OA
ENDBRANCH  83  86
ENDBRANCH  55  79
BRANCH  67  90
ATOM     90  C   UNL A   1      44.789  27.708  34.898  1.00  0.00     0.023 A 
ATOM     91  C   UNL A   1      46.098  28.181  34.682  1.00  0.00     0.012 A 
ATOM     92  C   UNL A   1      44.598  26.476  35.557  1.00  0.00     0.148 A 
ATOM     93  C   UNL A   1      47.199  27.426  35.087  1.00  0.00     0.002 A 
ATOM     94  C   UNL A   1      45.697  25.756  36.005  1.00  0.00     0.091 A 
ATOM     95  F   UNL A   1      43.344  26.037  35.737  1.00  0.00    -0.205 F 
ATOM     96  C   UNL A   1      46.998  26.222  35.759  1.00  0.00     0.022 A 
BRANCH  94  97
ATOM     97  S   UNL A   1      45.534  24.250  36.970  1.00  0.00     0.127 S 
ATOM     98  O   UNL A   1      46.933  23.901  37.215  1.00  0.00    -0.237 OA
ATOM     99  O   UNL A   1      44.805  24.716  38.149  1.00  0.00    -0.237 OA
ATOM    100  O   UNL A   1      44.797  23.312  36.133  1.00  0.00    -0.744 OA
ENDBRANCH  94  97
ENDBRANCH  67  90
ENDBRANCH  41  42
ENDBRANCH  33  36
ENDBRANCH  31  32
ENDBRANCH  30  31
ENDBRANCH   1  30
TORSDOF 20
ENDMDL
MODEL 2
REMARK VINA RESULT:     -10.3      1.732      2.295
REMARK SMILES CC[C@H]1CO[C@H](C)C[N@H+]1[C@@H]1CC[C@]([NH2+]C(C)C)(C(=O)NCCCCCCNC(=O)c2ccc(-c3c4nc(c(-c5cccc(S(=O)(=O)[O-])c5F)c5ccc([nH]5)c(-c5cccc(S(=O)(=O)[O-])c5F)c5nc(c(-c6cccc(S(=O)(=O)[O-])c6F)c6ccc3[nH]6)C=C5)C=C4)cc2)C1
REMARK SMILES IDX 24 1 23 2 22 3 21 4 20 5 18 6 19 7 13 9 10 10 11 11 93 12
REMARK SMILES IDX 12 13 9 14 3 15 4 16 5 17 8 18 6 20 7 21 2 22 1 23 14 24
REMARK SMILES IDX 15 27 16 28 17 29 25 30 26 31 27 32 28 33 29 35 30 36 31 37
REMARK SMILES IDX 92 38 32 39 91 40 33 41 34 42 35 43 85 44 36 45 90 46 84 47
REMARK SMILES IDX 86 48 37 49 89 50 83 51 82 52 38 54 70 55 50 56 69 57 51 58
REMARK SMILES IDX 54 59 68 60 87 61 52 62 53 63 67 65 88 66 55 67 39 68 40 69
REMARK SMILES IDX 48 70 41 71 43 72 49 73 42 74 44 75 45 76 46 77 47 78 71 79
REMARK SMILES IDX 72 80 80 81 73 82 75 83 81 84 74 85 76 86 77 87 78 88 79 89
REMARK SMILES IDX 56 90 57 91 65 92 58 93 60 94 66 95 59 96 61 97 62 98 63 99
REMARK SMILES IDX 64 100
REMARK H PARENT 20 8 9 19 14 25 14 26 27 34 86 53 54 64
REMARK Flexibility Score: inf
ROOT
ATOM      1  C   UNL A   1      34.313  31.760  27.994  1.00  0.00     0.002 C 
ENDROOT
BRANCH   1   2
ATOM      2  C   UNL A   1      33.992  30.488  27.203  1.00  0.00     0.002 C 
BRANCH   2   3
ATOM      3  C   UNL A   1      32.527  30.352  26.793  1.00  0.00     0.021 C 
BRANCH   3   4
ATOM      4  C   UNL A   1      32.279  29.216  25.805  1.00  0.00     0.116 C 
BRANCH   4   5
ATOM      5  N   UNL A   1      33.162  29.321  24.660  1.00  0.00    -0.351 N 
ATOM      6  C   UNL A   1      33.678  28.377  23.816  1.00  0.00     0.281 C 
ATOM      7  O   UNL A   1      34.534  28.804  23.035  1.00  0.00    -0.268 OA
ATOM      8  H   UNL A   1      33.441  30.242  24.452  1.00  0.00     0.163 HD
BRANCH   6   9
ATOM      9  C   UNL A   1      33.160  26.894  23.811  1.00  0.00     0.181 C 
ATOM     10  C   UNL A   1      33.545  24.749  24.905  1.00  0.00     0.191 C 
ATOM     11  C   UNL A   1      34.430  24.755  23.658  1.00  0.00     0.072 C 
ATOM     12  C   UNL A   1      33.347  26.241  25.197  1.00  0.00     0.144 C 
ATOM     13  C   UNL A   1      33.993  25.985  22.856  1.00  0.00     0.085 C 
BRANCH  10  14
ATOM     14  N   UNL A   1      33.880  23.885  26.039  1.00  0.00    -0.326 N 
ATOM     15  C   UNL A   1      32.807  23.040  26.631  1.00  0.00     0.210 C 
ATOM     16  C   UNL A   1      32.617  21.683  25.886  1.00  0.00     0.225 C 
ATOM     17  O   UNL A   1      33.841  20.964  25.705  1.00  0.00    -0.366 OA
ATOM     18  C   UNL A   1      35.092  23.039  25.895  1.00  0.00     0.294 C 
ATOM     19  H   UNL A   1      34.066  24.645  26.694  1.00  0.00     0.348 HD
ATOM     20  C   UNL A   1      34.849  21.759  25.076  1.00  0.00     0.170 C 
ATOM     21  C   UNL A   1      36.114  20.917  24.962  1.00  0.00     0.045 C 
BRANCH  15  22
ATOM     22  C   UNL A   1      31.415  23.629  26.997  1.00  0.00     0.064 C 
ATOM     23  C   UNL A   1      30.164  22.778  26.856  1.00  0.00     0.010 C 
ENDBRANCH  15  22
ENDBRANCH  10  14
BRANCH   9  24
ATOM     24  N   UNL A   1      31.785  26.760  23.262  1.00  0.00    -0.331 N 
ATOM     25  H   UNL A   1      31.878  26.252  22.382  1.00  0.00     0.347 HD
ATOM     26  H   UNL A   1      31.467  27.730  23.243  1.00  0.00     0.347 HD
BRANCH  24  27
ATOM     27  C   UNL A   1      30.713  26.102  24.002  1.00  0.00     0.176 C 
ATOM     28  C   UNL A   1      29.500  27.032  23.853  1.00  0.00     0.075 C 
ATOM     29  C   UNL A   1      30.344  24.720  23.464  1.00  0.00     0.075 C 
ENDBRANCH  24  27
ENDBRANCH   9  24
ENDBRANCH   6   9
ENDBRANCH   4   5
ENDBRANCH   3   4
ENDBRANCH   2   3
ENDBRANCH   1   2
BRANCH   1  30
ATOM     30  C   UNL A   1      33.353  32.927  27.748  1.00  0.00     0.021 C 
BRANCH  30  31
ATOM     31  C   UNL A   1      33.967  34.302  27.990  1.00  0.00     0.116 C 
BRANCH  31  32
ATOM     32  N   UNL A   1      33.251  35.031  29.026  1.00  0.00    -0.352 N 
ATOM     33  C   UNL A   1      33.376  34.936  30.388  1.00  0.00     0.251 C 
ATOM     34  H   UNL A   1      32.586  35.683  28.705  1.00  0.00     0.163 HD
ATOM     35  O   UNL A   1      32.534  35.437  31.125  1.00  0.00    -0.269 OA
BRANCH  33  36
ATOM     36  C   UNL A   1      34.534  34.215  30.954  1.00  0.00     0.039 A 
ATOM     37  C   UNL A   1      34.322  33.025  31.651  1.00  0.00     0.014 A 
ATOM     38  C   UNL A   1      35.826  34.718  30.780  1.00  0.00     0.014 A 
ATOM     39  C   UNL A   1      35.419  32.310  32.137  1.00  0.00     0.010 A 
ATOM     40  C   UNL A   1      36.918  33.966  31.195  1.00  0.00     0.010 A 
ATOM     41  C   UNL A   1      36.726  32.762  31.889  1.00  0.00    -0.014 A 
BRANCH  41  42
ATOM     42  C   UNL A   1      37.910  31.994  32.349  1.00  0.00     0.031 A 
ATOM     43  C   UNL A   1      38.563  32.335  33.661  1.00  0.00     0.074 A 
ATOM     44  C   UNL A   1      38.445  31.054  31.547  1.00  0.00     0.049 A 
ATOM     45  N   UNL A   1      39.634  31.819  34.206  1.00  0.00    -0.248 NA
ATOM     46  C   UNL A   1      37.952  33.418  34.450  1.00  0.00     0.031 C 
ATOM     47  C   UNL A   1      37.941  30.682  30.223  1.00  0.00     0.029 A 
ATOM     48  N   UNL A   1      39.548  30.255  31.718  1.00  0.00    -0.354 N 
ATOM     49  C   UNL A   1      39.851  32.541  35.373  1.00  0.00     0.074 A 
ATOM     50  C   UNL A   1      38.819  33.551  35.444  1.00  0.00     0.031 C 
ATOM     51  C   UNL A   1      38.722  29.719  29.708  1.00  0.00     0.029 A 
ATOM     52  C   UNL A   1      39.803  29.432  30.646  1.00  0.00     0.049 A 
ATOM     53  H   UNL A   1      40.104  30.270  32.530  1.00  0.00     0.167 HD
ATOM     54  C   UNL A   1      40.809  32.365  36.313  1.00  0.00     0.034 A 
ATOM     55  C   UNL A   1      40.801  28.550  30.439  1.00  0.00     0.034 A 
ATOM     56  C   UNL A   1      41.808  31.332  36.256  1.00  0.00     0.049 A 
ATOM     57  C   UNL A   1      41.838  28.358  31.513  1.00  0.00     0.074 A 
ATOM     58  C   UNL A   1      42.757  31.001  37.206  1.00  0.00     0.029 A 
ATOM     59  N   UNL A   1      41.996  30.473  35.185  1.00  0.00    -0.354 N 
ATOM     60  N   UNL A   1      41.931  28.936  32.685  1.00  0.00    -0.248 NA
ATOM     61  C   UNL A   1      42.891  27.366  31.248  1.00  0.00     0.031 C 
ATOM     62  C   UNL A   1      43.548  29.970  36.690  1.00  0.00     0.029 A 
ATOM     63  C   UNL A   1      43.062  29.628  35.438  1.00  0.00     0.049 A 
ATOM     64  H   UNL A   1      41.452  30.465  34.364  1.00  0.00     0.167 HD
ATOM     65  C   UNL A   1      43.023  28.350  33.315  1.00  0.00     0.074 A 
ATOM     66  C   UNL A   1      43.550  27.360  32.398  1.00  0.00     0.031 C 
ATOM     67  C   UNL A   1      43.545  28.612  34.538  1.00  0.00     0.034 A 
BRANCH  54  68
ATOM     68  C   UNL A   1      40.810  33.295  37.498  1.00  0.00     0.023 A 
ATOM     69  C   UNL A   1      41.750  34.345  37.570  1.00  0.00     0.012 A 
ATOM     70  C   UNL A   1      39.847  33.161  38.518  1.00  0.00     0.148 A 
ATOM     71  C   UNL A   1      41.758  35.218  38.658  1.00  0.00     0.002 A 
ATOM     72  C   UNL A   1      39.831  34.065  39.573  1.00  0.00     0.091 A 
ATOM     73  F   UNL A   1      38.976  32.144  38.445  1.00  0.00    -0.205 F 
ATOM     74  C   UNL A   1      40.793  35.085  39.652  1.00  0.00     0.022 A 
BRANCH  72  75
ATOM     75  S   UNL A   1      38.576  34.029  40.858  1.00  0.00     0.127 S 
ATOM     76  O   UNL A   1      39.295  33.382  41.954  1.00  0.00    -0.237 OA
ATOM     77  O   UNL A   1      38.305  35.452  41.062  1.00  0.00    -0.237 OA
ATOM     78  O   UNL A   1      37.460  33.270  40.309  1.00  0.00    -0.744 OA
ENDBRANCH  72  75
ENDBRANCH  54  68
BRANCH  55  79
ATOM     79  C   UNL A   1      40.827  27.728  29.196  1.00  0.00     0.023 A 
ATOM     80  C   UNL A   1      39.944  26.636  29.076  1.00  0.00     0.012 A 
ATOM     81  C   UNL A   1      41.698  28.028  28.131  1.00  0.00     0.148 A 
ATOM     82  C   UNL A   1      39.952  25.837  27.932  1.00  0.00     0.002 A 
ATOM     83  C   UNL A   1      41.662  27.261  26.972  1.00  0.00     0.091 A 
ATOM     84  F   UNL A   1      42.533  29.066  28.268  1.00  0.00    -0.205 F 
ATOM     85  C   UNL A   1      40.803  26.154  26.878  1.00  0.00     0.022 A 
BRANCH  83  86
ATOM     86  S   UNL A   1      42.631  27.664  25.515  1.00  0.00     0.127 S 
ATOM     87  O   UNL A   1      42.411  26.490  24.674  1.00  0.00    -0.237 OA
ATOM     88  O   UNL A   1      41.976  28.887  25.049  1.00  0.00    -0.237 OA
ATOM     89  O   UNL A   1      43.995  27.854  25.987  1.00  0.00    -0.744 OA
ENDBRANCH  83  86
ENDBRANCH  55  79
BRANCH  67  90
ATOM     90  C   UNL A   1      44.720  27.785  34.991  1.00  0.00     0.023 A 
ATOM     91  C   UNL A   1      46.034  28.228  34.747  1.00  0.00     0.012 A 
ATOM     92  C   UNL A   1      44.515  26.604  35.735  1.00  0.00     0.148 A 
ATOM     93  C   UNL A   1      47.127  27.494  35.209  1.00  0.00     0.002 A 
ATOM     94  C   UNL A   1      45.606  25.908  36.237  1.00  0.00     0.091 A 
ATOM     95  F   UNL A   1      43.256  26.190  35.942  1.00  0.00    -0.205 F 
ATOM     96  C   UNL A   1      46.912  26.344  35.964  1.00  0.00     0.022 A 
BRANCH  94  97
ATOM     97  S   UNL A   1      45.426  24.476  37.307  1.00  0.00     0.127 S 
ATOM     98  O   UNL A   1      46.798  24.277  37.772  1.00  0.00    -0.237 OA
ATOM     99  O   UNL A   1      44.500  24.967  38.327  1.00  0.00    -0.237 OA
ATOM    100  O   UNL A   1      44.893  23.410  36.469  1.00  0.00    -0.744 OA
ENDBRANCH  94  97
ENDBRANCH  67  90
ENDBRANCH  41  42
ENDBRANCH  33  36
ENDBRANCH  31  32
ENDBRANCH  30  31
ENDBRANCH   1  30
TORSDOF 20
ENDMDL
MODEL 3
REMARK VINA RESULT:     -10.0      5.220     10.333
REMARK SMILES CC[C@H]1CO[C@H](C)C[N@H+]1[C@@H]1CC[C@]([NH2+]C(C)C)(C(=O)NCCCCCCNC(=O)c2ccc(-c3c4nc(c(-c5cccc(S(=O)(=O)[O-])c5F)c5ccc([nH]5)c(-c5cccc(S(=O)(=O)[O-])c5F)c5nc(c(-c6cccc(S(=O)(=O)[O-])c6F)c6ccc3[nH]6)C=C5)C=C4)cc2)C1
REMARK SMILES IDX 24 1 23 2 22 3 21 4 20 5 18 6 19 7 13 9 10 10 11 11 93 12
REMARK SMILES IDX 12 13 9 14 3 15 4 16 5 17 8 18 6 20 7 21 2 22 1 23 14 24
REMARK SMILES IDX 15 27 16 28 17 29 25 30 26 31 27 32 28 33 29 35 30 36 31 37
REMARK SMILES IDX 92 38 32 39 91 40 33 41 34 42 35 43 85 44 36 45 90 46 84 47
REMARK SMILES IDX 86 48 37 49 89 50 83 51 82 52 38 54 70 55 50 56 69 57 51 58
REMARK SMILES IDX 54 59 68 60 87 61 52 62 53 63 67 65 88 66 55 67 39 68 40 69
REMARK SMILES IDX 48 70 41 71 43 72 49 73 42 74 44 75 45 76 46 77 47 78 71 79
REMARK SMILES IDX 72 80 80 81 73 82 75 83 81 84 74 85 76 86 77 87 78 88 79 89
REMARK SMILES IDX 56 90 57 91 65 92 58 93 60 94 66 95 59 96 61 97 62 98 63 99
REMARK SMILES IDX 64 100
REMARK H PARENT 20 8 9 19 14 25 14 26 27 34 86 53 54 64
REMARK Flexibility Score: inf
ROOT
ATOM      1  C   UNL A   1      34.921  20.885  25.470  1.00  0.00     0.002 C 
ENDROOT
BRANCH   1   2
ATOM      2  C   UNL A   1      34.031  20.889  24.224  1.00  0.00     0.002 C 
BRANCH   2   3
ATOM      3  C   UNL A   1      32.539  21.042  24.514  1.00  0.00     0.021 C 
BRANCH   3   4
ATOM      4  C   UNL A   1      31.776  21.748  23.396  1.00  0.00     0.116 C 
BRANCH   4   5
ATOM      5  N   UNL A   1      32.661  22.587  22.612  1.00  0.00    -0.351 N 
ATOM      6  C   UNL A   1      32.961  23.918  22.687  1.00  0.00     0.281 C 
ATOM      7  O   UNL A   1      33.643  24.343  21.749  1.00  0.00    -0.268 OA
ATOM      8  H   UNL A   1      33.133  22.109  21.892  1.00  0.00     0.163 HD
BRANCH   6   9
ATOM      9  C   UNL A   1      32.523  24.801  23.912  1.00  0.00     0.181 C 
ATOM     10  C   UNL A   1      32.939  26.982  24.920  1.00  0.00     0.191 C 
ATOM     11  C   UNL A   1      33.912  26.011  25.591  1.00  0.00     0.072 C 
ATOM     12  C   UNL A   1      32.642  26.303  23.578  1.00  0.00     0.144 C 
ATOM     13  C   UNL A   1      33.470  24.616  25.136  1.00  0.00     0.085 C 
BRANCH  10  14
ATOM     14  N   UNL A   1      33.234  28.416  24.893  1.00  0.00    -0.326 N 
ATOM     15  C   UNL A   1      32.130  29.375  25.170  1.00  0.00     0.210 C 
ATOM     16  C   UNL A   1      31.914  29.632  26.694  1.00  0.00     0.225 C 
ATOM     17  O   UNL A   1      33.121  29.973  27.383  1.00  0.00    -0.366 OA
ATOM     18  C   UNL A   1      34.424  28.864  25.658  1.00  0.00     0.294 C 
ATOM     19  H   UNL A   1      33.431  28.459  23.893  1.00  0.00     0.348 HD
ATOM     20  C   UNL A   1      34.158  29.014  27.167  1.00  0.00     0.170 C 
ATOM     21  C   UNL A   1      35.401  29.485  27.911  1.00  0.00     0.045 C 
BRANCH  15  22
ATOM     22  C   UNL A   1      30.749  29.255  24.465  1.00  0.00     0.064 C 
ATOM     23  C   UNL A   1      30.650  29.371  22.953  1.00  0.00     0.010 C 
ENDBRANCH  15  22
ENDBRANCH  10  14
BRANCH   9  24
ATOM     24  N   UNL A   1      31.201  24.408  24.467  1.00  0.00    -0.331 N 
ATOM     25  H   UNL A   1      31.073  23.424  24.229  1.00  0.00     0.347 HD
ATOM     26  H   UNL A   1      30.580  25.104  24.053  1.00  0.00     0.347 HD
BRANCH  24  27
ATOM     27  C   UNL A   1      30.890  24.529  25.888  1.00  0.00     0.176 C 
ATOM     28  C   UNL A   1      29.777  25.586  25.961  1.00  0.00     0.075 C 
ATOM     29  C   UNL A   1      30.383  23.235  26.525  1.00  0.00     0.075 C 
ENDBRANCH  24  27
ENDBRANCH   9  24
ENDBRANCH   6   9
ENDBRANCH   4   5
ENDBRANCH   3   4
ENDBRANCH   2   3
ENDBRANCH   1   2
BRANCH   1  30
ATOM     30  C   UNL A   1      35.856  22.091  25.594  1.00  0.00     0.021 C 
BRANCH  30  31
ATOM     31  C   UNL A   1      37.183  21.930  24.859  1.00  0.00     0.116 C 
BRANCH  31  32
ATOM     32  N   UNL A   1      37.969  20.836  25.409  1.00  0.00    -0.352 N 
ATOM     33  C   UNL A   1      39.189  20.883  26.034  1.00  0.00     0.251 C 
ATOM     34  H   UNL A   1      37.570  19.940  25.322  1.00  0.00     0.163 HD
ATOM     35  O   UNL A   1      39.829  19.855  26.222  1.00  0.00    -0.269 OA
BRANCH  33  36
ATOM     36  C   UNL A   1      39.723  22.189  26.469  1.00  0.00     0.039 A 
ATOM     37  C   UNL A   1      40.862  22.226  27.273  1.00  0.00     0.014 A 
ATOM     38  C   UNL A   1      39.095  23.372  26.070  1.00  0.00     0.014 A 
ATOM     39  C   UNL A   1      41.403  23.460  27.640  1.00  0.00     0.010 A 
ATOM     40  C   UNL A   1      39.680  24.596  26.369  1.00  0.00     0.010 A 
ATOM     41  C   UNL A   1      40.832  24.654  27.168  1.00  0.00    -0.014 A 
BRANCH  41  42
ATOM     42  C   UNL A   1      41.418  25.976  27.500  1.00  0.00     0.031 A 
ATOM     43  C   UNL A   1      42.839  26.286  27.114  1.00  0.00     0.074 A 
ATOM     44  C   UNL A   1      40.703  26.858  28.224  1.00  0.00     0.049 A 
ATOM     45  N   UNL A   1      43.545  27.358  27.364  1.00  0.00    -0.248 NA
ATOM     46  C   UNL A   1      43.574  25.244  26.377  1.00  0.00     0.031 C 
ATOM     47  C   UNL A   1      39.339  26.643  28.715  1.00  0.00     0.029 A 
ATOM     48  N   UNL A   1      41.031  28.104  28.695  1.00  0.00    -0.354 N 
ATOM     49  C   UNL A   1      44.814  27.103  26.858  1.00  0.00     0.074 A 
ATOM     50  C   UNL A   1      44.791  25.764  26.313  1.00  0.00     0.031 C 
ATOM     51  C   UNL A   1      38.943  27.724  29.404  1.00  0.00     0.029 A 
ATOM     52  C   UNL A   1      40.035  28.693  29.437  1.00  0.00     0.049 A 
ATOM     53  H   UNL A   1      41.899  28.535  28.518  1.00  0.00     0.167 HD
ATOM     54  C   UNL A   1      45.894  27.918  26.829  1.00  0.00     0.034 A 
ATOM     55  C   UNL A   1      40.007  29.878  30.080  1.00  0.00     0.034 A 
ATOM     56  C   UNL A   1      45.897  29.264  27.336  1.00  0.00     0.049 A 
ATOM     57  C   UNL A   1      41.215  30.773  30.009  1.00  0.00     0.074 A 
ATOM     58  C   UNL A   1      46.904  30.208  27.261  1.00  0.00     0.029 A 
ATOM     59  N   UNL A   1      44.847  29.851  28.025  1.00  0.00    -0.354 N 
ATOM     60  N   UNL A   1      42.350  30.582  29.385  1.00  0.00    -0.248 NA
ATOM     61  C   UNL A   1      41.123  32.065  30.706  1.00  0.00     0.031 C 
ATOM     62  C   UNL A   1      46.480  31.353  27.943  1.00  0.00     0.029 A 
ATOM     63  C   UNL A   1      45.190  31.137  28.402  1.00  0.00     0.049 A 
ATOM     64  H   UNL A   1      43.984  29.418  28.217  1.00  0.00     0.167 HD
ATOM     65  C   UNL A   1      43.092  31.742  29.574  1.00  0.00     0.074 A 
ATOM     66  C   UNL A   1      42.269  32.638  30.362  1.00  0.00     0.031 C 
ATOM     67  C   UNL A   1      44.343  32.037  29.142  1.00  0.00     0.034 A 
BRANCH  54  68
ATOM     68  C   UNL A   1      47.159  27.387  26.207  1.00  0.00     0.023 A 
ATOM     69  C   UNL A   1      47.445  27.657  24.852  1.00  0.00     0.012 A 
ATOM     70  C   UNL A   1      48.089  26.661  26.976  1.00  0.00     0.148 A 
ATOM     71  C   UNL A   1      48.615  27.178  24.264  1.00  0.00     0.002 A 
ATOM     72  C   UNL A   1      49.276  26.230  26.396  1.00  0.00     0.091 A 
ATOM     73  F   UNL A   1      47.790  26.394  28.256  1.00  0.00    -0.205 F 
ATOM     74  C   UNL A   1      49.535  26.475  25.037  1.00  0.00     0.022 A 
BRANCH  72  75
ATOM     75  S   UNL A   1      50.560  25.391  27.330  1.00  0.00     0.127 S 
ATOM     76  O   UNL A   1      50.932  26.414  28.306  1.00  0.00    -0.237 OA
ATOM     77  O   UNL A   1      49.837  24.249  27.890  1.00  0.00    -0.237 OA
ATOM     78  O   UNL A   1      51.595  25.041  26.366  1.00  0.00    -0.744 OA
ENDBRANCH  72  75
ENDBRANCH  54  68
BRANCH  55  79
ATOM     79  C   UNL A   1      38.769  30.318  30.783  1.00  0.00     0.023 A 
ATOM     80  C   UNL A   1      38.488  29.805  32.065  1.00  0.00     0.012 A 
ATOM     81  C   UNL A   1      37.885  31.250  30.207  1.00  0.00     0.148 A 
ATOM     82  C   UNL A   1      37.331  30.184  32.746  1.00  0.00     0.002 A 
ATOM     83  C   UNL A   1      36.762  31.666  30.914  1.00  0.00     0.091 A 
ATOM     84  F   UNL A   1      38.168  31.721  28.985  1.00  0.00    -0.205 F 
ATOM     85  C   UNL A   1      36.473  31.120  32.175  1.00  0.00     0.022 A 
BRANCH  83  86
ATOM     86  S   UNL A   1      35.666  32.956  30.316  1.00  0.00     0.127 S 
ATOM     87  O   UNL A   1      34.640  32.181  29.623  1.00  0.00    -0.237 OA
ATOM     88  O   UNL A   1      35.229  33.580  31.566  1.00  0.00    -0.237 OA
ATOM     89  O   UNL A   1      36.487  33.812  29.471  1.00  0.00    -0.744 OA
ENDBRANCH  83  86
ENDBRANCH  55  79
BRANCH  67  90
ATOM     90  C   UNL A   1      44.891  33.404  29.461  1.00  0.00     0.023 A 
ATOM     91  C   UNL A   1      44.665  34.480  28.582  1.00  0.00     0.012 A 
ATOM     92  C   UNL A   1      45.559  33.635  30.681  1.00  0.00     0.148 A 
ATOM     93  C   UNL A   1      45.125  35.759  28.895  1.00  0.00     0.002 A 
ATOM     94  C   UNL A   1      45.966  34.921  31.011  1.00  0.00     0.091 A 
ATOM     95  F   UNL A   1      45.779  32.594  31.497  1.00  0.00    -0.205 F 
ATOM     96  C   UNL A   1      45.762  35.981  30.114  1.00  0.00     0.022 A 
BRANCH  94  97
ATOM     97  S   UNL A   1      46.699  35.322  32.601  1.00  0.00     0.127 S 
ATOM     98  O   UNL A   1      47.066  36.725  32.414  1.00  0.00    -0.237 OA
ATOM     99  O   UNL A   1      45.584  35.099  33.521  1.00  0.00    -0.237 OA
ATOM    100  O   UNL A   1      47.818  34.404  32.773  1.00  0.00    -0.744 OA
ENDBRANCH  94  97
ENDBRANCH  67  90
ENDBRANCH  41  42
ENDBRANCH  33  36
ENDBRANCH  31  32
ENDBRANCH  30  31
ENDBRANCH   1  30
TORSDOF 20
ENDMDL
