MODEL 1
REMARK VINA RESULT:     -12.7      0.000      0.000
REMARK SMILES O=C(NCCCCCCNC(=O)c1ccc([C@@H]2CC(O)=Nc3c2ncn3-c2cccc(Cl)c2)cc1)c1ccc(-c2c3nc(c(-c4cccc(S(=O)(=O)[O-])c4F)c4ccc([nH]4)c(-c4cccc(S(=O)(=O)[O-])c4F)c4nc(c(-c5cccc(S(=O)(=O)[O-])c5F)c5ccc2[nH]5)C=C4)C=C3)cc1
REMARK SMILES IDX 6 1 5 2 4 3 3 4 1 5 2 6 36 8 37 9 98 10 38 11 97 12 39 13
REMARK SMILES IDX 40 14 41 15 91 16 42 17 96 18 90 19 92 20 43 21 95 22 89 23
REMARK SMILES IDX 88 24 44 26 76 27 56 28 75 29 57 30 60 31 74 32 93 33 58 34
REMARK SMILES IDX 59 35 73 37 94 38 61 39 45 40 46 41 54 42 47 43 49 44 55 45
REMARK SMILES IDX 48 46 50 47 51 48 52 49 53 50 77 51 78 52 86 53 79 54 81 55
REMARK SMILES IDX 87 56 80 57 82 58 83 59 84 60 85 61 62 62 63 63 71 64 64 65
REMARK SMILES IDX 66 66 72 67 65 68 67 69 68 70 69 71 70 72 7 73 8 74 9 75
REMARK SMILES IDX 10 76 11 77 12 79 13 80 14 81 35 82 15 83 34 84 16 85 17 86
REMARK SMILES IDX 18 87 23 88 19 89 22 90 24 91 21 92 26 93 25 94 20 95 27 97
REMARK SMILES IDX 28 98 33 99 29 100 31 101 30 102 32 103
REMARK H PARENT 3 7 92 25 60 36 10 78 20 96
REMARK Flexibility Score: inf
ROOT
ATOM      1  C   UNL A   1      33.575  28.752  26.959  1.00  0.00     0.002 C 
ENDROOT
BRANCH   1   2
ATOM      2  C   UNL A   1      34.937  29.121  27.565  1.00  0.00     0.021 C 
BRANCH   2   3
ATOM      3  C   UNL A   1      35.242  30.618  27.590  1.00  0.00     0.116 C 
BRANCH   3   4
ATOM      4  N   UNL A   1      35.168  31.206  28.910  1.00  0.00    -0.352 N 
ATOM      5  O   UNL A   1      35.609  31.961  30.928  1.00  0.00    -0.269 OA
ATOM      6  C   UNL A   1      35.991  31.241  30.001  1.00  0.00     0.251 C 
ATOM      7  H   UNL A   1      34.327  31.695  29.057  1.00  0.00     0.163 HD
BRANCH   6   8
ATOM      8  C   UNL A   1      37.243  30.452  30.166  1.00  0.00     0.039 A 
ATOM      9  C   UNL A   1      37.325  29.111  30.546  1.00  0.00     0.014 A 
ATOM     10  C   UNL A   1      38.442  31.155  29.936  1.00  0.00     0.014 A 
ATOM     11  C   UNL A   1      38.564  28.511  30.760  1.00  0.00     0.010 A 
ATOM     12  C   UNL A   1      39.681  30.560  30.138  1.00  0.00     0.010 A 
ATOM     13  C   UNL A   1      39.740  29.244  30.583  1.00  0.00    -0.014 A 
BRANCH  13  14
ATOM     14  C   UNL A   1      41.016  28.549  30.734  1.00  0.00     0.031 A 
ATOM     15  C   UNL A   1      41.518  28.463  32.138  1.00  0.00     0.074 A 
ATOM     16  C   UNL A   1      41.630  27.901  29.724  1.00  0.00     0.049 A 
ATOM     17  N   UNL A   1      42.619  28.934  32.627  1.00  0.00    -0.248 NA
ATOM     18  C   UNL A   1      40.621  27.876  33.146  1.00  0.00     0.031 C 
ATOM     19  C   UNL A   1      41.105  27.637  28.381  1.00  0.00     0.029 A 
ATOM     20  N   UNL A   1      42.809  27.211  29.733  1.00  0.00    -0.354 N 
ATOM     21  C   UNL A   1      42.654  28.517  33.960  1.00  0.00     0.074 A 
ATOM     22  C   UNL A   1      41.339  28.018  34.261  1.00  0.00     0.031 C 
ATOM     23  C   UNL A   1      41.827  26.648  27.808  1.00  0.00     0.029 A 
ATOM     24  C   UNL A   1      42.939  26.310  28.680  1.00  0.00     0.049 A 
ATOM     25  H   UNL A   1      43.501  27.339  30.422  1.00  0.00     0.167 HD
ATOM     26  C   UNL A   1      43.821  28.414  34.654  1.00  0.00     0.034 A 
ATOM     27  C   UNL A   1      43.842  25.304  28.578  1.00  0.00     0.034 A 
ATOM     28  C   UNL A   1      44.884  29.141  34.015  1.00  0.00     0.049 A 
ATOM     29  C   UNL A   1      44.953  25.603  29.505  1.00  0.00     0.074 A 
ATOM     30  C   UNL A   1      45.113  30.460  33.680  1.00  0.00     0.029 A 
ATOM     31  N   UNL A   1      45.802  28.407  33.309  1.00  0.00    -0.354 N 
ATOM     32  N   UNL A   1      45.775  26.603  29.350  1.00  0.00    -0.248 NA
ATOM     33  C   UNL A   1      44.907  25.026  30.838  1.00  0.00     0.031 C 
ATOM     34  C   UNL A   1      45.816  30.403  32.442  1.00  0.00     0.029 A 
ATOM     35  C   UNL A   1      46.016  29.057  32.126  1.00  0.00     0.049 A 
ATOM     36  H   UNL A   1      46.227  27.567  33.600  1.00  0.00     0.167 HD
ATOM     37  C   UNL A   1      45.999  27.064  30.639  1.00  0.00     0.074 A 
ATOM     38  C   UNL A   1      45.533  25.991  31.515  1.00  0.00     0.031 C 
ATOM     39  C   UNL A   1      46.269  28.381  30.876  1.00  0.00     0.034 A 
BRANCH  26  40
ATOM     40  C   UNL A   1      44.124  27.370  35.711  1.00  0.00     0.023 A 
ATOM     41  C   UNL A   1      44.506  27.839  36.991  1.00  0.00     0.012 A 
ATOM     42  C   UNL A   1      44.348  26.001  35.443  1.00  0.00     0.148 A 
ATOM     43  C   UNL A   1      45.150  27.014  37.920  1.00  0.00     0.002 A 
ATOM     44  C   UNL A   1      44.923  25.166  36.397  1.00  0.00     0.091 A 
ATOM     45  F   UNL A   1      44.130  25.513  34.221  1.00  0.00    -0.205 F 
ATOM     46  C   UNL A   1      45.358  25.674  37.622  1.00  0.00     0.022 A 
BRANCH  44  47
ATOM     47  S   UNL A   1      45.173  23.414  36.081  1.00  0.00     0.127 S 
ATOM     48  O   UNL A   1      46.319  23.447  35.168  1.00  0.00    -0.237 OA
ATOM     49  O   UNL A   1      45.472  22.910  37.424  1.00  0.00    -0.237 OA
ATOM     50  O   UNL A   1      43.923  22.933  35.526  1.00  0.00    -0.744 OA
ENDBRANCH  44  47
ENDBRANCH  26  40
BRANCH  27  51
ATOM     51  C   UNL A   1      43.692  23.966  27.957  1.00  0.00     0.023 A 
ATOM     52  C   UNL A   1      42.577  23.164  28.274  1.00  0.00     0.012 A 
ATOM     53  C   UNL A   1      44.484  23.598  26.847  1.00  0.00     0.148 A 
ATOM     54  C   UNL A   1      42.247  22.047  27.495  1.00  0.00     0.002 A 
ATOM     55  C   UNL A   1      44.157  22.483  26.081  1.00  0.00     0.091 A 
ATOM     56  F   UNL A   1      45.500  24.393  26.488  1.00  0.00    -0.205 F 
ATOM     57  C   UNL A   1      43.031  21.712  26.395  1.00  0.00     0.022 A 
BRANCH  55  58
ATOM     58  S   UNL A   1      45.107  22.006  24.630  1.00  0.00     0.127 S 
ATOM     59  O   UNL A   1      45.004  23.204  23.796  1.00  0.00    -0.237 OA
ATOM     60  O   UNL A   1      46.431  21.769  25.201  1.00  0.00    -0.237 OA
ATOM     61  O   UNL A   1      44.436  20.834  24.082  1.00  0.00    -0.744 OA
ENDBRANCH  55  58
ENDBRANCH  27  51
BRANCH  39  62
ATOM     62  C   UNL A   1      46.585  29.270  29.703  1.00  0.00     0.023 A 
ATOM     63  C   UNL A   1      47.858  29.291  29.096  1.00  0.00     0.012 A 
ATOM     64  C   UNL A   1      45.517  29.931  29.075  1.00  0.00     0.148 A 
ATOM     65  C   UNL A   1      48.062  29.969  27.892  1.00  0.00     0.002 A 
ATOM     66  C   UNL A   1      45.711  30.559  27.852  1.00  0.00     0.091 A 
ATOM     67  F   UNL A   1      44.313  29.895  29.668  1.00  0.00    -0.205 F 
ATOM     68  C   UNL A   1      46.985  30.589  27.261  1.00  0.00     0.022 A 
BRANCH  66  69
ATOM     69  S   UNL A   1      44.340  31.241  26.919  1.00  0.00     0.127 S 
ATOM     70  O   UNL A   1      44.986  31.635  25.669  1.00  0.00    -0.237 OA
ATOM     71  O   UNL A   1      43.438  30.094  26.808  1.00  0.00    -0.237 OA
ATOM     72  O   UNL A   1      43.811  32.337  27.722  1.00  0.00    -0.744 OA
ENDBRANCH  66  69
ENDBRANCH  39  62
ENDBRANCH  13  14
ENDBRANCH   6   8
ENDBRANCH   3   4
ENDBRANCH   2   3
ENDBRANCH   1   2
BRANCH   1  73
ATOM     73  C   UNL A   1      33.586  28.366  25.477  1.00  0.00     0.002 C 
BRANCH  73  74
ATOM     74  C   UNL A   1      32.861  29.333  24.537  1.00  0.00     0.021 C 
BRANCH  74  75
ATOM     75  C   UNL A   1      31.446  29.708  24.968  1.00  0.00     0.116 C 
BRANCH  75  76
ATOM     76  N   UNL A   1      30.531  29.792  23.839  1.00  0.00    -0.352 N 
ATOM     77  C   UNL A   1      30.096  28.791  23.008  1.00  0.00     0.251 C 
ATOM     78  H   UNL A   1      30.177  30.688  23.645  1.00  0.00     0.163 HD
ATOM     79  O   UNL A   1      29.462  29.052  21.988  1.00  0.00    -0.269 OA
BRANCH  77  80
ATOM     80  C   UNL A   1      30.413  27.385  23.328  1.00  0.00     0.039 A 
ATOM     81  C   UNL A   1      31.122  26.628  22.394  1.00  0.00     0.014 A 
ATOM     82  C   UNL A   1      30.014  26.816  24.541  1.00  0.00     0.014 A 
ATOM     83  C   UNL A   1      31.494  25.320  22.706  1.00  0.00     0.005 A 
ATOM     84  C   UNL A   1      30.402  25.515  24.858  1.00  0.00     0.005 A 
ATOM     85  C   UNL A   1      31.156  24.753  23.948  1.00  0.00    -0.038 A 
BRANCH  85  86
ATOM     86  C   UNL A   1      31.586  23.331  24.259  1.00  0.00     0.081 C 
ATOM     87  C   UNL A   1      31.250  22.917  25.708  1.00  0.00     0.111 C 
ATOM     88  C   UNL A   1      33.046  23.251  23.988  1.00  0.00     0.093 A 
ATOM     89  C   UNL A   1      32.444  22.576  26.582  1.00  0.00     0.188 C 
ATOM     90  C   UNL A   1      33.928  22.797  24.941  1.00  0.00     0.164 A 
ATOM     91  N   UNL A   1      33.691  23.616  22.836  1.00  0.00    -0.238 NA
ATOM     92  N   UNL A   1      33.682  22.462  26.230  1.00  0.00    -0.198 NA
ATOM     93  N   UNL A   1      35.177  22.890  24.358  1.00  0.00    -0.283 N 
ATOM     94  C   UNL A   1      34.970  23.442  23.109  1.00  0.00     0.206 A 
BRANCH  89  95
ATOM     95  O   UNL A   1      32.126  22.338  27.870  1.00  0.00    -0.496 OA
ATOM     96  H   UNL A   1      31.282  22.579  28.197  1.00  0.00     0.294 HD
ENDBRANCH  89  95
BRANCH  93  97
ATOM     97  C   UNL A   1      36.414  22.496  24.917  1.00  0.00     0.050 A 
ATOM     98  C   UNL A   1      36.890  21.193  24.731  1.00  0.00     0.027 A 
ATOM     99  C   UNL A   1      37.163  23.426  25.650  1.00  0.00     0.047 A 
ATOM    100  C   UNL A   1      38.142  20.841  25.243  1.00  0.00     0.004 A 
ATOM    101  C   UNL A   1      38.384  23.045  26.199  1.00  0.00     0.043 A 
ATOM    102  C   UNL A   1      38.886  21.764  25.984  1.00  0.00     0.020 A 
ATOM    103  Cl  UNL A   1      39.269  24.162  27.166  1.00  0.00    -0.084 Cl
ENDBRANCH  93  97
ENDBRANCH  85  86
ENDBRANCH  77  80
ENDBRANCH  75  76
ENDBRANCH  74  75
ENDBRANCH  73  74
ENDBRANCH   1  73
TORSDOF 19
ENDMDL
MODEL 2
REMARK VINA RESULT:     -12.7      3.597      9.601
REMARK SMILES O=C(NCCCCCCNC(=O)c1ccc([C@@H]2CC(O)=Nc3c2ncn3-c2cccc(Cl)c2)cc1)c1ccc(-c2c3nc(c(-c4cccc(S(=O)(=O)[O-])c4F)c4ccc([nH]4)c(-c4cccc(S(=O)(=O)[O-])c4F)c4nc(c(-c5cccc(S(=O)(=O)[O-])c5F)c5ccc2[nH]5)C=C4)C=C3)cc1
REMARK SMILES IDX 6 1 5 2 4 3 3 4 1 5 2 6 36 8 37 9 98 10 38 11 97 12 39 13
REMARK SMILES IDX 40 14 41 15 91 16 42 17 96 18 90 19 92 20 43 21 95 22 89 23
REMARK SMILES IDX 88 24 44 26 76 27 56 28 75 29 57 30 60 31 74 32 93 33 58 34
REMARK SMILES IDX 59 35 73 37 94 38 61 39 45 40 46 41 54 42 47 43 49 44 55 45
REMARK SMILES IDX 48 46 50 47 51 48 52 49 53 50 77 51 78 52 86 53 79 54 81 55
REMARK SMILES IDX 87 56 80 57 82 58 83 59 84 60 85 61 62 62 63 63 71 64 64 65
REMARK SMILES IDX 66 66 72 67 65 68 67 69 68 70 69 71 70 72 7 73 8 74 9 75
REMARK SMILES IDX 10 76 11 77 12 79 13 80 14 81 35 82 15 83 34 84 16 85 17 86
REMARK SMILES IDX 18 87 23 88 19 89 22 90 24 91 21 92 26 93 25 94 20 95 27 97
REMARK SMILES IDX 28 98 33 99 29 100 31 101 30 102 32 103
REMARK H PARENT 3 7 92 25 60 36 10 78 20 96
REMARK Flexibility Score: inf
ROOT
ATOM      1  C   UNL A   1      36.452  20.988  25.357  1.00  0.00     0.002 C 
ENDROOT
BRANCH   1   2
ATOM      2  C   UNL A   1      37.790  21.645  24.991  1.00  0.00     0.021 C 
BRANCH   2   3
ATOM      3  C   UNL A   1      38.503  22.337  26.152  1.00  0.00     0.116 C 
BRANCH   3   4
ATOM      4  N   UNL A   1      39.938  22.154  26.148  1.00  0.00    -0.352 N 
ATOM      5  O   UNL A   1      42.100  22.303  26.518  1.00  0.00    -0.269 OA
ATOM      6  C   UNL A   1      41.005  22.861  26.626  1.00  0.00     0.251 C 
ATOM      7  H   UNL A   1      40.210  21.324  25.692  1.00  0.00     0.163 HD
BRANCH   6   8
ATOM      8  C   UNL A   1      40.946  24.236  27.196  1.00  0.00     0.039 A 
ATOM      9  C   UNL A   1      40.138  25.279  26.743  1.00  0.00     0.014 A 
ATOM     10  C   UNL A   1      41.816  24.485  28.277  1.00  0.00     0.014 A 
ATOM     11  C   UNL A   1      40.246  26.551  27.301  1.00  0.00     0.010 A 
ATOM     12  C   UNL A   1      41.921  25.748  28.846  1.00  0.00     0.010 A 
ATOM     13  C   UNL A   1      41.157  26.791  28.332  1.00  0.00    -0.014 A 
BRANCH  13  14
ATOM     14  C   UNL A   1      41.173  28.117  28.945  1.00  0.00     0.031 A 
ATOM     15  C   UNL A   1      42.167  29.064  28.358  1.00  0.00     0.074 A 
ATOM     16  C   UNL A   1      40.270  28.520  29.864  1.00  0.00     0.049 A 
ATOM     17  N   UNL A   1      43.160  29.651  28.944  1.00  0.00    -0.248 NA
ATOM     18  C   UNL A   1      42.111  29.296  26.906  1.00  0.00     0.031 C 
ATOM     19  C   UNL A   1      39.063  27.813  30.299  1.00  0.00     0.029 A 
ATOM     20  N   UNL A   1      40.169  29.723  30.501  1.00  0.00    -0.354 N 
ATOM     21  C   UNL A   1      43.728  30.491  27.983  1.00  0.00     0.074 A 
ATOM     22  C   UNL A   1      43.149  30.111  26.722  1.00  0.00     0.031 C 
ATOM     23  C   UNL A   1      38.235  28.686  30.914  1.00  0.00     0.029 A 
ATOM     24  C   UNL A   1      38.907  29.968  31.037  1.00  0.00     0.049 A 
ATOM     25  H   UNL A   1      40.918  30.358  30.575  1.00  0.00     0.167 HD
ATOM     26  C   UNL A   1      44.470  31.581  28.325  1.00  0.00     0.034 A 
ATOM     27  C   UNL A   1      38.424  31.159  31.467  1.00  0.00     0.034 A 
ATOM     28  C   UNL A   1      44.913  31.513  29.691  1.00  0.00     0.049 A 
ATOM     29  C   UNL A   1      39.580  32.044  31.726  1.00  0.00     0.074 A 
ATOM     30  C   UNL A   1      45.698  30.654  30.431  1.00  0.00     0.029 A 
ATOM     31  N   UNL A   1      44.241  32.289  30.601  1.00  0.00    -0.354 N 
ATOM     32  N   UNL A   1      40.445  31.843  32.680  1.00  0.00    -0.248 NA
ATOM     33  C   UNL A   1      40.009  32.939  30.665  1.00  0.00     0.031 C 
ATOM     34  C   UNL A   1      45.094  30.630  31.721  1.00  0.00     0.029 A 
ATOM     35  C   UNL A   1      44.012  31.513  31.702  1.00  0.00     0.049 A 
ATOM     36  H   UNL A   1      43.972  33.229  30.482  1.00  0.00     0.167 HD
ATOM     37  C   UNL A   1      41.661  32.207  32.120  1.00  0.00     0.074 A 
ATOM     38  C   UNL A   1      41.317  32.976  30.927  1.00  0.00     0.031 C 
ATOM     39  C   UNL A   1      42.822  31.607  32.515  1.00  0.00     0.034 A 
BRANCH  26  40
ATOM     40  C   UNL A   1      44.507  32.892  27.564  1.00  0.00     0.023 A 
ATOM     41  C   UNL A   1      45.628  33.123  26.731  1.00  0.00     0.012 A 
ATOM     42  C   UNL A   1      43.683  34.005  27.846  1.00  0.00     0.148 A 
ATOM     43  C   UNL A   1      45.958  34.405  26.275  1.00  0.00     0.002 A 
ATOM     44  C   UNL A   1      43.975  35.264  27.330  1.00  0.00     0.091 A 
ATOM     45  F   UNL A   1      42.681  33.893  28.719  1.00  0.00    -0.205 F 
ATOM     46  C   UNL A   1      45.130  35.477  26.575  1.00  0.00     0.022 A 
BRANCH  44  47
ATOM     47  S   UNL A   1      42.911  36.678  27.649  1.00  0.00     0.127 S 
ATOM     48  O   UNL A   1      43.453  37.664  26.711  1.00  0.00    -0.237 OA
ATOM     49  O   UNL A   1      41.595  36.145  27.288  1.00  0.00    -0.237 OA
ATOM     50  O   UNL A   1      43.069  36.977  29.059  1.00  0.00    -0.744 OA
ENDBRANCH  44  47
ENDBRANCH  26  40
BRANCH  27  51
ATOM     51  C   UNL A   1      37.042  31.691  31.403  1.00  0.00     0.023 A 
ATOM     52  C   UNL A   1      36.370  32.047  32.591  1.00  0.00     0.012 A 
ATOM     53  C   UNL A   1      36.492  32.115  30.173  1.00  0.00     0.148 A 
ATOM     54  C   UNL A   1      35.204  32.822  32.554  1.00  0.00     0.002 A 
ATOM     55  C   UNL A   1      35.329  32.879  30.142  1.00  0.00     0.091 A 
ATOM     56  F   UNL A   1      37.161  31.851  29.044  1.00  0.00    -0.205 F 
ATOM     57  C   UNL A   1      34.688  33.245  31.333  1.00  0.00     0.022 A 
BRANCH  55  58
ATOM     58  S   UNL A   1      34.621  33.483  28.603  1.00  0.00     0.127 S 
ATOM     59  O   UNL A   1      35.224  34.812  28.496  1.00  0.00    -0.237 OA
ATOM     60  O   UNL A   1      35.119  32.506  27.638  1.00  0.00    -0.237 OA
ATOM     61  O   UNL A   1      33.178  33.493  28.805  1.00  0.00    -0.744 OA
ENDBRANCH  55  58
ENDBRANCH  27  51
BRANCH  39  62
ATOM     62  C   UNL A   1      42.800  30.743  33.747  1.00  0.00     0.023 A 
ATOM     63  C   UNL A   1      42.946  31.278  35.044  1.00  0.00     0.012 A 
ATOM     64  C   UNL A   1      42.412  29.401  33.600  1.00  0.00     0.148 A 
ATOM     65  C   UNL A   1      42.719  30.484  36.171  1.00  0.00     0.002 A 
ATOM     66  C   UNL A   1      42.136  28.631  34.721  1.00  0.00     0.091 A 
ATOM     67  F   UNL A   1      42.276  28.915  32.356  1.00  0.00    -0.205 F 
ATOM     68  C   UNL A   1      42.298  29.165  36.010  1.00  0.00     0.022 A 
BRANCH  66  69
ATOM     69  S   UNL A   1      41.447  26.981  34.580  1.00  0.00     0.127 S 
ATOM     70  O   UNL A   1      42.588  26.215  34.083  1.00  0.00    -0.237 OA
ATOM     71  O   UNL A   1      41.064  26.684  35.961  1.00  0.00    -0.237 OA
ATOM     72  O   UNL A   1      40.320  27.092  33.661  1.00  0.00    -0.744 OA
ENDBRANCH  66  69
ENDBRANCH  39  62
ENDBRANCH  13  14
ENDBRANCH   6   8
ENDBRANCH   3   4
ENDBRANCH   2   3
ENDBRANCH   1   2
BRANCH   1  73
ATOM     73  C   UNL A   1      35.274  21.312  24.433  1.00  0.00     0.002 C 
BRANCH  73  74
ATOM     74  C   UNL A   1      34.013  20.470  24.649  1.00  0.00     0.021 C 
BRANCH  74  75
ATOM     75  C   UNL A   1      32.756  21.269  24.983  1.00  0.00     0.116 C 
BRANCH  75  76
ATOM     76  N   UNL A   1      32.563  21.415  26.418  1.00  0.00    -0.352 N 
ATOM     77  C   UNL A   1      32.717  22.534  27.198  1.00  0.00     0.251 C 
ATOM     78  H   UNL A   1      32.285  20.601  26.895  1.00  0.00     0.163 HD
ATOM     79  O   UNL A   1      32.689  22.454  28.424  1.00  0.00    -0.269 OA
BRANCH  77  80
ATOM     80  C   UNL A   1      32.941  23.846  26.559  1.00  0.00     0.039 A 
ATOM     81  C   UNL A   1      31.897  24.771  26.542  1.00  0.00     0.014 A 
ATOM     82  C   UNL A   1      34.174  24.161  25.979  1.00  0.00     0.014 A 
ATOM     83  C   UNL A   1      32.110  26.042  26.006  1.00  0.00     0.005 A 
ATOM     84  C   UNL A   1      34.390  25.437  25.460  1.00  0.00     0.005 A 
ATOM     85  C   UNL A   1      33.364  26.398  25.476  1.00  0.00    -0.038 A 
BRANCH  85  86
ATOM     86  C   UNL A   1      33.563  27.792  24.911  1.00  0.00     0.081 C 
ATOM     87  C   UNL A   1      33.700  28.861  26.017  1.00  0.00     0.111 C 
ATOM     88  C   UNL A   1      32.406  28.068  24.019  1.00  0.00     0.093 A 
ATOM     89  C   UNL A   1      32.623  29.931  26.027  1.00  0.00     0.188 C 
ATOM     90  C   UNL A   1      31.629  29.192  24.180  1.00  0.00     0.164 A 
ATOM     91  N   UNL A   1      31.956  27.285  22.989  1.00  0.00    -0.238 NA
ATOM     92  N   UNL A   1      31.690  30.130  25.154  1.00  0.00    -0.198 NA
ATOM     93  N   UNL A   1      30.648  29.100  23.211  1.00  0.00    -0.283 N 
ATOM     94  C   UNL A   1      30.869  27.901  22.562  1.00  0.00     0.206 A 
BRANCH  89  95
ATOM     95  O   UNL A   1      32.702  30.776  27.074  1.00  0.00    -0.496 OA
ATOM     96  H   UNL A   1      32.003  30.817  27.696  1.00  0.00     0.294 HD
ENDBRANCH  89  95
BRANCH  93  97
ATOM     97  C   UNL A   1      29.630  30.041  22.932  1.00  0.00     0.050 A 
ATOM     98  C   UNL A   1      28.833  30.545  23.965  1.00  0.00     0.027 A 
ATOM     99  C   UNL A   1      29.437  30.471  21.612  1.00  0.00     0.047 A 
ATOM    100  C   UNL A   1      27.871  31.518  23.676  1.00  0.00     0.004 A 
ATOM    101  C   UNL A   1      28.440  31.401  21.333  1.00  0.00     0.043 A 
ATOM    102  C   UNL A   1      27.669  31.940  22.360  1.00  0.00     0.020 A 
ATOM    103  Cl  UNL A   1      28.147  31.873  19.702  1.00  0.00    -0.084 Cl
ENDBRANCH  93  97
ENDBRANCH  85  86
ENDBRANCH  77  80
ENDBRANCH  75  76
ENDBRANCH  74  75
ENDBRANCH  73  74
ENDBRANCH   1  73
TORSDOF 19
ENDMDL
MODEL 3
REMARK VINA RESULT:     -12.6      2.655      3.380
REMARK SMILES O=C(NCCCCCCNC(=O)c1ccc([C@@H]2CC(O)=Nc3c2ncn3-c2cccc(Cl)c2)cc1)c1ccc(-c2c3nc(c(-c4cccc(S(=O)(=O)[O-])c4F)c4ccc([nH]4)c(-c4cccc(S(=O)(=O)[O-])c4F)c4nc(c(-c5cccc(S(=O)(=O)[O-])c5F)c5ccc2[nH]5)C=C4)C=C3)cc1
REMARK SMILES IDX 6 1 5 2 4 3 3 4 1 5 2 6 36 8 37 9 98 10 38 11 97 12 39 13
REMARK SMILES IDX 40 14 41 15 91 16 42 17 96 18 90 19 92 20 43 21 95 22 89 23
REMARK SMILES IDX 88 24 44 26 76 27 56 28 75 29 57 30 60 31 74 32 93 33 58 34
REMARK SMILES IDX 59 35 73 37 94 38 61 39 45 40 46 41 54 42 47 43 49 44 55 45
REMARK SMILES IDX 48 46 50 47 51 48 52 49 53 50 77 51 78 52 86 53 79 54 81 55
REMARK SMILES IDX 87 56 80 57 82 58 83 59 84 60 85 61 62 62 63 63 71 64 64 65
REMARK SMILES IDX 66 66 72 67 65 68 67 69 68 70 69 71 70 72 7 73 8 74 9 75
REMARK SMILES IDX 10 76 11 77 12 79 13 80 14 81 35 82 15 83 34 84 16 85 17 86
REMARK SMILES IDX 18 87 23 88 19 89 22 90 24 91 21 92 26 93 25 94 20 95 27 97
REMARK SMILES IDX 28 98 33 99 29 100 31 101 30 102 32 103
REMARK H PARENT 3 7 92 25 60 36 10 78 20 96
REMARK Flexibility Score: inf
ROOT
ATOM      1  C   UNL A   1      32.292  29.389  26.966  1.00  0.00     0.002 C 
ENDROOT
BRANCH   1   2
ATOM      2  C   UNL A   1      33.723  29.764  27.375  1.00  0.00     0.021 C 
BRANCH   2   3
ATOM      3  C   UNL A   1      34.010  31.265  27.399  1.00  0.00     0.116 C 
BRANCH   3   4
ATOM      4  N   UNL A   1      34.118  31.817  28.732  1.00  0.00    -0.352 N 
ATOM      5  O   UNL A   1      34.835  32.546  30.678  1.00  0.00    -0.269 OA
ATOM      6  C   UNL A   1      35.100  31.870  29.680  1.00  0.00     0.251 C 
ATOM      7  H   UNL A   1      33.287  32.257  29.025  1.00  0.00     0.163 HD
BRANCH   6   8
ATOM      8  C   UNL A   1      36.400  31.146  29.622  1.00  0.00     0.039 A 
ATOM      9  C   UNL A   1      36.569  29.760  29.640  1.00  0.00     0.014 A 
ATOM     10  C   UNL A   1      37.549  31.959  29.569  1.00  0.00     0.014 A 
ATOM     11  C   UNL A   1      37.847  29.205  29.678  1.00  0.00     0.010 A 
ATOM     12  C   UNL A   1      38.826  31.411  29.595  1.00  0.00     0.010 A 
ATOM     13  C   UNL A   1      38.973  30.031  29.684  1.00  0.00    -0.014 A 
BRANCH  13  14
ATOM     14  C   UNL A   1      40.290  29.403  29.636  1.00  0.00     0.031 A 
ATOM     15  C   UNL A   1      40.944  29.220  30.966  1.00  0.00     0.074 A 
ATOM     16  C   UNL A   1      40.824  28.887  28.509  1.00  0.00     0.049 A 
ATOM     17  N   UNL A   1      42.067  29.710  31.382  1.00  0.00    -0.248 NA
ATOM     18  C   UNL A   1      40.192  28.492  31.999  1.00  0.00     0.031 C 
ATOM     19  C   UNL A   1      40.171  28.715  27.208  1.00  0.00     0.029 A 
ATOM     20  N   UNL A   1      42.030  28.270  28.332  1.00  0.00    -0.354 N 
ATOM     21  C   UNL A   1      42.266  29.177  32.658  1.00  0.00     0.074 A 
ATOM     22  C   UNL A   1      41.017  28.575  33.042  1.00  0.00     0.031 C 
ATOM     23  C   UNL A   1      40.876  27.827  26.472  1.00  0.00     0.029 A 
ATOM     24  C   UNL A   1      42.090  27.478  27.188  1.00  0.00     0.049 A 
ATOM     25  H   UNL A   1      42.785  28.377  28.954  1.00  0.00     0.167 HD
ATOM     26  C   UNL A   1      43.504  29.081  33.216  1.00  0.00     0.034 A 
ATOM     27  C   UNL A   1      43.026  26.541  26.898  1.00  0.00     0.034 A 
ATOM     28  C   UNL A   1      44.455  29.925  32.544  1.00  0.00     0.049 A 
ATOM     29  C   UNL A   1      44.214  26.821  27.731  1.00  0.00     0.074 A 
ATOM     30  C   UNL A   1      44.581  31.280  32.316  1.00  0.00     0.029 A 
ATOM     31  N   UNL A   1      45.328  29.314  31.681  1.00  0.00    -0.354 N 
ATOM     32  N   UNL A   1      44.964  27.878  27.589  1.00  0.00    -0.248 NA
ATOM     33  C   UNL A   1      44.341  26.124  28.999  1.00  0.00     0.031 C 
ATOM     34  C   UNL A   1      45.149  31.378  31.013  1.00  0.00     0.029 A 
ATOM     35  C   UNL A   1      45.380  30.080  30.550  1.00  0.00     0.049 A 
ATOM     36  H   UNL A   1      45.823  28.478  31.844  1.00  0.00     0.167 HD
ATOM     37  C   UNL A   1      45.302  28.232  28.887  1.00  0.00     0.074 A 
ATOM     38  C   UNL A   1      44.988  27.059  29.699  1.00  0.00     0.031 C 
ATOM     39  C   UNL A   1      45.530  29.536  29.220  1.00  0.00     0.034 A 
BRANCH  26  40
ATOM     40  C   UNL A   1      43.972  27.965  34.130  1.00  0.00     0.023 A 
ATOM     41  C   UNL A   1      44.727  28.337  35.269  1.00  0.00     0.012 A 
ATOM     42  C   UNL A   1      43.976  26.595  33.784  1.00  0.00     0.148 A 
ATOM     43  C   UNL A   1      45.508  27.413  35.972  1.00  0.00     0.002 A 
ATOM     44  C   UNL A   1      44.697  25.667  34.531  1.00  0.00     0.091 A 
ATOM     45  F   UNL A   1      43.392  26.186  32.657  1.00  0.00    -0.205 F 
ATOM     46  C   UNL A   1      45.493  26.076  35.602  1.00  0.00     0.022 A 
BRANCH  44  47
ATOM     47  S   UNL A   1      44.676  23.917  34.124  1.00  0.00     0.127 S 
ATOM     48  O   UNL A   1      45.486  23.359  35.208  1.00  0.00    -0.237 OA
ATOM     49  O   UNL A   1      43.245  23.610  34.205  1.00  0.00    -0.237 OA
ATOM     50  O   UNL A   1      45.232  23.818  32.788  1.00  0.00    -0.744 OA
ENDBRANCH  44  47
ENDBRANCH  26  40
BRANCH  27  51
ATOM     51  C   UNL A   1      42.877  25.259  26.169  1.00  0.00     0.023 A 
ATOM     52  C   UNL A   1      43.700  24.981  25.059  1.00  0.00     0.012 A 
ATOM     53  C   UNL A   1      42.133  24.197  26.730  1.00  0.00     0.148 A 
ATOM     54  C   UNL A   1      43.799  23.683  24.541  1.00  0.00     0.002 A 
ATOM     55  C   UNL A   1      42.229  22.911  26.208  1.00  0.00     0.091 A 
ATOM     56  F   UNL A   1      41.408  24.430  27.831  1.00  0.00    -0.205 F 
ATOM     57  C   UNL A   1      43.072  22.647  25.120  1.00  0.00     0.022 A 
BRANCH  55  58
ATOM     58  S   UNL A   1      41.340  21.519  26.920  1.00  0.00     0.127 S 
ATOM     59  O   UNL A   1      41.346  20.561  25.813  1.00  0.00    -0.237 OA
ATOM     60  O   UNL A   1      42.197  21.157  28.046  1.00  0.00    -0.237 OA
ATOM     61  O   UNL A   1      40.019  22.026  27.268  1.00  0.00    -0.744 OA
ENDBRANCH  55  58
ENDBRANCH  27  51
BRANCH  39  62
ATOM     62  C   UNL A   1      45.674  30.545  28.113  1.00  0.00     0.023 A 
ATOM     63  C   UNL A   1      44.559  31.142  27.489  1.00  0.00     0.012 A 
ATOM     64  C   UNL A   1      46.957  31.053  27.851  1.00  0.00     0.148 A 
ATOM     65  C   UNL A   1      44.724  32.216  26.611  1.00  0.00     0.002 A 
ATOM     66  C   UNL A   1      47.112  32.155  27.021  1.00  0.00     0.091 A 
ATOM     67  F   UNL A   1      48.004  30.473  28.459  1.00  0.00    -0.205 F 
ATOM     68  C   UNL A   1      45.999  32.734  26.390  1.00  0.00     0.022 A 
BRANCH  66  69
ATOM     69  S   UNL A   1      48.702  32.959  26.816  1.00  0.00     0.127 S 
ATOM     70  O   UNL A   1      48.463  33.818  25.658  1.00  0.00    -0.237 OA
ATOM     71  O   UNL A   1      48.856  33.671  28.086  1.00  0.00    -0.237 OA
ATOM     72  O   UNL A   1      49.672  31.890  26.613  1.00  0.00    -0.744 OA
ENDBRANCH  66  69
ENDBRANCH  39  62
ENDBRANCH  13  14
ENDBRANCH   6   8
ENDBRANCH   3   4
ENDBRANCH   2   3
ENDBRANCH   1   2
BRANCH   1  73
ATOM     73  C   UNL A   1      31.468  30.506  26.317  1.00  0.00     0.002 C 
BRANCH  73  74
ATOM     74  C   UNL A   1      31.068  30.269  24.858  1.00  0.00     0.021 C 
BRANCH  74  75
ATOM     75  C   UNL A   1      31.371  28.871  24.327  1.00  0.00     0.116 C 
BRANCH  75  76
ATOM     76  N   UNL A   1      32.180  28.904  23.118  1.00  0.00    -0.352 N 
ATOM     77  C   UNL A   1      33.266  28.134  22.787  1.00  0.00     0.251 C 
ATOM     78  H   UNL A   1      31.912  29.572  22.447  1.00  0.00     0.163 HD
ATOM     79  O   UNL A   1      33.952  28.405  21.804  1.00  0.00    -0.269 OA
BRANCH  77  80
ATOM     80  C   UNL A   1      33.629  26.980  23.634  1.00  0.00     0.039 A 
ATOM     81  C   UNL A   1      33.940  25.767  23.017  1.00  0.00     0.014 A 
ATOM     82  C   UNL A   1      33.663  27.094  25.027  1.00  0.00     0.014 A 
ATOM     83  C   UNL A   1      34.355  24.685  23.794  1.00  0.00     0.005 A 
ATOM     84  C   UNL A   1      34.094  26.016  25.800  1.00  0.00     0.005 A 
ATOM     85  C   UNL A   1      34.456  24.801  25.192  1.00  0.00    -0.038 A 
BRANCH  85  86
ATOM     86  C   UNL A   1      34.921  23.606  26.005  1.00  0.00     0.081 C 
ATOM     87  C   UNL A   1      36.427  23.320  25.821  1.00  0.00     0.111 C 
ATOM     88  C   UNL A   1      34.085  22.449  25.591  1.00  0.00     0.093 A 
ATOM     89  C   UNL A   1      36.764  21.971  25.211  1.00  0.00     0.188 C 
ATOM     90  C   UNL A   1      34.654  21.271  25.161  1.00  0.00     0.164 A 
ATOM     91  N   UNL A   1      32.717  22.392  25.553  1.00  0.00    -0.238 NA
ATOM     92  N   UNL A   1      35.961  20.991  24.950  1.00  0.00    -0.198 NA
ATOM     93  N   UNL A   1      33.591  20.449  24.836  1.00  0.00    -0.283 N 
ATOM     94  C   UNL A   1      32.453  21.204  25.043  1.00  0.00     0.206 A 
BRANCH  89  95
ATOM     95  O   UNL A   1      38.076  21.801  24.952  1.00  0.00    -0.496 OA
ATOM     96  H   UNL A   1      38.559  21.134  25.398  1.00  0.00     0.294 HD
ENDBRANCH  89  95
BRANCH  93  97
ATOM     97  C   UNL A   1      33.652  19.109  24.390  1.00  0.00     0.050 A 
ATOM     98  C   UNL A   1      32.835  18.677  23.340  1.00  0.00     0.027 A 
ATOM     99  C   UNL A   1      34.546  18.222  25.005  1.00  0.00     0.047 A 
ATOM    100  C   UNL A   1      32.953  17.364  22.876  1.00  0.00     0.004 A 
ATOM    101  C   UNL A   1      34.614  16.903  24.566  1.00  0.00     0.043 A 
ATOM    102  C   UNL A   1      33.836  16.474  23.493  1.00  0.00     0.020 A 
ATOM    103  Cl  UNL A   1      35.654  15.790  25.370  1.00  0.00    -0.084 Cl
ENDBRANCH  93  97
ENDBRANCH  85  86
ENDBRANCH  77  80
ENDBRANCH  75  76
ENDBRANCH  74  75
ENDBRANCH  73  74
ENDBRANCH   1  73
TORSDOF 19
ENDMDL
