MODEL 1
REMARK VINA RESULT:     -12.4      0.000      0.000
REMARK SMILES O=C(NCCCCCCNC(=O)[C@@H]1CS[C@H](c2ncc(-c3ccccc3)s2)[NH2+]1)c1ccc(-c2c3nc(c(-c4cccc(S(=O)(=O)[O-])c4F)c4ccc([nH]4)c(-c4cccc(S(=O)(=O)[O-])c4F)c4nc(c(-c5cccc(S(=O)(=O)[O-])c5F)c5ccc2[nH]5)C=C4)C=C3)cc1
REMARK SMILES IDX 6 1 5 2 4 3 3 4 1 5 2 6 29 8 30 9 91 10 31 11 90 12 32 13
REMARK SMILES IDX 33 14 34 15 84 16 35 17 89 18 83 19 85 20 36 21 88 22 82 23
REMARK SMILES IDX 81 24 37 26 69 27 49 28 68 29 50 30 53 31 67 32 86 33 51 34
REMARK SMILES IDX 52 35 66 37 87 38 54 39 38 40 39 41 47 42 40 43 42 44 48 45
REMARK SMILES IDX 41 46 43 47 44 48 45 49 46 50 70 51 71 52 79 53 72 54 74 55
REMARK SMILES IDX 80 56 73 57 75 58 76 59 77 60 78 61 55 62 56 63 64 64 57 65
REMARK SMILES IDX 59 66 65 67 58 68 60 69 61 70 62 71 63 72 7 73 8 74 9 75
REMARK SMILES IDX 10 76 11 77 12 79 13 80 14 81 28 82 15 83 16 84 17 87 18 88
REMARK SMILES IDX 27 89 19 90 20 91 21 92 22 93 26 94 23 95 25 96 24 97
REMARK H PARENT 3 7 85 25 53 36 10 78 28 85 28 86
REMARK Flexibility Score: inf
ROOT
ATOM      1  C   UNL A   1      31.478  30.437  26.049  1.00  0.00     0.002 C 
ENDROOT
BRANCH   1   2
ATOM      2  C   UNL A   1      31.383  31.893  26.505  1.00  0.00     0.021 C 
BRANCH   2   3
ATOM      3  C   UNL A   1      32.660  32.451  27.114  1.00  0.00     0.116 C 
BRANCH   3   4
ATOM      4  N   UNL A   1      32.516  33.839  27.510  1.00  0.00    -0.352 N 
ATOM      5  O   UNL A   1      32.818  35.635  28.837  1.00  0.00    -0.269 OA
ATOM      6  C   UNL A   1      33.196  34.520  28.491  1.00  0.00     0.251 C 
ATOM      7  H   UNL A   1      31.844  34.361  27.013  1.00  0.00     0.163 HD
BRANCH   6   8
ATOM      8  C   UNL A   1      34.371  33.886  29.133  1.00  0.00     0.039 A 
ATOM      9  C   UNL A   1      34.198  32.931  30.140  1.00  0.00     0.014 A 
ATOM     10  C   UNL A   1      35.655  34.239  28.711  1.00  0.00     0.014 A 
ATOM     11  C   UNL A   1      35.307  32.402  30.791  1.00  0.00     0.010 A 
ATOM     12  C   UNL A   1      36.769  33.649  29.315  1.00  0.00     0.010 A 
ATOM     13  C   UNL A   1      36.604  32.733  30.365  1.00  0.00    -0.014 A 
BRANCH  13  14
ATOM     14  C   UNL A   1      37.762  31.997  30.930  1.00  0.00     0.031 A 
ATOM     15  C   UNL A   1      38.478  30.932  30.151  1.00  0.00     0.074 A 
ATOM     16  C   UNL A   1      38.135  32.288  32.192  1.00  0.00     0.049 A 
ATOM     17  N   UNL A   1      39.507  30.210  30.513  1.00  0.00    -0.248 NA
ATOM     18  C   UNL A   1      37.981  30.630  28.799  1.00  0.00     0.031 C 
ATOM     19  C   UNL A   1      37.466  33.261  33.062  1.00  0.00     0.029 A 
ATOM     20  N   UNL A   1      39.149  31.792  32.970  1.00  0.00    -0.354 N 
ATOM     21  C   UNL A   1      39.759  29.341  29.458  1.00  0.00     0.074 A 
ATOM     22  C   UNL A   1      38.776  29.629  28.434  1.00  0.00     0.031 C 
ATOM     23  C   UNL A   1      38.090  33.295  34.247  1.00  0.00     0.029 A 
ATOM     24  C   UNL A   1      39.169  32.316  34.242  1.00  0.00     0.049 A 
ATOM     25  H   UNL A   1      39.800  31.127  32.650  1.00  0.00     0.167 HD
ATOM     26  C   UNL A   1      40.728  28.401  29.355  1.00  0.00     0.034 A 
ATOM     27  C   UNL A   1      39.948  32.023  35.299  1.00  0.00     0.034 A 
ATOM     28  C   UNL A   1      41.724  28.152  30.364  1.00  0.00     0.049 A 
ATOM     29  C   UNL A   1      41.026  30.991  35.137  1.00  0.00     0.074 A 
ATOM     30  C   UNL A   1      42.811  27.296  30.303  1.00  0.00     0.029 A 
ATOM     31  N   UNL A   1      41.746  28.737  31.620  1.00  0.00    -0.354 N 
ATOM     32  N   UNL A   1      41.359  30.310  34.068  1.00  0.00    -0.248 NA
ATOM     33  C   UNL A   1      41.850  30.703  36.319  1.00  0.00     0.031 C 
ATOM     34  C   UNL A   1      43.475  27.345  31.533  1.00  0.00     0.029 A 
ATOM     35  C   UNL A   1      42.812  28.242  32.354  1.00  0.00     0.049 A 
ATOM     36  H   UNL A   1      41.100  29.405  31.943  1.00  0.00     0.167 HD
ATOM     37  C   UNL A   1      42.438  29.521  34.443  1.00  0.00     0.074 A 
ATOM     38  C   UNL A   1      42.728  29.840  35.827  1.00  0.00     0.031 C 
ATOM     39  C   UNL A   1      43.111  28.597  33.717  1.00  0.00     0.034 A 
BRANCH  26  40
ATOM     40  C   UNL A   1      40.803  27.585  28.092  1.00  0.00     0.023 A 
ATOM     41  C   UNL A   1      41.423  28.129  26.950  1.00  0.00     0.012 A 
ATOM     42  C   UNL A   1      40.377  26.241  28.074  1.00  0.00     0.148 A 
ATOM     43  C   UNL A   1      41.610  27.354  25.806  1.00  0.00     0.002 A 
ATOM     44  C   UNL A   1      40.597  25.464  26.942  1.00  0.00     0.091 A 
ATOM     45  F   UNL A   1      39.776  25.748  29.166  1.00  0.00    -0.205 F 
ATOM     46  C   UNL A   1      41.209  26.020  25.808  1.00  0.00     0.022 A 
BRANCH  44  47
ATOM     47  S   UNL A   1      40.184  23.717  26.865  1.00  0.00     0.127 S 
ATOM     48  O   UNL A   1      40.567  23.265  28.201  1.00  0.00    -0.237 OA
ATOM     49  O   UNL A   1      38.741  23.754  26.624  1.00  0.00    -0.237 OA
ATOM     50  O   UNL A   1      40.971  23.164  25.773  1.00  0.00    -0.744 OA
ENDBRANCH  44  47
ENDBRANCH  26  40
BRANCH  27  51
ATOM     51  C   UNL A   1      39.744  32.735  36.590  1.00  0.00     0.023 A 
ATOM     52  C   UNL A   1      40.501  33.887  36.876  1.00  0.00     0.012 A 
ATOM     53  C   UNL A   1      38.778  32.301  37.518  1.00  0.00     0.148 A 
ATOM     54  C   UNL A   1      40.316  34.578  38.075  1.00  0.00     0.002 A 
ATOM     55  C   UNL A   1      38.556  33.028  38.681  1.00  0.00     0.091 A 
ATOM     56  F   UNL A   1      38.082  31.188  37.242  1.00  0.00    -0.205 F 
ATOM     57  C   UNL A   1      39.335  34.157  38.970  1.00  0.00     0.022 A 
BRANCH  55  58
ATOM     58  S   UNL A   1      37.207  32.627  39.796  1.00  0.00     0.127 S 
ATOM     59  O   UNL A   1      37.615  31.321  40.305  1.00  0.00    -0.237 OA
ATOM     60  O   UNL A   1      37.272  33.717  40.771  1.00  0.00    -0.237 OA
ATOM     61  O   UNL A   1      36.011  32.648  38.964  1.00  0.00    -0.744 OA
ENDBRANCH  55  58
ENDBRANCH  27  51
BRANCH  39  62
ATOM     62  C   UNL A   1      44.227  27.860  34.406  1.00  0.00     0.023 A 
ATOM     63  C   UNL A   1      45.528  28.401  34.384  1.00  0.00     0.012 A 
ATOM     64  C   UNL A   1      43.982  26.671  35.118  1.00  0.00     0.148 A 
ATOM     65  C   UNL A   1      46.576  27.752  35.034  1.00  0.00     0.002 A 
ATOM     66  C   UNL A   1      45.023  26.053  35.802  1.00  0.00     0.091 A 
ATOM     67  F   UNL A   1      42.741  26.162  35.109  1.00  0.00    -0.205 F 
ATOM     68  C   UNL A   1      46.321  26.587  35.752  1.00  0.00     0.022 A 
BRANCH  66  69
ATOM     69  S   UNL A   1      44.771  24.598  36.823  1.00  0.00     0.127 S 
ATOM     70  O   UNL A   1      43.774  25.073  37.779  1.00  0.00    -0.237 OA
ATOM     71  O   UNL A   1      44.273  23.620  35.855  1.00  0.00    -0.237 OA
ATOM     72  O   UNL A   1      46.076  24.274  37.387  1.00  0.00    -0.744 OA
ENDBRANCH  66  69
ENDBRANCH  39  62
ENDBRANCH  13  14
ENDBRANCH   6   8
ENDBRANCH   3   4
ENDBRANCH   2   3
ENDBRANCH   1   2
BRANCH   1  73
ATOM     73  C   UNL A   1      32.401  29.546  26.887  1.00  0.00     0.002 C 
BRANCH  73  74
ATOM     74  C   UNL A   1      31.773  28.247  27.417  1.00  0.00     0.021 C 
BRANCH  74  75
ATOM     75  C   UNL A   1      31.302  27.277  26.336  1.00  0.00     0.116 C 
BRANCH  75  76
ATOM     76  N   UNL A   1      31.079  25.954  26.875  1.00  0.00    -0.351 N 
ATOM     77  C   UNL A   1      31.542  24.737  26.483  1.00  0.00     0.279 C 
ATOM     78  H   UNL A   1      30.489  25.930  27.663  1.00  0.00     0.163 HD
ATOM     79  O   UNL A   1      31.294  23.801  27.247  1.00  0.00    -0.268 OA
BRANCH  77  80
ATOM     80  C   UNL A   1      32.395  24.590  25.199  1.00  0.00     0.284 C 
ATOM     81  C   UNL A   1      33.235  25.829  24.880  1.00  0.00     0.151 C 
ATOM     82  N   UNL A   1      31.513  24.220  24.040  1.00  0.00    -0.319 N 
ATOM     83  S   UNL A   1      33.284  25.860  23.082  1.00  0.00    -0.085 SA
ATOM     84  C   UNL A   1      31.570  25.267  23.004  1.00  0.00     0.303 C 
ATOM     85  H   UNL A   1      30.553  24.120  24.365  1.00  0.00     0.348 HD
ATOM     86  H   UNL A   1      31.839  23.339  23.642  1.00  0.00     0.348 HD
BRANCH  84  87
ATOM     87  C   UNL A   1      30.587  26.426  23.159  1.00  0.00     0.162 A 
ATOM     88  N   UNL A   1      29.356  26.298  23.630  1.00  0.00    -0.242 NA
ATOM     89  S   UNL A   1      31.015  28.049  22.758  1.00  0.00    -0.112 S 
ATOM     90  C   UNL A   1      28.672  27.492  23.513  1.00  0.00     0.132 A 
ATOM     91  C   UNL A   1      29.393  28.539  22.984  1.00  0.00     0.055 A 
BRANCH  91  92
ATOM     92  C   UNL A   1      28.971  29.885  22.627  1.00  0.00    -0.007 A 
ATOM     93  C   UNL A   1      28.438  30.136  21.355  1.00  0.00     0.009 A 
ATOM     94  C   UNL A   1      29.079  30.935  23.545  1.00  0.00     0.009 A 
ATOM     95  C   UNL A   1      28.023  31.420  21.003  1.00  0.00     0.001 A 
ATOM     96  C   UNL A   1      28.668  32.222  23.189  1.00  0.00     0.001 A 
ATOM     97  C   UNL A   1      28.142  32.464  21.919  1.00  0.00     0.000 A 
ENDBRANCH  91  92
ENDBRANCH  84  87
ENDBRANCH  77  80
ENDBRANCH  75  76
ENDBRANCH  74  75
ENDBRANCH  73  74
ENDBRANCH   1  73
TORSDOF 18
ENDMDL
MODEL 2
REMARK VINA RESULT:     -12.1      6.101     11.559
REMARK SMILES O=C(NCCCCCCNC(=O)[C@@H]1CS[C@H](c2ncc(-c3ccccc3)s2)[NH2+]1)c1ccc(-c2c3nc(c(-c4cccc(S(=O)(=O)[O-])c4F)c4ccc([nH]4)c(-c4cccc(S(=O)(=O)[O-])c4F)c4nc(c(-c5cccc(S(=O)(=O)[O-])c5F)c5ccc2[nH]5)C=C4)C=C3)cc1
REMARK SMILES IDX 6 1 5 2 4 3 3 4 1 5 2 6 29 8 30 9 91 10 31 11 90 12 32 13
REMARK SMILES IDX 33 14 34 15 84 16 35 17 89 18 83 19 85 20 36 21 88 22 82 23
REMARK SMILES IDX 81 24 37 26 69 27 49 28 68 29 50 30 53 31 67 32 86 33 51 34
REMARK SMILES IDX 52 35 66 37 87 38 54 39 38 40 39 41 47 42 40 43 42 44 48 45
REMARK SMILES IDX 41 46 43 47 44 48 45 49 46 50 70 51 71 52 79 53 72 54 74 55
REMARK SMILES IDX 80 56 73 57 75 58 76 59 77 60 78 61 55 62 56 63 64 64 57 65
REMARK SMILES IDX 59 66 65 67 58 68 60 69 61 70 62 71 63 72 7 73 8 74 9 75
REMARK SMILES IDX 10 76 11 77 12 79 13 80 14 81 28 82 15 83 16 84 17 87 18 88
REMARK SMILES IDX 27 89 19 90 20 91 21 92 22 93 26 94 23 95 25 96 24 97
REMARK H PARENT 3 7 85 25 53 36 10 78 28 85 28 86
REMARK Flexibility Score: inf
ROOT
ATOM      1  C   UNL A   1      36.417  20.154  24.911  1.00  0.00     0.002 C 
ENDROOT
BRANCH   1   2
ATOM      2  C   UNL A   1      37.771  19.443  24.941  1.00  0.00     0.021 C 
BRANCH   2   3
ATOM      3  C   UNL A   1      38.842  20.154  25.754  1.00  0.00     0.116 C 
BRANCH   3   4
ATOM      4  N   UNL A   1      39.970  19.290  26.046  1.00  0.00    -0.352 N 
ATOM      5  O   UNL A   1      42.141  18.800  26.398  1.00  0.00    -0.269 OA
ATOM      6  C   UNL A   1      41.254  19.648  26.376  1.00  0.00     0.251 C 
ATOM      7  H   UNL A   1      39.793  18.322  26.002  1.00  0.00     0.163 HD
BRANCH   6   8
ATOM      8  C   UNL A   1      41.557  21.066  26.683  1.00  0.00     0.039 A 
ATOM      9  C   UNL A   1      41.836  21.462  27.994  1.00  0.00     0.014 A 
ATOM     10  C   UNL A   1      41.579  22.001  25.646  1.00  0.00     0.014 A 
ATOM     11  C   UNL A   1      42.039  22.807  28.284  1.00  0.00     0.010 A 
ATOM     12  C   UNL A   1      41.859  23.341  25.927  1.00  0.00     0.010 A 
ATOM     13  C   UNL A   1      42.083  23.756  27.250  1.00  0.00    -0.014 A 
BRANCH  13  14
ATOM     14  C   UNL A   1      42.511  25.143  27.556  1.00  0.00     0.031 A 
ATOM     15  C   UNL A   1      41.581  26.136  28.191  1.00  0.00     0.074 A 
ATOM     16  C   UNL A   1      43.764  25.503  27.213  1.00  0.00     0.049 A 
ATOM     17  N   UNL A   1      41.818  27.379  28.521  1.00  0.00    -0.248 NA
ATOM     18  C   UNL A   1      40.211  25.688  28.489  1.00  0.00     0.031 C 
ATOM     19  C   UNL A   1      44.730  24.634  26.532  1.00  0.00     0.029 A 
ATOM     20  N   UNL A   1      44.437  26.687  27.368  1.00  0.00    -0.354 N 
ATOM     21  C   UNL A   1      40.624  27.878  29.027  1.00  0.00     0.074 A 
ATOM     22  C   UNL A   1      39.660  26.799  28.967  1.00  0.00     0.031 C 
ATOM     23  C   UNL A   1      45.870  25.311  26.336  1.00  0.00     0.029 A 
ATOM     24  C   UNL A   1      45.703  26.671  26.829  1.00  0.00     0.049 A 
ATOM     25  H   UNL A   1      44.053  27.471  27.822  1.00  0.00     0.167 HD
ATOM     26  C   UNL A   1      40.365  29.118  29.506  1.00  0.00     0.034 A 
ATOM     27  C   UNL A   1      46.620  27.650  26.715  1.00  0.00     0.034 A 
ATOM     28  C   UNL A   1      41.343  30.170  29.598  1.00  0.00     0.049 A 
ATOM     29  C   UNL A   1      46.303  29.005  27.280  1.00  0.00     0.074 A 
ATOM     30  C   UNL A   1      41.204  31.424  30.169  1.00  0.00     0.029 A 
ATOM     31  N   UNL A   1      42.631  30.105  29.089  1.00  0.00    -0.354 N 
ATOM     32  N   UNL A   1      45.229  29.399  27.917  1.00  0.00    -0.248 NA
ATOM     33  C   UNL A   1      47.334  30.041  27.131  1.00  0.00     0.031 C 
ATOM     34  C   UNL A   1      42.400  32.125  29.982  1.00  0.00     0.029 A 
ATOM     35  C   UNL A   1      43.289  31.304  29.310  1.00  0.00     0.049 A 
ATOM     36  H   UNL A   1      43.020  29.321  28.638  1.00  0.00     0.167 HD
ATOM     37  C   UNL A   1      45.457  30.727  28.256  1.00  0.00     0.074 A 
ATOM     38  C   UNL A   1      46.788  31.055  27.789  1.00  0.00     0.031 C 
ATOM     39  C   UNL A   1      44.628  31.603  28.873  1.00  0.00     0.034 A 
BRANCH  26  40
ATOM     40  C   UNL A   1      38.980  29.415  30.016  1.00  0.00     0.023 A 
ATOM     41  C   UNL A   1      38.643  29.080  31.342  1.00  0.00     0.012 A 
ATOM     42  C   UNL A   1      38.060  30.136  29.228  1.00  0.00     0.148 A 
ATOM     43  C   UNL A   1      37.407  29.449  31.874  1.00  0.00     0.002 A 
ATOM     44  C   UNL A   1      36.844  30.531  29.776  1.00  0.00     0.091 A 
ATOM     45  F   UNL A   1      38.396  30.431  27.964  1.00  0.00    -0.205 F 
ATOM     46  C   UNL A   1      36.516  30.184  31.096  1.00  0.00     0.022 A 
BRANCH  44  47
ATOM     47  S   UNL A   1      35.655  31.540  28.884  1.00  0.00     0.127 S 
ATOM     48  O   UNL A   1      36.491  32.654  28.440  1.00  0.00    -0.237 OA
ATOM     49  O   UNL A   1      35.226  30.637  27.817  1.00  0.00    -0.237 OA
ATOM     50  O   UNL A   1      34.618  31.886  29.845  1.00  0.00    -0.744 OA
ENDBRANCH  44  47
ENDBRANCH  26  40
BRANCH  27  51
ATOM     51  C   UNL A   1      47.926  27.369  26.059  1.00  0.00     0.023 A 
ATOM     52  C   UNL A   1      49.006  26.901  26.830  1.00  0.00     0.012 A 
ATOM     53  C   UNL A   1      48.092  27.526  24.669  1.00  0.00     0.148 A 
ATOM     54  C   UNL A   1      50.235  26.619  26.233  1.00  0.00     0.002 A 
ATOM     55  C   UNL A   1      49.299  27.184  24.072  1.00  0.00     0.091 A 
ATOM     56  F   UNL A   1      47.061  27.995  23.951  1.00  0.00    -0.205 F 
ATOM     57  C   UNL A   1      50.378  26.747  24.853  1.00  0.00     0.022 A 
BRANCH  55  58
ATOM     58  S   UNL A   1      49.494  27.180  22.286  1.00  0.00     0.127 S 
ATOM     59  O   UNL A   1      49.164  28.561  21.944  1.00  0.00    -0.237 OA
ATOM     60  O   UNL A   1      50.906  26.827  22.127  1.00  0.00    -0.237 OA
ATOM     61  O   UNL A   1      48.572  26.159  21.808  1.00  0.00    -0.744 OA
ENDBRANCH  55  58
ENDBRANCH  27  51
BRANCH  39  62
ATOM     62  C   UNL A   1      45.137  33.004  29.077  1.00  0.00     0.023 A 
ATOM     63  C   UNL A   1      45.820  33.323  30.267  1.00  0.00     0.012 A 
ATOM     64  C   UNL A   1      44.991  33.983  28.077  1.00  0.00     0.148 A 
ATOM     65  C   UNL A   1      46.323  34.606  30.473  1.00  0.00     0.002 A 
ATOM     66  C   UNL A   1      45.535  35.248  28.269  1.00  0.00     0.091 A 
ATOM     67  F   UNL A   1      44.320  33.664  26.960  1.00  0.00    -0.205 F 
ATOM     68  C   UNL A   1      46.191  35.564  29.470  1.00  0.00     0.022 A 
BRANCH  66  69
ATOM     69  S   UNL A   1      45.490  36.516  26.999  1.00  0.00     0.127 S 
ATOM     70  O   UNL A   1      44.053  36.730  26.842  1.00  0.00    -0.237 OA
ATOM     71  O   UNL A   1      46.207  37.621  27.636  1.00  0.00    -0.237 OA
ATOM     72  O   UNL A   1      46.169  35.947  25.841  1.00  0.00    -0.744 OA
ENDBRANCH  66  69
ENDBRANCH  39  62
ENDBRANCH  13  14
ENDBRANCH   6   8
ENDBRANCH   3   4
ENDBRANCH   2   3
ENDBRANCH   1   2
BRANCH   1  73
ATOM     73  C   UNL A   1      36.468  21.671  25.120  1.00  0.00     0.002 C 
BRANCH  73  74
ATOM     74  C   UNL A   1      35.536  22.499  24.222  1.00  0.00     0.021 C 
BRANCH  74  75
ATOM     75  C   UNL A   1      34.970  23.758  24.877  1.00  0.00     0.116 C 
BRANCH  75  76
ATOM     76  N   UNL A   1      34.708  24.789  23.898  1.00  0.00    -0.351 N 
ATOM     77  C   UNL A   1      33.678  25.669  23.777  1.00  0.00     0.279 C 
ATOM     78  H   UNL A   1      35.393  24.867  23.196  1.00  0.00     0.163 HD
ATOM     79  O   UNL A   1      33.817  26.537  22.912  1.00  0.00    -0.268 OA
BRANCH  77  80
ATOM     80  C   UNL A   1      32.466  25.606  24.739  1.00  0.00     0.284 C 
ATOM     81  C   UNL A   1      32.761  24.864  26.045  1.00  0.00     0.151 C 
ATOM     82  N   UNL A   1      31.282  25.007  24.031  1.00  0.00    -0.319 N 
ATOM     83  S   UNL A   1      31.193  24.084  26.457  1.00  0.00    -0.085 SA
ATOM     84  C   UNL A   1      30.868  23.762  24.700  1.00  0.00     0.303 C 
ATOM     85  H   UNL A   1      31.535  24.803  23.065  1.00  0.00     0.348 HD
ATOM     86  H   UNL A   1      30.509  25.672  24.055  1.00  0.00     0.348 HD
BRANCH  84  87
ATOM     87  C   UNL A   1      31.570  22.483  24.245  1.00  0.00     0.162 A 
ATOM     88  N   UNL A   1      31.917  22.233  22.992  1.00  0.00    -0.242 NA
ATOM     89  S   UNL A   1      32.013  21.237  25.354  1.00  0.00    -0.112 S 
ATOM     90  C   UNL A   1      32.399  20.944  22.877  1.00  0.00     0.132 A 
ATOM     91  C   UNL A   1      32.449  20.222  24.049  1.00  0.00     0.055 A 
BRANCH  91  92
ATOM     92  C   UNL A   1      32.795  18.829  24.281  1.00  0.00    -0.007 A 
ATOM     93  C   UNL A   1      33.233  18.031  23.215  1.00  0.00     0.009 A 
ATOM     94  C   UNL A   1      32.708  18.273  25.562  1.00  0.00     0.009 A 
ATOM     95  C   UNL A   1      33.574  16.695  23.425  1.00  0.00     0.001 A 
ATOM     96  C   UNL A   1      33.045  16.934  25.770  1.00  0.00     0.001 A 
ATOM     97  C   UNL A   1      33.477  16.146  24.702  1.00  0.00     0.000 A 
ENDBRANCH  91  92
ENDBRANCH  84  87
ENDBRANCH  77  80
ENDBRANCH  75  76
ENDBRANCH  74  75
ENDBRANCH  73  74
ENDBRANCH   1  73
TORSDOF 18
ENDMDL
MODEL 3
REMARK VINA RESULT:     -12.0      5.727     10.769
REMARK SMILES O=C(NCCCCCCNC(=O)[C@@H]1CS[C@H](c2ncc(-c3ccccc3)s2)[NH2+]1)c1ccc(-c2c3nc(c(-c4cccc(S(=O)(=O)[O-])c4F)c4ccc([nH]4)c(-c4cccc(S(=O)(=O)[O-])c4F)c4nc(c(-c5cccc(S(=O)(=O)[O-])c5F)c5ccc2[nH]5)C=C4)C=C3)cc1
REMARK SMILES IDX 6 1 5 2 4 3 3 4 1 5 2 6 29 8 30 9 91 10 31 11 90 12 32 13
REMARK SMILES IDX 33 14 34 15 84 16 35 17 89 18 83 19 85 20 36 21 88 22 82 23
REMARK SMILES IDX 81 24 37 26 69 27 49 28 68 29 50 30 53 31 67 32 86 33 51 34
REMARK SMILES IDX 52 35 66 37 87 38 54 39 38 40 39 41 47 42 40 43 42 44 48 45
REMARK SMILES IDX 41 46 43 47 44 48 45 49 46 50 70 51 71 52 79 53 72 54 74 55
REMARK SMILES IDX 80 56 73 57 75 58 76 59 77 60 78 61 55 62 56 63 64 64 57 65
REMARK SMILES IDX 59 66 65 67 58 68 60 69 61 70 62 71 63 72 7 73 8 74 9 75
REMARK SMILES IDX 10 76 11 77 12 79 13 80 14 81 28 82 15 83 16 84 17 87 18 88
REMARK SMILES IDX 27 89 19 90 20 91 21 92 22 93 26 94 23 95 25 96 24 97
REMARK H PARENT 3 7 85 25 53 36 10 78 28 85 28 86
REMARK Flexibility Score: inf
ROOT
ATOM      1  C   UNL A   1      36.340  20.119  24.898  1.00  0.00     0.002 C 
ENDROOT
BRANCH   1   2
ATOM      2  C   UNL A   1      37.742  19.513  24.833  1.00  0.00     0.021 C 
BRANCH   2   3
ATOM      3  C   UNL A   1      38.757  20.160  25.764  1.00  0.00     0.116 C 
BRANCH   3   4
ATOM      4  N   UNL A   1      39.893  19.296  26.021  1.00  0.00    -0.352 N 
ATOM      5  O   UNL A   1      42.072  18.808  26.318  1.00  0.00    -0.269 OA
ATOM      6  C   UNL A   1      41.184  19.654  26.325  1.00  0.00     0.251 C 
ATOM      7  H   UNL A   1      39.717  18.328  25.970  1.00  0.00     0.163 HD
BRANCH   6   8
ATOM      8  C   UNL A   1      41.490  21.069  26.640  1.00  0.00     0.039 A 
ATOM      9  C   UNL A   1      41.701  21.470  27.962  1.00  0.00     0.014 A 
ATOM     10  C   UNL A   1      41.584  21.996  25.600  1.00  0.00     0.014 A 
ATOM     11  C   UNL A   1      41.908  22.814  28.255  1.00  0.00     0.010 A 
ATOM     12  C   UNL A   1      41.869  23.334  25.888  1.00  0.00     0.010 A 
ATOM     13  C   UNL A   1      42.024  23.754  27.218  1.00  0.00    -0.014 A 
BRANCH  13  14
ATOM     14  C   UNL A   1      42.456  25.137  27.540  1.00  0.00     0.031 A 
ATOM     15  C   UNL A   1      41.517  26.137  28.151  1.00  0.00     0.074 A 
ATOM     16  C   UNL A   1      43.721  25.487  27.233  1.00  0.00     0.049 A 
ATOM     17  N   UNL A   1      41.756  27.377  28.491  1.00  0.00    -0.248 NA
ATOM     18  C   UNL A   1      40.136  25.701  28.411  1.00  0.00     0.031 C 
ATOM     19  C   UNL A   1      44.698  24.612  26.577  1.00  0.00     0.029 A 
ATOM     20  N   UNL A   1      44.400  26.665  27.410  1.00  0.00    -0.354 N 
ATOM     21  C   UNL A   1      40.552  27.885  28.965  1.00  0.00     0.074 A 
ATOM     22  C   UNL A   1      39.581  26.815  28.875  1.00  0.00     0.031 C 
ATOM     23  C   UNL A   1      45.848  25.279  26.414  1.00  0.00     0.029 A 
ATOM     24  C   UNL A   1      45.679  26.640  26.905  1.00  0.00     0.049 A 
ATOM     25  H   UNL A   1      44.010  27.451  27.855  1.00  0.00     0.167 HD
ATOM     26  C   UNL A   1      40.291  29.127  29.440  1.00  0.00     0.034 A 
ATOM     27  C   UNL A   1      46.607  27.611  26.819  1.00  0.00     0.034 A 
ATOM     28  C   UNL A   1      41.275  30.170  29.561  1.00  0.00     0.049 A 
ATOM     29  C   UNL A   1      46.287  28.967  27.378  1.00  0.00     0.074 A 
ATOM     30  C   UNL A   1      41.131  31.423  30.131  1.00  0.00     0.029 A 
ATOM     31  N   UNL A   1      42.576  30.094  29.088  1.00  0.00    -0.354 N 
ATOM     32  N   UNL A   1      45.199  29.369  27.986  1.00  0.00    -0.248 NA
ATOM     33  C   UNL A   1      47.330  29.994  27.260  1.00  0.00     0.031 C 
ATOM     34  C   UNL A   1      42.337  32.115  29.979  1.00  0.00     0.029 A 
ATOM     35  C   UNL A   1      43.237  31.287  29.330  1.00  0.00     0.049 A 
ATOM     36  H   UNL A   1      42.971  29.309  28.646  1.00  0.00     0.167 HD
ATOM     37  C   UNL A   1      45.429  30.694  28.335  1.00  0.00     0.074 A 
ATOM     38  C   UNL A   1      46.775  31.012  27.905  1.00  0.00     0.031 C 
ATOM     39  C   UNL A   1      44.591  31.576  28.931  1.00  0.00     0.034 A 
BRANCH  26  40
ATOM     40  C   UNL A   1      38.894  29.434  29.912  1.00  0.00     0.023 A 
ATOM     41  C   UNL A   1      38.518  29.102  31.227  1.00  0.00     0.012 A 
ATOM     42  C   UNL A   1      38.003  30.163  29.099  1.00  0.00     0.148 A 
ATOM     43  C   UNL A   1      37.272  29.481  31.726  1.00  0.00     0.002 A 
ATOM     44  C   UNL A   1      36.775  30.567  29.614  1.00  0.00     0.091 A 
ATOM     45  F   UNL A   1      38.375  30.455  27.845  1.00  0.00    -0.205 F 
ATOM     46  C   UNL A   1      36.408  30.223  30.924  1.00  0.00     0.022 A 
BRANCH  44  47
ATOM     47  S   UNL A   1      35.619  31.586  28.690  1.00  0.00     0.127 S 
ATOM     48  O   UNL A   1      34.635  31.919  29.719  1.00  0.00    -0.237 OA
ATOM     49  O   UNL A   1      36.464  32.703  28.269  1.00  0.00    -0.237 OA
ATOM     50  O   UNL A   1      35.124  30.751  27.605  1.00  0.00    -0.744 OA
ENDBRANCH  44  47
ENDBRANCH  26  40
BRANCH  27  51
ATOM     51  C   UNL A   1      47.929  27.320  26.199  1.00  0.00     0.023 A 
ATOM     52  C   UNL A   1      48.961  26.775  26.984  1.00  0.00     0.012 A 
ATOM     53  C   UNL A   1      48.155  27.544  24.827  1.00  0.00     0.148 A 
ATOM     54  C   UNL A   1      50.204  26.482  26.419  1.00  0.00     0.002 A 
ATOM     55  C   UNL A   1      49.373  27.193  24.258  1.00  0.00     0.091 A 
ATOM     56  F   UNL A   1      47.169  28.086  24.097  1.00  0.00    -0.205 F 
ATOM     57  C   UNL A   1      50.405  26.678  25.055  1.00  0.00     0.022 A 
BRANCH  55  58
ATOM     58  S   UNL A   1      49.639  27.277  22.484  1.00  0.00     0.127 S 
ATOM     59  O   UNL A   1      51.074  27.030  22.383  1.00  0.00    -0.237 OA
ATOM     60  O   UNL A   1      48.790  26.191  21.989  1.00  0.00    -0.237 OA
ATOM     61  O   UNL A   1      49.185  28.606  22.097  1.00  0.00    -0.744 OA
ENDBRANCH  55  58
ENDBRANCH  27  51
BRANCH  39  62
ATOM     62  C   UNL A   1      45.106  32.972  29.152  1.00  0.00     0.023 A 
ATOM     63  C   UNL A   1      45.776  33.277  30.353  1.00  0.00     0.012 A 
ATOM     64  C   UNL A   1      44.979  33.959  28.158  1.00  0.00     0.148 A 
ATOM     65  C   UNL A   1      46.284  34.555  30.575  1.00  0.00     0.002 A 
ATOM     66  C   UNL A   1      45.528  35.219  28.367  1.00  0.00     0.091 A 
ATOM     67  F   UNL A   1      44.319  33.654  27.031  1.00  0.00    -0.205 F 
ATOM     68  C   UNL A   1      46.171  35.522  29.579  1.00  0.00     0.022 A 
BRANCH  66  69
ATOM     69  S   UNL A   1      45.506  36.498  27.107  1.00  0.00     0.127 S 
ATOM     70  O   UNL A   1      44.080  36.798  27.010  1.00  0.00    -0.237 OA
ATOM     71  O   UNL A   1      46.313  37.554  27.719  1.00  0.00    -0.237 OA
ATOM     72  O   UNL A   1      46.103  35.899  25.919  1.00  0.00    -0.744 OA
ENDBRANCH  66  69
ENDBRANCH  39  62
ENDBRANCH  13  14
ENDBRANCH   6   8
ENDBRANCH   3   4
ENDBRANCH   2   3
ENDBRANCH   1   2
BRANCH   1  73
ATOM     73  C   UNL A   1      36.286  21.611  25.240  1.00  0.00     0.002 C 
BRANCH  73  74
ATOM     74  C   UNL A   1      36.653  22.572  24.099  1.00  0.00     0.021 C 
BRANCH  74  75
ATOM     75  C   UNL A   1      35.473  23.341  23.506  1.00  0.00     0.116 C 
BRANCH  75  76
ATOM     76  N   UNL A   1      35.177  24.527  24.277  1.00  0.00    -0.351 N 
ATOM     77  C   UNL A   1      34.025  24.951  24.862  1.00  0.00     0.279 C 
ATOM     78  H   UNL A   1      35.941  25.135  24.399  1.00  0.00     0.163 HD
ATOM     79  O   UNL A   1      34.129  25.942  25.589  1.00  0.00    -0.268 OA
BRANCH  77  80
ATOM     80  C   UNL A   1      32.705  24.163  24.674  1.00  0.00     0.284 C 
ATOM     81  C   UNL A   1      32.172  24.199  23.239  1.00  0.00     0.151 C 
ATOM     82  N   UNL A   1      31.672  24.657  25.647  1.00  0.00    -0.319 N 
ATOM     83  S   UNL A   1      30.386  24.165  23.446  1.00  0.00    -0.085 SA
ATOM     84  C   UNL A   1      30.516  25.213  24.922  1.00  0.00     0.303 C 
ATOM     85  H   UNL A   1      32.082  25.382  26.235  1.00  0.00     0.348 HD
ATOM     86  H   UNL A   1      31.359  23.877  26.225  1.00  0.00     0.348 HD
BRANCH  84  87
ATOM     87  C   UNL A   1      30.606  26.688  24.534  1.00  0.00     0.162 A 
ATOM     88  N   UNL A   1      31.460  27.546  25.072  1.00  0.00    -0.242 NA
ATOM     89  S   UNL A   1      29.605  27.375  23.308  1.00  0.00    -0.112 S 
ATOM     90  C   UNL A   1      31.201  28.825  24.620  1.00  0.00     0.132 A 
ATOM     91  C   UNL A   1      30.171  28.937  23.712  1.00  0.00     0.055 A 
BRANCH  91  92
ATOM     92  C   UNL A   1      29.566  30.118  23.118  1.00  0.00    -0.007 A 
ATOM     93  C   UNL A   1      29.208  30.115  21.762  1.00  0.00     0.009 A 
ATOM     94  C   UNL A   1      29.323  31.261  23.887  1.00  0.00     0.009 A 
ATOM     95  C   UNL A   1      28.621  31.240  21.183  1.00  0.00     0.001 A 
ATOM     96  C   UNL A   1      28.740  32.389  23.304  1.00  0.00     0.001 A 
ATOM     97  C   UNL A   1      28.390  32.377  21.953  1.00  0.00     0.000 A 
ENDBRANCH  91  92
ENDBRANCH  84  87
ENDBRANCH  77  80
ENDBRANCH  75  76
ENDBRANCH  74  75
ENDBRANCH  73  74
ENDBRANCH   1  73
TORSDOF 18
ENDMDL
