MODEL 1
REMARK VINA RESULT:     -11.2      0.000      0.000
REMARK SMILES Cc1ccc(C)n1-c1ccccc1S[C@H](C)C(=O)NCCCCCCNC(=O)c1ccc(-c2c3nc(c(-c4cccc(S(=O)(=O)[O-])c4F)c4ccc([nH]4)c(-c4cccc(S(=O)(=O)[O-])c4F)c4nc(c(-c5cccc(S(=O)(=O)[O-])c5F)c5ccc2[nH]5)C=C4)C=C3)cc1
REMARK SMILES IDX 22 1 21 2 20 3 19 4 17 5 18 6 15 8 16 9 14 10 13 11 8 12
REMARK SMILES IDX 9 13 10 14 12 15 11 16 7 17 1 18 2 19 3 20 4 21 5 22 6 23
REMARK SMILES IDX 23 24 24 25 25 26 26 27 27 28 28 30 29 31 30 32 91 33 31 34
REMARK SMILES IDX 90 35 32 36 33 37 34 38 84 39 35 40 89 41 83 42 85 43 36 44
REMARK SMILES IDX 88 45 82 46 81 47 37 49 69 50 49 51 68 52 50 53 53 54 67 55
REMARK SMILES IDX 86 56 51 57 52 58 66 60 87 61 54 62 38 63 39 64 47 65 40 66
REMARK SMILES IDX 42 67 48 68 41 69 43 70 44 71 45 72 46 73 70 74 71 75 79 76
REMARK SMILES IDX 72 77 74 78 80 79 73 80 75 81 76 82 77 83 78 84 55 85 56 86
REMARK SMILES IDX 64 87 57 88 59 89 65 90 58 91 60 92 61 93 62 94 63 95
REMARK H PARENT 19 7 26 29 85 48 53 59
REMARK Flexibility Score: inf
ROOT
ATOM      1  C   UNL A   1      37.121  32.870  28.906  1.00  0.00     0.002 C 
ENDROOT
BRANCH   1   2
ATOM      2  C   UNL A   1      35.769  32.801  28.151  1.00  0.00     0.021 C 
BRANCH   2   3
ATOM      3  C   UNL A   1      35.057  31.441  27.960  1.00  0.00     0.116 C 
BRANCH   3   4
ATOM      4  N   UNL A   1      33.695  31.493  27.412  1.00  0.00    -0.355 N 
ATOM      5  C   UNL A   1      32.881  30.515  26.900  1.00  0.00     0.233 C 
ATOM      6  O   UNL A   1      31.674  30.784  26.807  1.00  0.00    -0.274 OA
ATOM      7  H   UNL A   1      33.293  32.392  27.412  1.00  0.00     0.163 HD
BRANCH   5   8
ATOM      8  C   UNL A   1      33.376  29.159  26.379  1.00  0.00     0.137 C 
ATOM      9  C   UNL A   1      34.634  28.676  27.101  1.00  0.00     0.030 C 
BRANCH   8  10
ATOM     10  S   UNL A   1      32.089  27.855  26.397  1.00  0.00    -0.111 SA
BRANCH  10  11
ATOM     11  C   UNL A   1      32.650  26.486  25.366  1.00  0.00     0.032 A 
ATOM     12  C   UNL A   1      32.146  26.342  24.049  1.00  0.00     0.059 A 
ATOM     13  C   UNL A   1      32.392  25.191  23.277  1.00  0.00     0.028 A 
ATOM     14  C   UNL A   1      33.160  24.159  23.803  1.00  0.00     0.002 A 
ATOM     15  C   UNL A   1      33.422  25.426  25.863  1.00  0.00     0.017 A 
ATOM     16  C   UNL A   1      33.678  24.280  25.090  1.00  0.00     0.001 A 
BRANCH  12  17
ATOM     17  N   UNL A   1      31.369  27.362  23.438  1.00  0.00    -0.317 N 
ATOM     18  C   UNL A   1      29.102  26.416  24.096  1.00  0.00     0.065 C 
ATOM     19  C   UNL A   1      29.980  27.415  23.423  1.00  0.00     0.020 A 
ATOM     20  C   UNL A   1      29.607  28.535  22.706  1.00  0.00     0.023 A 
ATOM     21  C   UNL A   1      30.780  29.228  22.349  1.00  0.00     0.023 A 
ATOM     22  C   UNL A   1      31.861  28.516  22.838  1.00  0.00     0.020 A 
ATOM     23  C   UNL A   1      33.305  28.843  22.678  1.00  0.00     0.065 C 
ENDBRANCH  12  17
ENDBRANCH  10  11
ENDBRANCH   8  10
ENDBRANCH   5   8
ENDBRANCH   3   4
ENDBRANCH   2   3
ENDBRANCH   1   2
BRANCH   1  24
ATOM     24  C   UNL A   1      37.185  33.054  30.456  1.00  0.00     0.002 C 
BRANCH  24  25
ATOM     25  C   UNL A   1      36.035  32.635  31.451  1.00  0.00     0.021 C 
BRANCH  25  26
ATOM     26  C   UNL A   1      36.261  32.234  32.988  1.00  0.00     0.116 C 
BRANCH  26  27
ATOM     27  N   UNL A   1      36.667  30.794  33.198  1.00  0.00    -0.352 N 
ATOM     28  C   UNL A   1      37.245  29.685  32.551  1.00  0.00     0.251 C 
ATOM     29  H   UNL A   1      36.449  30.539  34.124  1.00  0.00     0.163 HD
ATOM     30  O   UNL A   1      37.198  28.653  33.246  1.00  0.00    -0.269 OA
BRANCH  28  31
ATOM     31  C   UNL A   1      37.907  29.484  31.174  1.00  0.00     0.039 A 
ATOM     32  C   UNL A   1      39.186  30.046  30.891  1.00  0.00     0.014 A 
ATOM     33  C   UNL A   1      37.272  29.054  30.026  1.00  0.00     0.014 A 
ATOM     34  C   UNL A   1      39.902  29.921  29.607  1.00  0.00     0.010 A 
ATOM     35  C   UNL A   1      37.955  29.068  28.721  1.00  0.00     0.010 A 
ATOM     36  C   UNL A   1      39.348  29.308  28.465  1.00  0.00    -0.014 A 
BRANCH  36  37
ATOM     37  C   UNL A   1      40.270  28.175  27.613  1.00  0.00     0.031 A 
ATOM     38  C   UNL A   1      41.248  29.056  26.877  1.00  0.00     0.074 A 
ATOM     39  C   UNL A   1      40.705  26.822  27.575  1.00  0.00     0.049 A 
ATOM     40  N   UNL A   1      41.746  30.049  27.558  1.00  0.00    -0.248 NA
ATOM     41  C   UNL A   1      42.018  28.774  25.673  1.00  0.00     0.031 C 
ATOM     42  C   UNL A   1      40.370  25.663  28.436  1.00  0.00     0.029 A 
ATOM     43  N   UNL A   1      41.715  26.173  26.766  1.00  0.00    -0.354 N 
ATOM     44  C   UNL A   1      43.071  29.851  27.406  1.00  0.00     0.074 A 
ATOM     45  C   UNL A   1      43.197  29.289  26.061  1.00  0.00     0.031 C 
ATOM     46  C   UNL A   1      41.072  24.527  28.087  1.00  0.00     0.029 A 
ATOM     47  C   UNL A   1      41.996  24.779  26.978  1.00  0.00     0.049 A 
ATOM     48  H   UNL A   1      42.204  26.680  26.078  1.00  0.00     0.167 HD
ATOM     49  C   UNL A   1      43.871  29.707  28.497  1.00  0.00     0.034 A 
ATOM     50  C   UNL A   1      42.968  24.019  26.313  1.00  0.00     0.034 A 
ATOM     51  C   UNL A   1      45.198  29.264  28.288  1.00  0.00     0.049 A 
ATOM     52  C   UNL A   1      44.182  24.744  26.820  1.00  0.00     0.074 A 
ATOM     53  C   UNL A   1      46.137  29.367  27.290  1.00  0.00     0.029 A 
ATOM     54  N   UNL A   1      45.728  28.408  29.227  1.00  0.00    -0.354 N 
ATOM     55  N   UNL A   1      44.828  24.426  27.913  1.00  0.00    -0.248 NA
ATOM     56  C   UNL A   1      44.884  25.615  25.875  1.00  0.00     0.031 C 
ATOM     57  C   UNL A   1      46.932  28.192  27.416  1.00  0.00     0.029 A 
ATOM     58  C   UNL A   1      46.440  27.479  28.512  1.00  0.00     0.049 A 
ATOM     59  H   UNL A   1      45.619  28.454  30.204  1.00  0.00     0.167 HD
ATOM     60  C   UNL A   1      45.910  25.267  27.861  1.00  0.00     0.074 A 
ATOM     61  C   UNL A   1      46.073  25.588  26.465  1.00  0.00     0.031 C 
ATOM     62  C   UNL A   1      46.209  26.102  28.886  1.00  0.00     0.034 A 
BRANCH  49  63
ATOM     63  C   UNL A   1      43.271  29.592  29.898  1.00  0.00     0.023 A 
ATOM     64  C   UNL A   1      42.858  28.341  30.420  1.00  0.00     0.012 A 
ATOM     65  C   UNL A   1      43.359  30.651  30.805  1.00  0.00     0.148 A 
ATOM     66  C   UNL A   1      42.399  28.192  31.742  1.00  0.00     0.002 A 
ATOM     67  C   UNL A   1      42.988  30.479  32.146  1.00  0.00     0.091 A 
ATOM     68  F   UNL A   1      43.858  31.816  30.368  1.00  0.00    -0.205 F 
ATOM     69  C   UNL A   1      42.458  29.270  32.611  1.00  0.00     0.022 A 
BRANCH  67  70
ATOM     70  S   UNL A   1      43.349  31.790  33.312  1.00  0.00     0.127 S 
ATOM     71  O   UNL A   1      42.759  31.282  34.549  1.00  0.00    -0.237 OA
ATOM     72  O   UNL A   1      44.809  31.871  33.326  1.00  0.00    -0.237 OA
ATOM     73  O   UNL A   1      42.695  32.958  32.725  1.00  0.00    -0.744 OA
ENDBRANCH  67  70
ENDBRANCH  49  63
BRANCH  50  74
ATOM     74  C   UNL A   1      43.684  22.659  25.834  1.00  0.00     0.023 A 
ATOM     75  C   UNL A   1      44.590  22.499  24.776  1.00  0.00     0.012 A 
ATOM     76  C   UNL A   1      43.167  21.390  26.353  1.00  0.00     0.148 A 
ATOM     77  C   UNL A   1      44.911  21.201  24.253  1.00  0.00     0.002 A 
ATOM     78  C   UNL A   1      43.393  20.130  25.756  1.00  0.00     0.091 A 
ATOM     79  F   UNL A   1      42.462  21.402  27.495  1.00  0.00    -0.205 F 
ATOM     80  C   UNL A   1      44.288  20.031  24.705  1.00  0.00     0.022 A 
BRANCH  78  81
ATOM     81  S   UNL A   1      42.415  18.657  26.214  1.00  0.00     0.127 S 
ATOM     82  O   UNL A   1      43.009  17.582  25.415  1.00  0.00    -0.237 OA
ATOM     83  O   UNL A   1      42.663  18.535  27.649  1.00  0.00    -0.237 OA
ATOM     84  O   UNL A   1      41.048  18.994  25.830  1.00  0.00    -0.744 OA
ENDBRANCH  78  81
ENDBRANCH  50  74
BRANCH  62  85
ATOM     85  C   UNL A   1      45.821  25.647  30.265  1.00  0.00     0.023 A 
ATOM     86  C   UNL A   1      44.508  25.175  30.411  1.00  0.00     0.012 A 
ATOM     87  C   UNL A   1      46.651  25.721  31.412  1.00  0.00     0.148 A 
ATOM     88  C   UNL A   1      44.019  24.808  31.665  1.00  0.00     0.002 A 
ATOM     89  C   UNL A   1      46.160  25.350  32.664  1.00  0.00     0.091 A 
ATOM     90  F   UNL A   1      47.906  26.160  31.268  1.00  0.00    -0.205 F 
ATOM     91  C   UNL A   1      44.840  24.896  32.787  1.00  0.00     0.022 A 
BRANCH  89  92
ATOM     92  S   UNL A   1      47.113  25.519  34.187  1.00  0.00     0.127 S 
ATOM     93  O   UNL A   1      48.227  24.584  33.959  1.00  0.00    -0.237 OA
ATOM     94  O   UNL A   1      47.515  26.933  34.151  1.00  0.00    -0.237 OA
ATOM     95  O   UNL A   1      46.242  25.155  35.274  1.00  0.00    -0.744 OA
ENDBRANCH  89  92
ENDBRANCH  62  85
ENDBRANCH  36  37
ENDBRANCH  28  31
ENDBRANCH  26  27
ENDBRANCH  25  26
ENDBRANCH  24  25
ENDBRANCH   1  24
TORSDOF 19
ENDMDL
MODEL 2
REMARK VINA RESULT:     -11.0      3.161      5.326
REMARK SMILES Cc1ccc(C)n1-c1ccccc1S[C@H](C)C(=O)NCCCCCCNC(=O)c1ccc(-c2c3nc(c(-c4cccc(S(=O)(=O)[O-])c4F)c4ccc([nH]4)c(-c4cccc(S(=O)(=O)[O-])c4F)c4nc(c(-c5cccc(S(=O)(=O)[O-])c5F)c5ccc2[nH]5)C=C4)C=C3)cc1
REMARK SMILES IDX 22 1 21 2 20 3 19 4 17 5 18 6 15 8 16 9 14 10 13 11 8 12
REMARK SMILES IDX 9 13 10 14 12 15 11 16 7 17 1 18 2 19 3 20 4 21 5 22 6 23
REMARK SMILES IDX 23 24 24 25 25 26 26 27 27 28 28 30 29 31 30 32 91 33 31 34
REMARK SMILES IDX 90 35 32 36 33 37 34 38 84 39 35 40 89 41 83 42 85 43 36 44
REMARK SMILES IDX 88 45 82 46 81 47 37 49 69 50 49 51 68 52 50 53 53 54 67 55
REMARK SMILES IDX 86 56 51 57 52 58 66 60 87 61 54 62 38 63 39 64 47 65 40 66
REMARK SMILES IDX 42 67 48 68 41 69 43 70 44 71 45 72 46 73 70 74 71 75 79 76
REMARK SMILES IDX 72 77 74 78 80 79 73 80 75 81 76 82 77 83 78 84 55 85 56 86
REMARK SMILES IDX 64 87 57 88 59 89 65 90 58 91 60 92 61 93 62 94 63 95
REMARK H PARENT 19 7 26 29 85 48 53 59
REMARK Flexibility Score: inf
ROOT
ATOM      1  C   UNL A   1      33.533  34.656  28.340  1.00  0.00     0.002 C 
ENDROOT
BRANCH   1   2
ATOM      2  C   UNL A   1      34.855  33.928  27.989  1.00  0.00     0.021 C 
BRANCH   2   3
ATOM      3  C   UNL A   1      34.886  32.384  27.888  1.00  0.00     0.116 C 
BRANCH   3   4
ATOM      4  N   UNL A   1      33.620  31.732  27.530  1.00  0.00    -0.355 N 
ATOM      5  C   UNL A   1      33.327  30.434  27.193  1.00  0.00     0.233 C 
ATOM      6  O   UNL A   1      32.135  30.098  27.251  1.00  0.00    -0.274 OA
ATOM      7  H   UNL A   1      32.840  32.333  27.533  1.00  0.00     0.163 HD
BRANCH   5   8
ATOM      8  C   UNL A   1      34.358  29.415  26.689  1.00  0.00     0.137 C 
ATOM      9  C   UNL A   1      35.634  29.406  27.531  1.00  0.00     0.030 C 
BRANCH   8  10
ATOM     10  S   UNL A   1      33.688  27.717  26.528  1.00  0.00    -0.111 SA
BRANCH  10  11
ATOM     11  C   UNL A   1      33.442  27.365  24.776  1.00  0.00     0.032 A 
ATOM     12  C   UNL A   1      33.146  26.044  24.357  1.00  0.00     0.059 A 
ATOM     13  C   UNL A   1      33.143  25.675  22.999  1.00  0.00     0.028 A 
ATOM     14  C   UNL A   1      33.425  26.625  22.025  1.00  0.00     0.002 A 
ATOM     15  C   UNL A   1      33.720  28.298  23.767  1.00  0.00     0.017 A 
ATOM     16  C   UNL A   1      33.706  27.933  22.409  1.00  0.00     0.001 A 
BRANCH  12  17
ATOM     17  N   UNL A   1      32.831  25.023  25.293  1.00  0.00    -0.317 N 
ATOM     18  C   UNL A   1      35.206  24.158  25.573  1.00  0.00     0.065 C 
ATOM     19  C   UNL A   1      33.741  24.133  25.850  1.00  0.00     0.020 A 
ATOM     20  C   UNL A   1      33.044  23.279  26.682  1.00  0.00     0.023 A 
ATOM     21  C   UNL A   1      31.701  23.702  26.704  1.00  0.00     0.023 A 
ATOM     22  C   UNL A   1      31.587  24.802  25.874  1.00  0.00     0.020 A 
ATOM     23  C   UNL A   1      30.350  25.570  25.556  1.00  0.00     0.065 C 
ENDBRANCH  12  17
ENDBRANCH  10  11
ENDBRANCH   8  10
ENDBRANCH   5   8
ENDBRANCH   3   4
ENDBRANCH   2   3
ENDBRANCH   1   2
BRANCH   1  24
ATOM     24  C   UNL A   1      33.526  36.040  29.062  1.00  0.00     0.002 C 
BRANCH  24  25
ATOM     25  C   UNL A   1      32.857  36.311  30.466  1.00  0.00     0.021 C 
BRANCH  25  26
ATOM     26  C   UNL A   1      33.314  37.461  31.486  1.00  0.00     0.116 C 
BRANCH  26  27
ATOM     27  N   UNL A   1      33.789  36.947  32.825  1.00  0.00    -0.352 N 
ATOM     28  C   UNL A   1      34.365  35.830  33.458  1.00  0.00     0.251 C 
ATOM     29  H   UNL A   1      33.641  37.649  33.500  1.00  0.00     0.163 HD
ATOM     30  O   UNL A   1      34.404  35.954  34.696  1.00  0.00    -0.269 OA
BRANCH  28  31
ATOM     31  C   UNL A   1      34.944  34.497  32.943  1.00  0.00     0.039 A 
ATOM     32  C   UNL A   1      34.311  33.791  31.879  1.00  0.00     0.014 A 
ATOM     33  C   UNL A   1      35.873  33.713  33.597  1.00  0.00     0.014 A 
ATOM     34  C   UNL A   1      34.775  32.508  31.319  1.00  0.00     0.010 A 
ATOM     35  C   UNL A   1      36.224  32.369  33.103  1.00  0.00     0.010 A 
ATOM     36  C   UNL A   1      35.855  31.773  31.850  1.00  0.00    -0.014 A 
BRANCH  36  37
ATOM     37  C   UNL A   1      37.042  31.184  30.798  1.00  0.00     0.031 A 
ATOM     38  C   UNL A   1      37.843  32.426  30.502  1.00  0.00     0.074 A 
ATOM     39  C   UNL A   1      37.758  30.028  30.385  1.00  0.00     0.049 A 
ATOM     40  N   UNL A   1      38.081  33.208  31.516  1.00  0.00    -0.248 NA
ATOM     41  C   UNL A   1      38.715  32.712  29.370  1.00  0.00     0.031 C 
ATOM     42  C   UNL A   1      37.637  28.606  30.788  1.00  0.00     0.029 A 
ATOM     43  N   UNL A   1      38.924  29.887  29.538  1.00  0.00    -0.354 N 
ATOM     44  C   UNL A   1      39.423  33.323  31.467  1.00  0.00     0.074 A 
ATOM     45  C   UNL A   1      39.735  33.278  30.038  1.00  0.00     0.031 C 
ATOM     46  C   UNL A   1      38.584  27.805  30.182  1.00  0.00     0.029 A 
ATOM     47  C   UNL A   1      39.486  28.580  29.329  1.00  0.00     0.049 A 
ATOM     48  H   UNL A   1      39.326  30.677  29.109  1.00  0.00     0.167 HD
ATOM     49  C   UNL A   1      40.179  32.974  32.543  1.00  0.00     0.034 A 
ATOM     50  C   UNL A   1      40.631  28.282  28.577  1.00  0.00     0.034 A 
ATOM     51  C   UNL A   1      41.579  32.881  32.363  1.00  0.00     0.049 A 
ATOM     52  C   UNL A   1      41.634  29.008  29.427  1.00  0.00     0.074 A 
ATOM     53  C   UNL A   1      42.523  33.486  31.568  1.00  0.00     0.029 A 
ATOM     54  N   UNL A   1      42.233  31.875  33.038  1.00  0.00    -0.354 N 
ATOM     55  N   UNL A   1      42.277  28.469  30.432  1.00  0.00    -0.248 NA
ATOM     56  C   UNL A   1      42.179  30.260  28.898  1.00  0.00     0.031 C 
ATOM     57  C   UNL A   1      43.545  32.506  31.408  1.00  0.00     0.029 A 
ATOM     58  C   UNL A   1      43.164  31.389  32.155  1.00  0.00     0.049 A 
ATOM     59  H   UNL A   1      42.068  31.570  33.959  1.00  0.00     0.167 HD
ATOM     60  C   UNL A   1      43.155  29.465  30.778  1.00  0.00     0.074 A 
ATOM     61  C   UNL A   1      43.315  30.259  29.586  1.00  0.00     0.031 C 
ATOM     62  C   UNL A   1      43.215  29.949  32.043  1.00  0.00     0.034 A 
BRANCH  49  63
ATOM     63  C   UNL A   1      39.549  32.287  33.754  1.00  0.00     0.023 A 
ATOM     64  C   UNL A   1      39.303  30.891  33.762  1.00  0.00     0.012 A 
ATOM     65  C   UNL A   1      39.444  32.948  34.979  1.00  0.00     0.148 A 
ATOM     66  C   UNL A   1      38.820  30.218  34.900  1.00  0.00     0.002 A 
ATOM     67  C   UNL A   1      39.051  32.258  36.135  1.00  0.00     0.091 A 
ATOM     68  F   UNL A   1      39.784  34.244  35.029  1.00  0.00    -0.205 F 
ATOM     69  C   UNL A   1      38.686  30.908  36.094  1.00  0.00     0.022 A 
BRANCH  67  70
ATOM     70  S   UNL A   1      39.169  33.092  37.716  1.00  0.00     0.127 S 
ATOM     71  O   UNL A   1      38.261  34.224  37.543  1.00  0.00    -0.237 OA
ATOM     72  O   UNL A   1      38.718  32.096  38.686  1.00  0.00    -0.237 OA
ATOM     73  O   UNL A   1      40.588  33.424  37.821  1.00  0.00    -0.744 OA
ENDBRANCH  67  70
ENDBRANCH  49  63
BRANCH  50  74
ATOM     74  C   UNL A   1      41.646  27.320  27.780  1.00  0.00     0.023 A 
ATOM     75  C   UNL A   1      42.542  27.679  26.763  1.00  0.00     0.012 A 
ATOM     76  C   UNL A   1      41.463  25.872  27.906  1.00  0.00     0.148 A 
ATOM     77  C   UNL A   1      43.158  26.693  25.922  1.00  0.00     0.002 A 
ATOM     78  C   UNL A   1      41.975  24.918  27.000  1.00  0.00     0.091 A 
ATOM     79  F   UNL A   1      40.799  25.399  28.972  1.00  0.00    -0.205 F 
ATOM     80  C   UNL A   1      42.847  25.330  26.006  1.00  0.00     0.022 A 
BRANCH  78  81
ATOM     81  S   UNL A   1      41.393  23.187  26.990  1.00  0.00     0.127 S 
ATOM     82  O   UNL A   1      42.015  22.617  25.792  1.00  0.00    -0.237 OA
ATOM     83  O   UNL A   1      41.925  22.656  28.243  1.00  0.00    -0.237 OA
ATOM     84  O   UNL A   1      39.940  23.292  26.908  1.00  0.00    -0.744 OA
ENDBRANCH  78  81
ENDBRANCH  50  74
BRANCH  62  85
ATOM     85  C   UNL A   1      42.865  28.994  33.150  1.00  0.00     0.023 A 
ATOM     86  C   UNL A   1      41.646  28.315  33.014  1.00  0.00     0.012 A 
ATOM     87  C   UNL A   1      43.634  28.789  34.323  1.00  0.00     0.148 A 
ATOM     88  C   UNL A   1      41.185  27.470  34.025  1.00  0.00     0.002 A 
ATOM     89  C   UNL A   1      43.172  27.941  35.331  1.00  0.00     0.091 A 
ATOM     90  F   UNL A   1      44.802  29.429  34.444  1.00  0.00    -0.205 F 
ATOM     91  C   UNL A   1      41.944  27.285  35.178  1.00  0.00     0.022 A 
BRANCH  89  92
ATOM     92  S   UNL A   1      44.035  27.712  36.899  1.00  0.00     0.127 S 
ATOM     93  O   UNL A   1      45.317  27.133  36.465  1.00  0.00    -0.237 OA
ATOM     94  O   UNL A   1      44.151  29.090  37.398  1.00  0.00    -0.237 OA
ATOM     95  O   UNL A   1      43.225  26.834  37.703  1.00  0.00    -0.744 OA
ENDBRANCH  89  92
ENDBRANCH  62  85
ENDBRANCH  36  37
ENDBRANCH  28  31
ENDBRANCH  26  27
ENDBRANCH  25  26
ENDBRANCH  24  25
ENDBRANCH   1  24
TORSDOF 19
ENDMDL
MODEL 3
REMARK VINA RESULT:     -10.9      2.087      3.594
REMARK SMILES Cc1ccc(C)n1-c1ccccc1S[C@H](C)C(=O)NCCCCCCNC(=O)c1ccc(-c2c3nc(c(-c4cccc(S(=O)(=O)[O-])c4F)c4ccc([nH]4)c(-c4cccc(S(=O)(=O)[O-])c4F)c4nc(c(-c5cccc(S(=O)(=O)[O-])c5F)c5ccc2[nH]5)C=C4)C=C3)cc1
REMARK SMILES IDX 22 1 21 2 20 3 19 4 17 5 18 6 15 8 16 9 14 10 13 11 8 12
REMARK SMILES IDX 9 13 10 14 12 15 11 16 7 17 1 18 2 19 3 20 4 21 5 22 6 23
REMARK SMILES IDX 23 24 24 25 25 26 26 27 27 28 28 30 29 31 30 32 91 33 31 34
REMARK SMILES IDX 90 35 32 36 33 37 34 38 84 39 35 40 89 41 83 42 85 43 36 44
REMARK SMILES IDX 88 45 82 46 81 47 37 49 69 50 49 51 68 52 50 53 53 54 67 55
REMARK SMILES IDX 86 56 51 57 52 58 66 60 87 61 54 62 38 63 39 64 47 65 40 66
REMARK SMILES IDX 42 67 48 68 41 69 43 70 44 71 45 72 46 73 70 74 71 75 79 76
REMARK SMILES IDX 72 77 74 78 80 79 73 80 75 81 76 82 77 83 78 84 55 85 56 86
REMARK SMILES IDX 64 87 57 88 59 89 65 90 58 91 60 92 61 93 62 94 63 95
REMARK H PARENT 19 7 26 29 85 48 53 59
REMARK Flexibility Score: inf
ROOT
ATOM      1  C   UNL A   1      34.076  29.369  27.528  1.00  0.00     0.002 C 
ENDROOT
BRANCH   1   2
ATOM      2  C   UNL A   1      33.263  28.318  26.730  1.00  0.00     0.021 C 
BRANCH   2   3
ATOM      3  C   UNL A   1      31.932  27.772  27.300  1.00  0.00     0.116 C 
BRANCH   3   4
ATOM      4  N   UNL A   1      31.043  27.102  26.342  1.00  0.00    -0.355 N 
ATOM      5  C   UNL A   1      30.720  25.780  26.171  1.00  0.00     0.233 C 
ATOM      6  O   UNL A   1      29.707  25.535  25.499  1.00  0.00    -0.274 OA
ATOM      7  H   UNL A   1      30.598  27.711  25.710  1.00  0.00     0.163 HD
BRANCH   5   8
ATOM      8  C   UNL A   1      31.562  24.606  26.690  1.00  0.00     0.137 C 
ATOM      9  C   UNL A   1      30.817  23.273  26.619  1.00  0.00     0.030 C 
BRANCH   8  10
ATOM     10  S   UNL A   1      33.199  24.466  25.879  1.00  0.00    -0.111 SA
BRANCH  10  11
ATOM     11  C   UNL A   1      32.946  24.365  24.097  1.00  0.00     0.032 A 
ATOM     12  C   UNL A   1      33.578  23.337  23.352  1.00  0.00     0.059 A 
ATOM     13  C   UNL A   1      33.579  23.329  21.945  1.00  0.00     0.028 A 
ATOM     14  C   UNL A   1      32.937  24.345  21.248  1.00  0.00     0.002 A 
ATOM     15  C   UNL A   1      32.306  25.372  23.361  1.00  0.00     0.017 A 
ATOM     16  C   UNL A   1      32.298  25.359  21.955  1.00  0.00     0.001 A 
BRANCH  12  17
ATOM     17  N   UNL A   1      34.240  22.256  23.994  1.00  0.00    -0.317 N 
ATOM     18  C   UNL A   1      36.528  23.359  24.109  1.00  0.00     0.065 C 
ATOM     19  C   UNL A   1      35.586  22.225  24.334  1.00  0.00     0.020 A 
ATOM     20  C   UNL A   1      35.851  20.997  24.907  1.00  0.00     0.023 A 
ATOM     21  C   UNL A   1      34.633  20.296  25.001  1.00  0.00     0.023 A 
ATOM     22  C   UNL A   1      33.638  21.096  24.470  1.00  0.00     0.020 A 
ATOM     23  C   UNL A   1      32.193  20.765  24.322  1.00  0.00     0.065 C 
ENDBRANCH  12  17
ENDBRANCH  10  11
ENDBRANCH   8  10
ENDBRANCH   5   8
ENDBRANCH   3   4
ENDBRANCH   2   3
ENDBRANCH   1   2
BRANCH   1  24
ATOM     24  C   UNL A   1      33.655  30.872  27.568  1.00  0.00     0.002 C 
BRANCH  24  25
ATOM     25  C   UNL A   1      34.634  32.063  27.906  1.00  0.00     0.021 C 
BRANCH  25  26
ATOM     26  C   UNL A   1      34.954  32.587  29.388  1.00  0.00     0.116 C 
BRANCH  26  27
ATOM     27  N   UNL A   1      35.505  31.527  30.313  1.00  0.00    -0.352 N 
ATOM     28  C   UNL A   1      36.424  30.463  30.378  1.00  0.00     0.251 C 
ATOM     29  H   UNL A   1      35.060  31.612  31.188  1.00  0.00     0.163 HD
ATOM     30  O   UNL A   1      36.336  29.825  31.444  1.00  0.00    -0.269 OA
BRANCH  28  31
ATOM     31  C   UNL A   1      37.496  29.923  29.412  1.00  0.00     0.039 A 
ATOM     32  C   UNL A   1      38.850  29.776  29.834  1.00  0.00     0.014 A 
ATOM     33  C   UNL A   1      37.375  29.828  28.040  1.00  0.00     0.014 A 
ATOM     34  C   UNL A   1      39.952  29.279  28.989  1.00  0.00     0.010 A 
ATOM     35  C   UNL A   1      38.525  29.468  27.192  1.00  0.00     0.010 A 
ATOM     36  C   UNL A   1      39.809  28.985  27.618  1.00  0.00    -0.014 A 
BRANCH  36  37
ATOM     37  C   UNL A   1      40.415  27.522  27.025  1.00  0.00     0.031 A 
ATOM     38  C   UNL A   1      41.572  27.982  26.175  1.00  0.00     0.074 A 
ATOM     39  C   UNL A   1      40.502  26.122  27.255  1.00  0.00     0.049 A 
ATOM     40  N   UNL A   1      42.307  28.933  26.678  1.00  0.00    -0.248 NA
ATOM     41  C   UNL A   1      42.235  27.299  25.073  1.00  0.00     0.031 C 
ATOM     42  C   UNL A   1      39.901  25.263  28.303  1.00  0.00     0.029 A 
ATOM     43  N   UNL A   1      41.312  25.105  26.618  1.00  0.00    -0.354 N 
ATOM     44  C   UNL A   1      43.540  28.393  26.613  1.00  0.00     0.074 A 
ATOM     45  C   UNL A   1      43.510  27.574  25.401  1.00  0.00     0.031 C 
ATOM     46  C   UNL A   1      40.297  23.946  28.197  1.00  0.00     0.029 A 
ATOM     47  C   UNL A   1      41.243  23.750  27.095  1.00  0.00     0.049 A 
ATOM     48  H   UNL A   1      41.903  25.338  25.866  1.00  0.00     0.167 HD
ATOM     49  C   UNL A   1      44.291  28.267  27.740  1.00  0.00     0.034 A 
ATOM     50  C   UNL A   1      41.990  22.664  26.619  1.00  0.00     0.034 A 
ATOM     51  C   UNL A   1      45.466  27.482  27.666  1.00  0.00     0.049 A 
ATOM     52  C   UNL A   1      43.351  23.153  27.026  1.00  0.00     0.074 A 
ATOM     53  C   UNL A   1      46.390  27.162  26.701  1.00  0.00     0.029 A 
ATOM     54  N   UNL A   1      45.778  26.716  28.766  1.00  0.00    -0.354 N 
ATOM     55  N   UNL A   1      43.910  22.900  28.182  1.00  0.00    -0.248 NA
ATOM     56  C   UNL A   1      44.236  23.632  25.962  1.00  0.00     0.031 C 
ATOM     57  C   UNL A   1      46.872  25.874  27.072  1.00  0.00     0.029 A 
ATOM     58  C   UNL A   1      46.232  25.523  28.262  1.00  0.00     0.049 A 
ATOM     59  H   UNL A   1      45.694  26.970  29.713  1.00  0.00     0.167 HD
ATOM     60  C   UNL A   1      45.166  23.426  28.014  1.00  0.00     0.074 A 
ATOM     61  C   UNL A   1      45.388  23.428  26.590  1.00  0.00     0.031 C 
ATOM     62  C   UNL A   1      45.672  24.341  28.877  1.00  0.00     0.034 A 
BRANCH  49  63
ATOM     63  C   UNL A   1      43.697  28.569  29.116  1.00  0.00     0.023 A 
ATOM     64  C   UNL A   1      43.055  27.559  29.876  1.00  0.00     0.012 A 
ATOM     65  C   UNL A   1      43.997  29.758  29.782  1.00  0.00     0.148 A 
ATOM     66  C   UNL A   1      42.592  27.784  31.186  1.00  0.00     0.002 A 
ATOM     67  C   UNL A   1      43.616  29.949  31.117  1.00  0.00     0.091 A 
ATOM     68  F   UNL A   1      44.708  30.687  29.125  1.00  0.00    -0.205 F 
ATOM     69  C   UNL A   1      42.868  28.991  31.810  1.00  0.00     0.022 A 
BRANCH  67  70
ATOM     70  S   UNL A   1      44.237  31.384  31.992  1.00  0.00     0.127 S 
ATOM     71  O   UNL A   1      43.680  32.490  31.216  1.00  0.00    -0.237 OA
ATOM     72  O   UNL A   1      43.687  31.252  33.340  1.00  0.00    -0.237 OA
ATOM     73  O   UNL A   1      45.688  31.223  31.923  1.00  0.00    -0.744 OA
ENDBRANCH  67  70
ENDBRANCH  49  63
BRANCH  50  74
ATOM     74  C   UNL A   1      42.344  21.106  26.427  1.00  0.00     0.023 A 
ATOM     75  C   UNL A   1      42.006  20.043  27.277  1.00  0.00     0.012 A 
ATOM     76  C   UNL A   1      43.346  20.747  25.421  1.00  0.00     0.148 A 
ATOM     77  C   UNL A   1      42.641  18.761  27.166  1.00  0.00     0.002 A 
ATOM     78  C   UNL A   1      44.053  19.525  25.395  1.00  0.00     0.091 A 
ATOM     79  F   UNL A   1      43.594  21.611  24.424  1.00  0.00    -0.205 F 
ATOM     80  C   UNL A   1      43.686  18.513  26.266  1.00  0.00     0.022 A 
BRANCH  78  81
ATOM     81  S   UNL A   1      45.546  19.295  24.368  1.00  0.00     0.127 S 
ATOM     82  O   UNL A   1      46.225  18.155  24.990  1.00  0.00    -0.237 OA
ATOM     83  O   UNL A   1      44.992  19.006  23.047  1.00  0.00    -0.237 OA
ATOM     84  O   UNL A   1      46.271  20.556  24.493  1.00  0.00    -0.744 OA
ENDBRANCH  78  81
ENDBRANCH  50  74
BRANCH  62  85
ATOM     85  C   UNL A   1      45.198  24.262  30.301  1.00  0.00     0.023 A 
ATOM     86  C   UNL A   1      44.057  23.480  30.528  1.00  0.00     0.012 A 
ATOM     87  C   UNL A   1      45.775  24.961  31.391  1.00  0.00     0.148 A 
ATOM     88  C   UNL A   1      43.483  23.409  31.798  1.00  0.00     0.002 A 
ATOM     89  C   UNL A   1      45.202  24.885  32.661  1.00  0.00     0.091 A 
ATOM     90  F   UNL A   1      46.871  25.697  31.175  1.00  0.00    -0.205 F 
ATOM     91  C   UNL A   1      44.052  24.109  32.860  1.00  0.00     0.022 A 
BRANCH  89  92
ATOM     92  S   UNL A   1      45.807  25.829  34.075  1.00  0.00     0.127 S 
ATOM     93  O   UNL A   1      44.572  26.061  34.843  1.00  0.00    -0.237 OA
ATOM     94  O   UNL A   1      46.729  24.880  34.716  1.00  0.00    -0.237 OA
ATOM     95  O   UNL A   1      46.418  27.024  33.555  1.00  0.00    -0.744 OA
ENDBRANCH  89  92
ENDBRANCH  62  85
ENDBRANCH  36  37
ENDBRANCH  28  31
ENDBRANCH  26  27
ENDBRANCH  25  26
ENDBRANCH  24  25
ENDBRANCH   1  24
TORSDOF 19
ENDMDL
