MODEL 1
REMARK VINA RESULT:     -11.6      0.000      0.000
REMARK SMILES Nc1cc(C(=O)NCCCCCCNC(=O)c2ccc(-c3c4nc(c(-c5cccc(S(=O)(=O)[O-])c5F)c5ccc([nH]5)c(-c5cccc(S(=O)(=O)[O-])c5F)c5nc(c(-c6cccc(S(=O)(=O)[O-])c6F)c6ccc3[nH]6)C=C5)C=C4)cc2)ccc1N1CC2(CCOCC2)C1
REMARK SMILES IDX 11 1 10 2 9 3 8 4 7 5 5 6 6 7 4 9 2 10 3 11 82 12 81 13
REMARK SMILES IDX 80 14 1 15 83 18 84 19 91 20 85 21 86 22 90 23 87 24 89 25
REMARK SMILES IDX 88 26 12 27 13 28 14 29 15 30 16 32 17 33 18 34 79 35 19 36
REMARK SMILES IDX 78 37 20 38 21 39 22 40 72 41 23 42 77 43 71 44 73 45 24 46
REMARK SMILES IDX 76 47 70 48 69 49 25 51 57 52 37 53 56 54 38 55 41 56 55 57
REMARK SMILES IDX 74 58 39 59 40 60 54 62 75 63 42 64 26 65 27 66 35 67 28 68
REMARK SMILES IDX 30 69 36 70 29 71 31 72 32 73 33 74 34 75 58 76 59 77 67 78
REMARK SMILES IDX 60 79 62 80 68 81 61 82 63 83 64 84 65 85 66 86 43 87 44 88
REMARK SMILES IDX 52 89 45 90 47 91 53 92 46 93 48 94 49 95 50 96 51 97
REMARK H PARENT 7 8 1 16 1 17 14 31 73 50 41 61
REMARK Flexibility Score: inf
ROOT
ATOM      1  C   UNL A   1      33.790  26.258  25.872  1.00  0.00     0.002 C 
ENDROOT
BRANCH   1   2
ATOM      2  C   UNL A   1      32.923  25.095  26.375  1.00  0.00     0.002 C 
BRANCH   2   3
ATOM      3  C   UNL A   1      33.575  23.711  26.246  1.00  0.00     0.021 C 
BRANCH   3   4
ATOM      4  C   UNL A   1      34.494  23.605  25.028  1.00  0.00     0.116 C 
BRANCH   4   5
ATOM      5  N   UNL A   1      33.838  22.854  23.982  1.00  0.00    -0.352 N 
ATOM      6  C   UNL A   1      32.740  23.069  23.200  1.00  0.00     0.251 C 
ATOM      7  O   UNL A   1      32.418  22.131  22.463  1.00  0.00    -0.269 OA
ATOM      8  H   UNL A   1      34.281  21.996  23.792  1.00  0.00     0.163 HD
BRANCH   6   9
ATOM      9  C   UNL A   1      31.959  24.343  23.129  1.00  0.00     0.041 A 
ATOM     10  C   UNL A   1      32.099  26.721  22.558  1.00  0.00     0.056 A 
ATOM     11  C   UNL A   1      32.647  25.437  22.580  1.00  0.00     0.041 A 
ATOM     12  C   UNL A   1      30.802  26.933  23.070  1.00  0.00     0.060 A 
ATOM     13  C   UNL A   1      30.095  25.844  23.580  1.00  0.00     0.029 A 
ATOM     14  C   UNL A   1      30.652  24.556  23.569  1.00  0.00     0.016 A 
BRANCH  10  15
ATOM     15  N   UNL A   1      32.826  27.758  21.968  1.00  0.00    -0.397 N 
ATOM     16  H   UNL A   1      32.398  28.340  21.300  1.00  0.00     0.156 HD
ATOM     17  H   UNL A   1      33.765  27.906  22.222  1.00  0.00     0.156 HD
ENDBRANCH  10  15
BRANCH  12  18
ATOM     18  N   UNL A   1      30.270  28.226  23.130  1.00  0.00    -0.369 N 
ATOM     19  C   UNL A   1      28.924  28.668  23.281  1.00  0.00     0.125 C 
ATOM     20  C   UNL A   1      30.829  29.475  23.535  1.00  0.00     0.125 C 
ATOM     21  C   UNL A   1      29.492  30.096  23.041  1.00  0.00     0.010 C 
ATOM     22  C   UNL A   1      28.902  31.223  23.880  1.00  0.00     0.039 C 
ATOM     23  C   UNL A   1      29.520  30.512  21.558  1.00  0.00     0.039 C 
ATOM     24  C   UNL A   1      27.524  31.574  23.324  1.00  0.00     0.161 C 
ATOM     25  C   UNL A   1      28.106  30.880  21.131  1.00  0.00     0.161 C 
ATOM     26  O   UNL A   1      27.609  31.946  21.943  1.00  0.00    -0.381 OA
ENDBRANCH  12  18
ENDBRANCH   6   9
ENDBRANCH   4   5
ENDBRANCH   3   4
ENDBRANCH   2   3
ENDBRANCH   1   2
BRANCH   1  27
ATOM     27  C   UNL A   1      33.361  27.637  26.381  1.00  0.00     0.021 C 
BRANCH  27  28
ATOM     28  C   UNL A   1      34.154  28.789  25.776  1.00  0.00     0.116 C 
BRANCH  28  29
ATOM     29  N   UNL A   1      33.867  30.043  26.457  1.00  0.00    -0.352 N 
ATOM     30  C   UNL A   1      34.479  30.586  27.558  1.00  0.00     0.251 C 
ATOM     31  H   UNL A   1      33.131  30.574  26.075  1.00  0.00     0.163 HD
ATOM     32  O   UNL A   1      33.951  31.513  28.163  1.00  0.00    -0.269 OA
BRANCH  30  33
ATOM     33  C   UNL A   1      35.777  30.043  28.007  1.00  0.00     0.039 A 
ATOM     34  C   UNL A   1      36.901  30.207  27.195  1.00  0.00     0.014 A 
ATOM     35  C   UNL A   1      35.877  29.364  29.225  1.00  0.00     0.014 A 
ATOM     36  C   UNL A   1      38.138  29.729  27.630  1.00  0.00     0.010 A 
ATOM     37  C   UNL A   1      37.123  28.959  29.690  1.00  0.00     0.010 A 
ATOM     38  C   UNL A   1      38.264  29.125  28.892  1.00  0.00    -0.014 A 
BRANCH  38  39
ATOM     39  C   UNL A   1      39.580  28.661  29.396  1.00  0.00     0.031 A 
ATOM     40  C   UNL A   1      40.270  29.406  30.506  1.00  0.00     0.074 A 
ATOM     41  C   UNL A   1      40.190  27.619  28.797  1.00  0.00     0.049 A 
ATOM     42  N   UNL A   1      41.445  29.187  31.038  1.00  0.00    -0.248 NA
ATOM     43  C   UNL A   1      39.564  30.567  31.074  1.00  0.00     0.031 C 
ATOM     44  C   UNL A   1      39.654  26.866  27.660  1.00  0.00     0.029 A 
ATOM     45  N   UNL A   1      41.405  27.030  29.042  1.00  0.00    -0.354 N 
ATOM     46  C   UNL A   1      41.633  30.198  31.973  1.00  0.00     0.074 A 
ATOM     47  C   UNL A   1      40.468  31.053  31.911  1.00  0.00     0.031 C 
ATOM     48  C   UNL A   1      40.534  25.913  27.310  1.00  0.00     0.029 A 
ATOM     49  C   UNL A   1      41.707  26.009  28.172  1.00  0.00     0.049 A 
ATOM     50  H   UNL A   1      42.003  27.314  29.770  1.00  0.00     0.167 HD
ATOM     51  C   UNL A   1      42.667  30.382  32.826  1.00  0.00     0.034 A 
ATOM     52  C   UNL A   1      42.811  25.242  28.074  1.00  0.00     0.034 A 
ATOM     53  C   UNL A   1      43.805  29.506  32.910  1.00  0.00     0.049 A 
ATOM     54  C   UNL A   1      43.931  25.446  29.056  1.00  0.00     0.074 A 
ATOM     55  C   UNL A   1      44.864  29.555  33.799  1.00  0.00     0.029 A 
ATOM     56  N   UNL A   1      44.038  28.430  32.068  1.00  0.00    -0.354 N 
ATOM     57  N   UNL A   1      44.020  26.312  30.037  1.00  0.00    -0.248 NA
ATOM     58  C   UNL A   1      45.086  24.544  28.944  1.00  0.00     0.031 C 
ATOM     59  C   UNL A   1      45.754  28.526  33.473  1.00  0.00     0.029 A 
ATOM     60  C   UNL A   1      45.229  27.813  32.408  1.00  0.00     0.049 A 
ATOM     61  H   UNL A   1      43.444  28.145  31.337  1.00  0.00     0.167 HD
ATOM     62  C   UNL A   1      45.219  26.033  30.683  1.00  0.00     0.074 A 
ATOM     63  C   UNL A   1      45.813  24.906  29.993  1.00  0.00     0.031 C 
ATOM     64  C   UNL A   1      45.782  26.660  31.746  1.00  0.00     0.034 A 
BRANCH  51  65
ATOM     65  C   UNL A   1      42.599  31.554  33.772  1.00  0.00     0.023 A 
ATOM     66  C   UNL A   1      43.078  32.815  33.359  1.00  0.00     0.012 A 
ATOM     67  C   UNL A   1      42.006  31.423  35.044  1.00  0.00     0.148 A 
ATOM     68  C   UNL A   1      43.002  33.917  34.209  1.00  0.00     0.002 A 
ATOM     69  C   UNL A   1      41.891  32.539  35.865  1.00  0.00     0.091 A 
ATOM     70  F   UNL A   1      41.575  30.214  35.427  1.00  0.00    -0.205 F 
ATOM     71  C   UNL A   1      42.400  33.781  35.456  1.00  0.00     0.022 A 
BRANCH  69  72
ATOM     72  S   UNL A   1      41.057  32.488  37.456  1.00  0.00     0.127 S 
ATOM     73  O   UNL A   1      39.754  31.937  37.088  1.00  0.00    -0.237 OA
ATOM     74  O   UNL A   1      41.910  31.579  38.221  1.00  0.00    -0.237 OA
ATOM     75  O   UNL A   1      41.039  33.860  37.944  1.00  0.00    -0.744 OA
ENDBRANCH  69  72
ENDBRANCH  51  65
BRANCH  52  76
ATOM     76  C   UNL A   1      42.884  24.171  27.039  1.00  0.00     0.023 A 
ATOM     77  C   UNL A   1      43.628  24.391  25.865  1.00  0.00     0.012 A 
ATOM     78  C   UNL A   1      42.243  22.931  27.225  1.00  0.00     0.148 A 
ATOM     79  C   UNL A   1      43.701  23.410  24.875  1.00  0.00     0.002 A 
ATOM     80  C   UNL A   1      42.366  21.937  26.261  1.00  0.00     0.091 A 
ATOM     81  F   UNL A   1      41.533  22.744  28.346  1.00  0.00    -0.205 F 
ATOM     82  C   UNL A   1      43.079  22.181  25.077  1.00  0.00     0.022 A 
BRANCH  80  83
ATOM     83  S   UNL A   1      41.711  20.281  26.495  1.00  0.00     0.127 S 
ATOM     84  O   UNL A   1      42.315  19.898  27.768  1.00  0.00    -0.237 OA
ATOM     85  O   UNL A   1      40.270  20.532  26.546  1.00  0.00    -0.237 OA
ATOM     86  O   UNL A   1      42.145  19.517  25.332  1.00  0.00    -0.744 OA
ENDBRANCH  80  83
ENDBRANCH  52  76
BRANCH  64  87
ATOM     87  C   UNL A   1      47.088  26.117  32.268  1.00  0.00     0.023 A 
ATOM     88  C   UNL A   1      48.308  26.642  31.799  1.00  0.00     0.012 A 
ATOM     89  C   UNL A   1      47.097  25.141  33.283  1.00  0.00     0.148 A 
ATOM     90  C   UNL A   1      49.519  26.178  32.310  1.00  0.00     0.002 A 
ATOM     91  C   UNL A   1      48.306  24.722  33.825  1.00  0.00     0.091 A 
ATOM     92  F   UNL A   1      45.925  24.642  33.703  1.00  0.00    -0.205 F 
ATOM     93  C   UNL A   1      49.518  25.229  33.331  1.00  0.00     0.022 A 
BRANCH  91  94
ATOM     94  S   UNL A   1      48.398  23.582  35.210  1.00  0.00     0.127 S 
ATOM     95  O   UNL A   1      47.642  24.299  36.235  1.00  0.00    -0.237 OA
ATOM     96  O   UNL A   1      47.730  22.395  34.676  1.00  0.00    -0.237 OA
ATOM     97  O   UNL A   1      49.816  23.404  35.492  1.00  0.00    -0.744 OA
ENDBRANCH  91  94
ENDBRANCH  64  87
ENDBRANCH  38  39
ENDBRANCH  30  33
ENDBRANCH  28  29
ENDBRANCH  27  28
ENDBRANCH   1  27
TORSDOF 18
ENDMDL
MODEL 2
REMARK VINA RESULT:     -11.6      2.429      5.067
REMARK SMILES Nc1cc(C(=O)NCCCCCCNC(=O)c2ccc(-c3c4nc(c(-c5cccc(S(=O)(=O)[O-])c5F)c5ccc([nH]5)c(-c5cccc(S(=O)(=O)[O-])c5F)c5nc(c(-c6cccc(S(=O)(=O)[O-])c6F)c6ccc3[nH]6)C=C5)C=C4)cc2)ccc1N1CC2(CCOCC2)C1
REMARK SMILES IDX 11 1 10 2 9 3 8 4 7 5 5 6 6 7 4 9 2 10 3 11 82 12 81 13
REMARK SMILES IDX 80 14 1 15 83 18 84 19 91 20 85 21 86 22 90 23 87 24 89 25
REMARK SMILES IDX 88 26 12 27 13 28 14 29 15 30 16 32 17 33 18 34 79 35 19 36
REMARK SMILES IDX 78 37 20 38 21 39 22 40 72 41 23 42 77 43 71 44 73 45 24 46
REMARK SMILES IDX 76 47 70 48 69 49 25 51 57 52 37 53 56 54 38 55 41 56 55 57
REMARK SMILES IDX 74 58 39 59 40 60 54 62 75 63 42 64 26 65 27 66 35 67 28 68
REMARK SMILES IDX 30 69 36 70 29 71 31 72 32 73 33 74 34 75 58 76 59 77 67 78
REMARK SMILES IDX 60 79 62 80 68 81 61 82 63 83 64 84 65 85 66 86 43 87 44 88
REMARK SMILES IDX 52 89 45 90 47 91 53 92 46 93 48 94 49 95 50 96 51 97
REMARK H PARENT 7 8 1 16 1 17 14 31 73 50 41 61
REMARK Flexibility Score: inf
ROOT
ATOM      1  C   UNL A   1      31.171  29.635  24.920  1.00  0.00     0.002 C 
ENDROOT
BRANCH   1   2
ATOM      2  C   UNL A   1      31.035  28.747  23.674  1.00  0.00     0.002 C 
BRANCH   2   3
ATOM      3  C   UNL A   1      30.092  27.548  23.845  1.00  0.00     0.021 C 
BRANCH   3   4
ATOM      4  C   UNL A   1      30.621  26.283  23.167  1.00  0.00     0.116 C 
BRANCH   4   5
ATOM      5  N   UNL A   1      31.926  26.540  22.602  1.00  0.00    -0.352 N 
ATOM      6  C   UNL A   1      33.096  25.839  22.548  1.00  0.00     0.251 C 
ATOM      7  O   UNL A   1      34.055  26.440  22.050  1.00  0.00    -0.269 OA
ATOM      8  H   UNL A   1      31.983  27.416  22.156  1.00  0.00     0.163 HD
BRANCH   6   9
ATOM      9  C   UNL A   1      33.279  24.418  22.979  1.00  0.00     0.041 A 
ATOM     10  C   UNL A   1      32.524  22.120  22.593  1.00  0.00     0.056 A 
ATOM     11  C   UNL A   1      32.554  23.470  22.238  1.00  0.00     0.041 A 
ATOM     12  C   UNL A   1      33.265  21.676  23.708  1.00  0.00     0.060 A 
ATOM     13  C   UNL A   1      34.020  22.604  24.425  1.00  0.00     0.029 A 
ATOM     14  C   UNL A   1      34.060  23.952  24.037  1.00  0.00     0.016 A 
BRANCH  10  15
ATOM     15  N   UNL A   1      31.808  21.226  21.793  1.00  0.00    -0.397 N 
ATOM     16  H   UNL A   1      30.971  20.829  22.126  1.00  0.00     0.156 HD
ATOM     17  H   UNL A   1      32.139  20.994  20.896  1.00  0.00     0.156 HD
ENDBRANCH  10  15
BRANCH  12  18
ATOM     18  N   UNL A   1      33.180  20.343  24.125  1.00  0.00    -0.369 N 
ATOM     19  C   UNL A   1      34.195  19.443  24.560  1.00  0.00     0.125 C 
ATOM     20  C   UNL A   1      32.121  19.587  24.710  1.00  0.00     0.125 C 
ATOM     21  C   UNL A   1      33.072  18.366  24.561  1.00  0.00     0.010 C 
ATOM     22  C   UNL A   1      33.084  17.357  25.702  1.00  0.00     0.039 C 
ATOM     23  C   UNL A   1      32.918  17.629  23.216  1.00  0.00     0.039 C 
ATOM     24  C   UNL A   1      34.192  16.339  25.439  1.00  0.00     0.161 C 
ATOM     25  C   UNL A   1      34.046  16.616  23.087  1.00  0.00     0.161 C 
ATOM     26  O   UNL A   1      34.002  15.691  24.176  1.00  0.00    -0.381 OA
ENDBRANCH  12  18
ENDBRANCH   6   9
ENDBRANCH   4   5
ENDBRANCH   3   4
ENDBRANCH   2   3
ENDBRANCH   1   2
BRANCH   1  27
ATOM     27  C   UNL A   1      31.771  28.931  26.140  1.00  0.00     0.021 C 
BRANCH  27  28
ATOM     28  C   UNL A   1      33.121  29.492  26.570  1.00  0.00     0.116 C 
BRANCH  28  29
ATOM     29  N   UNL A   1      33.059  30.934  26.755  1.00  0.00    -0.352 N 
ATOM     30  C   UNL A   1      33.827  31.734  27.562  1.00  0.00     0.251 C 
ATOM     31  H   UNL A   1      32.369  31.399  26.229  1.00  0.00     0.163 HD
ATOM     32  O   UNL A   1      33.477  32.885  27.802  1.00  0.00    -0.269 OA
BRANCH  30  33
ATOM     33  C   UNL A   1      35.076  31.196  28.138  1.00  0.00     0.039 A 
ATOM     34  C   UNL A   1      36.227  31.988  28.127  1.00  0.00     0.014 A 
ATOM     35  C   UNL A   1      35.109  29.908  28.678  1.00  0.00     0.014 A 
ATOM     36  C   UNL A   1      37.401  31.501  28.703  1.00  0.00     0.010 A 
ATOM     37  C   UNL A   1      36.257  29.456  29.320  1.00  0.00     0.010 A 
ATOM     38  C   UNL A   1      37.418  30.242  29.327  1.00  0.00    -0.014 A 
BRANCH  38  39
ATOM     39  C   UNL A   1      38.641  29.730  29.994  1.00  0.00     0.031 A 
ATOM     40  C   UNL A   1      39.065  30.286  31.326  1.00  0.00     0.074 A 
ATOM     41  C   UNL A   1      39.413  28.825  29.359  1.00  0.00     0.049 A 
ATOM     42  N   UNL A   1      40.129  30.006  32.033  1.00  0.00    -0.248 NA
ATOM     43  C   UNL A   1      38.198  31.311  31.931  1.00  0.00     0.031 C 
ATOM     44  C   UNL A   1      39.146  28.270  28.030  1.00  0.00     0.029 A 
ATOM     45  N   UNL A   1      40.593  28.234  29.735  1.00  0.00    -0.354 N 
ATOM     46  C   UNL A   1      40.078  30.842  33.143  1.00  0.00     0.074 A 
ATOM     47  C   UNL A   1      38.897  31.664  32.998  1.00  0.00     0.031 C 
ATOM     48  C   UNL A   1      40.130  27.417  27.705  1.00  0.00     0.029 A 
ATOM     49  C   UNL A   1      41.113  27.389  28.783  1.00  0.00     0.049 A 
ATOM     50  H   UNL A   1      41.025  28.400  30.603  1.00  0.00     0.167 HD
ATOM     51  C   UNL A   1      40.921  30.899  34.200  1.00  0.00     0.034 A 
ATOM     52  C   UNL A   1      42.258  26.679  28.775  1.00  0.00     0.034 A 
ATOM     53  C   UNL A   1      42.072  30.051  34.357  1.00  0.00     0.049 A 
ATOM     54  C   UNL A   1      43.160  26.736  29.978  1.00  0.00     0.074 A 
ATOM     55  C   UNL A   1      42.940  29.970  35.431  1.00  0.00     0.029 A 
ATOM     56  N   UNL A   1      42.522  29.145  33.409  1.00  0.00    -0.354 N 
ATOM     57  N   UNL A   1      43.011  27.418  31.088  1.00  0.00    -0.248 NA
ATOM     58  C   UNL A   1      44.366  25.897  29.945  1.00  0.00     0.031 C 
ATOM     59  C   UNL A   1      43.934  29.037  35.119  1.00  0.00     0.029 A 
ATOM     60  C   UNL A   1      43.662  28.509  33.867  1.00  0.00     0.049 A 
ATOM     61  H   UNL A   1      42.094  28.979  32.538  1.00  0.00     0.167 HD
ATOM     62  C   UNL A   1      44.081  27.060  31.900  1.00  0.00     0.074 A 
ATOM     63  C   UNL A   1      44.860  26.087  31.161  1.00  0.00     0.031 C 
ATOM     64  C   UNL A   1      44.397  27.504  33.142  1.00  0.00     0.034 A 
BRANCH  51  65
ATOM     65  C   UNL A   1      40.606  31.884  35.297  1.00  0.00     0.023 A 
ATOM     66  C   UNL A   1      41.385  33.053  35.431  1.00  0.00     0.012 A 
ATOM     67  C   UNL A   1      39.507  31.685  36.156  1.00  0.00     0.148 A 
ATOM     68  C   UNL A   1      41.098  33.988  36.424  1.00  0.00     0.002 A 
ATOM     69  C   UNL A   1      39.197  32.647  37.110  1.00  0.00     0.091 A 
ATOM     70  F   UNL A   1      38.791  30.560  36.027  1.00  0.00    -0.205 F 
ATOM     71  C   UNL A   1      39.999  33.791  37.254  1.00  0.00     0.022 A 
BRANCH  69  72
ATOM     72  S   UNL A   1      37.755  32.528  38.174  1.00  0.00     0.127 S 
ATOM     73  O   UNL A   1      38.063  33.524  39.200  1.00  0.00    -0.237 OA
ATOM     74  O   UNL A   1      36.671  32.904  37.266  1.00  0.00    -0.237 OA
ATOM     75  O   UNL A   1      37.710  31.149  38.638  1.00  0.00    -0.744 OA
ENDBRANCH  69  72
ENDBRANCH  51  65
BRANCH  52  76
ATOM     76  C   UNL A   1      42.588  25.809  27.611  1.00  0.00     0.023 A 
ATOM     77  C   UNL A   1      43.416  26.305  26.586  1.00  0.00     0.012 A 
ATOM     78  C   UNL A   1      42.106  24.488  27.526  1.00  0.00     0.148 A 
ATOM     79  C   UNL A   1      43.728  25.516  25.478  1.00  0.00     0.002 A 
ATOM     80  C   UNL A   1      42.467  23.687  26.448  1.00  0.00     0.091 A 
ATOM     81  F   UNL A   1      41.313  24.036  28.508  1.00  0.00    -0.205 F 
ATOM     82  C   UNL A   1      43.263  24.205  25.414  1.00  0.00     0.022 A 
BRANCH  80  83
ATOM     83  S   UNL A   1      42.024  21.950  26.348  1.00  0.00     0.127 S 
ATOM     84  O   UNL A   1      42.897  21.480  25.276  1.00  0.00    -0.237 OA
ATOM     85  O   UNL A   1      42.375  21.472  27.686  1.00  0.00    -0.237 OA
ATOM     86  O   UNL A   1      40.596  21.924  26.059  1.00  0.00    -0.744 OA
ENDBRANCH  80  83
ENDBRANCH  52  76
BRANCH  64  87
ATOM     87  C   UNL A   1      45.610  26.912  33.811  1.00  0.00     0.023 A 
ATOM     88  C   UNL A   1      46.855  27.564  33.720  1.00  0.00     0.012 A 
ATOM     89  C   UNL A   1      45.493  25.748  34.596  1.00  0.00     0.148 A 
ATOM     90  C   UNL A   1      47.973  27.047  34.374  1.00  0.00     0.002 A 
ATOM     91  C   UNL A   1      46.598  25.269  35.288  1.00  0.00     0.091 A 
ATOM     92  F   UNL A   1      44.302  25.133  34.655  1.00  0.00    -0.205 F 
ATOM     93  C   UNL A   1      47.842  25.909  35.167  1.00  0.00     0.022 A 
BRANCH  91  94
ATOM     94  S   UNL A   1      46.501  23.871  36.412  1.00  0.00     0.127 S 
ATOM     95  O   UNL A   1      46.172  22.779  35.498  1.00  0.00    -0.237 OA
ATOM     96  O   UNL A   1      47.856  23.822  36.962  1.00  0.00    -0.237 OA
ATOM     97  O   UNL A   1      45.466  24.206  37.381  1.00  0.00    -0.744 OA
ENDBRANCH  91  94
ENDBRANCH  64  87
ENDBRANCH  38  39
ENDBRANCH  30  33
ENDBRANCH  28  29
ENDBRANCH  27  28
ENDBRANCH   1  27
TORSDOF 18
ENDMDL
MODEL 3
REMARK VINA RESULT:     -11.5      5.136      7.841
REMARK SMILES Nc1cc(C(=O)NCCCCCCNC(=O)c2ccc(-c3c4nc(c(-c5cccc(S(=O)(=O)[O-])c5F)c5ccc([nH]5)c(-c5cccc(S(=O)(=O)[O-])c5F)c5nc(c(-c6cccc(S(=O)(=O)[O-])c6F)c6ccc3[nH]6)C=C5)C=C4)cc2)ccc1N1CC2(CCOCC2)C1
REMARK SMILES IDX 11 1 10 2 9 3 8 4 7 5 5 6 6 7 4 9 2 10 3 11 82 12 81 13
REMARK SMILES IDX 80 14 1 15 83 18 84 19 91 20 85 21 86 22 90 23 87 24 89 25
REMARK SMILES IDX 88 26 12 27 13 28 14 29 15 30 16 32 17 33 18 34 79 35 19 36
REMARK SMILES IDX 78 37 20 38 21 39 22 40 72 41 23 42 77 43 71 44 73 45 24 46
REMARK SMILES IDX 76 47 70 48 69 49 25 51 57 52 37 53 56 54 38 55 41 56 55 57
REMARK SMILES IDX 74 58 39 59 40 60 54 62 75 63 42 64 26 65 27 66 35 67 28 68
REMARK SMILES IDX 30 69 36 70 29 71 31 72 32 73 33 74 34 75 58 76 59 77 67 78
REMARK SMILES IDX 60 79 62 80 68 81 61 82 63 83 64 84 65 85 66 86 43 87 44 88
REMARK SMILES IDX 52 89 45 90 47 91 53 92 46 93 48 94 49 95 50 96 51 97
REMARK H PARENT 7 8 1 16 1 17 14 31 73 50 41 61
REMARK Flexibility Score: inf
ROOT
ATOM      1  C   UNL A   1      36.592  20.302  24.630  1.00  0.00     0.002 C 
ENDROOT
BRANCH   1   2
ATOM      2  C   UNL A   1      36.909  21.804  24.660  1.00  0.00     0.002 C 
BRANCH   2   3
ATOM      3  C   UNL A   1      36.125  22.642  23.641  1.00  0.00     0.021 C 
BRANCH   3   4
ATOM      4  C   UNL A   1      34.738  23.040  24.150  1.00  0.00     0.116 C 
BRANCH   4   5
ATOM      5  N   UNL A   1      33.729  22.231  23.505  1.00  0.00    -0.352 N 
ATOM      6  C   UNL A   1      32.436  22.445  23.124  1.00  0.00     0.251 C 
ATOM      7  O   UNL A   1      31.842  21.458  22.677  1.00  0.00    -0.269 OA
ATOM      8  H   UNL A   1      34.046  21.323  23.294  1.00  0.00     0.163 HD
BRANCH   6   9
ATOM      9  C   UNL A   1      31.728  23.762  23.152  1.00  0.00     0.041 A 
ATOM     10  C   UNL A   1      31.735  26.032  22.230  1.00  0.00     0.056 A 
ATOM     11  C   UNL A   1      32.209  24.719  22.242  1.00  0.00     0.041 A 
ATOM     12  C   UNL A   1      30.721  26.415  23.133  1.00  0.00     0.060 A 
ATOM     13  C   UNL A   1      30.210  25.460  24.012  1.00  0.00     0.029 A 
ATOM     14  C   UNL A   1      30.679  24.138  23.990  1.00  0.00     0.016 A 
BRANCH  10  15
ATOM     15  N   UNL A   1      32.234  26.923  21.277  1.00  0.00    -0.397 N 
ATOM     16  H   UNL A   1      31.631  27.315  20.606  1.00  0.00     0.156 HD
ATOM     17  H   UNL A   1      33.190  27.160  21.278  1.00  0.00     0.156 HD
ENDBRANCH  10  15
BRANCH  12  18
ATOM     18  N   UNL A   1      30.294  27.746  23.189  1.00  0.00    -0.369 N 
ATOM     19  C   UNL A   1      28.982  28.294  23.293  1.00  0.00     0.125 C 
ATOM     20  C   UNL A   1      30.934  28.941  23.633  1.00  0.00     0.125 C 
ATOM     21  C   UNL A   1      29.673  29.673  23.095  1.00  0.00     0.010 C 
ATOM     22  C   UNL A   1      29.143  30.836  23.926  1.00  0.00     0.039 C 
ATOM     23  C   UNL A   1      29.795  30.102  21.620  1.00  0.00     0.039 C 
ATOM     24  C   UNL A   1      27.821  31.303  23.321  1.00  0.00     0.161 C 
ATOM     25  C   UNL A   1      28.433  30.588  21.143  1.00  0.00     0.161 C 
ATOM     26  O   UNL A   1      27.992  31.682  21.950  1.00  0.00    -0.381 OA
ENDBRANCH  12  18
ENDBRANCH   6   9
ENDBRANCH   4   5
ENDBRANCH   3   4
ENDBRANCH   2   3
ENDBRANCH   1   2
BRANCH   1  27
ATOM     27  C   UNL A   1      37.778  19.394  24.965  1.00  0.00     0.021 C 
BRANCH  27  28
ATOM     28  C   UNL A   1      38.882  20.091  25.751  1.00  0.00     0.116 C 
BRANCH  28  29
ATOM     29  N   UNL A   1      40.012  19.202  25.977  1.00  0.00    -0.352 N 
ATOM     30  C   UNL A   1      41.334  19.516  26.162  1.00  0.00     0.251 C 
ATOM     31  H   UNL A   1      39.797  18.241  25.998  1.00  0.00     0.163 HD
ATOM     32  O   UNL A   1      42.193  18.645  26.075  1.00  0.00    -0.269 OA
BRANCH  30  33
ATOM     33  C   UNL A   1      41.711  20.912  26.464  1.00  0.00     0.039 A 
ATOM     34  C   UNL A   1      42.063  21.254  27.772  1.00  0.00     0.014 A 
ATOM     35  C   UNL A   1      41.708  21.880  25.457  1.00  0.00     0.014 A 
ATOM     36  C   UNL A   1      42.456  22.562  28.058  1.00  0.00     0.010 A 
ATOM     37  C   UNL A   1      42.174  23.161  25.727  1.00  0.00     0.010 A 
ATOM     38  C   UNL A   1      42.540  23.519  27.033  1.00  0.00    -0.014 A 
BRANCH  38  39
ATOM     39  C   UNL A   1      43.009  24.901  27.306  1.00  0.00     0.031 A 
ATOM     40  C   UNL A   1      42.097  25.890  27.978  1.00  0.00     0.074 A 
ATOM     41  C   UNL A   1      44.226  25.285  26.871  1.00  0.00     0.049 A 
ATOM     42  N   UNL A   1      42.308  27.152  28.247  1.00  0.00    -0.248 NA
ATOM     43  C   UNL A   1      40.763  25.409  28.376  1.00  0.00     0.031 C 
ATOM     44  C   UNL A   1      45.168  24.438  26.137  1.00  0.00     0.029 A 
ATOM     45  N   UNL A   1      44.866  26.496  26.959  1.00  0.00    -0.354 N 
ATOM     46  C   UNL A   1      41.127  27.623  28.809  1.00  0.00     0.074 A 
ATOM     47  C   UNL A   1      40.191  26.521  28.810  1.00  0.00     0.031 C 
ATOM     48  C   UNL A   1      46.268  25.153  25.847  1.00  0.00     0.029 A 
ATOM     49  C   UNL A   1      46.095  26.515  26.341  1.00  0.00     0.049 A 
ATOM     50  H   UNL A   1      44.482  27.276  27.419  1.00  0.00     0.167 HD
ATOM     51  C   UNL A   1      40.856  28.853  29.306  1.00  0.00     0.034 A 
ATOM     52  C   UNL A   1      46.979  27.519  26.182  1.00  0.00     0.034 A 
ATOM     53  C   UNL A   1      41.804  29.933  29.338  1.00  0.00     0.049 A 
ATOM     54  C   UNL A   1      46.666  28.866  26.774  1.00  0.00     0.074 A 
ATOM     55  C   UNL A   1      41.657  31.190  29.897  1.00  0.00     0.029 A 
ATOM     56  N   UNL A   1      43.072  29.890  28.778  1.00  0.00    -0.354 N 
ATOM     57  N   UNL A   1      45.604  29.247  27.441  1.00  0.00    -0.248 NA
ATOM     58  C   UNL A   1      47.689  29.911  26.625  1.00  0.00     0.031 C 
ATOM     59  C   UNL A   1      42.826  31.918  29.647  1.00  0.00     0.029 A 
ATOM     60  C   UNL A   1      43.714  31.101  28.967  1.00  0.00     0.049 A 
ATOM     61  H   UNL A   1      43.458  29.113  28.314  1.00  0.00     0.167 HD
ATOM     62  C   UNL A   1      45.847  30.560  27.826  1.00  0.00     0.074 A 
ATOM     63  C   UNL A   1      47.165  30.903  27.333  1.00  0.00     0.031 C 
ATOM     64  C   UNL A   1      45.047  31.410  28.517  1.00  0.00     0.034 A 
BRANCH  51  65
ATOM     65  C   UNL A   1      39.490  29.086  29.899  1.00  0.00     0.023 A 
ATOM     66  C   UNL A   1      39.222  28.670  31.221  1.00  0.00     0.012 A 
ATOM     67  C   UNL A   1      38.492  29.768  29.175  1.00  0.00     0.148 A 
ATOM     68  C   UNL A   1      37.973  28.897  31.797  1.00  0.00     0.002 A 
ATOM     69  C   UNL A   1      37.267  30.033  29.775  1.00  0.00     0.091 A 
ATOM     70  F   UNL A   1      38.758  30.137  27.914  1.00  0.00    -0.205 F 
ATOM     71  C   UNL A   1      37.001  29.587  31.079  1.00  0.00     0.022 A 
BRANCH  69  72
ATOM     72  S   UNL A   1      35.978  30.988  28.966  1.00  0.00     0.127 S 
ATOM     73  O   UNL A   1      35.136  31.366  30.100  1.00  0.00    -0.237 OA
ATOM     74  O   UNL A   1      36.736  32.090  28.375  1.00  0.00    -0.237 OA
ATOM     75  O   UNL A   1      35.358  30.090  28.002  1.00  0.00    -0.744 OA
ENDBRANCH  69  72
ENDBRANCH  51  65
BRANCH  52  76
ATOM     76  C   UNL A   1      48.270  27.271  25.480  1.00  0.00     0.023 A 
ATOM     77  C   UNL A   1      49.383  26.821  26.214  1.00  0.00     0.012 A 
ATOM     78  C   UNL A   1      48.393  27.455  24.089  1.00  0.00     0.148 A 
ATOM     79  C   UNL A   1      50.608  26.595  25.583  1.00  0.00     0.002 A 
ATOM     80  C   UNL A   1      49.598  27.173  23.457  1.00  0.00     0.091 A 
ATOM     81  F   UNL A   1      47.323  27.892  23.409  1.00  0.00    -0.205 F 
ATOM     82  C   UNL A   1      50.712  26.761  24.204  1.00  0.00     0.022 A 
BRANCH  80  83
ATOM     83  S   UNL A   1      49.787  27.232  21.672  1.00  0.00     0.127 S 
ATOM     84  O   UNL A   1      51.170  26.794  21.502  1.00  0.00    -0.237 OA
ATOM     85  O   UNL A   1      48.775  26.271  21.230  1.00  0.00    -0.237 OA
ATOM     86  O   UNL A   1      49.509  28.611  21.292  1.00  0.00    -0.744 OA
ENDBRANCH  80  83
ENDBRANCH  52  76
BRANCH  64  87
ATOM     87  C   UNL A   1      45.586  32.782  28.830  1.00  0.00     0.023 A 
ATOM     88  C   UNL A   1      46.354  32.990  29.991  1.00  0.00     0.012 A 
ATOM     89  C   UNL A   1      45.393  33.845  27.926  1.00  0.00     0.148 A 
ATOM     90  C   UNL A   1      46.895  34.247  30.265  1.00  0.00     0.002 A 
ATOM     91  C   UNL A   1      45.980  35.080  28.178  1.00  0.00     0.091 A 
ATOM     92  F   UNL A   1      44.643  33.630  26.835  1.00  0.00    -0.205 F 
ATOM     93  C   UNL A   1      46.719  35.286  29.354  1.00  0.00     0.022 A 
BRANCH  91  94
ATOM     94  S   UNL A   1      45.893  36.444  27.014  1.00  0.00     0.127 S 
ATOM     95  O   UNL A   1      44.463  36.753  27.025  1.00  0.00    -0.237 OA
ATOM     96  O   UNL A   1      46.740  37.450  27.654  1.00  0.00    -0.237 OA
ATOM     97  O   UNL A   1      46.409  35.931  25.752  1.00  0.00    -0.744 OA
ENDBRANCH  91  94
ENDBRANCH  64  87
ENDBRANCH  38  39
ENDBRANCH  30  33
ENDBRANCH  28  29
ENDBRANCH  27  28
ENDBRANCH   1  27
TORSDOF 18
ENDMDL
