MODEL 1
REMARK VINA RESULT:     -12.0      0.000      0.000
REMARK SMILES CC(C)c1ccc([C@]2(C(=O)NCCCCCCNC(=O)c3ccc(-c4c5nc(c(-c6cccc(S(=O)(=O)[O-])c6F)c6ccc([nH]6)c(-c6cccc(S(=O)(=O)[O-])c6F)c6nc(c(-c7cccc(S(=O)(=O)[O-])c7F)c7ccc4[nH]7)C=C6)C=C5)cc3)CCC[C@@H]2C)cc1
REMARK SMILES IDX 15 1 14 2 13 3 12 4 11 5 9 6 10 7 8 9 84 10 87 11 85 12
REMARK SMILES IDX 86 13 88 14 7 15 4 16 5 17 90 18 6 19 89 20 2 21 1 22 3 23
REMARK SMILES IDX 16 24 17 25 18 26 19 27 20 29 21 30 22 31 83 32 23 33 82 34
REMARK SMILES IDX 24 35 25 36 26 37 76 38 27 39 81 40 75 41 77 42 28 43 80 44
REMARK SMILES IDX 74 45 73 46 29 48 61 49 41 50 60 51 42 52 45 53 59 54 78 55
REMARK SMILES IDX 43 56 44 57 58 59 79 60 46 61 30 62 31 63 39 64 32 65 34 66
REMARK SMILES IDX 40 67 33 68 35 69 36 70 37 71 38 72 62 73 63 74 71 75 64 76
REMARK SMILES IDX 66 77 72 78 65 79 67 80 68 81 69 82 70 83 47 84 48 85 56 86
REMARK SMILES IDX 49 87 51 88 57 89 50 90 52 91 53 92 54 93 55 94
REMARK H PARENT 11 8 18 28 77 47 45 58
REMARK Flexibility Score: inf
ROOT
ATOM      1  C   UNL A   1      31.023  30.962  25.582  1.00  0.00     0.002 C 
ENDROOT
BRANCH   1   2
ATOM      2  C   UNL A   1      32.094  29.938  25.982  1.00  0.00     0.002 C 
BRANCH   2   3
ATOM      3  C   UNL A   1      31.721  29.008  27.132  1.00  0.00     0.021 C 
BRANCH   3   4
ATOM      4  C   UNL A   1      32.558  27.743  27.235  1.00  0.00     0.116 C 
BRANCH   4   5
ATOM      5  N   UNL A   1      31.810  26.517  27.304  1.00  0.00    -0.355 N 
ATOM      6  C   UNL A   1      31.790  25.414  26.510  1.00  0.00     0.230 C 
ATOM      7  O   UNL A   1      31.321  24.421  27.092  1.00  0.00    -0.274 OA
ATOM      8  H   UNL A   1      31.196  26.468  28.073  1.00  0.00     0.163 HD
BRANCH   6   9
ATOM      9  C   UNL A   1      32.252  25.326  24.977  1.00  0.00     0.077 C 
ATOM     10  C   UNL A   1      33.740  25.728  24.780  1.00  0.00     0.022 C 
ATOM     11  C   UNL A   1      32.217  23.870  24.360  1.00  0.00     0.006 C 
ATOM     12  C   UNL A   1      34.562  24.454  24.534  1.00  0.00     0.002 C 
ATOM     13  C   UNL A   1      33.604  23.270  24.624  1.00  0.00     0.005 C 
ATOM     14  C   UNL A   1      32.044  23.715  22.828  1.00  0.00     0.009 C 
BRANCH   9  15
ATOM     15  C   UNL A   1      31.310  26.328  24.241  1.00  0.00    -0.032 A 
ATOM     16  C   UNL A   1      29.600  28.227  22.951  1.00  0.00    -0.045 A 
ATOM     17  C   UNL A   1      30.986  28.258  22.772  1.00  0.00     0.004 A 
ATOM     18  C   UNL A   1      29.079  27.141  23.671  1.00  0.00     0.004 A 
ATOM     19  C   UNL A   1      31.815  27.298  23.362  1.00  0.00     0.005 A 
ATOM     20  C   UNL A   1      29.915  26.219  24.316  1.00  0.00     0.005 A 
BRANCH  16  21
ATOM     21  C   UNL A   1      28.675  29.278  22.346  1.00  0.00     0.013 C 
ATOM     22  C   UNL A   1      27.282  29.267  23.000  1.00  0.00     0.012 C 
ATOM     23  C   UNL A   1      29.208  30.719  22.414  1.00  0.00     0.012 C 
ENDBRANCH  16  21
ENDBRANCH   9  15
ENDBRANCH   6   9
ENDBRANCH   4   5
ENDBRANCH   3   4
ENDBRANCH   2   3
ENDBRANCH   1   2
BRANCH   1  24
ATOM     24  C   UNL A   1      31.103  32.327  26.276  1.00  0.00     0.021 C 
BRANCH  24  25
ATOM     25  C   UNL A   1      32.351  32.552  27.125  1.00  0.00     0.116 C 
BRANCH  25  26
ATOM     26  N   UNL A   1      32.470  33.935  27.561  1.00  0.00    -0.352 N 
ATOM     27  C   UNL A   1      33.355  34.504  28.442  1.00  0.00     0.251 C 
ATOM     28  H   UNL A   1      31.818  34.557  27.164  1.00  0.00     0.163 HD
ATOM     29  O   UNL A   1      33.160  35.640  28.860  1.00  0.00    -0.269 OA
BRANCH  27  30
ATOM     30  C   UNL A   1      34.537  33.740  28.893  1.00  0.00     0.039 A 
ATOM     31  C   UNL A   1      35.811  34.194  28.542  1.00  0.00     0.014 A 
ATOM     32  C   UNL A   1      34.388  32.578  29.655  1.00  0.00     0.014 A 
ATOM     33  C   UNL A   1      36.940  33.520  29.015  1.00  0.00     0.010 A 
ATOM     34  C   UNL A   1      35.512  31.947  30.179  1.00  0.00     0.010 A 
ATOM     35  C   UNL A   1      36.799  32.416  29.870  1.00  0.00    -0.014 A 
BRANCH  35  36
ATOM     36  C   UNL A   1      37.981  31.773  30.500  1.00  0.00     0.031 A 
ATOM     37  C   UNL A   1      38.733  30.685  29.782  1.00  0.00     0.074 A 
ATOM     38  C   UNL A   1      38.303  32.093  31.769  1.00  0.00     0.049 A 
ATOM     39  N   UNL A   1      39.729  29.955  30.211  1.00  0.00    -0.248 NA
ATOM     40  C   UNL A   1      38.296  30.357  28.414  1.00  0.00     0.031 C 
ATOM     41  C   UNL A   1      37.597  33.073  32.599  1.00  0.00     0.029 A 
ATOM     42  N   UNL A   1      39.279  31.600  32.601  1.00  0.00    -0.354 N 
ATOM     43  C   UNL A   1      40.009  29.054  29.191  1.00  0.00     0.074 A 
ATOM     44  C   UNL A   1      39.070  29.321  28.123  1.00  0.00     0.031 C 
ATOM     45  C   UNL A   1      38.151  33.099  33.821  1.00  0.00     0.029 A 
ATOM     46  C   UNL A   1      39.224  32.111  33.878  1.00  0.00     0.049 A 
ATOM     47  H   UNL A   1      39.953  30.943  32.313  1.00  0.00     0.167 HD
ATOM     48  C   UNL A   1      40.969  28.102  29.145  1.00  0.00     0.034 A 
ATOM     49  C   UNL A   1      39.934  31.800  34.981  1.00  0.00     0.034 A 
ATOM     50  C   UNL A   1      41.928  27.873  30.193  1.00  0.00     0.049 A 
ATOM     51  C   UNL A   1      41.013  30.756  34.885  1.00  0.00     0.074 A 
ATOM     52  C   UNL A   1      43.020  27.022  30.181  1.00  0.00     0.029 A 
ATOM     53  N   UNL A   1      41.898  28.470  31.441  1.00  0.00    -0.354 N 
ATOM     54  N   UNL A   1      41.394  30.058  33.843  1.00  0.00    -0.248 NA
ATOM     55  C   UNL A   1      41.779  30.473  36.109  1.00  0.00     0.031 C 
ATOM     56  C   UNL A   1      43.622  27.070  31.443  1.00  0.00     0.029 A 
ATOM     57  C   UNL A   1      42.928  27.979  32.223  1.00  0.00     0.049 A 
ATOM     58  H   UNL A   1      41.241  29.145  31.729  1.00  0.00     0.167 HD
ATOM     59  C   UNL A   1      42.457  29.275  34.278  1.00  0.00     0.074 A 
ATOM     60  C   UNL A   1      42.681  29.608  35.670  1.00  0.00     0.031 C 
ATOM     61  C   UNL A   1      43.172  28.350  33.593  1.00  0.00     0.034 A 
BRANCH  48  62
ATOM     62  C   UNL A   1      41.067  27.243  27.914  1.00  0.00     0.023 A 
ATOM     63  C   UNL A   1      41.732  27.728  26.771  1.00  0.00     0.012 A 
ATOM     64  C   UNL A   1      40.600  25.913  27.932  1.00  0.00     0.148 A 
ATOM     65  C   UNL A   1      41.917  26.908  25.657  1.00  0.00     0.002 A 
ATOM     66  C   UNL A   1      40.826  25.089  26.837  1.00  0.00     0.091 A 
ATOM     67  F   UNL A   1      39.954  25.479  29.024  1.00  0.00    -0.205 F 
ATOM     68  C   UNL A   1      41.476  25.588  25.696  1.00  0.00     0.022 A 
BRANCH  66  69
ATOM     69  S   UNL A   1      40.373  23.351  26.819  1.00  0.00     0.127 S 
ATOM     70  O   UNL A   1      38.960  23.419  26.447  1.00  0.00    -0.237 OA
ATOM     71  O   UNL A   1      41.252  22.817  25.778  1.00  0.00    -0.237 OA
ATOM     72  O   UNL A   1      40.637  22.850  28.159  1.00  0.00    -0.744 OA
ENDBRANCH  66  69
ENDBRANCH  48  62
BRANCH  49  73
ATOM     73  C   UNL A   1      39.658  32.493  36.272  1.00  0.00     0.023 A 
ATOM     74  C   UNL A   1      40.415  33.625  36.632  1.00  0.00     0.012 A 
ATOM     75  C   UNL A   1      38.654  32.033  37.147  1.00  0.00     0.148 A 
ATOM     76  C   UNL A   1      40.206  34.260  37.858  1.00  0.00     0.002 A 
ATOM     77  C   UNL A   1      38.411  32.706  38.338  1.00  0.00     0.091 A 
ATOM     78  F   UNL A   1      37.955  30.944  36.796  1.00  0.00    -0.205 F 
ATOM     79  C   UNL A   1      39.199  33.806  38.707  1.00  0.00     0.022 A 
BRANCH  77  80
ATOM     80  S   UNL A   1      37.044  32.271  39.419  1.00  0.00     0.127 S 
ATOM     81  O   UNL A   1      37.266  33.161  40.555  1.00  0.00    -0.237 OA
ATOM     82  O   UNL A   1      35.884  32.603  38.593  1.00  0.00    -0.237 OA
ATOM     83  O   UNL A   1      37.196  30.846  39.687  1.00  0.00    -0.744 OA
ENDBRANCH  77  80
ENDBRANCH  49  73
BRANCH  61  84
ATOM     84  C   UNL A   1      44.280  27.636  34.321  1.00  0.00     0.023 A 
ATOM     85  C   UNL A   1      45.535  28.257  34.464  1.00  0.00     0.012 A 
ATOM     86  C   UNL A   1      44.047  26.391  34.939  1.00  0.00     0.148 A 
ATOM     87  C   UNL A   1      46.553  27.638  35.189  1.00  0.00     0.002 A 
ATOM     88  C   UNL A   1      45.050  25.805  35.702  1.00  0.00     0.091 A 
ATOM     89  F   UNL A   1      42.849  25.811  34.778  1.00  0.00    -0.205 F 
ATOM     90  C   UNL A   1      46.306  26.420  35.818  1.00  0.00     0.022 A 
BRANCH  88  91
ATOM     91  S   UNL A   1      44.797  24.287  36.629  1.00  0.00     0.127 S 
ATOM     92  O   UNL A   1      44.276  24.794  37.896  1.00  0.00    -0.237 OA
ATOM     93  O   UNL A   1      43.816  23.582  35.803  1.00  0.00    -0.237 OA
ATOM     94  O   UNL A   1      46.101  23.640  36.710  1.00  0.00    -0.744 OA
ENDBRANCH  88  91
ENDBRANCH  61  84
ENDBRANCH  35  36
ENDBRANCH  27  30
ENDBRANCH  25  26
ENDBRANCH  24  25
ENDBRANCH   1  24
TORSDOF 18
ENDMDL
MODEL 2
REMARK VINA RESULT:     -11.6      2.397      4.156
REMARK SMILES CC(C)c1ccc([C@]2(C(=O)NCCCCCCNC(=O)c3ccc(-c4c5nc(c(-c6cccc(S(=O)(=O)[O-])c6F)c6ccc([nH]6)c(-c6cccc(S(=O)(=O)[O-])c6F)c6nc(c(-c7cccc(S(=O)(=O)[O-])c7F)c7ccc4[nH]7)C=C6)C=C5)cc3)CCC[C@@H]2C)cc1
REMARK SMILES IDX 15 1 14 2 13 3 12 4 11 5 9 6 10 7 8 9 84 10 87 11 85 12
REMARK SMILES IDX 86 13 88 14 7 15 4 16 5 17 90 18 6 19 89 20 2 21 1 22 3 23
REMARK SMILES IDX 16 24 17 25 18 26 19 27 20 29 21 30 22 31 83 32 23 33 82 34
REMARK SMILES IDX 24 35 25 36 26 37 76 38 27 39 81 40 75 41 77 42 28 43 80 44
REMARK SMILES IDX 74 45 73 46 29 48 61 49 41 50 60 51 42 52 45 53 59 54 78 55
REMARK SMILES IDX 43 56 44 57 58 59 79 60 46 61 30 62 31 63 39 64 32 65 34 66
REMARK SMILES IDX 40 67 33 68 35 69 36 70 37 71 38 72 62 73 63 74 71 75 64 76
REMARK SMILES IDX 66 77 72 78 65 79 67 80 68 81 69 82 70 83 47 84 48 85 56 86
REMARK SMILES IDX 49 87 51 88 57 89 50 90 52 91 53 92 54 93 55 94
REMARK H PARENT 11 8 18 28 77 47 45 58
REMARK Flexibility Score: inf
ROOT
ATOM      1  C   UNL A   1      32.199  28.056  23.393  1.00  0.00     0.002 C 
ENDROOT
BRANCH   1   2
ATOM      2  C   UNL A   1      31.161  27.188  22.671  1.00  0.00     0.002 C 
BRANCH   2   3
ATOM      3  C   UNL A   1      30.437  26.164  23.540  1.00  0.00     0.021 C 
BRANCH   3   4
ATOM      4  C   UNL A   1      30.657  24.713  23.146  1.00  0.00     0.116 C 
BRANCH   4   5
ATOM      5  N   UNL A   1      31.873  24.452  22.424  1.00  0.00    -0.355 N 
ATOM      6  C   UNL A   1      32.986  23.739  22.740  1.00  0.00     0.230 C 
ATOM      7  O   UNL A   1      33.644  23.420  21.734  1.00  0.00    -0.274 OA
ATOM      8  H   UNL A   1      31.904  24.868  21.532  1.00  0.00     0.163 HD
BRANCH   6   9
ATOM      9  C   UNL A   1      33.494  23.350  24.211  1.00  0.00     0.077 C 
ATOM     10  C   UNL A   1      34.937  23.850  24.492  1.00  0.00     0.022 C 
ATOM     11  C   UNL A   1      32.676  24.018  25.388  1.00  0.00     0.006 C 
ATOM     12  C   UNL A   1      34.861  25.063  25.430  1.00  0.00     0.002 C 
ATOM     13  C   UNL A   1      33.384  25.345  25.691  1.00  0.00     0.005 C 
ATOM     14  C   UNL A   1      32.640  23.307  26.764  1.00  0.00     0.009 C 
BRANCH   9  15
ATOM     15  C   UNL A   1      33.437  21.792  24.229  1.00  0.00    -0.032 A 
ATOM     16  C   UNL A   1      33.387  18.929  24.195  1.00  0.00    -0.045 A 
ATOM     17  C   UNL A   1      34.456  19.631  24.760  1.00  0.00     0.004 A 
ATOM     18  C   UNL A   1      32.282  19.687  23.779  1.00  0.00     0.004 A 
ATOM     19  C   UNL A   1      34.454  21.029  24.822  1.00  0.00     0.005 A 
ATOM     20  C   UNL A   1      32.310  21.089  23.780  1.00  0.00     0.005 A 
BRANCH  16  21
ATOM     21  C   UNL A   1      33.375  17.408  24.086  1.00  0.00     0.013 C 
ATOM     22  C   UNL A   1      34.031  16.917  22.785  1.00  0.00     0.012 C 
ATOM     23  C   UNL A   1      34.057  16.676  25.255  1.00  0.00     0.012 C 
ENDBRANCH  16  21
ENDBRANCH   9  15
ENDBRANCH   6   9
ENDBRANCH   4   5
ENDBRANCH   3   4
ENDBRANCH   2   3
ENDBRANCH   1   2
BRANCH   1  24
ATOM     24  C   UNL A   1      31.764  28.647  24.740  1.00  0.00     0.021 C 
BRANCH  24  25
ATOM     25  C   UNL A   1      32.881  29.283  25.562  1.00  0.00     0.116 C 
BRANCH  25  26
ATOM     26  N   UNL A   1      32.520  30.609  26.037  1.00  0.00    -0.352 N 
ATOM     27  C   UNL A   1      33.099  31.380  27.014  1.00  0.00     0.251 C 
ATOM     28  H   UNL A   1      31.742  31.017  25.591  1.00  0.00     0.163 HD
ATOM     29  O   UNL A   1      32.519  32.375  27.434  1.00  0.00    -0.269 OA
BRANCH  27  30
ATOM     30  C   UNL A   1      34.417  31.001  27.564  1.00  0.00     0.039 A 
ATOM     31  C   UNL A   1      35.398  31.984  27.709  1.00  0.00     0.014 A 
ATOM     32  C   UNL A   1      34.684  29.678  27.929  1.00  0.00     0.014 A 
ATOM     33  C   UNL A   1      36.627  31.655  28.288  1.00  0.00     0.010 A 
ATOM     34  C   UNL A   1      35.882  29.366  28.565  1.00  0.00     0.010 A 
ATOM     35  C   UNL A   1      36.863  30.352  28.757  1.00  0.00    -0.014 A 
BRANCH  35  36
ATOM     36  C   UNL A   1      38.102  30.015  29.504  1.00  0.00     0.031 A 
ATOM     37  C   UNL A   1      39.104  29.053  28.927  1.00  0.00     0.074 A 
ATOM     38  C   UNL A   1      38.264  30.490  30.755  1.00  0.00     0.049 A 
ATOM     39  N   UNL A   1      40.193  28.577  29.471  1.00  0.00    -0.248 NA
ATOM     40  C   UNL A   1      38.838  28.538  27.572  1.00  0.00     0.031 C 
ATOM     41  C   UNL A   1      37.320  31.365  31.455  1.00  0.00     0.029 A 
ATOM     42  N   UNL A   1      39.257  30.271  31.679  1.00  0.00    -0.354 N 
ATOM     43  C   UNL A   1      40.718  27.677  28.552  1.00  0.00     0.074 A 
ATOM     44  C   UNL A   1      39.822  27.664  27.415  1.00  0.00     0.031 C 
ATOM     45  C   UNL A   1      37.770  31.596  32.699  1.00  0.00     0.029 A 
ATOM     46  C   UNL A   1      39.012  30.857  32.900  1.00  0.00     0.049 A 
ATOM     47  H   UNL A   1      40.067  29.747  31.486  1.00  0.00     0.167 HD
ATOM     48  C   UNL A   1      41.850  26.940  28.642  1.00  0.00     0.034 A 
ATOM     49  C   UNL A   1      39.691  30.782  34.062  1.00  0.00     0.034 A 
ATOM     50  C   UNL A   1      42.759  26.993  29.755  1.00  0.00     0.049 A 
ATOM     51  C   UNL A   1      40.960  29.977  34.118  1.00  0.00     0.074 A 
ATOM     52  C   UNL A   1      43.996  26.385  29.878  1.00  0.00     0.029 A 
ATOM     53  N   UNL A   1      42.522  27.665  30.942  1.00  0.00    -0.354 N 
ATOM     54  N   UNL A   1      41.545  29.294  33.164  1.00  0.00    -0.248 NA
ATOM     55  C   UNL A   1      41.679  29.950  35.401  1.00  0.00     0.031 C 
ATOM     56  C   UNL A   1      44.486  26.650  31.160  1.00  0.00     0.029 A 
ATOM     57  C   UNL A   1      43.572  27.455  31.819  1.00  0.00     0.049 A 
ATOM     58  H   UNL A   1      41.726  28.211  31.134  1.00  0.00     0.167 HD
ATOM     59  C   UNL A   1      42.710  28.781  33.723  1.00  0.00     0.074 A 
ATOM     60  C   UNL A   1      42.765  29.257  35.089  1.00  0.00     0.031 C 
ATOM     61  C   UNL A   1      43.640  27.971  33.161  1.00  0.00     0.034 A 
BRANCH  48  62
ATOM     62  C   UNL A   1      42.203  26.028  27.498  1.00  0.00     0.023 A 
ATOM     63  C   UNL A   1      43.049  26.487  26.470  1.00  0.00     0.012 A 
ATOM     64  C   UNL A   1      41.788  24.681  27.506  1.00  0.00     0.148 A 
ATOM     65  C   UNL A   1      43.464  25.624  25.456  1.00  0.00     0.002 A 
ATOM     66  C   UNL A   1      42.242  23.816  26.518  1.00  0.00     0.091 A 
ATOM     67  F   UNL A   1      40.969  24.271  28.484  1.00  0.00    -0.205 F 
ATOM     68  C   UNL A   1      43.072  24.288  25.488  1.00  0.00     0.022 A 
BRANCH  66  69
ATOM     69  S   UNL A   1      41.862  22.061  26.514  1.00  0.00     0.127 S 
ATOM     70  O   UNL A   1      40.414  22.073  26.307  1.00  0.00    -0.237 OA
ATOM     71  O   UNL A   1      42.637  21.583  25.370  1.00  0.00    -0.237 OA
ATOM     72  O   UNL A   1      42.298  21.550  27.805  1.00  0.00    -0.744 OA
ENDBRANCH  66  69
ENDBRANCH  48  62
BRANCH  49  73
ATOM     73  C   UNL A   1      39.192  31.501  35.271  1.00  0.00     0.023 A 
ATOM     74  C   UNL A   1      38.296  30.857  36.145  1.00  0.00     0.012 A 
ATOM     75  C   UNL A   1      39.599  32.820  35.555  1.00  0.00     0.148 A 
ATOM     76  C   UNL A   1      37.779  31.527  37.255  1.00  0.00     0.002 A 
ATOM     77  C   UNL A   1      39.128  33.459  36.694  1.00  0.00     0.091 A 
ATOM     78  F   UNL A   1      40.441  33.423  34.703  1.00  0.00    -0.205 F 
ATOM     79  C   UNL A   1      38.202  32.824  37.535  1.00  0.00     0.022 A 
BRANCH  77  80
ATOM     80  S   UNL A   1      39.730  35.075  37.200  1.00  0.00     0.127 S 
ATOM     81  O   UNL A   1      39.276  35.921  36.101  1.00  0.00    -0.237 OA
ATOM     82  O   UNL A   1      39.027  35.279  38.467  1.00  0.00    -0.237 OA
ATOM     83  O   UNL A   1      41.174  34.928  37.337  1.00  0.00    -0.744 OA
ENDBRANCH  77  80
ENDBRANCH  49  73
BRANCH  61  84
ATOM     84  C   UNL A   1      44.814  27.557  34.008  1.00  0.00     0.023 A 
ATOM     85  C   UNL A   1      45.968  28.363  34.045  1.00  0.00     0.012 A 
ATOM     86  C   UNL A   1      44.738  26.417  34.833  1.00  0.00     0.148 A 
ATOM     87  C   UNL A   1      47.040  28.028  34.872  1.00  0.00     0.002 A 
ATOM     88  C   UNL A   1      45.789  26.118  35.692  1.00  0.00     0.091 A 
ATOM     89  F   UNL A   1      43.636  25.656  34.771  1.00  0.00    -0.205 F 
ATOM     90  C   UNL A   1      46.945  26.915  35.704  1.00  0.00     0.022 A 
BRANCH  88  91
ATOM     91  S   UNL A   1      45.721  24.763  36.868  1.00  0.00     0.127 S 
ATOM     92  O   UNL A   1      47.137  24.549  37.159  1.00  0.00    -0.237 OA
ATOM     93  O   UNL A   1      44.953  25.348  37.968  1.00  0.00    -0.237 OA
ATOM     94  O   UNL A   1      45.057  23.662  36.181  1.00  0.00    -0.744 OA
ENDBRANCH  88  91
ENDBRANCH  61  84
ENDBRANCH  35  36
ENDBRANCH  27  30
ENDBRANCH  25  26
ENDBRANCH  24  25
ENDBRANCH   1  24
TORSDOF 18
ENDMDL
MODEL 3
REMARK VINA RESULT:     -11.5      2.438      8.433
REMARK SMILES CC(C)c1ccc([C@]2(C(=O)NCCCCCCNC(=O)c3ccc(-c4c5nc(c(-c6cccc(S(=O)(=O)[O-])c6F)c6ccc([nH]6)c(-c6cccc(S(=O)(=O)[O-])c6F)c6nc(c(-c7cccc(S(=O)(=O)[O-])c7F)c7ccc4[nH]7)C=C6)C=C5)cc3)CCC[C@@H]2C)cc1
REMARK SMILES IDX 15 1 14 2 13 3 12 4 11 5 9 6 10 7 8 9 84 10 87 11 85 12
REMARK SMILES IDX 86 13 88 14 7 15 4 16 5 17 90 18 6 19 89 20 2 21 1 22 3 23
REMARK SMILES IDX 16 24 17 25 18 26 19 27 20 29 21 30 22 31 83 32 23 33 82 34
REMARK SMILES IDX 24 35 25 36 26 37 76 38 27 39 81 40 75 41 77 42 28 43 80 44
REMARK SMILES IDX 74 45 73 46 29 48 61 49 41 50 60 51 42 52 45 53 59 54 78 55
REMARK SMILES IDX 43 56 44 57 58 59 79 60 46 61 30 62 31 63 39 64 32 65 34 66
REMARK SMILES IDX 40 67 33 68 35 69 36 70 37 71 38 72 62 73 63 74 71 75 64 76
REMARK SMILES IDX 66 77 72 78 65 79 67 80 68 81 69 82 70 83 47 84 48 85 56 86
REMARK SMILES IDX 49 87 51 88 57 89 50 90 52 91 53 92 54 93 55 94
REMARK H PARENT 11 8 18 28 77 47 45 58
REMARK Flexibility Score: inf
ROOT
ATOM      1  C   UNL A   1      32.195  28.244  23.135  1.00  0.00     0.002 C 
ENDROOT
BRANCH   1   2
ATOM      2  C   UNL A   1      31.117  27.426  22.412  1.00  0.00     0.002 C 
BRANCH   2   3
ATOM      3  C   UNL A   1      30.288  26.498  23.296  1.00  0.00     0.021 C 
BRANCH   3   4
ATOM      4  C   UNL A   1      30.566  25.015  23.111  1.00  0.00     0.116 C 
BRANCH   4   5
ATOM      5  N   UNL A   1      31.800  24.702  22.443  1.00  0.00    -0.355 N 
ATOM      6  C   UNL A   1      32.892  23.991  22.830  1.00  0.00     0.230 C 
ATOM      7  O   UNL A   1      33.576  23.612  21.865  1.00  0.00    -0.274 OA
ATOM      8  H   UNL A   1      31.865  25.071  21.533  1.00  0.00     0.163 HD
BRANCH   6   9
ATOM      9  C   UNL A   1      33.347  23.673  24.335  1.00  0.00     0.077 C 
ATOM     10  C   UNL A   1      34.692  24.355  24.706  1.00  0.00     0.022 C 
ATOM     11  C   UNL A   1      32.374  24.229  25.450  1.00  0.00     0.006 C 
ATOM     12  C   UNL A   1      34.398  25.549  25.625  1.00  0.00     0.002 C 
ATOM     13  C   UNL A   1      32.883  25.637  25.786  1.00  0.00     0.005 C 
ATOM     14  C   UNL A   1      32.339  23.521  26.827  1.00  0.00     0.009 C 
BRANCH   9  15
ATOM     15  C   UNL A   1      33.492  22.120  24.364  1.00  0.00    -0.032 A 
ATOM     16  C   UNL A   1      33.707  19.268  24.489  1.00  0.00    -0.045 A 
ATOM     17  C   UNL A   1      32.565  19.888  23.976  1.00  0.00     0.004 A 
ATOM     18  C   UNL A   1      34.793  20.100  24.803  1.00  0.00     0.004 A 
ATOM     19  C   UNL A   1      32.482  21.281  23.868  1.00  0.00     0.005 A 
ATOM     20  C   UNL A   1      34.684  21.497  24.757  1.00  0.00     0.005 A 
BRANCH  16  21
ATOM     21  C   UNL A   1      33.814  17.755  24.646  1.00  0.00     0.013 C 
ATOM     22  C   UNL A   1      32.618  17.168  25.415  1.00  0.00     0.012 C 
ATOM     23  C   UNL A   1      33.941  16.980  23.324  1.00  0.00     0.012 C 
ENDBRANCH  16  21
ENDBRANCH   9  15
ENDBRANCH   6   9
ENDBRANCH   4   5
ENDBRANCH   3   4
ENDBRANCH   2   3
ENDBRANCH   1   2
BRANCH   1  24
ATOM     24  C   UNL A   1      31.796  28.834  24.493  1.00  0.00     0.021 C 
BRANCH  24  25
ATOM     25  C   UNL A   1      32.939  29.448  25.296  1.00  0.00     0.116 C 
BRANCH  25  26
ATOM     26  N   UNL A   1      32.591  30.758  25.825  1.00  0.00    -0.352 N 
ATOM     27  C   UNL A   1      33.097  31.429  26.909  1.00  0.00     0.251 C 
ATOM     28  H   UNL A   1      31.886  31.235  25.330  1.00  0.00     0.163 HD
ATOM     29  O   UNL A   1      32.523  32.424  27.337  1.00  0.00    -0.269 OA
BRANCH  27  30
ATOM     30  C   UNL A   1      34.329  30.943  27.565  1.00  0.00     0.039 A 
ATOM     31  C   UNL A   1      35.368  31.846  27.807  1.00  0.00     0.014 A 
ATOM     32  C   UNL A   1      34.460  29.602  27.934  1.00  0.00     0.014 A 
ATOM     33  C   UNL A   1      36.512  31.416  28.485  1.00  0.00     0.010 A 
ATOM     34  C   UNL A   1      35.571  29.192  28.666  1.00  0.00     0.010 A 
ATOM     35  C   UNL A   1      36.605  30.096  28.955  1.00  0.00    -0.014 A 
BRANCH  35  36
ATOM     36  C   UNL A   1      37.745  29.657  29.800  1.00  0.00     0.031 A 
ATOM     37  C   UNL A   1      37.961  30.255  31.163  1.00  0.00     0.074 A 
ATOM     38  C   UNL A   1      38.650  28.801  29.285  1.00  0.00     0.049 A 
ATOM     39  N   UNL A   1      38.946  30.057  32.000  1.00  0.00    -0.248 NA
ATOM     40  C   UNL A   1      36.953  31.218  31.642  1.00  0.00     0.031 C 
ATOM     41  C   UNL A   1      38.594  28.218  27.942  1.00  0.00     0.029 A 
ATOM     42  N   UNL A   1      39.819  28.305  29.811  1.00  0.00    -0.354 N 
ATOM     43  C   UNL A   1      38.705  30.899  33.078  1.00  0.00     0.074 A 
ATOM     44  C   UNL A   1      37.485  31.619  32.788  1.00  0.00     0.031 C 
ATOM     45  C   UNL A   1      39.682  27.457  27.745  1.00  0.00     0.029 A 
ATOM     46  C   UNL A   1      40.534  27.529  28.928  1.00  0.00     0.049 A 
ATOM     47  H   UNL A   1      40.116  28.487  30.732  1.00  0.00     0.167 HD
ATOM     48  C   UNL A   1      39.429  31.046  34.212  1.00  0.00     0.034 A 
ATOM     49  C   UNL A   1      41.752  26.963  29.042  1.00  0.00     0.034 A 
ATOM     50  C   UNL A   1      40.616  30.293  34.514  1.00  0.00     0.049 A 
ATOM     51  C   UNL A   1      42.516  27.125  30.328  1.00  0.00     0.074 A 
ATOM     52  C   UNL A   1      41.342  30.277  35.693  1.00  0.00     0.029 A 
ATOM     53  N   UNL A   1      41.267  29.449  33.631  1.00  0.00    -0.354 N 
ATOM     54  N   UNL A   1      42.169  27.766  31.418  1.00  0.00    -0.248 NA
ATOM     55  C   UNL A   1      43.828  26.465  30.413  1.00  0.00     0.031 C 
ATOM     56  C   UNL A   1      42.460  29.459  35.504  1.00  0.00     0.029 A 
ATOM     57  C   UNL A   1      42.408  28.936  34.223  1.00  0.00     0.049 A 
ATOM     58  H   UNL A   1      40.964  29.243  32.717  1.00  0.00     0.167 HD
ATOM     59  C   UNL A   1      43.204  27.565  32.323  1.00  0.00     0.074 A 
ATOM     60  C   UNL A   1      44.177  26.717  31.667  1.00  0.00     0.031 C 
ATOM     61  C   UNL A   1      43.346  28.055  33.578  1.00  0.00     0.034 A 
BRANCH  48  62
ATOM     62  C   UNL A   1      38.954  32.037  35.241  1.00  0.00     0.023 A 
ATOM     63  C   UNL A   1      37.964  31.663  36.170  1.00  0.00     0.012 A 
ATOM     64  C   UNL A   1      39.574  33.297  35.357  1.00  0.00     0.148 A 
ATOM     65  C   UNL A   1      37.583  32.536  37.190  1.00  0.00     0.002 A 
ATOM     66  C   UNL A   1      39.222  34.143  36.402  1.00  0.00     0.091 A 
ATOM     67  F   UNL A   1      40.501  33.639  34.451  1.00  0.00    -0.205 F 
ATOM     68  C   UNL A   1      38.221  33.767  37.313  1.00  0.00     0.022 A 
BRANCH  66  69
ATOM     69  S   UNL A   1      40.040  35.715  36.697  1.00  0.00     0.127 S 
ATOM     70  O   UNL A   1      39.645  36.479  35.514  1.00  0.00    -0.237 OA
ATOM     71  O   UNL A   1      39.415  36.155  37.944  1.00  0.00    -0.237 OA
ATOM     72  O   UNL A   1      41.461  35.418  36.796  1.00  0.00    -0.744 OA
ENDBRANCH  66  69
ENDBRANCH  48  62
BRANCH  49  73
ATOM     73  C   UNL A   1      42.326  26.179  27.910  1.00  0.00     0.023 A 
ATOM     74  C   UNL A   1      43.272  26.777  27.056  1.00  0.00     0.012 A 
ATOM     75  C   UNL A   1      41.934  24.846  27.675  1.00  0.00     0.148 A 
ATOM     76  C   UNL A   1      43.785  26.078  25.962  1.00  0.00     0.002 A 
ATOM     77  C   UNL A   1      42.495  24.136  26.620  1.00  0.00     0.091 A 
ATOM     78  F   UNL A   1      41.021  24.298  28.488  1.00  0.00    -0.205 F 
ATOM     79  C   UNL A   1      43.404  24.755  25.749  1.00  0.00     0.022 A 
BRANCH  77  80
ATOM     80  S   UNL A   1      42.163  22.389  26.361  1.00  0.00     0.127 S 
ATOM     81  O   UNL A   1      42.507  21.823  27.663  1.00  0.00    -0.237 OA
ATOM     82  O   UNL A   1      40.734  22.393  26.048  1.00  0.00    -0.237 OA
ATOM     83  O   UNL A   1      43.016  21.991  25.248  1.00  0.00    -0.744 OA
ENDBRANCH  77  80
ENDBRANCH  49  73
BRANCH  61  84
ATOM     84  C   UNL A   1      44.587  27.678  34.344  1.00  0.00     0.023 A 
ATOM     85  C   UNL A   1      45.710  28.527  34.317  1.00  0.00     0.012 A 
ATOM     86  C   UNL A   1      44.606  26.529  35.159  1.00  0.00     0.148 A 
ATOM     87  C   UNL A   1      46.844  28.226  35.070  1.00  0.00     0.002 A 
ATOM     88  C   UNL A   1      45.721  26.263  35.946  1.00  0.00     0.091 A 
ATOM     89  F   UNL A   1      43.532  25.727  35.159  1.00  0.00    -0.205 F 
ATOM     90  C   UNL A   1      46.845  27.102  35.893  1.00  0.00     0.022 A 
BRANCH  88  91
ATOM     91  S   UNL A   1      45.779  24.895  37.109  1.00  0.00     0.127 S 
ATOM     92  O   UNL A   1      45.727  23.741  36.214  1.00  0.00    -0.237 OA
ATOM     93  O   UNL A   1      47.070  25.103  37.764  1.00  0.00    -0.237 OA
ATOM     94  O   UNL A   1      44.622  25.055  37.981  1.00  0.00    -0.744 OA
ENDBRANCH  88  91
ENDBRANCH  61  84
ENDBRANCH  35  36
ENDBRANCH  27  30
ENDBRANCH  25  26
ENDBRANCH  24  25
ENDBRANCH   1  24
TORSDOF 18
ENDMDL
