MODEL 1
REMARK VINA RESULT:     -10.2      0.000      0.000
REMARK SMILES COCCS(=O)(=O)CCn1cc(C(=O)NCCCCCCNC(=O)c2ccc(-c3c4nc(c(-c5cccc(S(=O)(=O)[O-])c5F)c5ccc([nH]5)c(-c5cccc(S(=O)(=O)[O-])c5F)c5nc(c(-c6cccc(S(=O)(=O)[O-])c6F)c6ccc3[nH]6)C=C5)C=C4)cc2)nn1
REMARK SMILES IDX 17 1 16 2 15 3 13 4 14 5 12 7 10 8 11 9 89 10 88 11 9 12
REMARK SMILES IDX 8 13 5 14 6 15 7 16 4 17 3 18 2 19 1 20 18 21 19 22 20 23
REMARK SMILES IDX 21 24 22 25 23 26 24 28 25 29 26 30 87 31 27 32 86 33 28 34
REMARK SMILES IDX 29 35 30 36 80 37 31 38 85 39 79 40 81 41 32 42 84 43 78 44
REMARK SMILES IDX 77 45 33 47 65 48 45 49 64 50 46 51 49 52 63 53 82 54 47 55
REMARK SMILES IDX 48 56 62 58 83 59 50 60 34 61 35 62 43 63 36 64 38 65 44 66
REMARK SMILES IDX 37 67 39 68 40 69 41 70 42 71 66 72 67 73 75 74 68 75 70 76
REMARK SMILES IDX 76 77 69 78 71 79 72 80 73 81 74 82 51 83 52 84 60 85 53 86
REMARK SMILES IDX 55 87 61 88 54 89 56 90 57 91 58 92 59 93
REMARK H PARENT 15 6 22 27 81 46 49 57
REMARK Flexibility Score: inf
ROOT
ATOM      1  C   UNL A   1      36.586  21.916  24.742  1.00  0.00     0.021 C 
ENDROOT
BRANCH   1   2
ATOM      2  C   UNL A   1      35.648  21.199  25.714  1.00  0.00     0.116 C 
BRANCH   2   3
ATOM      3  N   UNL A   1      35.169  19.921  25.215  1.00  0.00    -0.351 N 
ATOM      4  C   UNL A   1      33.966  19.544  24.647  1.00  0.00     0.273 C 
ATOM      5  O   UNL A   1      33.848  18.357  24.333  1.00  0.00    -0.267 OA
ATOM      6  H   UNL A   1      35.822  19.188  25.297  1.00  0.00     0.163 HD
BRANCH   4   7
ATOM      7  C   UNL A   1      32.874  20.501  24.482  1.00  0.00     0.170 A 
ATOM      8  N   UNL A   1      31.742  22.292  24.082  1.00  0.00    -0.251 N 
ATOM      9  C   UNL A   1      32.652  21.456  23.507  1.00  0.00     0.145 A 
ATOM     10  N   UNL A   1      31.161  21.717  25.140  1.00  0.00    -0.067 NA
ATOM     11  N   UNL A   1      31.861  20.620  25.414  1.00  0.00    -0.125 NA
BRANCH   8  12
ATOM     12  C   UNL A   1      31.433  23.648  23.703  1.00  0.00     0.162 C 
BRANCH  12  13
ATOM     13  C   UNL A   1      30.786  24.521  24.769  1.00  0.00     0.160 C 
BRANCH  13  14
ATOM     14  S   UNL A   1      31.839  25.080  26.090  1.00  0.00     0.154 S 
ATOM     15  O   UNL A   1      33.203  24.890  25.651  1.00  0.00    -0.229 OA
ATOM     16  O   UNL A   1      31.370  24.388  27.285  1.00  0.00    -0.229 OA
BRANCH  14  17
ATOM     17  C   UNL A   1      31.645  26.806  26.430  1.00  0.00     0.165 C 
BRANCH  17  18
ATOM     18  C   UNL A   1      31.348  27.773  25.316  1.00  0.00     0.176 C 
BRANCH  18  19
ATOM     19  O   UNL A   1      32.441  28.663  25.114  1.00  0.00    -0.384 OA
ATOM     20  C   UNL A   1      32.485  29.746  26.026  1.00  0.00     0.194 C 
ENDBRANCH  18  19
ENDBRANCH  17  18
ENDBRANCH  14  17
ENDBRANCH  13  14
ENDBRANCH  12  13
ENDBRANCH   8  12
ENDBRANCH   4   7
ENDBRANCH   2   3
ENDBRANCH   1   2
BRANCH   1  21
ATOM     21  C   UNL A   1      37.680  22.768  25.383  1.00  0.00     0.002 C 
BRANCH  21  22
ATOM     22  C   UNL A   1      38.844  21.995  26.016  1.00  0.00     0.002 C 
BRANCH  22  23
ATOM     23  C   UNL A   1      39.215  20.651  25.369  1.00  0.00     0.021 C 
BRANCH  23  24
ATOM     24  C   UNL A   1      39.773  19.627  26.346  1.00  0.00     0.116 C 
BRANCH  24  25
ATOM     25  N   UNL A   1      41.021  19.033  25.869  1.00  0.00    -0.352 N 
ATOM     26  C   UNL A   1      42.231  19.655  25.668  1.00  0.00     0.251 C 
ATOM     27  H   UNL A   1      40.991  18.069  25.666  1.00  0.00     0.163 HD
ATOM     28  O   UNL A   1      43.083  19.146  24.936  1.00  0.00    -0.269 OA
BRANCH  26  29
ATOM     29  C   UNL A   1      42.499  20.935  26.344  1.00  0.00     0.039 A 
ATOM     30  C   UNL A   1      42.740  22.099  25.610  1.00  0.00     0.014 A 
ATOM     31  C   UNL A   1      42.488  20.959  27.739  1.00  0.00     0.014 A 
ATOM     32  C   UNL A   1      42.893  23.299  26.295  1.00  0.00     0.010 A 
ATOM     33  C   UNL A   1      42.499  22.161  28.405  1.00  0.00     0.010 A 
ATOM     34  C   UNL A   1      42.745  23.328  27.695  1.00  0.00    -0.014 A 
BRANCH  34  35
ATOM     35  C   UNL A   1      42.644  24.608  28.393  1.00  0.00     0.031 A 
ATOM     36  C   UNL A   1      41.371  25.312  28.089  1.00  0.00     0.074 A 
ATOM     37  C   UNL A   1      43.498  25.014  29.361  1.00  0.00     0.049 A 
ATOM     38  N   UNL A   1      41.206  26.320  27.297  1.00  0.00    -0.248 NA
ATOM     39  C   UNL A   1      40.104  24.698  28.530  1.00  0.00     0.031 C 
ATOM     40  C   UNL A   1      44.582  24.230  29.968  1.00  0.00     0.029 A 
ATOM     41  N   UNL A   1      43.508  26.156  30.111  1.00  0.00    -0.354 N 
ATOM     42  C   UNL A   1      39.865  26.666  27.442  1.00  0.00     0.074 A 
ATOM     43  C   UNL A   1      39.204  25.497  27.950  1.00  0.00     0.031 C 
ATOM     44  C   UNL A   1      44.956  24.796  31.136  1.00  0.00     0.029 A 
ATOM     45  C   UNL A   1      44.283  26.073  31.268  1.00  0.00     0.049 A 
ATOM     46  H   UNL A   1      43.011  26.969  29.856  1.00  0.00     0.167 HD
ATOM     47  C   UNL A   1      39.518  27.981  27.535  1.00  0.00     0.034 A 
ATOM     48  C   UNL A   1      44.363  26.982  32.271  1.00  0.00     0.034 A 
ATOM     49  C   UNL A   1      40.622  28.819  27.135  1.00  0.00     0.049 A 
ATOM     50  C   UNL A   1      43.950  28.284  31.711  1.00  0.00     0.074 A 
ATOM     51  C   UNL A   1      41.273  29.161  25.971  1.00  0.00     0.029 A 
ATOM     52  N   UNL A   1      41.461  29.108  28.177  1.00  0.00    -0.354 N 
ATOM     53  N   UNL A   1      44.639  28.916  30.801  1.00  0.00    -0.248 NA
ATOM     54  C   UNL A   1      42.585  28.752  31.914  1.00  0.00     0.031 C 
ATOM     55  C   UNL A   1      42.589  29.559  26.355  1.00  0.00     0.029 A 
ATOM     56  C   UNL A   1      42.691  29.506  27.743  1.00  0.00     0.049 A 
ATOM     57  H   UNL A   1      41.207  29.036  29.126  1.00  0.00     0.167 HD
ATOM     58  C   UNL A   1      43.665  29.502  30.017  1.00  0.00     0.074 A 
ATOM     59  C   UNL A   1      42.468  29.544  30.846  1.00  0.00     0.031 C 
ATOM     60  C   UNL A   1      43.804  29.558  28.663  1.00  0.00     0.034 A 
BRANCH  47  61
ATOM     61  C   UNL A   1      38.460  28.548  28.473  1.00  0.00     0.023 A 
ATOM     62  C   UNL A   1      37.473  29.380  27.891  1.00  0.00     0.012 A 
ATOM     63  C   UNL A   1      38.549  28.574  29.885  1.00  0.00     0.148 A 
ATOM     64  C   UNL A   1      36.658  30.216  28.664  1.00  0.00     0.002 A 
ATOM     65  C   UNL A   1      37.684  29.346  30.654  1.00  0.00     0.091 A 
ATOM     66  F   UNL A   1      39.557  27.964  30.507  1.00  0.00    -0.205 F 
ATOM     67  C   UNL A   1      36.756  30.194  30.049  1.00  0.00     0.022 A 
BRANCH  65  68
ATOM     68  S   UNL A   1      37.747  29.325  32.452  1.00  0.00     0.127 S 
ATOM     69  O   UNL A   1      37.712  27.893  32.729  1.00  0.00    -0.237 OA
ATOM     70  O   UNL A   1      39.033  29.976  32.709  1.00  0.00    -0.237 OA
ATOM     71  O   UNL A   1      36.592  30.093  32.895  1.00  0.00    -0.744 OA
ENDBRANCH  65  68
ENDBRANCH  47  61
BRANCH  48  72
ATOM     72  C   UNL A   1      44.637  26.835  33.719  1.00  0.00     0.023 A 
ATOM     73  C   UNL A   1      45.805  27.406  34.269  1.00  0.00     0.012 A 
ATOM     74  C   UNL A   1      43.613  26.428  34.602  1.00  0.00     0.148 A 
ATOM     75  C   UNL A   1      45.925  27.620  35.648  1.00  0.00     0.002 A 
ATOM     76  C   UNL A   1      43.735  26.648  35.971  1.00  0.00     0.091 A 
ATOM     77  F   UNL A   1      42.491  25.910  34.084  1.00  0.00    -0.205 F 
ATOM     78  C   UNL A   1      44.884  27.259  36.496  1.00  0.00     0.022 A 
BRANCH  76  79
ATOM     79  S   UNL A   1      42.424  26.243  37.136  1.00  0.00     0.127 S 
ATOM     80  O   UNL A   1      41.411  27.248  36.809  1.00  0.00    -0.237 OA
ATOM     81  O   UNL A   1      42.078  24.880  36.746  1.00  0.00    -0.237 OA
ATOM     82  O   UNL A   1      43.006  26.390  38.465  1.00  0.00    -0.744 OA
ENDBRANCH  76  79
ENDBRANCH  48  72
BRANCH  60  83
ATOM     83  C   UNL A   1      45.191  29.541  28.100  1.00  0.00     0.023 A 
ATOM     84  C   UNL A   1      46.062  30.646  28.127  1.00  0.00     0.012 A 
ATOM     85  C   UNL A   1      45.651  28.315  27.596  1.00  0.00     0.148 A 
ATOM     86  C   UNL A   1      47.369  30.526  27.643  1.00  0.00     0.002 A 
ATOM     87  C   UNL A   1      46.959  28.187  27.160  1.00  0.00     0.091 A 
ATOM     88  F   UNL A   1      44.793  27.283  27.565  1.00  0.00    -0.205 F 
ATOM     89  C   UNL A   1      47.822  29.293  27.172  1.00  0.00     0.022 A 
BRANCH  87  90
ATOM     90  S   UNL A   1      47.613  26.599  26.646  1.00  0.00     0.127 S 
ATOM     91  O   UNL A   1      48.217  26.920  25.355  1.00  0.00    -0.237 OA
ATOM     92  O   UNL A   1      48.569  26.296  27.713  1.00  0.00    -0.237 OA
ATOM     93  O   UNL A   1      46.472  25.693  26.597  1.00  0.00    -0.744 OA
ENDBRANCH  87  90
ENDBRANCH  60  83
ENDBRANCH  34  35
ENDBRANCH  26  29
ENDBRANCH  24  25
ENDBRANCH  23  24
ENDBRANCH  22  23
ENDBRANCH  21  22
ENDBRANCH   1  21
TORSDOF 22
ENDMDL
MODEL 2
REMARK VINA RESULT:      -9.5      2.057      2.415
REMARK SMILES COCCS(=O)(=O)CCn1cc(C(=O)NCCCCCCNC(=O)c2ccc(-c3c4nc(c(-c5cccc(S(=O)(=O)[O-])c5F)c5ccc([nH]5)c(-c5cccc(S(=O)(=O)[O-])c5F)c5nc(c(-c6cccc(S(=O)(=O)[O-])c6F)c6ccc3[nH]6)C=C5)C=C4)cc2)nn1
REMARK SMILES IDX 17 1 16 2 15 3 13 4 14 5 12 7 10 8 11 9 89 10 88 11 9 12
REMARK SMILES IDX 8 13 5 14 6 15 7 16 4 17 3 18 2 19 1 20 18 21 19 22 20 23
REMARK SMILES IDX 21 24 22 25 23 26 24 28 25 29 26 30 87 31 27 32 86 33 28 34
REMARK SMILES IDX 29 35 30 36 80 37 31 38 85 39 79 40 81 41 32 42 84 43 78 44
REMARK SMILES IDX 77 45 33 47 65 48 45 49 64 50 46 51 49 52 63 53 82 54 47 55
REMARK SMILES IDX 48 56 62 58 83 59 50 60 34 61 35 62 43 63 36 64 38 65 44 66
REMARK SMILES IDX 37 67 39 68 40 69 41 70 42 71 66 72 67 73 75 74 68 75 70 76
REMARK SMILES IDX 76 77 69 78 71 79 72 80 73 81 74 82 51 83 52 84 60 85 53 86
REMARK SMILES IDX 55 87 61 88 54 89 56 90 57 91 58 92 59 93
REMARK H PARENT 15 6 22 27 81 46 49 57
REMARK Flexibility Score: inf
ROOT
ATOM      1  C   UNL A   1      36.279  21.648  24.756  1.00  0.00     0.021 C 
ENDROOT
BRANCH   1   2
ATOM      2  C   UNL A   1      35.411  21.145  25.910  1.00  0.00     0.116 C 
BRANCH   2   3
ATOM      3  N   UNL A   1      34.295  20.321  25.476  1.00  0.00    -0.351 N 
ATOM      4  C   UNL A   1      32.962  20.615  25.256  1.00  0.00     0.273 C 
ATOM      5  O   UNL A   1      32.239  19.682  24.899  1.00  0.00    -0.267 OA
ATOM      6  H   UNL A   1      34.532  19.380  25.307  1.00  0.00     0.163 HD
BRANCH   4   7
ATOM      7  C   UNL A   1      32.433  21.957  25.491  1.00  0.00     0.170 A 
ATOM      8  N   UNL A   1      32.030  24.071  25.348  1.00  0.00    -0.251 N 
ATOM      9  C   UNL A   1      32.018  22.932  24.600  1.00  0.00     0.145 A 
ATOM     10  N   UNL A   1      32.067  23.789  26.654  1.00  0.00    -0.067 NA
ATOM     11  N   UNL A   1      32.337  22.492  26.761  1.00  0.00    -0.125 NA
BRANCH   8  12
ATOM     12  C   UNL A   1      32.063  25.432  24.873  1.00  0.00     0.162 C 
BRANCH  12  13
ATOM     13  C   UNL A   1      32.986  26.388  25.617  1.00  0.00     0.160 C 
BRANCH  13  14
ATOM     14  S   UNL A   1      32.207  27.695  26.538  1.00  0.00     0.154 S 
ATOM     15  O   UNL A   1      33.240  28.332  27.324  1.00  0.00    -0.229 OA
ATOM     16  O   UNL A   1      31.074  27.077  27.215  1.00  0.00    -0.229 OA
BRANCH  14  17
ATOM     17  C   UNL A   1      31.514  28.945  25.492  1.00  0.00     0.165 C 
BRANCH  17  18
ATOM     18  C   UNL A   1      31.940  29.055  24.053  1.00  0.00     0.176 C 
BRANCH  18  19
ATOM     19  O   UNL A   1      30.807  29.079  23.191  1.00  0.00    -0.384 OA
ATOM     20  C   UNL A   1      29.792  29.983  23.589  1.00  0.00     0.194 C 
ENDBRANCH  18  19
ENDBRANCH  17  18
ENDBRANCH  14  17
ENDBRANCH  13  14
ENDBRANCH  12  13
ENDBRANCH   8  12
ENDBRANCH   4   7
ENDBRANCH   2   3
ENDBRANCH   1   2
BRANCH   1  21
ATOM     21  C   UNL A   1      37.423  22.582  25.144  1.00  0.00     0.002 C 
BRANCH  21  22
ATOM     22  C   UNL A   1      38.644  21.914  25.788  1.00  0.00     0.002 C 
BRANCH  22  23
ATOM     23  C   UNL A   1      39.003  20.505  25.289  1.00  0.00     0.021 C 
BRANCH  23  24
ATOM     24  C   UNL A   1      39.699  19.639  26.328  1.00  0.00     0.116 C 
BRANCH  24  25
ATOM     25  N   UNL A   1      40.938  19.054  25.819  1.00  0.00    -0.352 N 
ATOM     26  C   UNL A   1      42.147  19.678  25.619  1.00  0.00     0.251 C 
ATOM     27  H   UNL A   1      40.903  18.096  25.591  1.00  0.00     0.163 HD
ATOM     28  O   UNL A   1      42.988  19.186  24.863  1.00  0.00    -0.269 OA
BRANCH  26  29
ATOM     29  C   UNL A   1      42.429  20.938  26.326  1.00  0.00     0.039 A 
ATOM     30  C   UNL A   1      42.643  22.125  25.621  1.00  0.00     0.014 A 
ATOM     31  C   UNL A   1      42.458  20.921  27.721  1.00  0.00     0.014 A 
ATOM     32  C   UNL A   1      42.809  23.305  26.338  1.00  0.00     0.010 A 
ATOM     33  C   UNL A   1      42.482  22.101  28.422  1.00  0.00     0.010 A 
ATOM     34  C   UNL A   1      42.701  23.291  27.741  1.00  0.00    -0.014 A 
BRANCH  34  35
ATOM     35  C   UNL A   1      42.615  24.549  28.481  1.00  0.00     0.031 A 
ATOM     36  C   UNL A   1      41.395  25.322  28.127  1.00  0.00     0.074 A 
ATOM     37  C   UNL A   1      43.424  24.880  29.513  1.00  0.00     0.049 A 
ATOM     38  N   UNL A   1      41.325  26.364  27.366  1.00  0.00    -0.248 NA
ATOM     39  C   UNL A   1      40.077  24.752  28.468  1.00  0.00     0.031 C 
ATOM     40  C   UNL A   1      44.432  24.024  30.154  1.00  0.00     0.029 A 
ATOM     41  N   UNL A   1      43.438  25.993  30.305  1.00  0.00    -0.354 N 
ATOM     42  C   UNL A   1      39.994  26.767  27.442  1.00  0.00     0.074 A 
ATOM     43  C   UNL A   1      39.251  25.612  27.865  1.00  0.00     0.031 C 
ATOM     44  C   UNL A   1      44.758  24.531  31.364  1.00  0.00     0.029 A 
ATOM     45  C   UNL A   1      44.136  25.833  31.503  1.00  0.00     0.049 A 
ATOM     46  H   UNL A   1      42.995  26.836  30.052  1.00  0.00     0.167 HD
ATOM     47  C   UNL A   1      39.700  28.092  27.564  1.00  0.00     0.034 A 
ATOM     48  C   UNL A   1      44.193  26.701  32.543  1.00  0.00     0.034 A 
ATOM     49  C   UNL A   1      40.864  28.891  27.265  1.00  0.00     0.049 A 
ATOM     50  C   UNL A   1      43.874  28.039  32.009  1.00  0.00     0.074 A 
ATOM     51  C   UNL A   1      41.600  29.243  26.156  1.00  0.00     0.029 A 
ATOM     52  N   UNL A   1      41.648  29.103  28.366  1.00  0.00    -0.354 N 
ATOM     53  N   UNL A   1      44.645  28.670  31.168  1.00  0.00    -0.248 NA
ATOM     54  C   UNL A   1      42.522  28.563  32.147  1.00  0.00     0.031 C 
ATOM     55  C   UNL A   1      42.906  29.566  26.634  1.00  0.00     0.029 A 
ATOM     56  C   UNL A   1      42.919  29.459  28.022  1.00  0.00     0.049 A 
ATOM     57  H   UNL A   1      41.333  29.010  29.294  1.00  0.00     0.167 HD
ATOM     58  C   UNL A   1      43.749  29.329  30.349  1.00  0.00     0.074 A 
ATOM     59  C   UNL A   1      42.506  29.397  31.105  1.00  0.00     0.031 C 
ATOM     60  C   UNL A   1      43.975  29.427  29.009  1.00  0.00     0.034 A 
BRANCH  47  61
ATOM     61  C   UNL A   1      38.613  28.675  28.458  1.00  0.00     0.023 A 
ATOM     62  C   UNL A   1      37.688  29.553  27.844  1.00  0.00     0.012 A 
ATOM     63  C   UNL A   1      38.625  28.666  29.873  1.00  0.00     0.148 A 
ATOM     64  C   UNL A   1      36.859  30.399  28.593  1.00  0.00     0.002 A 
ATOM     65  C   UNL A   1      37.746  29.449  30.613  1.00  0.00     0.091 A 
ATOM     66  F   UNL A   1      39.577  28.007  30.534  1.00  0.00    -0.205 F 
ATOM     67  C   UNL A   1      36.882  30.343  29.980  1.00  0.00     0.022 A 
BRANCH  65  68
ATOM     68  S   UNL A   1      37.711  29.386  32.411  1.00  0.00     0.127 S 
ATOM     69  O   UNL A   1      36.509  30.157  32.707  1.00  0.00    -0.237 OA
ATOM     70  O   UNL A   1      37.601  27.946  32.653  1.00  0.00    -0.237 OA
ATOM     71  O   UNL A   1      38.972  29.968  32.850  1.00  0.00    -0.744 OA
ENDBRANCH  65  68
ENDBRANCH  47  61
BRANCH  48  72
ATOM     72  C   UNL A   1      44.370  26.489  33.999  1.00  0.00     0.023 A 
ATOM     73  C   UNL A   1      43.245  26.199  34.801  1.00  0.00     0.012 A 
ATOM     74  C   UNL A   1      45.653  26.252  34.535  1.00  0.00     0.148 A 
ATOM     75  C   UNL A   1      43.393  25.633  36.074  1.00  0.00     0.002 A 
ATOM     76  C   UNL A   1      45.795  25.685  35.799  1.00  0.00     0.091 A 
ATOM     77  F   UNL A   1      46.723  26.500  33.768  1.00  0.00    -0.205 F 
ATOM     78  C   UNL A   1      44.665  25.360  36.565  1.00  0.00     0.022 A 
BRANCH  76  79
ATOM     79  S   UNL A   1      47.399  25.267  36.498  1.00  0.00     0.127 S 
ATOM     80  O   UNL A   1      47.959  24.395  35.464  1.00  0.00    -0.237 OA
ATOM     81  O   UNL A   1      48.038  26.575  36.602  1.00  0.00    -0.237 OA
ATOM     82  O   UNL A   1      47.127  24.596  37.764  1.00  0.00    -0.744 OA
ENDBRANCH  76  79
ENDBRANCH  48  72
BRANCH  60  83
ATOM     83  C   UNL A   1      45.392  29.364  28.530  1.00  0.00     0.023 A 
ATOM     84  C   UNL A   1      46.098  28.164  28.327  1.00  0.00     0.012 A 
ATOM     85  C   UNL A   1      45.998  30.585  28.197  1.00  0.00     0.148 A 
ATOM     86  C   UNL A   1      47.397  28.190  27.808  1.00  0.00     0.002 A 
ATOM     87  C   UNL A   1      47.267  30.604  27.642  1.00  0.00     0.091 A 
ATOM     88  F   UNL A   1      45.308  31.715  28.419  1.00  0.00    -0.205 F 
ATOM     89  C   UNL A   1      47.976  29.409  27.453  1.00  0.00     0.022 A 
BRANCH  87  90
ATOM     90  S   UNL A   1      48.005  32.135  27.074  1.00  0.00     0.127 S 
ATOM     91  O   UNL A   1      49.227  31.664  26.425  1.00  0.00    -0.237 OA
ATOM     92  O   UNL A   1      46.985  32.653  26.160  1.00  0.00    -0.237 OA
ATOM     93  O   UNL A   1      48.203  32.951  28.266  1.00  0.00    -0.744 OA
ENDBRANCH  87  90
ENDBRANCH  60  83
ENDBRANCH  34  35
ENDBRANCH  26  29
ENDBRANCH  24  25
ENDBRANCH  23  24
ENDBRANCH  22  23
ENDBRANCH  21  22
ENDBRANCH   1  21
TORSDOF 22
ENDMDL
MODEL 3
REMARK VINA RESULT:      -9.5      1.698      2.236
REMARK SMILES COCCS(=O)(=O)CCn1cc(C(=O)NCCCCCCNC(=O)c2ccc(-c3c4nc(c(-c5cccc(S(=O)(=O)[O-])c5F)c5ccc([nH]5)c(-c5cccc(S(=O)(=O)[O-])c5F)c5nc(c(-c6cccc(S(=O)(=O)[O-])c6F)c6ccc3[nH]6)C=C5)C=C4)cc2)nn1
REMARK SMILES IDX 17 1 16 2 15 3 13 4 14 5 12 7 10 8 11 9 89 10 88 11 9 12
REMARK SMILES IDX 8 13 5 14 6 15 7 16 4 17 3 18 2 19 1 20 18 21 19 22 20 23
REMARK SMILES IDX 21 24 22 25 23 26 24 28 25 29 26 30 87 31 27 32 86 33 28 34
REMARK SMILES IDX 29 35 30 36 80 37 31 38 85 39 79 40 81 41 32 42 84 43 78 44
REMARK SMILES IDX 77 45 33 47 65 48 45 49 64 50 46 51 49 52 63 53 82 54 47 55
REMARK SMILES IDX 48 56 62 58 83 59 50 60 34 61 35 62 43 63 36 64 38 65 44 66
REMARK SMILES IDX 37 67 39 68 40 69 41 70 42 71 66 72 67 73 75 74 68 75 70 76
REMARK SMILES IDX 76 77 69 78 71 79 72 80 73 81 74 82 51 83 52 84 60 85 53 86
REMARK SMILES IDX 55 87 61 88 54 89 56 90 57 91 58 92 59 93
REMARK H PARENT 15 6 22 27 81 46 49 57
REMARK Flexibility Score: inf
ROOT
ATOM      1  C   UNL A   1      36.068  21.898  24.386  1.00  0.00     0.021 C 
ENDROOT
BRANCH   1   2
ATOM      2  C   UNL A   1      35.707  20.729  25.302  1.00  0.00     0.116 C 
BRANCH   2   3
ATOM      3  N   UNL A   1      34.403  20.153  25.015  1.00  0.00    -0.351 N 
ATOM      4  C   UNL A   1      33.120  20.628  25.216  1.00  0.00     0.273 C 
ATOM      5  O   UNL A   1      32.195  19.887  24.877  1.00  0.00    -0.267 OA
ATOM      6  H   UNL A   1      34.441  19.259  24.603  1.00  0.00     0.163 HD
BRANCH   4   7
ATOM      7  C   UNL A   1      32.883  21.923  25.849  1.00  0.00     0.170 A 
ATOM      8  N   UNL A   1      32.595  24.034  26.189  1.00  0.00    -0.251 N 
ATOM      9  C   UNL A   1      32.114  22.999  25.443  1.00  0.00     0.145 A 
ATOM     10  N   UNL A   1      33.311  23.588  27.225  1.00  0.00    -0.067 NA
ATOM     11  N   UNL A   1      33.517  22.290  27.021  1.00  0.00    -0.125 NA
BRANCH   8  12
ATOM     12  C   UNL A   1      32.449  25.444  25.929  1.00  0.00     0.162 C 
BRANCH  12  13
ATOM     13  C   UNL A   1      31.348  25.845  24.956  1.00  0.00     0.160 C 
BRANCH  13  14
ATOM     14  S   UNL A   1      31.831  26.868  23.584  1.00  0.00     0.154 S 
ATOM     15  O   UNL A   1      32.346  28.101  24.137  1.00  0.00    -0.229 OA
ATOM     16  O   UNL A   1      30.672  26.912  22.700  1.00  0.00    -0.229 OA
BRANCH  14  17
ATOM     17  C   UNL A   1      33.135  26.152  22.626  1.00  0.00     0.165 C 
BRANCH  17  18
ATOM     18  C   UNL A   1      32.969  24.786  22.015  1.00  0.00     0.176 C 
BRANCH  18  19
ATOM     19  O   UNL A   1      33.281  24.814  20.626  1.00  0.00    -0.384 OA
ATOM     20  C   UNL A   1      32.325  25.490  19.828  1.00  0.00     0.194 C 
ENDBRANCH  18  19
ENDBRANCH  17  18
ENDBRANCH  14  17
ENDBRANCH  13  14
ENDBRANCH  12  13
ENDBRANCH   8  12
ENDBRANCH   4   7
ENDBRANCH   2   3
ENDBRANCH   1   2
BRANCH   1  21
ATOM     21  C   UNL A   1      37.116  22.867  24.929  1.00  0.00     0.002 C 
BRANCH  21  22
ATOM     22  C   UNL A   1      38.095  22.287  25.957  1.00  0.00     0.002 C 
BRANCH  22  23
ATOM     23  C   UNL A   1      39.146  21.298  25.429  1.00  0.00     0.021 C 
BRANCH  23  24
ATOM     24  C   UNL A   1      39.273  20.028  26.257  1.00  0.00     0.116 C 
BRANCH  24  25
ATOM     25  N   UNL A   1      40.470  19.263  25.913  1.00  0.00    -0.352 N 
ATOM     26  C   UNL A   1      41.765  19.718  25.815  1.00  0.00     0.251 C 
ATOM     27  H   UNL A   1      40.333  18.305  25.729  1.00  0.00     0.163 HD
ATOM     28  O   UNL A   1      42.606  19.079  25.178  1.00  0.00    -0.269 OA
BRANCH  26  29
ATOM     29  C   UNL A   1      42.136  20.974  26.486  1.00  0.00     0.039 A 
ATOM     30  C   UNL A   1      42.583  22.075  25.753  1.00  0.00     0.014 A 
ATOM     31  C   UNL A   1      42.011  21.043  27.874  1.00  0.00     0.014 A 
ATOM     32  C   UNL A   1      42.829  23.268  26.424  1.00  0.00     0.010 A 
ATOM     33  C   UNL A   1      42.119  22.254  28.514  1.00  0.00     0.010 A 
ATOM     34  C   UNL A   1      42.569  23.359  27.804  1.00  0.00    -0.014 A 
BRANCH  34  35
ATOM     35  C   UNL A   1      42.573  24.662  28.466  1.00  0.00     0.031 A 
ATOM     36  C   UNL A   1      41.375  25.470  28.117  1.00  0.00     0.074 A 
ATOM     37  C   UNL A   1      43.443  25.017  29.439  1.00  0.00     0.049 A 
ATOM     38  N   UNL A   1      41.317  26.465  27.295  1.00  0.00    -0.248 NA
ATOM     39  C   UNL A   1      40.050  24.986  28.549  1.00  0.00     0.031 C 
ATOM     40  C   UNL A   1      44.441  24.155  30.089  1.00  0.00     0.029 A 
ATOM     41  N   UNL A   1      43.544  26.175  30.157  1.00  0.00    -0.354 N 
ATOM     42  C   UNL A   1      40.010  26.935  27.403  1.00  0.00     0.074 A 
ATOM     43  C   UNL A   1      39.237  25.846  27.929  1.00  0.00     0.031 C 
ATOM     44  C   UNL A   1      44.844  24.719  31.248  1.00  0.00     0.029 A 
ATOM     45  C   UNL A   1      44.289  26.055  31.331  1.00  0.00     0.049 A 
ATOM     46  H   UNL A   1      43.129  27.021  29.870  1.00  0.00     0.167 HD
ATOM     47  C   UNL A   1      39.783  28.278  27.452  1.00  0.00     0.034 A 
ATOM     48  C   UNL A   1      44.434  26.982  32.311  1.00  0.00     0.034 A 
ATOM     49  C   UNL A   1      40.967  29.001  27.053  1.00  0.00     0.049 A 
ATOM     50  C   UNL A   1      44.151  28.299  31.707  1.00  0.00     0.074 A 
ATOM     51  C   UNL A   1      41.666  29.248  25.893  1.00  0.00     0.029 A 
ATOM     52  N   UNL A   1      41.809  29.242  28.103  1.00  0.00    -0.354 N 
ATOM     53  N   UNL A   1      44.910  28.839  30.795  1.00  0.00    -0.248 NA
ATOM     54  C   UNL A   1      42.831  28.894  31.870  1.00  0.00     0.031 C 
ATOM     55  C   UNL A   1      43.006  29.537  26.293  1.00  0.00     0.029 A 
ATOM     56  C   UNL A   1      43.078  29.515  27.683  1.00  0.00     0.049 A 
ATOM     57  H   UNL A   1      41.534  29.221  29.048  1.00  0.00     0.167 HD
ATOM     58  C   UNL A   1      44.008  29.488  29.975  1.00  0.00     0.074 A 
ATOM     59  C   UNL A   1      42.805  29.663  30.778  1.00  0.00     0.031 C 
ATOM     60  C   UNL A   1      44.176  29.492  28.623  1.00  0.00     0.034 A 
BRANCH  47  61
ATOM     61  C   UNL A   1      38.766  28.967  28.354  1.00  0.00     0.023 A 
ATOM     62  C   UNL A   1      38.726  28.547  29.705  1.00  0.00     0.012 A 
ATOM     63  C   UNL A   1      37.673  29.747  27.907  1.00  0.00     0.148 A 
ATOM     64  C   UNL A   1      37.645  28.848  30.543  1.00  0.00     0.002 A 
ATOM     65  C   UNL A   1      36.640  30.111  28.764  1.00  0.00     0.091 A 
ATOM     66  F   UNL A   1      37.538  30.037  26.613  1.00  0.00    -0.205 F 
ATOM     67  C   UNL A   1      36.603  29.638  30.077  1.00  0.00     0.022 A 
BRANCH  65  68
ATOM     68  S   UNL A   1      35.287  31.162  28.217  1.00  0.00     0.127 S 
ATOM     69  O   UNL A   1      34.507  30.236  27.404  1.00  0.00    -0.237 OA
ATOM     70  O   UNL A   1      34.673  31.540  29.491  1.00  0.00    -0.237 OA
ATOM     71  O   UNL A   1      35.912  32.270  27.507  1.00  0.00    -0.744 OA
ENDBRANCH  65  68
ENDBRANCH  47  61
BRANCH  48  72
ATOM     72  C   UNL A   1      44.667  26.852  33.768  1.00  0.00     0.023 A 
ATOM     73  C   UNL A   1      45.827  27.419  34.340  1.00  0.00     0.012 A 
ATOM     74  C   UNL A   1      43.617  26.470  34.628  1.00  0.00     0.148 A 
ATOM     75  C   UNL A   1      45.913  27.652  35.718  1.00  0.00     0.002 A 
ATOM     76  C   UNL A   1      43.704  26.708  35.997  1.00  0.00     0.091 A 
ATOM     77  F   UNL A   1      42.502  25.956  34.088  1.00  0.00    -0.205 F 
ATOM     78  C   UNL A   1      44.845  27.314  36.543  1.00  0.00     0.022 A 
BRANCH  76  79
ATOM     79  S   UNL A   1      42.359  26.334  37.133  1.00  0.00     0.127 S 
ATOM     80  O   UNL A   1      41.394  27.387  36.812  1.00  0.00    -0.237 OA
ATOM     81  O   UNL A   1      41.962  24.995  36.707  1.00  0.00    -0.237 OA
ATOM     82  O   UNL A   1      42.924  26.427  38.474  1.00  0.00    -0.744 OA
ENDBRANCH  76  79
ENDBRANCH  48  72
BRANCH  60  83
ATOM     83  C   UNL A   1      45.565  29.333  28.089  1.00  0.00     0.023 A 
ATOM     84  C   UNL A   1      46.530  30.357  28.097  1.00  0.00     0.012 A 
ATOM     85  C   UNL A   1      45.922  28.054  27.634  1.00  0.00     0.148 A 
ATOM     86  C   UNL A   1      47.829  30.105  27.643  1.00  0.00     0.002 A 
ATOM     87  C   UNL A   1      47.221  27.797  27.229  1.00  0.00     0.091 A 
ATOM     88  F   UNL A   1      44.976  27.102  27.621  1.00  0.00    -0.205 F 
ATOM     89  C   UNL A   1      48.179  28.821  27.223  1.00  0.00     0.022 A 
BRANCH  87  90
ATOM     90  S   UNL A   1      47.739  26.140  26.781  1.00  0.00     0.127 S 
ATOM     91  O   UNL A   1      46.696  25.737  25.841  1.00  0.00    -0.237 OA
ATOM     92  O   UNL A   1      49.052  26.377  26.178  1.00  0.00    -0.237 OA
ATOM     93  O   UNL A   1      47.787  25.384  28.027  1.00  0.00    -0.744 OA
ENDBRANCH  87  90
ENDBRANCH  60  83
ENDBRANCH  34  35
ENDBRANCH  26  29
ENDBRANCH  24  25
ENDBRANCH  23  24
ENDBRANCH  22  23
ENDBRANCH  21  22
ENDBRANCH   1  21
TORSDOF 22
ENDMDL
