MODEL 1
REMARK VINA RESULT:     -11.8      0.000      0.000
REMARK SMILES Cc1cc(C)c2c(c1)C=C(C(=O)NCCCCCCNC(=O)c1ccc(-c3c4nc(c(-c5cccc(S(=O)(=O)[O-])c5F)c5ccc([nH]5)c(-c5cccc(S(=O)(=O)[O-])c5F)c5nc(c(-c6cccc(S(=O)(=O)[O-])c6F)c6ccc3[nH]6)C=C5)C=C4)cc1)[C@@H](C(F)(F)F)O2
REMARK SMILES IDX 17 1 16 2 15 3 14 4 13 5 11 6 12 7 10 9 1 10 2 11 3 12 8 13
REMARK SMILES IDX 4 14 7 15 5 16 6 17 9 18 91 19 86 20 87 21 88 22 89 23 90 24
REMARK SMILES IDX 18 25 19 26 20 27 21 28 22 30 23 31 24 32 85 33 25 34 84 35
REMARK SMILES IDX 26 36 27 37 28 38 78 39 29 40 83 41 77 42 79 43 30 44 82 45
REMARK SMILES IDX 76 46 75 47 31 49 63 50 43 51 62 52 44 53 47 54 61 55 80 56
REMARK SMILES IDX 45 57 46 58 60 60 81 61 48 62 32 63 33 64 41 65 34 66 36 67
REMARK SMILES IDX 42 68 35 69 37 70 38 71 39 72 40 73 64 74 65 75 73 76 66 77
REMARK SMILES IDX 68 78 74 79 67 80 69 81 70 82 71 83 72 84 49 85 50 86 58 87
REMARK SMILES IDX 51 88 53 89 59 90 52 91 54 92 55 93 56 94 57 95
REMARK H PARENT 13 8 20 29 79 48 47 59
REMARK Flexibility Score: inf
ROOT
ATOM      1  C   UNL A   1      31.748  28.076  26.908  1.00  0.00     0.002 C 
ENDROOT
BRANCH   1   2
ATOM      2  C   UNL A   1      31.069  26.948  26.119  1.00  0.00     0.002 C 
BRANCH   2   3
ATOM      3  C   UNL A   1      31.069  27.134  24.600  1.00  0.00     0.021 C 
BRANCH   3   4
ATOM      4  C   UNL A   1      30.798  25.846  23.833  1.00  0.00     0.116 C 
BRANCH   4   5
ATOM      5  N   UNL A   1      31.576  25.777  22.609  1.00  0.00    -0.352 N 
ATOM      6  C   UNL A   1      32.587  25.022  22.119  1.00  0.00     0.251 C 
ATOM      7  O   UNL A   1      32.951  25.303  20.973  1.00  0.00    -0.270 OA
ATOM      8  H   UNL A   1      31.292  26.463  21.961  1.00  0.00     0.163 HD
BRANCH   6   9
ATOM      9  C   UNL A   1      33.265  23.914  22.858  1.00  0.00     0.067 C 
ATOM     10  C   UNL A   1      32.345  18.076  24.682  1.00  0.00     0.044 C 
ATOM     11  C   UNL A   1      33.101  19.357  24.488  1.00  0.00    -0.050 A 
ATOM     12  C   UNL A   1      34.428  19.470  24.923  1.00  0.00     0.010 A 
ATOM     13  C   UNL A   1      32.499  20.433  23.820  1.00  0.00     0.015 A 
ATOM     14  C   UNL A   1      35.150  20.650  24.717  1.00  0.00    -0.008 A 
ATOM     15  C   UNL A   1      33.206  21.620  23.610  1.00  0.00     0.018 A 
ATOM     16  C   UNL A   1      36.571  20.779  25.189  1.00  0.00     0.048 C 
ATOM     17  C   UNL A   1      34.521  21.719  24.068  1.00  0.00     0.130 A 
ATOM     18  C   UNL A   1      32.611  22.738  22.887  1.00  0.00     0.025 C 
ATOM     19  O   UNL A   1      35.279  22.834  23.864  1.00  0.00    -0.475 OA
ATOM     20  C   UNL A   1      34.575  24.064  23.576  1.00  0.00     0.314 C 
BRANCH  20  21
ATOM     21  C   UNL A   1      34.454  24.894  24.866  1.00  0.00     0.429 C 
ATOM     22  F   UNL A   1      33.341  24.544  25.556  1.00  0.00    -0.167 F 
ATOM     23  F   UNL A   1      35.500  24.704  25.706  1.00  0.00    -0.167 F 
ATOM     24  F   UNL A   1      34.385  26.222  24.623  1.00  0.00    -0.167 F 
ENDBRANCH  20  21
ENDBRANCH   6   9
ENDBRANCH   4   5
ENDBRANCH   3   4
ENDBRANCH   2   3
ENDBRANCH   1   2
BRANCH   1  25
ATOM     25  C   UNL A   1      33.278  28.014  26.947  1.00  0.00     0.021 C 
BRANCH  25  26
ATOM     26  C   UNL A   1      33.970  29.069  26.091  1.00  0.00     0.116 C 
BRANCH  26  27
ATOM     27  N   UNL A   1      33.809  30.401  26.651  1.00  0.00    -0.352 N 
ATOM     28  C   UNL A   1      34.499  30.996  27.672  1.00  0.00     0.251 C 
ATOM     29  H   UNL A   1      33.105  30.952  26.236  1.00  0.00     0.163 HD
ATOM     30  O   UNL A   1      34.081  32.037  28.176  1.00  0.00    -0.269 OA
BRANCH  28  31
ATOM     31  C   UNL A   1      35.743  30.376  28.166  1.00  0.00     0.039 A 
ATOM     32  C   UNL A   1      36.909  30.491  27.406  1.00  0.00     0.014 A 
ATOM     33  C   UNL A   1      35.754  29.678  29.378  1.00  0.00     0.014 A 
ATOM     34  C   UNL A   1      38.097  29.939  27.884  1.00  0.00     0.010 A 
ATOM     35  C   UNL A   1      36.953  29.194  29.887  1.00  0.00     0.010 A 
ATOM     36  C   UNL A   1      38.134  29.306  29.137  1.00  0.00    -0.014 A 
BRANCH  36  37
ATOM     37  C   UNL A   1      39.396  28.737  29.671  1.00  0.00     0.031 A 
ATOM     38  C   UNL A   1      40.047  29.354  30.878  1.00  0.00     0.074 A 
ATOM     39  C   UNL A   1      39.981  27.704  29.035  1.00  0.00     0.049 A 
ATOM     40  N   UNL A   1      41.161  29.017  31.473  1.00  0.00    -0.248 NA
ATOM     41  C   UNL A   1      39.371  30.514  31.487  1.00  0.00     0.031 C 
ATOM     42  C   UNL A   1      39.475  27.065  27.818  1.00  0.00     0.029 A 
ATOM     43  N   UNL A   1      41.137  27.018  29.313  1.00  0.00    -0.354 N 
ATOM     44  C   UNL A   1      41.330  29.930  32.506  1.00  0.00     0.074 A 
ATOM     45  C   UNL A   1      40.229  30.863  32.434  1.00  0.00     0.031 C 
ATOM     46  C   UNL A   1      40.307  26.073  27.464  1.00  0.00     0.029 A 
ATOM     47  C   UNL A   1      41.421  26.024  28.406  1.00  0.00     0.049 A 
ATOM     48  H   UNL A   1      41.709  27.220  30.089  1.00  0.00     0.167 HD
ATOM     49  C   UNL A   1      42.296  29.966  33.452  1.00  0.00     0.034 A 
ATOM     50  C   UNL A   1      42.463  25.170  28.341  1.00  0.00     0.034 A 
ATOM     51  C   UNL A   1      43.363  29.007  33.544  1.00  0.00     0.049 A 
ATOM     52  C   UNL A   1      43.515  25.222  29.417  1.00  0.00     0.074 A 
ATOM     53  C   UNL A   1      44.349  28.914  34.510  1.00  0.00     0.029 A 
ATOM     54  N   UNL A   1      43.587  27.978  32.642  1.00  0.00    -0.354 N 
ATOM     55  N   UNL A   1      43.580  26.002  30.470  1.00  0.00    -0.248 NA
ATOM     56  C   UNL A   1      44.621  24.259  29.316  1.00  0.00     0.031 C 
ATOM     57  C   UNL A   1      45.187  27.847  34.176  1.00  0.00     0.029 A 
ATOM     58  C   UNL A   1      44.703  27.255  33.021  1.00  0.00     0.049 A 
ATOM     59  H   UNL A   1      43.034  27.792  31.850  1.00  0.00     0.167 HD
ATOM     60  C   UNL A   1      44.713  25.604  31.171  1.00  0.00     0.074 A 
ATOM     61  C   UNL A   1      45.290  24.497  30.437  1.00  0.00     0.031 C 
ATOM     62  C   UNL A   1      45.238  26.121  32.309  1.00  0.00     0.034 A 
BRANCH  49  63
ATOM     63  C   UNL A   1      42.216  31.033  34.512  1.00  0.00     0.023 A 
ATOM     64  C   UNL A   1      41.581  30.743  35.737  1.00  0.00     0.012 A 
ATOM     65  C   UNL A   1      42.858  32.275  34.342  1.00  0.00     0.148 A 
ATOM     66  C   UNL A   1      41.570  31.679  36.770  1.00  0.00     0.002 A 
ATOM     67  C   UNL A   1      42.884  33.184  35.393  1.00  0.00     0.091 A 
ATOM     68  F   UNL A   1      43.438  32.538  33.163  1.00  0.00    -0.205 F 
ATOM     69  C   UNL A   1      42.232  32.892  36.603  1.00  0.00     0.022 A 
BRANCH  67  70
ATOM     70  S   UNL A   1      43.784  34.737  35.316  1.00  0.00     0.127 S 
ATOM     71  O   UNL A   1      45.134  34.279  34.987  1.00  0.00    -0.237 OA
ATOM     72  O   UNL A   1      43.095  35.434  34.229  1.00  0.00    -0.237 OA
ATOM     73  O   UNL A   1      43.641  35.353  36.626  1.00  0.00    -0.744 OA
ENDBRANCH  67  70
ENDBRANCH  49  63
BRANCH  50  74
ATOM     74  C   UNL A   1      42.518  24.146  27.258  1.00  0.00     0.023 A 
ATOM     75  C   UNL A   1      43.197  24.443  26.061  1.00  0.00     0.012 A 
ATOM     76  C   UNL A   1      41.940  22.872  27.420  1.00  0.00     0.148 A 
ATOM     77  C   UNL A   1      43.279  23.500  25.035  1.00  0.00     0.002 A 
ATOM     78  C   UNL A   1      42.077  21.916  26.419  1.00  0.00     0.091 A 
ATOM     79  F   UNL A   1      41.286  22.612  28.561  1.00  0.00    -0.205 F 
ATOM     80  C   UNL A   1      42.729  22.234  25.218  1.00  0.00     0.022 A 
BRANCH  78  81
ATOM     81  S   UNL A   1      41.527  20.218  26.624  1.00  0.00     0.127 S 
ATOM     82  O   UNL A   1      41.972  19.606  25.374  1.00  0.00    -0.237 OA
ATOM     83  O   UNL A   1      42.272  19.804  27.813  1.00  0.00    -0.237 OA
ATOM     84  O   UNL A   1      40.085  20.291  26.814  1.00  0.00    -0.744 OA
ENDBRANCH  78  81
ENDBRANCH  50  74
BRANCH  62  85
ATOM     85  C   UNL A   1      46.496  25.499  32.857  1.00  0.00     0.023 A 
ATOM     86  C   UNL A   1      47.748  26.052  32.525  1.00  0.00     0.012 A 
ATOM     87  C   UNL A   1      46.430  24.449  33.795  1.00  0.00     0.148 A 
ATOM     88  C   UNL A   1      48.917  25.556  33.101  1.00  0.00     0.002 A 
ATOM     89  C   UNL A   1      47.594  23.996  34.405  1.00  0.00     0.091 A 
ATOM     90  F   UNL A   1      45.230  23.927  34.088  1.00  0.00    -0.205 F 
ATOM     91  C   UNL A   1      48.839  24.541  34.051  1.00  0.00     0.022 A 
BRANCH  89  92
ATOM     92  S   UNL A   1      47.584  22.772  35.721  1.00  0.00     0.127 S 
ATOM     93  O   UNL A   1      47.014  21.611  35.040  1.00  0.00    -0.237 OA
ATOM     94  O   UNL A   1      49.006  22.653  36.042  1.00  0.00    -0.237 OA
ATOM     95  O   UNL A   1      46.765  23.332  36.786  1.00  0.00    -0.744 OA
ENDBRANCH  89  92
ENDBRANCH  62  85
ENDBRANCH  36  37
ENDBRANCH  28  31
ENDBRANCH  26  27
ENDBRANCH  25  26
ENDBRANCH   1  25
TORSDOF 17
ENDMDL
MODEL 2
REMARK VINA RESULT:     -11.7      1.860      2.533
REMARK SMILES Cc1cc(C)c2c(c1)C=C(C(=O)NCCCCCCNC(=O)c1ccc(-c3c4nc(c(-c5cccc(S(=O)(=O)[O-])c5F)c5ccc([nH]5)c(-c5cccc(S(=O)(=O)[O-])c5F)c5nc(c(-c6cccc(S(=O)(=O)[O-])c6F)c6ccc3[nH]6)C=C5)C=C4)cc1)[C@@H](C(F)(F)F)O2
REMARK SMILES IDX 17 1 16 2 15 3 14 4 13 5 11 6 12 7 10 9 1 10 2 11 3 12 8 13
REMARK SMILES IDX 4 14 7 15 5 16 6 17 9 18 91 19 86 20 87 21 88 22 89 23 90 24
REMARK SMILES IDX 18 25 19 26 20 27 21 28 22 30 23 31 24 32 85 33 25 34 84 35
REMARK SMILES IDX 26 36 27 37 28 38 78 39 29 40 83 41 77 42 79 43 30 44 82 45
REMARK SMILES IDX 76 46 75 47 31 49 63 50 43 51 62 52 44 53 47 54 61 55 80 56
REMARK SMILES IDX 45 57 46 58 60 60 81 61 48 62 32 63 33 64 41 65 34 66 36 67
REMARK SMILES IDX 42 68 35 69 37 70 38 71 39 72 40 73 64 74 65 75 73 76 66 77
REMARK SMILES IDX 68 78 74 79 67 80 69 81 70 82 71 83 72 84 49 85 50 86 58 87
REMARK SMILES IDX 51 88 53 89 59 90 52 91 54 92 55 93 56 94 57 95
REMARK H PARENT 13 8 20 29 79 48 47 59
REMARK Flexibility Score: inf
ROOT
ATOM      1  C   UNL A   1      31.047  27.823  25.530  1.00  0.00     0.002 C 
ENDROOT
BRANCH   1   2
ATOM      2  C   UNL A   1      30.704  28.518  24.205  1.00  0.00     0.002 C 
BRANCH   2   3
ATOM      3  C   UNL A   1      30.143  27.596  23.121  1.00  0.00     0.021 C 
BRANCH   3   4
ATOM      4  C   UNL A   1      30.771  26.207  23.124  1.00  0.00     0.116 C 
BRANCH   4   5
ATOM      5  N   UNL A   1      31.680  26.028  22.005  1.00  0.00    -0.352 N 
ATOM      6  C   UNL A   1      32.724  25.223  21.697  1.00  0.00     0.251 C 
ATOM      7  O   UNL A   1      33.219  25.404  20.580  1.00  0.00    -0.270 OA
ATOM      8  H   UNL A   1      31.484  26.660  21.276  1.00  0.00     0.163 HD
BRANCH   6   9
ATOM      9  C   UNL A   1      33.291  24.173  22.595  1.00  0.00     0.067 C 
ATOM     10  C   UNL A   1      32.316  18.334  24.390  1.00  0.00     0.044 C 
ATOM     11  C   UNL A   1      33.029  19.651  24.311  1.00  0.00    -0.050 A 
ATOM     12  C   UNL A   1      34.231  19.850  25.003  1.00  0.00     0.010 A 
ATOM     13  C   UNL A   1      32.523  20.676  23.499  1.00  0.00     0.015 A 
ATOM     14  C   UNL A   1      34.918  21.064  24.908  1.00  0.00    -0.008 A 
ATOM     15  C   UNL A   1      33.196  21.896  23.397  1.00  0.00     0.018 A 
ATOM     16  C   UNL A   1      36.203  21.285  25.656  1.00  0.00     0.048 C 
ATOM     17  C   UNL A   1      34.382  22.080  24.110  1.00  0.00     0.130 A 
ATOM     18  C   UNL A   1      32.706  22.962  22.531  1.00  0.00     0.025 C 
ATOM     19  O   UNL A   1      35.108  23.232  24.026  1.00  0.00    -0.475 OA
ATOM     20  C   UNL A   1      34.416  24.413  23.560  1.00  0.00     0.314 C 
BRANCH  20  21
ATOM     21  C   UNL A   1      33.990  25.264  24.769  1.00  0.00     0.429 C 
ATOM     22  F   UNL A   1      34.917  25.190  25.755  1.00  0.00    -0.167 F 
ATOM     23  F   UNL A   1      33.863  26.578  24.461  1.00  0.00    -0.167 F 
ATOM     24  F   UNL A   1      32.806  24.869  25.289  1.00  0.00    -0.167 F 
ENDBRANCH  20  21
ENDBRANCH   6   9
ENDBRANCH   4   5
ENDBRANCH   3   4
ENDBRANCH   2   3
ENDBRANCH   1   2
BRANCH   1  25
ATOM     25  C   UNL A   1      31.873  28.661  26.510  1.00  0.00     0.021 C 
BRANCH  25  26
ATOM     26  C   UNL A   1      32.871  29.601  25.844  1.00  0.00     0.116 C 
BRANCH  26  27
ATOM     27  N   UNL A   1      32.598  30.991  26.171  1.00  0.00    -0.352 N 
ATOM     28  C   UNL A   1      33.174  31.780  27.130  1.00  0.00     0.251 C 
ATOM     29  H   UNL A   1      31.901  31.424  25.626  1.00  0.00     0.163 HD
ATOM     30  O   UNL A   1      32.663  32.857  27.431  1.00  0.00    -0.269 OA
BRANCH  28  31
ATOM     31  C   UNL A   1      34.405  31.324  27.802  1.00  0.00     0.039 A 
ATOM     32  C   UNL A   1      35.396  32.259  28.111  1.00  0.00     0.014 A 
ATOM     33  C   UNL A   1      34.580  29.974  28.121  1.00  0.00     0.014 A 
ATOM     34  C   UNL A   1      36.548  31.842  28.779  1.00  0.00     0.010 A 
ATOM     35  C   UNL A   1      35.693  29.575  28.852  1.00  0.00     0.010 A 
ATOM     36  C   UNL A   1      36.696  30.502  29.174  1.00  0.00    -0.014 A 
BRANCH  36  37
ATOM     37  C   UNL A   1      37.902  30.049  29.908  1.00  0.00     0.031 A 
ATOM     38  C   UNL A   1      38.182  30.574  31.289  1.00  0.00     0.074 A 
ATOM     39  C   UNL A   1      38.771  29.212  29.309  1.00  0.00     0.049 A 
ATOM     40  N   UNL A   1      39.194  30.318  32.076  1.00  0.00    -0.248 NA
ATOM     41  C   UNL A   1      37.209  31.526  31.856  1.00  0.00     0.031 C 
ATOM     42  C   UNL A   1      38.637  28.689  27.948  1.00  0.00     0.029 A 
ATOM     43  N   UNL A   1      39.946  28.666  29.759  1.00  0.00    -0.354 N 
ATOM     44  C   UNL A   1      38.994  31.088  33.214  1.00  0.00     0.074 A 
ATOM     45  C   UNL A   1      37.788  31.855  33.002  1.00  0.00     0.031 C 
ATOM     46  C   UNL A   1      39.680  27.887  27.680  1.00  0.00     0.029 A 
ATOM     47  C   UNL A   1      40.573  27.863  28.834  1.00  0.00     0.049 A 
ATOM     48  H   UNL A   1      40.308  28.835  30.660  1.00  0.00     0.167 HD
ATOM     49  C   UNL A   1      39.729  31.126  34.349  1.00  0.00     0.034 A 
ATOM     50  C   UNL A   1      41.736  27.186  28.910  1.00  0.00     0.034 A 
ATOM     51  C   UNL A   1      40.903  30.326  34.570  1.00  0.00     0.049 A 
ATOM     52  C   UNL A   1      42.526  27.232  30.191  1.00  0.00     0.074 A 
ATOM     53  C   UNL A   1      41.675  30.238  35.715  1.00  0.00     0.029 A 
ATOM     54  N   UNL A   1      41.476  29.480  33.633  1.00  0.00    -0.354 N 
ATOM     55  N   UNL A   1      42.243  27.855  31.311  1.00  0.00    -0.248 NA
ATOM     56  C   UNL A   1      43.777  26.462  30.233  1.00  0.00     0.031 C 
ATOM     57  C   UNL A   1      42.733  29.361  35.460  1.00  0.00     0.029 A 
ATOM     58  C   UNL A   1      42.600  28.878  34.168  1.00  0.00     0.049 A 
ATOM     59  H   UNL A   1      41.134  29.332  32.722  1.00  0.00     0.167 HD
ATOM     60  C   UNL A   1      43.263  27.527  32.197  1.00  0.00     0.074 A 
ATOM     61  C   UNL A   1      44.156  26.630  31.493  1.00  0.00     0.031 C 
ATOM     62  C   UNL A   1      43.452  27.946  33.473  1.00  0.00     0.034 A 
BRANCH  49  63
ATOM     63  C   UNL A   1      39.256  32.008  35.475  1.00  0.00     0.023 A 
ATOM     64  C   UNL A   1      38.405  31.470  36.462  1.00  0.00     0.012 A 
ATOM     65  C   UNL A   1      39.737  33.324  35.618  1.00  0.00     0.148 A 
ATOM     66  C   UNL A   1      38.023  32.235  37.564  1.00  0.00     0.002 A 
ATOM     67  C   UNL A   1      39.391  34.063  36.742  1.00  0.00     0.091 A 
ATOM     68  F   UNL A   1      40.529  33.822  34.658  1.00  0.00    -0.205 F 
ATOM     69  C   UNL A   1      38.527  33.525  37.711  1.00  0.00     0.022 A 
BRANCH  67  70
ATOM     70  S   UNL A   1      40.054  35.700  37.074  1.00  0.00     0.127 S 
ATOM     71  O   UNL A   1      41.487  35.423  37.175  1.00  0.00    -0.237 OA
ATOM     72  O   UNL A   1      39.659  36.437  35.873  1.00  0.00    -0.237 OA
ATOM     73  O   UNL A   1      39.422  36.150  38.305  1.00  0.00    -0.744 OA
ENDBRANCH  67  70
ENDBRANCH  49  63
BRANCH  50  74
ATOM     74  C   UNL A   1      42.182  26.346  27.760  1.00  0.00     0.023 A 
ATOM     75  C   UNL A   1      43.017  26.909  26.776  1.00  0.00     0.012 A 
ATOM     76  C   UNL A   1      41.821  24.988  27.657  1.00  0.00     0.148 A 
ATOM     77  C   UNL A   1      43.463  26.145  25.696  1.00  0.00     0.002 A 
ATOM     78  C   UNL A   1      42.317  24.217  26.612  1.00  0.00     0.091 A 
ATOM     79  F   UNL A   1      41.015  24.473  28.596  1.00  0.00    -0.205 F 
ATOM     80  C   UNL A   1      43.122  24.797  25.620  1.00  0.00     0.022 A 
BRANCH  78  81
ATOM     81  S   UNL A   1      42.050  22.443  26.511  1.00  0.00     0.127 S 
ATOM     82  O   UNL A   1      42.664  21.975  27.750  1.00  0.00    -0.237 OA
ATOM     83  O   UNL A   1      40.589  22.362  26.478  1.00  0.00    -0.237 OA
ATOM     84  O   UNL A   1      42.702  22.016  25.281  1.00  0.00    -0.744 OA
ENDBRANCH  78  81
ENDBRANCH  50  74
BRANCH  62  85
ATOM     85  C   UNL A   1      44.661  27.438  34.215  1.00  0.00     0.023 A 
ATOM     86  C   UNL A   1      45.816  28.240  34.296  1.00  0.00     0.012 A 
ATOM     87  C   UNL A   1      44.608  26.226  34.933  1.00  0.00     0.148 A 
ATOM     88  C   UNL A   1      46.908  27.834  35.061  1.00  0.00     0.002 A 
ATOM     89  C   UNL A   1      45.680  25.855  35.737  1.00  0.00     0.091 A 
ATOM     90  F   UNL A   1      43.505  25.470  34.833  1.00  0.00    -0.205 F 
ATOM     91  C   UNL A   1      46.835  26.652  35.793  1.00  0.00     0.022 A 
BRANCH  89  92
ATOM     92  S   UNL A   1      45.634  24.409  36.803  1.00  0.00     0.127 S 
ATOM     93  O   UNL A   1      47.024  24.328  37.252  1.00  0.00    -0.237 OA
ATOM     94  O   UNL A   1      44.683  24.818  37.837  1.00  0.00    -0.237 OA
ATOM     95  O   UNL A   1      45.186  23.305  35.967  1.00  0.00    -0.744 OA
ENDBRANCH  89  92
ENDBRANCH  62  85
ENDBRANCH  36  37
ENDBRANCH  28  31
ENDBRANCH  26  27
ENDBRANCH  25  26
ENDBRANCH   1  25
TORSDOF 17
ENDMDL
MODEL 3
REMARK VINA RESULT:     -11.5      5.110      9.777
REMARK SMILES Cc1cc(C)c2c(c1)C=C(C(=O)NCCCCCCNC(=O)c1ccc(-c3c4nc(c(-c5cccc(S(=O)(=O)[O-])c5F)c5ccc([nH]5)c(-c5cccc(S(=O)(=O)[O-])c5F)c5nc(c(-c6cccc(S(=O)(=O)[O-])c6F)c6ccc3[nH]6)C=C5)C=C4)cc1)[C@@H](C(F)(F)F)O2
REMARK SMILES IDX 17 1 16 2 15 3 14 4 13 5 11 6 12 7 10 9 1 10 2 11 3 12 8 13
REMARK SMILES IDX 4 14 7 15 5 16 6 17 9 18 91 19 86 20 87 21 88 22 89 23 90 24
REMARK SMILES IDX 18 25 19 26 20 27 21 28 22 30 23 31 24 32 85 33 25 34 84 35
REMARK SMILES IDX 26 36 27 37 28 38 78 39 29 40 83 41 77 42 79 43 30 44 82 45
REMARK SMILES IDX 76 46 75 47 31 49 63 50 43 51 62 52 44 53 47 54 61 55 80 56
REMARK SMILES IDX 45 57 46 58 60 60 81 61 48 62 32 63 33 64 41 65 34 66 36 67
REMARK SMILES IDX 42 68 35 69 37 70 38 71 39 72 40 73 64 74 65 75 73 76 66 77
REMARK SMILES IDX 68 78 74 79 67 80 69 81 70 82 71 83 72 84 49 85 50 86 58 87
REMARK SMILES IDX 51 88 53 89 59 90 52 91 54 92 55 93 56 94 57 95
REMARK H PARENT 13 8 20 29 79 48 47 59
REMARK Flexibility Score: inf
ROOT
ATOM      1  C   UNL A   1      35.220  22.854  25.702  1.00  0.00     0.002 C 
ENDROOT
BRANCH   1   2
ATOM      2  C   UNL A   1      34.241  22.254  26.719  1.00  0.00     0.002 C 
BRANCH   2   3
ATOM      3  C   UNL A   1      33.421  21.069  26.202  1.00  0.00     0.021 C 
BRANCH   3   4
ATOM      4  C   UNL A   1      32.203  21.487  25.388  1.00  0.00     0.116 C 
BRANCH   4   5
ATOM      5  N   UNL A   1      31.200  22.132  26.216  1.00  0.00    -0.352 N 
ATOM      6  C   UNL A   1      30.777  23.395  26.456  1.00  0.00     0.251 C 
ATOM      7  O   UNL A   1      29.840  23.497  27.256  1.00  0.00    -0.270 OA
ATOM      8  H   UNL A   1      30.692  21.475  26.745  1.00  0.00     0.163 HD
BRANCH   6   9
ATOM      9  C   UNL A   1      31.355  24.625  25.837  1.00  0.00     0.067 C 
ATOM     10  C   UNL A   1      32.069  30.676  26.908  1.00  0.00     0.044 C 
ATOM     11  C   UNL A   1      32.225  29.378  26.172  1.00  0.00    -0.050 A 
ATOM     12  C   UNL A   1      32.959  29.322  24.980  1.00  0.00     0.010 A 
ATOM     13  C   UNL A   1      31.681  28.200  26.703  1.00  0.00     0.015 A 
ATOM     14  C   UNL A   1      33.137  28.110  24.305  1.00  0.00    -0.008 A 
ATOM     15  C   UNL A   1      31.846  26.982  26.038  1.00  0.00     0.018 A 
ATOM     16  C   UNL A   1      33.916  28.047  23.022  1.00  0.00     0.048 C 
ATOM     17  C   UNL A   1      32.565  26.951  24.842  1.00  0.00     0.130 A 
ATOM     18  C   UNL A   1      31.318  25.740  26.591  1.00  0.00     0.025 C 
ATOM     19  O   UNL A   1      32.795  25.791  24.162  1.00  0.00    -0.475 OA
ATOM     20  C   UNL A   1      31.915  24.679  24.444  1.00  0.00     0.314 C 
BRANCH  20  21
ATOM     21  C   UNL A   1      30.824  24.606  23.362  1.00  0.00     0.429 C 
ATOM     22  F   UNL A   1      30.373  23.335  23.224  1.00  0.00    -0.167 F 
ATOM     23  F   UNL A   1      29.743  25.366  23.663  1.00  0.00    -0.167 F 
ATOM     24  F   UNL A   1      31.266  25.018  22.152  1.00  0.00    -0.167 F 
ENDBRANCH  20  21
ENDBRANCH   6   9
ENDBRANCH   4   5
ENDBRANCH   3   4
ENDBRANCH   2   3
ENDBRANCH   1   2
BRANCH   1  25
ATOM     25  C   UNL A   1      35.867  21.846  24.747  1.00  0.00     0.021 C 
BRANCH  25  26
ATOM     26  C   UNL A   1      37.384  21.962  24.648  1.00  0.00     0.116 C 
BRANCH  26  27
ATOM     27  N   UNL A   1      38.051  20.892  25.372  1.00  0.00    -0.352 N 
ATOM     28  C   UNL A   1      39.177  20.947  26.147  1.00  0.00     0.251 C 
ATOM     29  H   UNL A   1      37.632  20.003  25.294  1.00  0.00     0.163 HD
ATOM     30  O   UNL A   1      39.740  19.910  26.494  1.00  0.00    -0.269 OA
BRANCH  28  31
ATOM     31  C   UNL A   1      39.713  22.259  26.557  1.00  0.00     0.039 A 
ATOM     32  C   UNL A   1      40.843  22.306  27.376  1.00  0.00     0.014 A 
ATOM     33  C   UNL A   1      39.094  23.440  26.134  1.00  0.00     0.014 A 
ATOM     34  C   UNL A   1      41.378  23.543  27.738  1.00  0.00     0.010 A 
ATOM     35  C   UNL A   1      39.672  24.668  26.434  1.00  0.00     0.010 A 
ATOM     36  C   UNL A   1      40.810  24.733  27.252  1.00  0.00    -0.014 A 
BRANCH  36  37
ATOM     37  C   UNL A   1      41.383  26.054  27.607  1.00  0.00     0.031 A 
ATOM     38  C   UNL A   1      42.793  26.392  27.209  1.00  0.00     0.074 A 
ATOM     39  C   UNL A   1      40.653  26.923  28.333  1.00  0.00     0.049 A 
ATOM     40  N   UNL A   1      43.475  27.481  27.450  1.00  0.00    -0.248 NA
ATOM     41  C   UNL A   1      43.544  25.369  26.460  1.00  0.00     0.031 C 
ATOM     42  C   UNL A   1      39.297  26.678  28.830  1.00  0.00     0.029 A 
ATOM     43  N   UNL A   1      40.952  28.180  28.794  1.00  0.00    -0.354 N 
ATOM     44  C   UNL A   1      44.735  27.266  26.906  1.00  0.00     0.074 A 
ATOM     45  C   UNL A   1      44.741  25.929  26.359  1.00  0.00     0.031 C 
ATOM     46  C   UNL A   1      38.877  27.755  29.512  1.00  0.00     0.029 A 
ATOM     47  C   UNL A   1      39.942  28.753  29.530  1.00  0.00     0.049 A 
ATOM     48  H   UNL A   1      41.810  28.629  28.614  1.00  0.00     0.167 HD
ATOM     49  C   UNL A   1      45.782  28.121  26.836  1.00  0.00     0.034 A 
ATOM     50  C   UNL A   1      39.882  29.949  30.151  1.00  0.00     0.034 A 
ATOM     51  C   UNL A   1      45.754  29.465  27.342  1.00  0.00     0.049 A 
ATOM     52  C   UNL A   1      41.055  30.886  30.042  1.00  0.00     0.074 A 
ATOM     53  C   UNL A   1      46.738  30.434  27.254  1.00  0.00     0.029 A 
ATOM     54  N   UNL A   1      44.693  30.033  28.032  1.00  0.00    -0.354 N 
ATOM     55  N   UNL A   1      42.186  30.720  29.397  1.00  0.00    -0.248 NA
ATOM     56  C   UNL A   1      40.936  32.186  30.718  1.00  0.00     0.031 C 
ATOM     57  C   UNL A   1      46.284  31.578  27.915  1.00  0.00     0.029 A 
ATOM     58  C   UNL A   1      45.004  31.333  28.387  1.00  0.00     0.049 A 
ATOM     59  H   UNL A   1      43.845  29.577  28.238  1.00  0.00     0.167 HD
ATOM     60  C   UNL A   1      42.898  31.903  29.564  1.00  0.00     0.074 A 
ATOM     61  C   UNL A   1      42.060  32.787  30.348  1.00  0.00     0.031 C 
ATOM     62  C   UNL A   1      44.140  32.221  29.124  1.00  0.00     0.034 A 
BRANCH  49  63
ATOM     63  C   UNL A   1      47.029  27.662  26.127  1.00  0.00     0.023 A 
ATOM     64  C   UNL A   1      47.980  26.894  26.831  1.00  0.00     0.012 A 
ATOM     65  C   UNL A   1      47.209  27.892  24.750  1.00  0.00     0.148 A 
ATOM     66  C   UNL A   1      49.100  26.380  26.179  1.00  0.00     0.002 A 
ATOM     67  C   UNL A   1      48.302  27.336  24.097  1.00  0.00     0.091 A 
ATOM     68  F   UNL A   1      46.304  28.641  24.104  1.00  0.00    -0.205 F 
ATOM     69  C   UNL A   1      49.254  26.589  24.811  1.00  0.00     0.022 A 
BRANCH  67  70
ATOM     70  S   UNL A   1      48.548  27.468  22.322  1.00  0.00     0.127 S 
ATOM     71  O   UNL A   1      47.318  28.139  21.903  1.00  0.00    -0.237 OA
ATOM     72  O   UNL A   1      49.752  28.297  22.242  1.00  0.00    -0.237 OA
ATOM     73  O   UNL A   1      48.708  26.106  21.834  1.00  0.00    -0.744 OA
ENDBRANCH  67  70
ENDBRANCH  49  63
BRANCH  50  74
ATOM     74  C   UNL A   1      38.636  30.353  30.865  1.00  0.00     0.023 A 
ATOM     75  C   UNL A   1      38.495  30.049  32.233  1.00  0.00     0.012 A 
ATOM     76  C   UNL A   1      37.613  31.070  30.214  1.00  0.00     0.148 A 
ATOM     77  C   UNL A   1      37.348  30.427  32.933  1.00  0.00     0.002 A 
ATOM     78  C   UNL A   1      36.501  31.496  30.931  1.00  0.00     0.091 A 
ATOM     79  F   UNL A   1      37.760  31.339  28.909  1.00  0.00    -0.205 F 
ATOM     80  C   UNL A   1      36.357  31.160  32.286  1.00  0.00     0.022 A 
BRANCH  78  81
ATOM     81  S   UNL A   1      35.245  32.564  30.218  1.00  0.00     0.127 S 
ATOM     82  O   UNL A   1      34.316  32.722  31.334  1.00  0.00    -0.237 OA
ATOM     83  O   UNL A   1      36.020  33.760  29.888  1.00  0.00    -0.237 OA
ATOM     84  O   UNL A   1      34.727  31.846  29.062  1.00  0.00    -0.744 OA
ENDBRANCH  78  81
ENDBRANCH  50  74
BRANCH  62  85
ATOM     85  C   UNL A   1      44.684  33.585  29.457  1.00  0.00     0.023 A 
ATOM     86  C   UNL A   1      45.419  33.771  30.645  1.00  0.00     0.012 A 
ATOM     87  C   UNL A   1      44.574  34.649  28.539  1.00  0.00     0.148 A 
ATOM     88  C   UNL A   1      46.016  34.999  30.924  1.00  0.00     0.002 A 
ATOM     89  C   UNL A   1      45.218  35.853  28.798  1.00  0.00     0.091 A 
ATOM     90  F   UNL A   1      43.859  34.457  27.421  1.00  0.00    -0.205 F 
ATOM     91  C   UNL A   1      45.930  36.033  29.996  1.00  0.00     0.022 A 
BRANCH  89  92
ATOM     92  S   UNL A   1      45.259  37.204  27.614  1.00  0.00     0.127 S 
ATOM     93  O   UNL A   1      43.873  37.232  27.149  1.00  0.00    -0.237 OA
ATOM     94  O   UNL A   1      45.643  38.338  28.454  1.00  0.00    -0.237 OA
ATOM     95  O   UNL A   1      46.244  36.830  26.609  1.00  0.00    -0.744 OA
ENDBRANCH  89  92
ENDBRANCH  62  85
ENDBRANCH  36  37
ENDBRANCH  28  31
ENDBRANCH  26  27
ENDBRANCH  25  26
ENDBRANCH   1  25
TORSDOF 17
ENDMDL
