MODEL 1
REMARK VINA RESULT:     -12.3      0.000      0.000
REMARK SMILES CC1(C)S[C@H](c2ccc(-c3cccc([N+](=O)[O-])c3)o2)[NH2+][C@@H]1C(=O)NCCCCCCNC(=O)c1ccc(-c2c3nc(c(-c4cccc(S(=O)(=O)[O-])c4F)c4ccc([nH]4)c(-c4cccc(S(=O)(=O)[O-])c4F)c4nc(c(-c5cccc(S(=O)(=O)[O-])c5F)c5ccc2[nH]5)C=C4)C=C3)cc1
REMARK SMILES IDX 27 1 26 2 25 3 24 4 22 5 23 6 21 8 1 9 2 10 3 11 4 12 5 13
REMARK SMILES IDX 20 14 6 17 7 18 19 19 8 20 9 21 10 22 11 23 18 24 12 25
REMARK SMILES IDX 14 26 13 27 15 28 16 29 17 30 28 31 29 32 30 33 31 34 32 35
REMARK SMILES IDX 33 37 34 38 35 39 96 40 36 41 95 42 37 43 38 44 39 45 89 46
REMARK SMILES IDX 40 47 94 48 88 49 90 50 41 51 93 52 87 53 86 54 42 56 74 57
REMARK SMILES IDX 54 58 73 59 55 60 58 61 72 62 91 63 56 64 57 65 71 67 92 68
REMARK SMILES IDX 59 69 43 70 44 71 52 72 45 73 47 74 53 75 46 76 48 77 49 78
REMARK SMILES IDX 50 79 51 80 75 81 76 82 84 83 77 84 79 85 85 86 78 87 80 88
REMARK SMILES IDX 81 89 82 90 83 91 60 92 61 93 69 94 62 95 64 96 70 97 63 98
REMARK SMILES IDX 65 99 66 100 67 101 68 102
REMARK H PARENT 24 7 20 15 20 16 31 36 90 55 58 66
REMARK Flexibility Score: inf
ROOT
ATOM      1  C   UNL A   1      32.922  29.044  22.751  1.00  0.00     0.002 C 
ENDROOT
BRANCH   1   2
ATOM      2  C   UNL A   1      33.984  28.042  22.299  1.00  0.00     0.021 C 
BRANCH   2   3
ATOM      3  C   UNL A   1      33.565  26.576  22.394  1.00  0.00     0.116 C 
BRANCH   3   4
ATOM      4  N   UNL A   1      33.978  25.943  23.636  1.00  0.00    -0.351 N 
ATOM      5  C   UNL A   1      33.192  25.242  24.518  1.00  0.00     0.279 C 
ATOM      6  O   UNL A   1      33.758  24.674  25.451  1.00  0.00    -0.268 OA
ATOM      7  H   UNL A   1      34.930  26.026  23.872  1.00  0.00     0.163 HD
BRANCH   5   8
ATOM      8  C   UNL A   1      31.655  25.320  24.347  1.00  0.00     0.289 C 
ATOM      9  C   UNL A   1      29.466  26.366  25.066  1.00  0.00     0.030 C 
ATOM     10  C   UNL A   1      30.784  25.730  25.560  1.00  0.00     0.078 C 
ATOM     11  C   UNL A   1      31.408  26.675  26.586  1.00  0.00     0.030 C 
ATOM     12  S   UNL A   1      30.384  24.145  26.371  1.00  0.00    -0.078 SA
ATOM     13  C   UNL A   1      30.826  23.141  24.935  1.00  0.00     0.311 C 
ATOM     14  N   UNL A   1      31.127  24.029  23.809  1.00  0.00    -0.317 N 
ATOM     15  H   UNL A   1      30.278  24.202  23.273  1.00  0.00     0.348 HD
ATOM     16  H   UNL A   1      31.821  23.596  23.200  1.00  0.00     0.348 HD
BRANCH  13  17
ATOM     17  C   UNL A   1      31.845  22.088  25.264  1.00  0.00     0.172 A 
ATOM     18  C   UNL A   1      32.642  21.954  26.387  1.00  0.00     0.054 A 
ATOM     19  O   UNL A   1      32.083  21.032  24.414  1.00  0.00    -0.454 OA
ATOM     20  C   UNL A   1      33.375  20.759  26.237  1.00  0.00     0.051 A 
ATOM     21  C   UNL A   1      33.004  20.219  25.024  1.00  0.00     0.134 A 
BRANCH  21  22
ATOM     22  C   UNL A   1      33.337  18.955  24.376  1.00  0.00     0.024 A 
ATOM     23  C   UNL A   1      32.868  18.627  23.096  1.00  0.00     0.012 A 
ATOM     24  C   UNL A   1      34.127  18.020  25.068  1.00  0.00     0.097 A 
ATOM     25  C   UNL A   1      33.177  17.388  22.515  1.00  0.00     0.008 A 
ATOM     26  C   UNL A   1      34.412  16.773  24.493  1.00  0.00     0.270 A 
ATOM     27  C   UNL A   1      33.950  16.454  23.211  1.00  0.00     0.085 A 
BRANCH  26  28
ATOM     28  N   UNL A   1      35.163  15.775  25.264  1.00  0.00     0.062 N 
ATOM     29  O   UNL A   1      36.251  16.123  25.742  1.00  0.00    -0.258 OA
ATOM     30  O   UNL A   1      34.653  14.656  25.404  1.00  0.00    -0.258 OA
ENDBRANCH  26  28
ENDBRANCH  21  22
ENDBRANCH  13  17
ENDBRANCH   5   8
ENDBRANCH   3   4
ENDBRANCH   2   3
ENDBRANCH   1   2
BRANCH   1  31
ATOM     31  C   UNL A   1      32.594  28.986  24.238  1.00  0.00     0.002 C 
BRANCH  31  32
ATOM     32  C   UNL A   1      33.701  29.375  25.204  1.00  0.00     0.021 C 
BRANCH  32  33
ATOM     33  C   UNL A   1      33.201  29.761  26.582  1.00  0.00     0.116 C 
BRANCH  33  34
ATOM     34  N   UNL A   1      33.063  31.199  26.765  1.00  0.00    -0.352 N 
ATOM     35  C   UNL A   1      33.831  32.047  27.528  1.00  0.00     0.251 C 
ATOM     36  H   UNL A   1      32.320  31.621  26.277  1.00  0.00     0.163 HD
ATOM     37  O   UNL A   1      33.518  33.225  27.641  1.00  0.00    -0.269 OA
BRANCH  35  38
ATOM     38  C   UNL A   1      35.027  31.513  28.211  1.00  0.00     0.039 A 
ATOM     39  C   UNL A   1      34.987  30.232  28.762  1.00  0.00     0.014 A 
ATOM     40  C   UNL A   1      36.196  32.274  28.284  1.00  0.00     0.014 A 
ATOM     41  C   UNL A   1      36.137  29.705  29.354  1.00  0.00     0.010 A 
ATOM     42  C   UNL A   1      37.366  31.703  28.757  1.00  0.00     0.010 A 
ATOM     43  C   UNL A   1      37.342  30.429  29.338  1.00  0.00    -0.014 A 
BRANCH  43  44
ATOM     44  C   UNL A   1      38.573  29.898  29.970  1.00  0.00     0.031 A 
ATOM     45  C   UNL A   1      38.981  30.382  31.340  1.00  0.00     0.074 A 
ATOM     46  C   UNL A   1      39.357  29.038  29.292  1.00  0.00     0.049 A 
ATOM     47  N   UNL A   1      40.027  30.054  32.052  1.00  0.00    -0.248 NA
ATOM     48  C   UNL A   1      38.124  31.398  31.978  1.00  0.00     0.031 C 
ATOM     49  C   UNL A   1      39.123  28.575  27.923  1.00  0.00     0.029 A 
ATOM     50  N   UNL A   1      40.521  28.412  29.659  1.00  0.00    -0.354 N 
ATOM     51  C   UNL A   1      39.972  30.846  33.194  1.00  0.00     0.074 A 
ATOM     52  C   UNL A   1      38.825  31.714  33.054  1.00  0.00     0.031 C 
ATOM     53  C   UNL A   1      40.098  27.720  27.574  1.00  0.00     0.029 A 
ATOM     54  C   UNL A   1      41.039  27.595  28.682  1.00  0.00     0.049 A 
ATOM     55  H   UNL A   1      40.945  28.536  30.538  1.00  0.00     0.167 HD
ATOM     56  C   UNL A   1      40.776  30.827  34.282  1.00  0.00     0.034 A 
ATOM     57  C   UNL A   1      42.146  26.828  28.685  1.00  0.00     0.034 A 
ATOM     58  C   UNL A   1      41.881  29.923  34.439  1.00  0.00     0.049 A 
ATOM     59  C   UNL A   1      42.986  26.773  29.933  1.00  0.00     0.074 A 
ATOM     60  C   UNL A   1      42.702  29.748  35.538  1.00  0.00     0.029 A 
ATOM     61  N   UNL A   1      42.323  29.042  33.464  1.00  0.00    -0.354 N 
ATOM     62  N   UNL A   1      42.822  27.407  31.069  1.00  0.00    -0.248 NA
ATOM     63  C   UNL A   1      44.139  25.863  29.913  1.00  0.00     0.031 C 
ATOM     64  C   UNL A   1      43.661  28.782  35.215  1.00  0.00     0.029 A 
ATOM     65  C   UNL A   1      43.413  28.328  33.930  1.00  0.00     0.049 A 
ATOM     66  H   UNL A   1      41.920  28.940  32.571  1.00  0.00     0.167 HD
ATOM     67  C   UNL A   1      43.829  26.948  31.911  1.00  0.00     0.074 A 
ATOM     68  C   UNL A   1      44.578  25.961  31.160  1.00  0.00     0.031 C 
ATOM     69  C   UNL A   1      44.120  27.320  33.182  1.00  0.00     0.034 A 
BRANCH  56  70
ATOM     70  C   UNL A   1      40.453  31.776  35.408  1.00  0.00     0.023 A 
ATOM     71  C   UNL A   1      41.278  32.898  35.637  1.00  0.00     0.012 A 
ATOM     72  C   UNL A   1      39.314  31.583  36.213  1.00  0.00     0.148 A 
ATOM     73  C   UNL A   1      41.000  33.786  36.675  1.00  0.00     0.002 A 
ATOM     74  C   UNL A   1      39.015  32.502  37.213  1.00  0.00     0.091 A 
ATOM     75  F   UNL A   1      38.554  30.501  35.998  1.00  0.00    -0.205 F 
ATOM     76  C   UNL A   1      39.864  33.595  37.454  1.00  0.00     0.022 A 
BRANCH  74  77
ATOM     77  S   UNL A   1      37.531  32.392  38.219  1.00  0.00     0.127 S 
ATOM     78  O   UNL A   1      36.558  33.101  37.389  1.00  0.00    -0.237 OA
ATOM     79  O   UNL A   1      37.324  30.945  38.300  1.00  0.00    -0.237 OA
ATOM     80  O   UNL A   1      37.854  33.031  39.487  1.00  0.00    -0.744 OA
ENDBRANCH  74  77
ENDBRANCH  56  70
BRANCH  57  81
ATOM     81  C   UNL A   1      42.480  25.993  27.496  1.00  0.00     0.023 A 
ATOM     82  C   UNL A   1      43.248  26.546  26.453  1.00  0.00     0.012 A 
ATOM     83  C   UNL A   1      42.059  24.653  27.402  1.00  0.00     0.148 A 
ATOM     84  C   UNL A   1      43.557  25.793  25.320  1.00  0.00     0.002 A 
ATOM     85  C   UNL A   1      42.419  23.890  26.296  1.00  0.00     0.091 A 
ATOM     86  F   UNL A   1      41.323  24.147  28.402  1.00  0.00    -0.205 F 
ATOM     87  C   UNL A   1      43.151  24.463  25.246  1.00  0.00     0.022 A 
BRANCH  85  88
ATOM     88  S   UNL A   1      42.049  22.138  26.174  1.00  0.00     0.127 S 
ATOM     89  O   UNL A   1      42.871  21.737  25.035  1.00  0.00    -0.237 OA
ATOM     90  O   UNL A   1      42.508  21.641  27.472  1.00  0.00    -0.237 OA
ATOM     91  O   UNL A   1      40.609  22.051  25.973  1.00  0.00    -0.744 OA
ENDBRANCH  85  88
ENDBRANCH  57  81
BRANCH  69  92
ATOM     92  C   UNL A   1      45.281  26.635  33.855  1.00  0.00     0.023 A 
ATOM     93  C   UNL A   1      46.568  27.208  33.795  1.00  0.00     0.012 A 
ATOM     94  C   UNL A   1      45.086  25.446  34.586  1.00  0.00     0.148 A 
ATOM     95  C   UNL A   1      47.650  26.582  34.410  1.00  0.00     0.002 A 
ATOM     96  C   UNL A   1      46.160  24.860  35.244  1.00  0.00     0.091 A 
ATOM     97  F   UNL A   1      43.859  24.907  34.619  1.00  0.00    -0.205 F 
ATOM     98  C   UNL A   1      47.446  25.415  35.143  1.00  0.00     0.022 A 
BRANCH  96  99
ATOM     99  S   UNL A   1      45.968  23.415  36.295  1.00  0.00     0.127 S 
ATOM    100  O   UNL A   1      45.136  22.549  35.460  1.00  0.00    -0.237 OA
ATOM    101  O   UNL A   1      47.350  22.961  36.455  1.00  0.00    -0.237 OA
ATOM    102  O   UNL A   1      45.344  23.892  37.521  1.00  0.00    -0.744 OA
ENDBRANCH  96  99
ENDBRANCH  69  92
ENDBRANCH  43  44
ENDBRANCH  35  38
ENDBRANCH  33  34
ENDBRANCH  32  33
ENDBRANCH  31  32
ENDBRANCH   1  31
TORSDOF 19
ENDMDL
MODEL 2
REMARK VINA RESULT:     -12.0      2.451      3.474
REMARK SMILES CC1(C)S[C@H](c2ccc(-c3cccc([N+](=O)[O-])c3)o2)[NH2+][C@@H]1C(=O)NCCCCCCNC(=O)c1ccc(-c2c3nc(c(-c4cccc(S(=O)(=O)[O-])c4F)c4ccc([nH]4)c(-c4cccc(S(=O)(=O)[O-])c4F)c4nc(c(-c5cccc(S(=O)(=O)[O-])c5F)c5ccc2[nH]5)C=C4)C=C3)cc1
REMARK SMILES IDX 27 1 26 2 25 3 24 4 22 5 23 6 21 8 1 9 2 10 3 11 4 12 5 13
REMARK SMILES IDX 20 14 6 17 7 18 19 19 8 20 9 21 10 22 11 23 18 24 12 25
REMARK SMILES IDX 14 26 13 27 15 28 16 29 17 30 28 31 29 32 30 33 31 34 32 35
REMARK SMILES IDX 33 37 34 38 35 39 96 40 36 41 95 42 37 43 38 44 39 45 89 46
REMARK SMILES IDX 40 47 94 48 88 49 90 50 41 51 93 52 87 53 86 54 42 56 74 57
REMARK SMILES IDX 54 58 73 59 55 60 58 61 72 62 91 63 56 64 57 65 71 67 92 68
REMARK SMILES IDX 59 69 43 70 44 71 52 72 45 73 47 74 53 75 46 76 48 77 49 78
REMARK SMILES IDX 50 79 51 80 75 81 76 82 84 83 77 84 79 85 85 86 78 87 80 88
REMARK SMILES IDX 81 89 82 90 83 91 60 92 61 93 69 94 62 95 64 96 70 97 63 98
REMARK SMILES IDX 65 99 66 100 67 101 68 102
REMARK H PARENT 24 7 20 15 20 16 31 36 90 55 58 66
REMARK Flexibility Score: inf
ROOT
ATOM      1  C   UNL A   1      35.439  30.733  27.722  1.00  0.00     0.002 C 
ENDROOT
BRANCH   1   2
ATOM      2  C   UNL A   1      34.124  30.068  27.312  1.00  0.00     0.021 C 
BRANCH   2   3
ATOM      3  C   UNL A   1      34.254  28.616  26.858  1.00  0.00     0.116 C 
BRANCH   3   4
ATOM      4  N   UNL A   1      32.992  27.895  26.884  1.00  0.00    -0.351 N 
ATOM      5  C   UNL A   1      32.280  27.417  25.812  1.00  0.00     0.279 C 
ATOM      6  O   UNL A   1      31.295  26.720  26.053  1.00  0.00    -0.268 OA
ATOM      7  H   UNL A   1      32.603  27.729  27.774  1.00  0.00     0.163 HD
BRANCH   5   8
ATOM      8  C   UNL A   1      32.691  27.888  24.395  1.00  0.00     0.289 C 
ATOM      9  C   UNL A   1      32.183  29.339  22.384  1.00  0.00     0.030 C 
ATOM     10  C   UNL A   1      31.590  28.344  23.406  1.00  0.00     0.078 C 
ATOM     11  C   UNL A   1      30.329  28.974  23.999  1.00  0.00     0.030 C 
ATOM     12  S   UNL A   1      31.135  26.817  22.517  1.00  0.00    -0.078 SA
ATOM     13  C   UNL A   1      32.624  25.921  23.013  1.00  0.00     0.311 C 
ATOM     14  N   UNL A   1      33.518  26.842  23.720  1.00  0.00    -0.317 N 
ATOM     15  H   UNL A   1      34.153  27.283  23.055  1.00  0.00     0.348 HD
ATOM     16  H   UNL A   1      34.066  26.332  24.413  1.00  0.00     0.348 HD
BRANCH  13  17
ATOM     17  C   UNL A   1      32.310  24.619  23.692  1.00  0.00     0.172 A 
ATOM     18  C   UNL A   1      31.120  24.178  24.243  1.00  0.00     0.054 A 
ATOM     19  O   UNL A   1      33.258  23.629  23.812  1.00  0.00    -0.454 OA
ATOM     20  C   UNL A   1      31.334  22.859  24.692  1.00  0.00     0.051 A 
ATOM     21  C   UNL A   1      32.648  22.553  24.407  1.00  0.00     0.134 A 
BRANCH  21  22
ATOM     22  C   UNL A   1      33.413  21.318  24.538  1.00  0.00     0.024 A 
ATOM     23  C   UNL A   1      34.795  21.319  24.778  1.00  0.00     0.012 A 
ATOM     24  C   UNL A   1      32.753  20.086  24.387  1.00  0.00     0.097 A 
ATOM     25  C   UNL A   1      35.508  20.114  24.863  1.00  0.00     0.008 A 
ATOM     26  C   UNL A   1      33.475  18.885  24.448  1.00  0.00     0.270 A 
ATOM     27  C   UNL A   1      34.852  18.891  24.697  1.00  0.00     0.085 A 
BRANCH  26  28
ATOM     28  N   UNL A   1      32.786  17.613  24.200  1.00  0.00     0.062 N 
ATOM     29  O   UNL A   1      33.167  16.935  23.237  1.00  0.00    -0.258 OA
ATOM     30  O   UNL A   1      31.880  17.291  24.981  1.00  0.00    -0.258 OA
ENDBRANCH  26  28
ENDBRANCH  21  22
ENDBRANCH  13  17
ENDBRANCH   5   8
ENDBRANCH   3   4
ENDBRANCH   2   3
ENDBRANCH   1   2
BRANCH   1  31
ATOM     31  C   UNL A   1      35.339  32.235  27.951  1.00  0.00     0.002 C 
BRANCH  31  32
ATOM     32  C   UNL A   1      33.945  32.818  28.117  1.00  0.00     0.021 C 
BRANCH  32  33
ATOM     33  C   UNL A   1      33.905  34.332  28.066  1.00  0.00     0.116 C 
BRANCH  33  34
ATOM     34  N   UNL A   1      33.127  34.926  29.145  1.00  0.00    -0.352 N 
ATOM     35  C   UNL A   1      33.334  34.845  30.502  1.00  0.00     0.251 C 
ATOM     36  H   UNL A   1      32.347  35.458  28.864  1.00  0.00     0.163 HD
ATOM     37  O   UNL A   1      32.525  35.334  31.277  1.00  0.00    -0.269 OA
BRANCH  35  38
ATOM     38  C   UNL A   1      34.540  34.152  31.003  1.00  0.00     0.039 A 
ATOM     39  C   UNL A   1      34.399  32.962  31.717  1.00  0.00     0.014 A 
ATOM     40  C   UNL A   1      35.810  34.672  30.744  1.00  0.00     0.014 A 
ATOM     41  C   UNL A   1      35.541  32.278  32.138  1.00  0.00     0.010 A 
ATOM     42  C   UNL A   1      36.938  33.929  31.051  1.00  0.00     0.010 A 
ATOM     43  C   UNL A   1      36.820  32.746  31.791  1.00  0.00    -0.014 A 
BRANCH  43  44
ATOM     44  C   UNL A   1      38.049  32.045  32.236  1.00  0.00     0.031 A 
ATOM     45  C   UNL A   1      38.705  32.436  33.537  1.00  0.00     0.074 A 
ATOM     46  C   UNL A   1      38.611  31.110  31.445  1.00  0.00     0.049 A 
ATOM     47  N   UNL A   1      39.789  31.959  34.090  1.00  0.00    -0.248 NA
ATOM     48  C   UNL A   1      38.086  33.535  34.299  1.00  0.00     0.031 C 
ATOM     49  C   UNL A   1      38.128  30.718  30.120  1.00  0.00     0.029 A 
ATOM     50  N   UNL A   1      39.724  30.332  31.636  1.00  0.00    -0.354 N 
ATOM     51  C   UNL A   1      39.999  32.720  35.234  1.00  0.00     0.074 A 
ATOM     52  C   UNL A   1      38.967  33.730  35.267  1.00  0.00     0.031 C 
ATOM     53  C   UNL A   1      38.925  29.755  29.628  1.00  0.00     0.029 A 
ATOM     54  C   UNL A   1      39.988  29.482  30.588  1.00  0.00     0.049 A 
ATOM     55  H   UNL A   1      40.280  30.377  32.447  1.00  0.00     0.167 HD
ATOM     56  C   UNL A   1      40.940  32.569  36.195  1.00  0.00     0.034 A 
ATOM     57  C   UNL A   1      40.974  28.580  30.427  1.00  0.00     0.034 A 
ATOM     58  C   UNL A   1      41.928  31.527  36.185  1.00  0.00     0.049 A 
ATOM     59  C   UNL A   1      41.967  28.384  31.541  1.00  0.00     0.074 A 
ATOM     60  C   UNL A   1      42.866  31.220  37.154  1.00  0.00     0.029 A 
ATOM     61  N   UNL A   1      42.110  30.624  35.149  1.00  0.00    -0.354 N 
ATOM     62  N   UNL A   1      42.049  29.003  32.694  1.00  0.00    -0.248 NA
ATOM     63  C   UNL A   1      42.978  27.335  31.349  1.00  0.00     0.031 C 
ATOM     64  C   UNL A   1      43.636  30.148  36.689  1.00  0.00     0.029 A 
ATOM     65  C   UNL A   1      43.152  29.764  35.448  1.00  0.00     0.049 A 
ATOM     66  H   UNL A   1      41.576  30.598  34.323  1.00  0.00     0.167 HD
ATOM     67  C   UNL A   1      43.096  28.398  33.379  1.00  0.00     0.074 A 
ATOM     68  C   UNL A   1      43.597  27.343  32.521  1.00  0.00     0.031 C 
ATOM     69  C   UNL A   1      43.610  28.694  34.599  1.00  0.00     0.034 A 
BRANCH  56  70
ATOM     70  C   UNL A   1      40.904  33.521  37.364  1.00  0.00     0.023 A 
ATOM     71  C   UNL A   1      41.713  34.677  37.350  1.00  0.00     0.012 A 
ATOM     72  C   UNL A   1      40.044  33.296  38.456  1.00  0.00     0.148 A 
ATOM     73  C   UNL A   1      41.700  35.569  38.422  1.00  0.00     0.002 A 
ATOM     74  C   UNL A   1      39.999  34.217  39.497  1.00  0.00     0.091 A 
ATOM     75  F   UNL A   1      39.300  32.181  38.465  1.00  0.00    -0.205 F 
ATOM     76  C   UNL A   1      40.835  35.345  39.488  1.00  0.00     0.022 A 
BRANCH  74  77
ATOM     77  S   UNL A   1      38.861  34.063  40.878  1.00  0.00     0.127 S 
ATOM     78  O   UNL A   1      37.620  33.692  40.198  1.00  0.00    -0.237 OA
ATOM     79  O   UNL A   1      39.472  32.988  41.660  1.00  0.00    -0.237 OA
ATOM     80  O   UNL A   1      38.846  35.362  41.536  1.00  0.00    -0.744 OA
ENDBRANCH  74  77
ENDBRANCH  56  70
BRANCH  57  81
ATOM     81  C   UNL A   1      41.026  27.741  29.196  1.00  0.00     0.023 A 
ATOM     82  C   UNL A   1      40.231  26.580  29.113  1.00  0.00     0.012 A 
ATOM     83  C   UNL A   1      41.838  28.095  28.102  1.00  0.00     0.148 A 
ATOM     84  C   UNL A   1      40.276  25.767  27.980  1.00  0.00     0.002 A 
ATOM     85  C   UNL A   1      41.835  27.310  26.954  1.00  0.00     0.091 A 
ATOM     86  F   UNL A   1      42.592  29.199  28.203  1.00  0.00    -0.205 F 
ATOM     87  C   UNL A   1      41.070  26.136  26.898  1.00  0.00     0.022 A 
BRANCH  85  88
ATOM     88  S   UNL A   1      42.728  27.776  25.467  1.00  0.00     0.127 S 
ATOM     89  O   UNL A   1      42.574  26.582  24.640  1.00  0.00    -0.237 OA
ATOM     90  O   UNL A   1      41.970  28.942  25.013  1.00  0.00    -0.237 OA
ATOM     91  O   UNL A   1      44.086  28.073  25.898  1.00  0.00    -0.744 OA
ENDBRANCH  85  88
ENDBRANCH  57  81
BRANCH  69  92
ATOM     92  C   UNL A   1      44.754  27.849  35.093  1.00  0.00     0.023 A 
ATOM     93  C   UNL A   1      46.081  28.302  34.942  1.00  0.00     0.012 A 
ATOM     94  C   UNL A   1      44.512  26.626  35.748  1.00  0.00     0.148 A 
ATOM     95  C   UNL A   1      47.149  27.528  35.392  1.00  0.00     0.002 A 
ATOM     96  C   UNL A   1      45.579  25.888  36.244  1.00  0.00     0.091 A 
ATOM     97  F   UNL A   1      43.245  26.203  35.868  1.00  0.00    -0.205 F 
ATOM     98  C   UNL A   1      46.899  26.327  36.051  1.00  0.00     0.022 A 
BRANCH  96  99
ATOM     99  S   UNL A   1      45.344  24.382  37.196  1.00  0.00     0.127 S 
ATOM    100  O   UNL A   1      44.625  23.537  36.244  1.00  0.00    -0.237 OA
ATOM    101  O   UNL A   1      46.721  23.965  37.464  1.00  0.00    -0.237 OA
ATOM    102  O   UNL A   1      44.592  24.772  38.381  1.00  0.00    -0.744 OA
ENDBRANCH  96  99
ENDBRANCH  69  92
ENDBRANCH  43  44
ENDBRANCH  35  38
ENDBRANCH  33  34
ENDBRANCH  32  33
ENDBRANCH  31  32
ENDBRANCH   1  31
TORSDOF 19
ENDMDL
MODEL 3
REMARK VINA RESULT:     -11.9      5.280      8.271
REMARK SMILES CC1(C)S[C@H](c2ccc(-c3cccc([N+](=O)[O-])c3)o2)[NH2+][C@@H]1C(=O)NCCCCCCNC(=O)c1ccc(-c2c3nc(c(-c4cccc(S(=O)(=O)[O-])c4F)c4ccc([nH]4)c(-c4cccc(S(=O)(=O)[O-])c4F)c4nc(c(-c5cccc(S(=O)(=O)[O-])c5F)c5ccc2[nH]5)C=C4)C=C3)cc1
REMARK SMILES IDX 27 1 26 2 25 3 24 4 22 5 23 6 21 8 1 9 2 10 3 11 4 12 5 13
REMARK SMILES IDX 20 14 6 17 7 18 19 19 8 20 9 21 10 22 11 23 18 24 12 25
REMARK SMILES IDX 14 26 13 27 15 28 16 29 17 30 28 31 29 32 30 33 31 34 32 35
REMARK SMILES IDX 33 37 34 38 35 39 96 40 36 41 95 42 37 43 38 44 39 45 89 46
REMARK SMILES IDX 40 47 94 48 88 49 90 50 41 51 93 52 87 53 86 54 42 56 74 57
REMARK SMILES IDX 54 58 73 59 55 60 58 61 72 62 91 63 56 64 57 65 71 67 92 68
REMARK SMILES IDX 59 69 43 70 44 71 52 72 45 73 47 74 53 75 46 76 48 77 49 78
REMARK SMILES IDX 50 79 51 80 75 81 76 82 84 83 77 84 79 85 85 86 78 87 80 88
REMARK SMILES IDX 81 89 82 90 83 91 60 92 61 93 69 94 62 95 64 96 70 97 63 98
REMARK SMILES IDX 65 99 66 100 67 101 68 102
REMARK H PARENT 24 7 20 15 20 16 31 36 90 55 58 66
REMARK Flexibility Score: inf
ROOT
ATOM      1  C   UNL A   1      36.189  21.547  24.912  1.00  0.00     0.002 C 
ENDROOT
BRANCH   1   2
ATOM      2  C   UNL A   1      35.963  22.982  24.437  1.00  0.00     0.021 C 
BRANCH   2   3
ATOM      3  C   UNL A   1      35.740  24.000  25.553  1.00  0.00     0.116 C 
BRANCH   3   4
ATOM      4  N   UNL A   1      34.504  23.782  26.286  1.00  0.00    -0.351 N 
ATOM      5  C   UNL A   1      33.325  24.476  26.163  1.00  0.00     0.279 C 
ATOM      6  O   UNL A   1      32.353  24.054  26.787  1.00  0.00    -0.268 OA
ATOM      7  H   UNL A   1      34.513  23.053  26.948  1.00  0.00     0.163 HD
BRANCH   5   8
ATOM      8  C   UNL A   1      33.337  25.797  25.354  1.00  0.00     0.289 C 
ATOM      9  C   UNL A   1      32.341  28.092  24.979  1.00  0.00     0.030 C 
ATOM     10  C   UNL A   1      32.021  26.598  25.205  1.00  0.00     0.078 C 
ATOM     11  C   UNL A   1      31.005  26.501  26.344  1.00  0.00     0.030 C 
ATOM     12  S   UNL A   1      31.273  25.938  23.678  1.00  0.00    -0.078 SA
ATOM     13  C   UNL A   1      32.804  25.177  23.093  1.00  0.00     0.311 C 
ATOM     14  N   UNL A   1      33.898  25.564  23.988  1.00  0.00    -0.317 N 
ATOM     15  H   UNL A   1      34.335  26.419  23.646  1.00  0.00     0.348 HD
ATOM     16  H   UNL A   1      34.598  24.823  24.021  1.00  0.00     0.348 HD
BRANCH  13  17
ATOM     17  C   UNL A   1      32.644  23.713  22.805  1.00  0.00     0.172 A 
ATOM     18  C   UNL A   1      32.491  23.065  21.592  1.00  0.00     0.054 A 
ATOM     19  O   UNL A   1      32.671  22.778  23.814  1.00  0.00    -0.454 OA
ATOM     20  C   UNL A   1      32.452  21.682  21.860  1.00  0.00     0.051 A 
ATOM     21  C   UNL A   1      32.571  21.542  23.227  1.00  0.00     0.134 A 
BRANCH  21  22
ATOM     22  C   UNL A   1      32.701  20.366  24.080  1.00  0.00     0.024 A 
ATOM     23  C   UNL A   1      32.654  20.451  25.479  1.00  0.00     0.012 A 
ATOM     24  C   UNL A   1      32.911  19.110  23.484  1.00  0.00     0.097 A 
ATOM     25  C   UNL A   1      32.817  19.305  26.272  1.00  0.00     0.008 A 
ATOM     26  C   UNL A   1      33.098  17.972  24.283  1.00  0.00     0.270 A 
ATOM     27  C   UNL A   1      33.041  18.060  25.678  1.00  0.00     0.085 A 
BRANCH  26  28
ATOM     28  N   UNL A   1      33.405  16.685  23.647  1.00  0.00     0.062 N 
ATOM     29  O   UNL A   1      33.916  16.712  22.520  1.00  0.00    -0.258 OA
ATOM     30  O   UNL A   1      33.150  15.655  24.286  1.00  0.00    -0.258 OA
ENDBRANCH  26  28
ENDBRANCH  21  22
ENDBRANCH  13  17
ENDBRANCH   5   8
ENDBRANCH   3   4
ENDBRANCH   2   3
ENDBRANCH   1   2
BRANCH   1  31
ATOM     31  C   UNL A   1      37.373  20.847  24.257  1.00  0.00     0.002 C 
BRANCH  31  32
ATOM     32  C   UNL A   1      38.028  19.719  25.040  1.00  0.00     0.021 C 
BRANCH  32  33
ATOM     33  C   UNL A   1      39.119  20.184  25.983  1.00  0.00     0.116 C 
BRANCH  33  34
ATOM     34  N   UNL A   1      40.198  19.218  26.140  1.00  0.00    -0.352 N 
ATOM     35  C   UNL A   1      41.536  19.449  26.355  1.00  0.00     0.251 C 
ATOM     36  H   UNL A   1      39.933  18.271  26.084  1.00  0.00     0.163 HD
ATOM     37  O   UNL A   1      42.326  18.515  26.373  1.00  0.00    -0.269 OA
BRANCH  35  38
ATOM     38  C   UNL A   1      42.002  20.837  26.554  1.00  0.00     0.039 A 
ATOM     39  C   UNL A   1      42.197  21.660  25.444  1.00  0.00     0.014 A 
ATOM     40  C   UNL A   1      42.221  21.329  27.843  1.00  0.00     0.014 A 
ATOM     41  C   UNL A   1      42.579  22.989  25.637  1.00  0.00     0.010 A 
ATOM     42  C   UNL A   1      42.475  22.678  28.035  1.00  0.00     0.010 A 
ATOM     43  C   UNL A   1      42.701  23.514  26.935  1.00  0.00    -0.014 A 
BRANCH  43  44
ATOM     44  C   UNL A   1      43.117  24.918  27.167  1.00  0.00     0.031 A 
ATOM     45  C   UNL A   1      42.163  25.883  27.828  1.00  0.00     0.074 A 
ATOM     46  C   UNL A   1      44.317  25.344  26.727  1.00  0.00     0.049 A 
ATOM     47  N   UNL A   1      42.330  27.149  28.103  1.00  0.00    -0.248 NA
ATOM     48  C   UNL A   1      40.831  25.368  28.193  1.00  0.00     0.031 C 
ATOM     49  C   UNL A   1      45.284  24.533  25.984  1.00  0.00     0.029 A 
ATOM     50  N   UNL A   1      44.920  26.571  26.827  1.00  0.00    -0.354 N 
ATOM     51  C   UNL A   1      41.122  27.587  28.632  1.00  0.00     0.074 A 
ATOM     52  C   UNL A   1      40.209  26.468  28.585  1.00  0.00     0.031 C 
ATOM     53  C   UNL A   1      46.370  25.278  25.718  1.00  0.00     0.029 A 
ATOM     54  C   UNL A   1      46.166  26.622  26.245  1.00  0.00     0.049 A 
ATOM     55  H   UNL A   1      44.502  27.342  27.273  1.00  0.00     0.167 HD
ATOM     56  C   UNL A   1      40.808  28.796  29.150  1.00  0.00     0.034 A 
ATOM     57  C   UNL A   1      47.043  27.639  26.155  1.00  0.00     0.034 A 
ATOM     58  C   UNL A   1      41.737  29.887  29.245  1.00  0.00     0.049 A 
ATOM     59  C   UNL A   1      46.697  28.954  26.800  1.00  0.00     0.074 A 
ATOM     60  C   UNL A   1      41.558  31.123  29.839  1.00  0.00     0.029 A 
ATOM     61  N   UNL A   1      43.023  29.874  28.727  1.00  0.00    -0.354 N 
ATOM     62  N   UNL A   1      45.608  29.298  27.445  1.00  0.00    -0.248 NA
ATOM     63  C   UNL A   1      47.718  30.009  26.741  1.00  0.00     0.031 C 
ATOM     64  C   UNL A   1      42.726  31.869  29.653  1.00  0.00     0.029 A 
ATOM     65  C   UNL A   1      43.646  31.084  28.977  1.00  0.00     0.049 A 
ATOM     66  H   UNL A   1      43.432  29.115  28.252  1.00  0.00     0.167 HD
ATOM     67  C   UNL A   1      45.826  30.594  27.899  1.00  0.00     0.074 A 
ATOM     68  C   UNL A   1      47.163  30.960  27.478  1.00  0.00     0.031 C 
ATOM     69  C   UNL A   1      44.993  31.415  28.586  1.00  0.00     0.034 A 
BRANCH  56  70
ATOM     70  C   UNL A   1      39.417  28.981  29.704  1.00  0.00     0.023 A 
ATOM     71  C   UNL A   1      39.121  28.547  31.014  1.00  0.00     0.012 A 
ATOM     72  C   UNL A   1      38.415  29.619  28.947  1.00  0.00     0.148 A 
ATOM     73  C   UNL A   1      37.842  28.703  31.544  1.00  0.00     0.002 A 
ATOM     74  C   UNL A   1      37.156  29.818  29.503  1.00  0.00     0.091 A 
ATOM     75  F   UNL A   1      38.705  30.004  27.697  1.00  0.00    -0.205 F 
ATOM     76  C   UNL A   1      36.864  29.349  30.794  1.00  0.00     0.022 A 
BRANCH  74  77
ATOM     77  S   UNL A   1      35.851  30.710  28.651  1.00  0.00     0.127 S 
ATOM     78  O   UNL A   1      35.226  29.645  27.869  1.00  0.00    -0.237 OA
ATOM     79  O   UNL A   1      35.040  31.203  29.765  1.00  0.00    -0.237 OA
ATOM     80  O   UNL A   1      36.512  31.749  27.874  1.00  0.00    -0.744 OA
ENDBRANCH  74  77
ENDBRANCH  56  70
BRANCH  57  81
ATOM     81  C   UNL A   1      48.363  27.431  25.495  1.00  0.00     0.023 A 
ATOM     82  C   UNL A   1      49.474  27.048  26.271  1.00  0.00     0.012 A 
ATOM     83  C   UNL A   1      48.519  27.590  24.105  1.00  0.00     0.148 A 
ATOM     84  C   UNL A   1      50.726  26.867  25.681  1.00  0.00     0.002 A 
ATOM     85  C   UNL A   1      49.756  27.353  23.515  1.00  0.00     0.091 A 
ATOM     86  F   UNL A   1      47.451  27.962  23.385  1.00  0.00    -0.205 F 
ATOM     87  C   UNL A   1      50.865  27.010  24.303  1.00  0.00     0.022 A 
BRANCH  85  88
ATOM     88  S   UNL A   1      49.997  27.390  21.736  1.00  0.00     0.127 S 
ATOM     89  O   UNL A   1      48.868  26.592  21.264  1.00  0.00    -0.237 OA
ATOM     90  O   UNL A   1      49.903  28.822  21.448  1.00  0.00    -0.237 OA
ATOM     91  O   UNL A   1      51.315  26.816  21.504  1.00  0.00    -0.744 OA
ENDBRANCH  85  88
ENDBRANCH  57  81
BRANCH  69  92
ATOM     92  C   UNL A   1      45.513  32.780  28.953  1.00  0.00     0.023 A 
ATOM     93  C   UNL A   1      46.143  32.983  30.197  1.00  0.00     0.012 A 
ATOM     94  C   UNL A   1      45.418  33.851  28.043  1.00  0.00     0.148 A 
ATOM     95  C   UNL A   1      46.625  34.242  30.550  1.00  0.00     0.002 A 
ATOM     96  C   UNL A   1      45.953  35.089  28.380  1.00  0.00     0.091 A 
ATOM     97  F   UNL A   1      44.802  33.644  26.870  1.00  0.00    -0.205 F 
ATOM     98  C   UNL A   1      46.540  35.291  29.639  1.00  0.00     0.022 A 
BRANCH  96  99
ATOM     99  S   UNL A   1      45.980  36.467  27.227  1.00  0.00     0.127 S 
ATOM    100  O   UNL A   1      44.591  36.920  27.273  1.00  0.00    -0.237 OA
ATOM    101  O   UNL A   1      46.940  37.377  27.854  1.00  0.00    -0.237 OA
ATOM    102  O   UNL A   1      46.419  35.914  25.953  1.00  0.00    -0.744 OA
ENDBRANCH  96  99
ENDBRANCH  69  92
ENDBRANCH  43  44
ENDBRANCH  35  38
ENDBRANCH  33  34
ENDBRANCH  32  33
ENDBRANCH  31  32
ENDBRANCH   1  31
TORSDOF 19
ENDMDL
