MODEL 1
REMARK VINA RESULT:     -12.2      0.000      0.000
REMARK SMILES COc1ccc2c(c1)c(CC(=O)NCCCCCCNC(=O)c1ccc(-c3c4nc(c(-c5cccc(S(=O)(=O)[O-])c5F)c5ccc([nH]5)c(-c5cccc(S(=O)(=O)[O-])c5F)c5nc(c(-c6cccc(S(=O)(=O)[O-])c6F)c6ccc3[nH]6)C=C5)C=C4)cc1)c(C(F)(F)F)n2C(=O)c1ccc(Cl)cc1
REMARK SMILES IDX 16 1 15 2 14 3 13 4 11 5 12 6 10 8 9 9 3 10 4 11 8 12 5 13
REMARK SMILES IDX 7 14 6 15 91 16 86 17 2 18 1 19 92 20 93 21 94 22 95 23
REMARK SMILES IDX 100 24 96 25 99 26 97 27 98 28 87 29 88 30 89 31 90 32 17 33
REMARK SMILES IDX 18 34 19 35 20 36 21 37 22 39 23 40 24 41 85 42 25 43 84 44
REMARK SMILES IDX 26 45 27 46 28 47 78 48 29 49 83 50 77 51 79 52 30 53 82 54
REMARK SMILES IDX 76 55 75 56 31 58 63 59 43 60 62 61 44 62 47 63 61 64 80 65
REMARK SMILES IDX 45 66 46 67 60 69 81 70 48 71 32 72 33 73 41 74 34 75 36 76
REMARK SMILES IDX 42 77 35 78 37 79 38 80 39 81 40 82 64 83 65 84 73 85 66 86
REMARK SMILES IDX 68 87 74 88 67 89 69 90 70 91 71 92 72 93 49 94 50 95 58 96
REMARK SMILES IDX 51 97 53 98 59 99 52 100 54 101 55 102 56 103 57 104
REMARK H PARENT 13 7 20 38 79 57 47 68
REMARK Flexibility Score: inf
ROOT
ATOM      1  C   UNL A   1      33.586  29.132  24.042  1.00  0.00     0.002 C 
ENDROOT
BRANCH   1   2
ATOM      2  C   UNL A   1      33.216  28.712  22.615  1.00  0.00     0.021 C 
BRANCH   2   3
ATOM      3  C   UNL A   1      31.991  27.801  22.542  1.00  0.00     0.116 C 
BRANCH   3   4
ATOM      4  N   UNL A   1      32.264  26.618  21.747  1.00  0.00    -0.356 N 
ATOM      5  C   UNL A   1      33.212  25.656  21.945  1.00  0.00     0.224 C 
ATOM      6  O   UNL A   1      33.312  24.743  21.123  1.00  0.00    -0.275 OA
ATOM      7  H   UNL A   1      31.687  26.492  20.959  1.00  0.00     0.163 HD
BRANCH   5   8
ATOM      8  C   UNL A   1      34.088  25.701  23.187  1.00  0.00     0.138 C 
BRANCH   8   9
ATOM      9  C   UNL A   1      33.694  24.703  24.245  1.00  0.00     0.000 A 
ATOM     10  C   UNL A   1      30.159  25.111  25.642  1.00  0.00     0.119 A 
ATOM     11  C   UNL A   1      30.274  24.133  26.617  1.00  0.00     0.048 A 
ATOM     12  C   UNL A   1      31.235  25.361  24.787  1.00  0.00     0.057 A 
ATOM     13  C   UNL A   1      31.447  23.380  26.746  1.00  0.00     0.031 A 
ATOM     14  C   UNL A   1      32.433  24.622  24.900  1.00  0.00     0.008 A 
ATOM     15  C   UNL A   1      32.512  23.598  25.850  1.00  0.00     0.057 A 
ATOM     16  N   UNL A   1      33.722  22.924  25.634  1.00  0.00    -0.271 N 
ATOM     17  C   UNL A   1      34.514  23.744  24.833  1.00  0.00     0.135 A 
BRANCH  10  18
ATOM     18  O   UNL A   1      29.051  25.880  25.413  1.00  0.00    -0.497 OA
ATOM     19  C   UNL A   1      28.914  26.407  24.100  1.00  0.00     0.278 C 
ENDBRANCH  10  18
BRANCH  16  20
ATOM     20  C   UNL A   1      34.073  21.628  26.099  1.00  0.00     0.262 C 
ATOM     21  O   UNL A   1      34.573  21.530  27.217  1.00  0.00    -0.268 OA
BRANCH  20  22
ATOM     22  C   UNL A   1      33.920  20.382  25.335  1.00  0.00     0.040 A 
ATOM     23  C   UNL A   1      32.650  19.928  24.963  1.00  0.00     0.015 A 
ATOM     24  C   UNL A   1      35.069  19.648  25.024  1.00  0.00     0.015 A 
ATOM     25  C   UNL A   1      32.528  18.684  24.340  1.00  0.00     0.021 A 
ATOM     26  C   UNL A   1      34.939  18.410  24.393  1.00  0.00     0.021 A 
ATOM     27  C   UNL A   1      33.669  17.925  24.070  1.00  0.00     0.041 A 
ATOM     28  Cl  UNL A   1      33.511  16.369  23.354  1.00  0.00    -0.084 Cl
ENDBRANCH  20  22
ENDBRANCH  16  20
BRANCH  17  29
ATOM     29  C   UNL A   1      35.979  23.517  24.661  1.00  0.00     0.432 C 
ATOM     30  F   UNL A   1      36.343  22.256  24.989  1.00  0.00    -0.165 F 
ATOM     31  F   UNL A   1      36.336  23.690  23.357  1.00  0.00    -0.165 F 
ATOM     32  F   UNL A   1      36.742  24.394  25.356  1.00  0.00    -0.165 F 
ENDBRANCH  17  29
ENDBRANCH   8   9
ENDBRANCH   5   8
ENDBRANCH   3   4
ENDBRANCH   2   3
ENDBRANCH   1   2
BRANCH   1  33
ATOM     33  C   UNL A   1      32.438  29.069  25.055  1.00  0.00     0.002 C 
BRANCH  33  34
ATOM     34  C   UNL A   1      32.499  30.108  26.183  1.00  0.00     0.021 C 
BRANCH  34  35
ATOM     35  C   UNL A   1      33.851  30.198  26.890  1.00  0.00     0.116 C 
BRANCH  35  36
ATOM     36  N   UNL A   1      33.913  31.232  27.902  1.00  0.00    -0.352 N 
ATOM     37  C   UNL A   1      34.859  31.655  28.795  1.00  0.00     0.251 C 
ATOM     38  H   UNL A   1      33.079  31.751  27.963  1.00  0.00     0.163 HD
ATOM     39  O   UNL A   1      34.544  32.630  29.483  1.00  0.00    -0.269 OA
BRANCH  37  40
ATOM     40  C   UNL A   1      36.184  31.009  29.017  1.00  0.00     0.039 A 
ATOM     41  C   UNL A   1      37.421  31.650  28.949  1.00  0.00     0.014 A 
ATOM     42  C   UNL A   1      36.163  29.630  29.301  1.00  0.00     0.014 A 
ATOM     43  C   UNL A   1      38.602  30.928  29.081  1.00  0.00     0.010 A 
ATOM     44  C   UNL A   1      37.341  28.905  29.461  1.00  0.00     0.010 A 
ATOM     45  C   UNL A   1      38.565  29.551  29.313  1.00  0.00    -0.014 A 
BRANCH  45  46
ATOM     46  C   UNL A   1      39.842  28.861  29.479  1.00  0.00     0.031 A 
ATOM     47  C   UNL A   1      40.357  28.786  30.874  1.00  0.00     0.074 A 
ATOM     48  C   UNL A   1      40.495  28.231  28.481  1.00  0.00     0.049 A 
ATOM     49  N   UNL A   1      41.429  29.327  31.361  1.00  0.00    -0.248 NA
ATOM     50  C   UNL A   1      39.529  28.086  31.866  1.00  0.00     0.031 C 
ATOM     51  C   UNL A   1      39.993  27.939  27.136  1.00  0.00     0.029 A 
ATOM     52  N   UNL A   1      41.712  27.610  28.505  1.00  0.00    -0.354 N 
ATOM     53  C   UNL A   1      41.516  28.861  32.672  1.00  0.00     0.074 A 
ATOM     54  C   UNL A   1      40.261  28.221  32.972  1.00  0.00     0.031 C 
ATOM     55  C   UNL A   1      40.782  27.000  26.566  1.00  0.00     0.029 A 
ATOM     56  C   UNL A   1      41.918  26.748  27.435  1.00  0.00     0.049 A 
ATOM     57  H   UNL A   1      42.380  27.759  29.214  1.00  0.00     0.167 HD
ATOM     58  C   UNL A   1      42.694  28.821  33.352  1.00  0.00     0.034 A 
ATOM     59  C   UNL A   1      42.926  25.855  27.304  1.00  0.00     0.034 A 
ATOM     60  C   UNL A   1      43.742  29.545  32.697  1.00  0.00     0.049 A 
ATOM     61  C   UNL A   1      44.050  26.317  28.149  1.00  0.00     0.074 A 
ATOM     62  C   UNL A   1      44.123  30.856  32.537  1.00  0.00     0.029 A 
ATOM     63  N   UNL A   1      44.455  28.794  31.804  1.00  0.00    -0.354 N 
ATOM     64  N   UNL A   1      44.730  27.407  27.925  1.00  0.00    -0.248 NA
ATOM     65  C   UNL A   1      44.322  25.659  29.422  1.00  0.00     0.031 C 
ATOM     66  C   UNL A   1      44.930  30.890  31.361  1.00  0.00     0.029 A 
ATOM     67  C   UNL A   1      45.006  29.598  30.844  1.00  0.00     0.049 A 
ATOM     68  H   UNL A   1      44.556  27.816  31.844  1.00  0.00     0.167 HD
ATOM     69  C   UNL A   1      45.187  27.782  29.172  1.00  0.00     0.074 A 
ATOM     70  C   UNL A   1      45.083  26.591  29.999  1.00  0.00     0.031 C 
ATOM     71  C   UNL A   1      45.284  29.096  29.516  1.00  0.00     0.034 A 
BRANCH  58  72
ATOM     72  C   UNL A   1      43.034  27.788  34.397  1.00  0.00     0.023 A 
ATOM     73  C   UNL A   1      43.322  28.227  35.707  1.00  0.00     0.012 A 
ATOM     74  C   UNL A   1      43.360  26.452  34.077  1.00  0.00     0.148 A 
ATOM     75  C   UNL A   1      43.900  27.372  36.654  1.00  0.00     0.002 A 
ATOM     76  C   UNL A   1      43.859  25.585  35.043  1.00  0.00     0.091 A 
ATOM     77  F   UNL A   1      43.319  26.052  32.800  1.00  0.00    -0.205 F 
ATOM     78  C   UNL A   1      44.151  26.044  36.328  1.00  0.00     0.022 A 
BRANCH  76  79
ATOM     79  S   UNL A   1      44.147  23.851  34.673  1.00  0.00     0.127 S 
ATOM     80  O   UNL A   1      44.718  23.373  35.927  1.00  0.00    -0.237 OA
ATOM     81  O   UNL A   1      42.793  23.375  34.385  1.00  0.00    -0.237 OA
ATOM     82  O   UNL A   1      45.032  23.857  33.516  1.00  0.00    -0.744 OA
ENDBRANCH  76  79
ENDBRANCH  58  72
BRANCH  59  83
ATOM     83  C   UNL A   1      42.981  24.539  26.623  1.00  0.00     0.023 A 
ATOM     84  C   UNL A   1      44.205  24.121  26.060  1.00  0.00     0.012 A 
ATOM     85  C   UNL A   1      41.964  23.575  26.787  1.00  0.00     0.148 A 
ATOM     86  C   UNL A   1      44.442  22.779  25.751  1.00  0.00     0.002 A 
ATOM     87  C   UNL A   1      42.200  22.241  26.461  1.00  0.00     0.091 A 
ATOM     88  F   UNL A   1      40.805  23.936  27.355  1.00  0.00    -0.205 F 
ATOM     89  C   UNL A   1      43.445  21.835  25.966  1.00  0.00     0.022 A 
BRANCH  87  90
ATOM     90  S   UNL A   1      40.946  20.976  26.709  1.00  0.00     0.127 S 
ATOM     91  O   UNL A   1      40.733  21.023  28.157  1.00  0.00    -0.237 OA
ATOM     92  O   UNL A   1      39.836  21.487  25.912  1.00  0.00    -0.237 OA
ATOM     93  O   UNL A   1      41.556  19.737  26.241  1.00  0.00    -0.744 OA
ENDBRANCH  87  90
ENDBRANCH  59  83
BRANCH  71  94
ATOM     94  C   UNL A   1      45.416  30.099  28.411  1.00  0.00     0.023 A 
ATOM     95  C   UNL A   1      44.295  30.642  27.753  1.00  0.00     0.012 A 
ATOM     96  C   UNL A   1      46.696  30.597  28.121  1.00  0.00     0.148 A 
ATOM     97  C   UNL A   1      44.454  31.660  26.810  1.00  0.00     0.002 A 
ATOM     98  C   UNL A   1      46.846  31.636  27.213  1.00  0.00     0.091 A 
ATOM     99  F   UNL A   1      47.744  30.064  28.767  1.00  0.00    -0.205 F 
ATOM    100  C   UNL A   1      45.727  32.165  26.549  1.00  0.00     0.022 A 
BRANCH  98 101
ATOM    101  S   UNL A   1      48.436  32.408  26.910  1.00  0.00     0.127 S 
ATOM    102  O   UNL A   1      48.119  33.359  25.847  1.00  0.00    -0.237 OA
ATOM    103  O   UNL A   1      48.735  33.017  28.207  1.00  0.00    -0.237 OA
ATOM    104  O   UNL A   1      49.344  31.332  26.531  1.00  0.00    -0.744 OA
ENDBRANCH  98 101
ENDBRANCH  71  94
ENDBRANCH  45  46
ENDBRANCH  37  40
ENDBRANCH  35  36
ENDBRANCH  34  35
ENDBRANCH  33  34
ENDBRANCH   1  33
TORSDOF 21
ENDMDL
MODEL 2
REMARK VINA RESULT:     -12.2      3.215      8.844
REMARK SMILES COc1ccc2c(c1)c(CC(=O)NCCCCCCNC(=O)c1ccc(-c3c4nc(c(-c5cccc(S(=O)(=O)[O-])c5F)c5ccc([nH]5)c(-c5cccc(S(=O)(=O)[O-])c5F)c5nc(c(-c6cccc(S(=O)(=O)[O-])c6F)c6ccc3[nH]6)C=C5)C=C4)cc1)c(C(F)(F)F)n2C(=O)c1ccc(Cl)cc1
REMARK SMILES IDX 16 1 15 2 14 3 13 4 11 5 12 6 10 8 9 9 3 10 4 11 8 12 5 13
REMARK SMILES IDX 7 14 6 15 91 16 86 17 2 18 1 19 92 20 93 21 94 22 95 23
REMARK SMILES IDX 100 24 96 25 99 26 97 27 98 28 87 29 88 30 89 31 90 32 17 33
REMARK SMILES IDX 18 34 19 35 20 36 21 37 22 39 23 40 24 41 85 42 25 43 84 44
REMARK SMILES IDX 26 45 27 46 28 47 78 48 29 49 83 50 77 51 79 52 30 53 82 54
REMARK SMILES IDX 76 55 75 56 31 58 63 59 43 60 62 61 44 62 47 63 61 64 80 65
REMARK SMILES IDX 45 66 46 67 60 69 81 70 48 71 32 72 33 73 41 74 34 75 36 76
REMARK SMILES IDX 42 77 35 78 37 79 38 80 39 81 40 82 64 83 65 84 73 85 66 86
REMARK SMILES IDX 68 87 74 88 67 89 69 90 70 91 71 92 72 93 49 94 50 95 58 96
REMARK SMILES IDX 51 97 53 98 59 99 52 100 54 101 55 102 56 103 57 104
REMARK H PARENT 13 7 20 38 79 57 47 68
REMARK Flexibility Score: inf
ROOT
ATOM      1  C   UNL A   1      38.584  23.061  26.831  1.00  0.00     0.002 C 
ENDROOT
BRANCH   1   2
ATOM      2  C   UNL A   1      37.972  23.771  25.618  1.00  0.00     0.021 C 
BRANCH   2   3
ATOM      3  C   UNL A   1      36.444  23.750  25.600  1.00  0.00     0.116 C 
BRANCH   3   4
ATOM      4  N   UNL A   1      35.926  22.649  26.392  1.00  0.00    -0.356 N 
ATOM      5  C   UNL A   1      34.706  22.530  26.994  1.00  0.00     0.224 C 
ATOM      6  O   UNL A   1      34.472  21.523  27.665  1.00  0.00    -0.275 OA
ATOM      7  H   UNL A   1      36.536  21.886  26.510  1.00  0.00     0.163 HD
BRANCH   5   8
ATOM      8  C   UNL A   1      33.653  23.607  26.790  1.00  0.00     0.138 C 
BRANCH   8   9
ATOM      9  C   UNL A   1      33.165  23.719  25.369  1.00  0.00     0.000 A 
ATOM     10  C   UNL A   1      32.358  20.400  23.652  1.00  0.00     0.119 A 
ATOM     11  C   UNL A   1      32.098  20.941  22.403  1.00  0.00     0.048 A 
ATOM     12  C   UNL A   1      32.700  21.244  24.711  1.00  0.00     0.057 A 
ATOM     13  C   UNL A   1      32.155  22.324  22.192  1.00  0.00     0.031 A 
ATOM     14  C   UNL A   1      32.774  22.642  24.524  1.00  0.00     0.008 A 
ATOM     15  C   UNL A   1      32.450  23.178  23.274  1.00  0.00     0.057 A 
ATOM     16  N   UNL A   1      32.435  24.573  23.411  1.00  0.00    -0.271 N 
ATOM     17  C   UNL A   1      33.094  24.877  24.601  1.00  0.00     0.135 A 
BRANCH  10  18
ATOM     18  O   UNL A   1      32.300  19.071  23.970  1.00  0.00    -0.497 OA
ATOM     19  C   UNL A   1      32.850  18.704  25.229  1.00  0.00     0.278 C 
ENDBRANCH  10  18
BRANCH  16  20
ATOM     20  C   UNL A   1      31.828  25.512  22.534  1.00  0.00     0.262 C 
ATOM     21  O   UNL A   1      32.316  25.660  21.416  1.00  0.00    -0.268 OA
BRANCH  20  22
ATOM     22  C   UNL A   1      30.673  26.358  22.865  1.00  0.00     0.040 A 
ATOM     23  C   UNL A   1      29.608  25.845  23.613  1.00  0.00     0.015 A 
ATOM     24  C   UNL A   1      30.650  27.671  22.385  1.00  0.00     0.015 A 
ATOM     25  C   UNL A   1      28.474  26.635  23.813  1.00  0.00     0.021 A 
ATOM     26  C   UNL A   1      29.517  28.458  22.596  1.00  0.00     0.021 A 
ATOM     27  C   UNL A   1      28.428  27.931  23.293  1.00  0.00     0.041 A 
ATOM     28  Cl  UNL A   1      27.008  28.881  23.492  1.00  0.00    -0.084 Cl
ENDBRANCH  20  22
ENDBRANCH  16  20
BRANCH  17  29
ATOM     29  C   UNL A   1      33.562  26.258  24.923  1.00  0.00     0.432 C 
ATOM     30  F   UNL A   1      32.574  27.025  25.437  1.00  0.00    -0.165 F 
ATOM     31  F   UNL A   1      34.544  26.217  25.867  1.00  0.00    -0.165 F 
ATOM     32  F   UNL A   1      34.115  26.897  23.865  1.00  0.00    -0.165 F 
ENDBRANCH  17  29
ENDBRANCH   8   9
ENDBRANCH   5   8
ENDBRANCH   3   4
ENDBRANCH   2   3
ENDBRANCH   1   2
BRANCH   1  33
ATOM     33  C   UNL A   1      39.620  21.983  26.497  1.00  0.00     0.002 C 
BRANCH  33  34
ATOM     34  C   UNL A   1      40.716  21.776  27.551  1.00  0.00     0.021 C 
BRANCH  34  35
ATOM     35  C   UNL A   1      41.964  21.058  27.037  1.00  0.00     0.116 C 
BRANCH  35  36
ATOM     36  N   UNL A   1      42.460  21.578  25.780  1.00  0.00    -0.352 N 
ATOM     37  C   UNL A   1      42.826  22.813  25.322  1.00  0.00     0.251 C 
ATOM     38  H   UNL A   1      42.556  20.878  25.094  1.00  0.00     0.163 HD
ATOM     39  O   UNL A   1      43.257  22.847  24.165  1.00  0.00    -0.269 OA
BRANCH  37  40
ATOM     40  C   UNL A   1      42.702  24.087  26.085  1.00  0.00     0.039 A 
ATOM     41  C   UNL A   1      43.455  24.439  27.205  1.00  0.00     0.014 A 
ATOM     42  C   UNL A   1      41.722  24.990  25.630  1.00  0.00     0.014 A 
ATOM     43  C   UNL A   1      43.188  25.616  27.897  1.00  0.00     0.010 A 
ATOM     44  C   UNL A   1      41.468  26.183  26.303  1.00  0.00     0.010 A 
ATOM     45  C   UNL A   1      42.179  26.478  27.462  1.00  0.00    -0.014 A 
BRANCH  45  46
ATOM     46  C   UNL A   1      41.977  27.714  28.213  1.00  0.00     0.031 A 
ATOM     47  C   UNL A   1      42.952  28.805  27.933  1.00  0.00     0.074 A 
ATOM     48  C   UNL A   1      40.934  27.934  29.040  1.00  0.00     0.049 A 
ATOM     49  N   UNL A   1      43.822  29.326  28.739  1.00  0.00    -0.248 NA
ATOM     50  C   UNL A   1      43.016  29.320  26.558  1.00  0.00     0.031 C 
ATOM     51  C   UNL A   1      39.733  27.109  29.193  1.00  0.00     0.029 A 
ATOM     52  N   UNL A   1      40.676  29.017  29.833  1.00  0.00    -0.354 N 
ATOM     53  C   UNL A   1      44.399  30.378  28.030  1.00  0.00     0.074 A 
ATOM     54  C   UNL A   1      43.973  30.243  26.661  1.00  0.00     0.031 C 
ATOM     55  C   UNL A   1      38.781  27.831  29.827  1.00  0.00     0.029 A 
ATOM     56  C   UNL A   1      39.355  29.094  30.257  1.00  0.00     0.049 A 
ATOM     57  H   UNL A   1      41.362  29.680  30.080  1.00  0.00     0.167 HD
ATOM     58  C   UNL A   1      45.001  31.430  28.650  1.00  0.00     0.034 A 
ATOM     59  C   UNL A   1      38.768  30.147  30.871  1.00  0.00     0.034 A 
ATOM     60  C   UNL A   1      45.215  31.205  30.048  1.00  0.00     0.049 A 
ATOM     61  C   UNL A   1      39.834  30.941  31.521  1.00  0.00     0.074 A 
ATOM     62  C   UNL A   1      46.096  30.506  30.840  1.00  0.00     0.029 A 
ATOM     63  N   UNL A   1      44.165  31.590  30.835  1.00  0.00    -0.354 N 
ATOM     64  N   UNL A   1      40.554  30.514  32.520  1.00  0.00    -0.248 NA
ATOM     65  C   UNL A   1      40.274  32.197  30.922  1.00  0.00     0.031 C 
ATOM     66  C   UNL A   1      45.426  30.299  32.083  1.00  0.00     0.029 A 
ATOM     67  C   UNL A   1      44.159  30.873  32.000  1.00  0.00     0.049 A 
ATOM     68  H   UNL A   1      43.509  32.284  30.598  1.00  0.00     0.167 HD
ATOM     69  C   UNL A   1      41.740  31.209  32.403  1.00  0.00     0.074 A 
ATOM     70  C   UNL A   1      41.441  32.348  31.550  1.00  0.00     0.031 C 
ATOM     71  C   UNL A   1      42.929  30.624  32.719  1.00  0.00     0.034 A 
BRANCH  58  72
ATOM     72  C   UNL A   1      45.027  32.835  28.103  1.00  0.00     0.023 A 
ATOM     73  C   UNL A   1      43.802  33.515  27.939  1.00  0.00     0.012 A 
ATOM     74  C   UNL A   1      46.165  33.395  27.483  1.00  0.00     0.148 A 
ATOM     75  C   UNL A   1      43.717  34.701  27.199  1.00  0.00     0.002 A 
ATOM     76  C   UNL A   1      46.092  34.613  26.816  1.00  0.00     0.091 A 
ATOM     77  F   UNL A   1      47.297  32.682  27.415  1.00  0.00    -0.205 F 
ATOM     78  C   UNL A   1      44.866  35.261  26.653  1.00  0.00     0.022 A 
BRANCH  76  79
ATOM     79  S   UNL A   1      47.563  35.393  26.144  1.00  0.00     0.127 S 
ATOM     80  O   UNL A   1      47.859  34.532  25.005  1.00  0.00    -0.237 OA
ATOM     81  O   UNL A   1      47.069  36.728  25.802  1.00  0.00    -0.237 OA
ATOM     82  O   UNL A   1      48.526  35.380  27.238  1.00  0.00    -0.744 OA
ENDBRANCH  76  79
ENDBRANCH  58  72
BRANCH  59  83
ATOM     83  C   UNL A   1      37.368  30.635  30.842  1.00  0.00     0.023 A 
ATOM     84  C   UNL A   1      36.748  30.976  32.063  1.00  0.00     0.012 A 
ATOM     85  C   UNL A   1      36.754  31.061  29.645  1.00  0.00     0.148 A 
ATOM     86  C   UNL A   1      35.607  31.783  32.097  1.00  0.00     0.002 A 
ATOM     87  C   UNL A   1      35.607  31.851  29.685  1.00  0.00     0.091 A 
ATOM     88  F   UNL A   1      37.342  30.784  28.474  1.00  0.00    -0.205 F 
ATOM     89  C   UNL A   1      35.045  32.234  30.909  1.00  0.00     0.022 A 
BRANCH  87  90
ATOM     90  S   UNL A   1      34.829  32.457  28.182  1.00  0.00     0.127 S 
ATOM     91  O   UNL A   1      35.882  33.287  27.595  1.00  0.00    -0.237 OA
ATOM     92  O   UNL A   1      34.554  31.218  27.460  1.00  0.00    -0.237 OA
ATOM     93  O   UNL A   1      33.665  33.211  28.631  1.00  0.00    -0.744 OA
ENDBRANCH  87  90
ENDBRANCH  59  83
BRANCH  71  94
ATOM     94  C   UNL A   1      42.906  29.468  33.672  1.00  0.00     0.023 A 
ATOM     95  C   UNL A   1      42.364  28.217  33.322  1.00  0.00     0.012 A 
ATOM     96  C   UNL A   1      43.563  29.617  34.904  1.00  0.00     0.148 A 
ATOM     97  C   UNL A   1      42.468  27.132  34.195  1.00  0.00     0.002 A 
ATOM     98  C   UNL A   1      43.699  28.527  35.752  1.00  0.00     0.091 A 
ATOM     99  F   UNL A   1      44.074  30.820  35.209  1.00  0.00    -0.205 F 
ATOM    100  C   UNL A   1      43.145  27.284  35.405  1.00  0.00     0.022 A 
BRANCH  98 101
ATOM    101  S   UNL A   1      44.651  28.619  37.270  1.00  0.00     0.127 S 
ATOM    102  O   UNL A   1      44.543  27.256  37.784  1.00  0.00    -0.237 OA
ATOM    103  O   UNL A   1      45.981  28.983  36.778  1.00  0.00    -0.237 OA
ATOM    104  O   UNL A   1      44.015  29.645  38.087  1.00  0.00    -0.744 OA
ENDBRANCH  98 101
ENDBRANCH  71  94
ENDBRANCH  45  46
ENDBRANCH  37  40
ENDBRANCH  35  36
ENDBRANCH  34  35
ENDBRANCH  33  34
ENDBRANCH   1  33
TORSDOF 21
ENDMDL
MODEL 3
REMARK VINA RESULT:     -12.0      2.132      3.133
REMARK SMILES COc1ccc2c(c1)c(CC(=O)NCCCCCCNC(=O)c1ccc(-c3c4nc(c(-c5cccc(S(=O)(=O)[O-])c5F)c5ccc([nH]5)c(-c5cccc(S(=O)(=O)[O-])c5F)c5nc(c(-c6cccc(S(=O)(=O)[O-])c6F)c6ccc3[nH]6)C=C5)C=C4)cc1)c(C(F)(F)F)n2C(=O)c1ccc(Cl)cc1
REMARK SMILES IDX 16 1 15 2 14 3 13 4 11 5 12 6 10 8 9 9 3 10 4 11 8 12 5 13
REMARK SMILES IDX 7 14 6 15 91 16 86 17 2 18 1 19 92 20 93 21 94 22 95 23
REMARK SMILES IDX 100 24 96 25 99 26 97 27 98 28 87 29 88 30 89 31 90 32 17 33
REMARK SMILES IDX 18 34 19 35 20 36 21 37 22 39 23 40 24 41 85 42 25 43 84 44
REMARK SMILES IDX 26 45 27 46 28 47 78 48 29 49 83 50 77 51 79 52 30 53 82 54
REMARK SMILES IDX 76 55 75 56 31 58 63 59 43 60 62 61 44 62 47 63 61 64 80 65
REMARK SMILES IDX 45 66 46 67 60 69 81 70 48 71 32 72 33 73 41 74 34 75 36 76
REMARK SMILES IDX 42 77 35 78 37 79 38 80 39 81 40 82 64 83 65 84 73 85 66 86
REMARK SMILES IDX 68 87 74 88 67 89 69 90 70 91 71 92 72 93 49 94 50 95 58 96
REMARK SMILES IDX 51 97 53 98 59 99 52 100 54 101 55 102 56 103 57 104
REMARK H PARENT 13 7 20 38 79 57 47 68
REMARK Flexibility Score: inf
ROOT
ATOM      1  C   UNL A   1      31.408  28.543  27.281  1.00  0.00     0.002 C 
ENDROOT
BRANCH   1   2
ATOM      2  C   UNL A   1      31.870  27.308  26.500  1.00  0.00     0.021 C 
BRANCH   2   3
ATOM      3  C   UNL A   1      30.794  26.230  26.365  1.00  0.00     0.116 C 
BRANCH   3   4
ATOM      4  N   UNL A   1      31.123  25.060  27.158  1.00  0.00    -0.356 N 
ATOM      5  C   UNL A   1      31.085  23.744  26.795  1.00  0.00     0.224 C 
ATOM      6  O   UNL A   1      31.364  22.888  27.638  1.00  0.00    -0.275 OA
ATOM      7  H   UNL A   1      31.411  25.239  28.082  1.00  0.00     0.163 HD
BRANCH   5   8
ATOM      8  C   UNL A   1      30.751  23.363  25.362  1.00  0.00     0.138 C 
BRANCH   8   9
ATOM      9  C   UNL A   1      31.896  23.548  24.401  1.00  0.00     0.000 A 
ATOM     10  C   UNL A   1      31.525  26.463  21.956  1.00  0.00     0.119 A 
ATOM     11  C   UNL A   1      32.667  26.186  21.223  1.00  0.00     0.048 A 
ATOM     12  C   UNL A   1      31.193  25.657  23.047  1.00  0.00     0.057 A 
ATOM     13  C   UNL A   1      33.504  25.119  21.571  1.00  0.00     0.031 A 
ATOM     14  C   UNL A   1      32.014  24.569  23.415  1.00  0.00     0.008 A 
ATOM     15  C   UNL A   1      33.195  24.338  22.703  1.00  0.00     0.057 A 
ATOM     16  N   UNL A   1      33.895  23.325  23.375  1.00  0.00    -0.271 N 
ATOM     17  C   UNL A   1      32.995  22.709  24.242  1.00  0.00     0.135 A 
BRANCH  10  18
ATOM     18  O   UNL A   1      30.659  27.496  21.719  1.00  0.00    -0.497 OA
ATOM     19  C   UNL A   1      29.936  27.978  22.844  1.00  0.00     0.278 C 
ENDBRANCH  10  18
BRANCH  16  20
ATOM     20  C   UNL A   1      35.272  23.005  23.241  1.00  0.00     0.262 C 
ATOM     21  O   UNL A   1      35.687  22.681  22.131  1.00  0.00    -0.268 OA
BRANCH  20  22
ATOM     22  C   UNL A   1      36.251  22.993  24.338  1.00  0.00     0.040 A 
ATOM     23  C   UNL A   1      36.298  24.044  25.260  1.00  0.00     0.015 A 
ATOM     24  C   UNL A   1      37.152  21.926  24.414  1.00  0.00     0.015 A 
ATOM     25  C   UNL A   1      37.312  24.062  26.220  1.00  0.00     0.021 A 
ATOM     26  C   UNL A   1      38.157  21.947  25.382  1.00  0.00     0.021 A 
ATOM     27  C   UNL A   1      38.244  23.022  26.269  1.00  0.00     0.041 A 
ATOM     28  Cl  UNL A   1      39.524  23.076  27.415  1.00  0.00    -0.084 Cl
ENDBRANCH  20  22
ENDBRANCH  16  20
BRANCH  17  29
ATOM     29  C   UNL A   1      33.279  21.390  24.881  1.00  0.00     0.432 C 
ATOM     30  F   UNL A   1      32.147  20.719  25.195  1.00  0.00    -0.165 F 
ATOM     31  F   UNL A   1      33.973  20.588  24.026  1.00  0.00    -0.165 F 
ATOM     32  F   UNL A   1      34.058  21.486  25.985  1.00  0.00    -0.165 F 
ENDBRANCH  17  29
ENDBRANCH   8   9
ENDBRANCH   5   8
ENDBRANCH   3   4
ENDBRANCH   2   3
ENDBRANCH   1   2
BRANCH   1  33
ATOM     33  C   UNL A   1      32.080  29.859  26.871  1.00  0.00     0.002 C 
BRANCH  33  34
ATOM     34  C   UNL A   1      33.449  29.714  26.193  1.00  0.00     0.021 C 
BRANCH  34  35
ATOM     35  C   UNL A   1      34.641  29.807  27.145  1.00  0.00     0.116 C 
BRANCH  35  36
ATOM     36  N   UNL A   1      34.978  31.162  27.529  1.00  0.00    -0.352 N 
ATOM     37  C   UNL A   1      36.091  31.776  28.031  1.00  0.00     0.251 C 
ATOM     38  H   UNL A   1      34.229  31.788  27.398  1.00  0.00     0.163 HD
ATOM     39  O   UNL A   1      36.001  32.997  28.189  1.00  0.00    -0.269 OA
BRANCH  37  40
ATOM     40  C   UNL A   1      37.350  31.085  28.430  1.00  0.00     0.039 A 
ATOM     41  C   UNL A   1      38.342  31.617  29.253  1.00  0.00     0.014 A 
ATOM     42  C   UNL A   1      37.541  29.792  27.907  1.00  0.00     0.014 A 
ATOM     43  C   UNL A   1      39.523  30.917  29.483  1.00  0.00     0.010 A 
ATOM     44  C   UNL A   1      38.709  29.075  28.155  1.00  0.00     0.010 A 
ATOM     45  C   UNL A   1      39.718  29.656  28.916  1.00  0.00    -0.014 A 
BRANCH  45  46
ATOM     46  C   UNL A   1      40.964  28.961  29.230  1.00  0.00     0.031 A 
ATOM     47  C   UNL A   1      41.260  28.792  30.680  1.00  0.00     0.074 A 
ATOM     48  C   UNL A   1      41.772  28.406  28.304  1.00  0.00     0.049 A 
ATOM     49  N   UNL A   1      42.236  29.304  31.362  1.00  0.00    -0.248 NA
ATOM     50  C   UNL A   1      40.300  28.022  31.482  1.00  0.00     0.031 C 
ATOM     51  C   UNL A   1      41.487  28.204  26.881  1.00  0.00     0.029 A 
ATOM     52  N   UNL A   1      42.980  27.789  28.474  1.00  0.00    -0.354 N 
ATOM     53  C   UNL A   1      42.128  28.748  32.636  1.00  0.00     0.074 A 
ATOM     54  C   UNL A   1      40.852  28.083  32.694  1.00  0.00     0.031 C 
ATOM     55  C   UNL A   1      42.368  27.310  26.378  1.00  0.00     0.029 A 
ATOM     56  C   UNL A   1      43.361  27.004  27.392  1.00  0.00     0.049 A 
ATOM     57  H   UNL A   1      43.529  27.892  29.285  1.00  0.00     0.167 HD
ATOM     58  C   UNL A   1      43.188  28.666  33.485  1.00  0.00     0.034 A 
ATOM     59  C   UNL A   1      44.391  26.127  27.358  1.00  0.00     0.034 A 
ATOM     60  C   UNL A   1      44.313  29.438  33.050  1.00  0.00     0.049 A 
ATOM     61  C   UNL A   1      45.364  26.534  28.396  1.00  0.00     0.074 A 
ATOM     62  C   UNL A   1      44.694  30.759  33.040  1.00  0.00     0.029 A 
ATOM     63  N   UNL A   1      45.166  28.754  32.228  1.00  0.00    -0.354 N 
ATOM     64  N   UNL A   1      46.054  27.640  28.354  1.00  0.00    -0.248 NA
ATOM     65  C   UNL A   1      45.448  25.790  29.648  1.00  0.00     0.031 C 
ATOM     66  C   UNL A   1      45.672  30.878  32.007  1.00  0.00     0.029 A 
ATOM     67  C   UNL A   1      45.846  29.625  31.421  1.00  0.00     0.049 A 
ATOM     68  H   UNL A   1      45.275  27.776  32.218  1.00  0.00     0.167 HD
ATOM     69  C   UNL A   1      46.309  27.930  29.678  1.00  0.00     0.074 A 
ATOM     70  C   UNL A   1      46.097  26.684  30.397  1.00  0.00     0.031 C 
ATOM     71  C   UNL A   1      46.332  29.217  30.122  1.00  0.00     0.034 A 
BRANCH  58  72
ATOM     72  C   UNL A   1      43.379  27.565  34.498  1.00  0.00     0.023 A 
ATOM     73  C   UNL A   1      43.537  27.920  35.854  1.00  0.00     0.012 A 
ATOM     74  C   UNL A   1      43.694  26.236  34.136  1.00  0.00     0.148 A 
ATOM     75  C   UNL A   1      43.980  26.992  36.806  1.00  0.00     0.002 A 
ATOM     76  C   UNL A   1      44.057  25.299  35.096  1.00  0.00     0.091 A 
ATOM     77  F   UNL A   1      43.779  25.909  32.840  1.00  0.00    -0.205 F 
ATOM     78  C   UNL A   1      44.222  25.675  36.430  1.00  0.00     0.022 A 
BRANCH  76  79
ATOM     79  S   UNL A   1      44.326  23.579  34.658  1.00  0.00     0.127 S 
ATOM     80  O   UNL A   1      45.508  23.672  33.809  1.00  0.00    -0.237 OA
ATOM     81  O   UNL A   1      44.549  22.964  35.968  1.00  0.00    -0.237 OA
ATOM     82  O   UNL A   1      43.090  23.160  34.009  1.00  0.00    -0.744 OA
ENDBRANCH  76  79
ENDBRANCH  58  72
BRANCH  59  83
ATOM     83  C   UNL A   1      44.569  24.861  26.606  1.00  0.00     0.023 A 
ATOM     84  C   UNL A   1      45.854  24.539  26.123  1.00  0.00     0.012 A 
ATOM     85  C   UNL A   1      43.593  23.842  26.626  1.00  0.00     0.148 A 
ATOM     86  C   UNL A   1      46.185  23.232  25.755  1.00  0.00     0.002 A 
ATOM     87  C   UNL A   1      43.924  22.544  26.241  1.00  0.00     0.091 A 
ATOM     88  F   UNL A   1      42.375  24.111  27.116  1.00  0.00    -0.205 F 
ATOM     89  C   UNL A   1      45.225  22.230  25.829  1.00  0.00     0.022 A 
BRANCH  87  90
ATOM     90  S   UNL A   1      42.722  21.208  26.306  1.00  0.00     0.127 S 
ATOM     91  O   UNL A   1      43.494  20.066  25.813  1.00  0.00    -0.237 OA
ATOM     92  O   UNL A   1      42.398  21.159  27.728  1.00  0.00    -0.237 OA
ATOM     93  O   UNL A   1      41.644  21.621  25.415  1.00  0.00    -0.744 OA
ENDBRANCH  87  90
ENDBRANCH  59  83
BRANCH  71  94
ATOM     94  C   UNL A   1      46.617  30.295  29.121  1.00  0.00     0.023 A 
ATOM     95  C   UNL A   1      47.929  30.665  28.769  1.00  0.00     0.012 A 
ATOM     96  C   UNL A   1      45.531  30.856  28.429  1.00  0.00     0.148 A 
ATOM     97  C   UNL A   1      48.152  31.591  27.748  1.00  0.00     0.002 A 
ATOM     98  C   UNL A   1      45.759  31.745  27.388  1.00  0.00     0.091 A 
ATOM     99  F   UNL A   1      44.293  30.481  28.783  1.00  0.00    -0.205 F 
ATOM    100  C   UNL A   1      47.069  32.122  27.049  1.00  0.00     0.022 A 
BRANCH  98 101
ATOM    101  S   UNL A   1      44.421  32.382  26.376  1.00  0.00     0.127 S 
ATOM    102  O   UNL A   1      43.632  31.180  26.118  1.00  0.00    -0.237 OA
ATOM    103  O   UNL A   1      43.788  33.348  27.276  1.00  0.00    -0.237 OA
ATOM    104  O   UNL A   1      45.048  32.979  25.204  1.00  0.00    -0.744 OA
ENDBRANCH  98 101
ENDBRANCH  71  94
ENDBRANCH  45  46
ENDBRANCH  37  40
ENDBRANCH  35  36
ENDBRANCH  34  35
ENDBRANCH  33  34
ENDBRANCH   1  33
TORSDOF 21
ENDMDL
