MODEL 1
REMARK VINA RESULT:     -11.4      0.000      0.000
REMARK SMILES O=Cc1cccc(-c2cc(F)ccc2C(=O)NCCCCCCNC(=O)c2ccc(-c3c4nc(c(-c5cccc(S(=O)(=O)[O-])c5F)c5ccc([nH]5)c(-c5cccc(S(=O)(=O)[O-])c5F)c5nc(c(-c6cccc(S(=O)(=O)[O-])c6F)c6ccc3[nH]6)C=C5)C=C4)cc2)c1
REMARK SMILES IDX 21 1 20 2 19 3 18 4 17 5 15 6 16 7 14 9 8 10 9 11 10 12
REMARK SMILES IDX 13 13 11 14 12 15 7 16 3 17 4 18 90 19 5 20 6 21 2 22 1 23
REMARK SMILES IDX 22 24 23 25 24 26 25 27 26 29 27 30 28 31 89 32 29 33 88 34
REMARK SMILES IDX 30 35 31 36 32 37 82 38 33 39 87 40 81 41 83 42 34 43 86 44
REMARK SMILES IDX 80 45 79 46 35 48 67 49 47 50 66 51 48 52 51 53 65 54 84 55
REMARK SMILES IDX 49 56 50 57 64 59 85 60 52 61 36 62 37 63 45 64 38 65 40 66
REMARK SMILES IDX 46 67 39 68 41 69 42 70 43 71 44 72 68 73 69 74 77 75 70 76
REMARK SMILES IDX 72 77 78 78 71 79 73 80 74 81 75 82 76 83 53 84 54 85 62 86
REMARK SMILES IDX 55 87 57 88 63 89 56 90 58 91 59 92 60 93 61 94
REMARK H PARENT 17 8 24 28 83 47 51 58
REMARK Flexibility Score: inf
ROOT
ATOM      1  C   UNL A   1      35.982  20.176  25.037  1.00  0.00     0.002 C 
ENDROOT
BRANCH   1   2
ATOM      2  C   UNL A   1      34.657  19.435  24.819  1.00  0.00     0.002 C 
BRANCH   2   3
ATOM      3  C   UNL A   1      33.458  20.196  24.247  1.00  0.00     0.021 C 
BRANCH   3   4
ATOM      4  C   UNL A   1      32.307  20.554  25.179  1.00  0.00     0.116 C 
BRANCH   4   5
ATOM      5  N   UNL A   1      32.650  21.067  26.479  1.00  0.00    -0.352 N 
ATOM      6  C   UNL A   1      32.577  22.336  27.004  1.00  0.00     0.251 C 
ATOM      7  O   UNL A   1      32.832  22.419  28.213  1.00  0.00    -0.269 OA
ATOM      8  H   UNL A   1      32.999  20.391  27.102  1.00  0.00     0.163 HD
BRANCH   6   9
ATOM      9  C   UNL A   1      32.314  23.630  26.264  1.00  0.00     0.047 A 
ATOM     10  C   UNL A   1      33.106  24.329  25.317  1.00  0.00    -0.003 A 
ATOM     11  C   UNL A   1      32.569  25.502  24.718  1.00  0.00     0.048 A 
ATOM     12  C   UNL A   1      31.301  25.972  25.025  1.00  0.00     0.123 A 
ATOM     13  C   UNL A   1      31.017  24.149  26.543  1.00  0.00     0.017 A 
ATOM     14  F   UNL A   1      30.838  27.077  24.425  1.00  0.00    -0.207 F 
ATOM     15  C   UNL A   1      30.514  25.303  25.935  1.00  0.00     0.040 A 
BRANCH  10  16
ATOM     16  C   UNL A   1      34.451  23.964  24.848  1.00  0.00    -0.017 A 
ATOM     17  C   UNL A   1      36.846  23.752  25.162  1.00  0.00     0.015 A 
ATOM     18  C   UNL A   1      37.000  23.286  23.851  1.00  0.00     0.011 A 
ATOM     19  C   UNL A   1      35.578  24.072  25.668  1.00  0.00     0.020 A 
ATOM     20  C   UNL A   1      35.881  23.141  23.037  1.00  0.00     0.001 A 
ATOM     21  C   UNL A   1      34.619  23.466  23.535  1.00  0.00     0.009 A 
BRANCH  17  22
ATOM     22  C   UNL A   1      38.049  23.996  25.981  1.00  0.00     0.260 C 
ATOM     23  O   UNL A   1      38.468  23.155  26.766  1.00  0.00    -0.298 OA
ENDBRANCH  17  22
ENDBRANCH  10  16
ENDBRANCH   6   9
ENDBRANCH   4   5
ENDBRANCH   3   4
ENDBRANCH   2   3
ENDBRANCH   1   2
BRANCH   1  24
ATOM     24  C   UNL A   1      37.287  19.375  25.016  1.00  0.00     0.021 C 
BRANCH  24  25
ATOM     25  C   UNL A   1      38.593  20.129  25.252  1.00  0.00     0.116 C 
BRANCH  25  26
ATOM     26  N   UNL A   1      39.646  19.290  25.784  1.00  0.00    -0.352 N 
ATOM     27  C   UNL A   1      40.855  19.609  26.353  1.00  0.00     0.251 C 
ATOM     28  H   UNL A   1      39.466  18.324  25.728  1.00  0.00     0.163 HD
ATOM     29  O   UNL A   1      41.643  18.698  26.606  1.00  0.00    -0.269 OA
BRANCH  27  30
ATOM     30  C   UNL A   1      41.250  21.011  26.662  1.00  0.00     0.039 A 
ATOM     31  C   UNL A   1      41.398  21.903  25.593  1.00  0.00     0.014 A 
ATOM     32  C   UNL A   1      41.570  21.441  27.954  1.00  0.00     0.014 A 
ATOM     33  C   UNL A   1      41.839  23.215  25.816  1.00  0.00     0.010 A 
ATOM     34  C   UNL A   1      41.952  22.769  28.183  1.00  0.00     0.010 A 
ATOM     35  C   UNL A   1      42.111  23.667  27.116  1.00  0.00    -0.014 A 
BRANCH  35  36
ATOM     36  C   UNL A   1      42.582  25.061  27.356  1.00  0.00     0.031 A 
ATOM     37  C   UNL A   1      41.679  26.082  28.001  1.00  0.00     0.074 A 
ATOM     38  C   UNL A   1      43.815  25.433  26.956  1.00  0.00     0.049 A 
ATOM     39  N   UNL A   1      41.922  27.336  28.290  1.00  0.00    -0.248 NA
ATOM     40  C   UNL A   1      40.317  25.644  28.349  1.00  0.00     0.031 C 
ATOM     41  C   UNL A   1      44.772  24.572  26.258  1.00  0.00     0.029 A 
ATOM     42  N   UNL A   1      44.471  26.636  27.064  1.00  0.00    -0.354 N 
ATOM     43  C   UNL A   1      40.743  27.844  28.823  1.00  0.00     0.074 A 
ATOM     44  C   UNL A   1      39.772  26.771  28.787  1.00  0.00     0.031 C 
ATOM     45  C   UNL A   1      45.889  25.273  26.003  1.00  0.00     0.029 A 
ATOM     46  C   UNL A   1      45.726  26.635  26.501  1.00  0.00     0.049 A 
ATOM     47  H   UNL A   1      44.077  27.425  27.502  1.00  0.00     0.167 HD
ATOM     48  C   UNL A   1      40.494  29.078  29.325  1.00  0.00     0.034 A 
ATOM     49  C   UNL A   1      46.644  27.617  26.398  1.00  0.00     0.034 A 
ATOM     50  C   UNL A   1      41.470  30.134  29.412  1.00  0.00     0.049 A 
ATOM     51  C   UNL A   1      46.361  28.964  27.007  1.00  0.00     0.074 A 
ATOM     52  C   UNL A   1      41.335  31.384  29.992  1.00  0.00     0.029 A 
ATOM     53  N   UNL A   1      42.757  30.067  28.904  1.00  0.00    -0.354 N 
ATOM     54  N   UNL A   1      45.298  29.368  27.657  1.00  0.00    -0.248 NA
ATOM     55  C   UNL A   1      47.422  29.978  26.903  1.00  0.00     0.031 C 
ATOM     56  C   UNL A   1      42.536  32.080  29.817  1.00  0.00     0.029 A 
ATOM     57  C   UNL A   1      43.424  31.257  29.145  1.00  0.00     0.049 A 
ATOM     58  H   UNL A   1      43.140  29.289  28.438  1.00  0.00     0.167 HD
ATOM     59  C   UNL A   1      45.571  30.670  28.065  1.00  0.00     0.074 A 
ATOM     60  C   UNL A   1      46.913  30.977  27.611  1.00  0.00     0.031 C 
ATOM     61  C   UNL A   1      44.776  31.539  28.735  1.00  0.00     0.034 A 
BRANCH  48  62
ATOM     62  C   UNL A   1      39.119  29.341  29.886  1.00  0.00     0.023 A 
ATOM     63  C   UNL A   1      38.828  28.960  31.211  1.00  0.00     0.012 A 
ATOM     64  C   UNL A   1      38.142  30.020  29.132  1.00  0.00     0.148 A 
ATOM     65  C   UNL A   1      37.575  29.217  31.767  1.00  0.00     0.002 A 
ATOM     66  C   UNL A   1      36.908  30.309  29.707  1.00  0.00     0.091 A 
ATOM     67  F   UNL A   1      38.428  30.358  27.867  1.00  0.00    -0.205 F 
ATOM     68  C   UNL A   1      36.620  29.900  31.020  1.00  0.00     0.022 A 
BRANCH  66  69
ATOM     69  S   UNL A   1      35.637  31.248  28.851  1.00  0.00     0.127 S 
ATOM     70  O   UNL A   1      36.438  32.228  28.119  1.00  0.00    -0.237 OA
ATOM     71  O   UNL A   1      35.007  30.227  28.014  1.00  0.00    -0.237 OA
ATOM     72  O   UNL A   1      34.776  31.794  29.890  1.00  0.00    -0.744 OA
ENDBRANCH  66  69
ENDBRANCH  48  62
BRANCH  49  73
ATOM     73  C   UNL A   1      47.956  27.338  25.749  1.00  0.00     0.023 A 
ATOM     74  C   UNL A   1      49.022  26.842  26.526  1.00  0.00     0.012 A 
ATOM     75  C   UNL A   1      48.146  27.531  24.367  1.00  0.00     0.148 A 
ATOM     76  C   UNL A   1      50.261  26.571  25.944  1.00  0.00     0.002 A 
ATOM     77  C   UNL A   1      49.366  27.207  23.784  1.00  0.00     0.091 A 
ATOM     78  F   UNL A   1      47.126  28.022  23.649  1.00  0.00    -0.205 F 
ATOM     79  C   UNL A   1      50.429  26.742  24.572  1.00  0.00     0.022 A 
BRANCH  77  80
ATOM     80  S   UNL A   1      49.618  27.267  22.006  1.00  0.00     0.127 S 
ATOM     81  O   UNL A   1      51.023  26.879  21.891  1.00  0.00    -0.237 OA
ATOM     82  O   UNL A   1      48.662  26.266  21.529  1.00  0.00    -0.237 OA
ATOM     83  O   UNL A   1      49.301  28.631  21.613  1.00  0.00    -0.744 OA
ENDBRANCH  77  80
ENDBRANCH  49  73
BRANCH  61  84
ATOM     84  C   UNL A   1      45.334  32.906  29.041  1.00  0.00     0.023 A 
ATOM     85  C   UNL A   1      46.039  33.117  30.243  1.00  0.00     0.012 A 
ATOM     86  C   UNL A   1      45.215  33.962  28.116  1.00  0.00     0.148 A 
ATOM     87  C   UNL A   1      46.589  34.365  30.534  1.00  0.00     0.002 A 
ATOM     88  C   UNL A   1      45.806  35.191  28.392  1.00  0.00     0.091 A 
ATOM     89  F   UNL A   1      44.524  33.751  26.987  1.00  0.00    -0.205 F 
ATOM     90  C   UNL A   1      46.482  35.397  29.605  1.00  0.00     0.022 A 
BRANCH  88  91
ATOM     91  S   UNL A   1      45.797  36.546  27.212  1.00  0.00     0.127 S 
ATOM     92  O   UNL A   1      44.372  36.860  27.130  1.00  0.00    -0.237 OA
ATOM     93  O   UNL A   1      46.607  37.558  27.892  1.00  0.00    -0.237 OA
ATOM     94  O   UNL A   1      46.396  36.016  25.994  1.00  0.00    -0.744 OA
ENDBRANCH  88  91
ENDBRANCH  61  84
ENDBRANCH  35  36
ENDBRANCH  27  30
ENDBRANCH  25  26
ENDBRANCH  24  25
ENDBRANCH   1  24
TORSDOF 18
ENDMDL
MODEL 2
REMARK VINA RESULT:     -11.3      5.389      8.527
REMARK SMILES O=Cc1cccc(-c2cc(F)ccc2C(=O)NCCCCCCNC(=O)c2ccc(-c3c4nc(c(-c5cccc(S(=O)(=O)[O-])c5F)c5ccc([nH]5)c(-c5cccc(S(=O)(=O)[O-])c5F)c5nc(c(-c6cccc(S(=O)(=O)[O-])c6F)c6ccc3[nH]6)C=C5)C=C4)cc2)c1
REMARK SMILES IDX 21 1 20 2 19 3 18 4 17 5 15 6 16 7 14 9 8 10 9 11 10 12
REMARK SMILES IDX 13 13 11 14 12 15 7 16 3 17 4 18 90 19 5 20 6 21 2 22 1 23
REMARK SMILES IDX 22 24 23 25 24 26 25 27 26 29 27 30 28 31 89 32 29 33 88 34
REMARK SMILES IDX 30 35 31 36 32 37 82 38 33 39 87 40 81 41 83 42 34 43 86 44
REMARK SMILES IDX 80 45 79 46 35 48 67 49 47 50 66 51 48 52 51 53 65 54 84 55
REMARK SMILES IDX 49 56 50 57 64 59 85 60 52 61 36 62 37 63 45 64 38 65 40 66
REMARK SMILES IDX 46 67 39 68 41 69 42 70 43 71 44 72 68 73 69 74 77 75 70 76
REMARK SMILES IDX 72 77 78 78 71 79 73 80 74 81 75 82 76 83 53 84 54 85 62 86
REMARK SMILES IDX 55 87 57 88 63 89 56 90 58 91 59 92 60 93 61 94
REMARK H PARENT 17 8 24 28 83 47 51 58
REMARK Flexibility Score: inf
ROOT
ATOM      1  C   UNL A   1      33.150  28.488  22.805  1.00  0.00     0.002 C 
ENDROOT
BRANCH   1   2
ATOM      2  C   UNL A   1      33.411  26.977  22.790  1.00  0.00     0.002 C 
BRANCH   2   3
ATOM      3  C   UNL A   1      32.491  26.066  21.970  1.00  0.00     0.021 C 
BRANCH   3   4
ATOM      4  C   UNL A   1      33.120  24.978  21.109  1.00  0.00     0.116 C 
BRANCH   4   5
ATOM      5  N   UNL A   1      32.908  23.614  21.515  1.00  0.00    -0.352 N 
ATOM      6  C   UNL A   1      33.393  22.896  22.584  1.00  0.00     0.251 C 
ATOM      7  O   UNL A   1      32.909  21.765  22.719  1.00  0.00    -0.269 OA
ATOM      8  H   UNL A   1      32.311  23.104  20.923  1.00  0.00     0.163 HD
BRANCH   6   9
ATOM      9  C   UNL A   1      34.498  23.293  23.539  1.00  0.00     0.047 A 
ATOM     10  C   UNL A   1      34.436  23.895  24.823  1.00  0.00    -0.003 A 
ATOM     11  C   UNL A   1      35.649  24.090  25.539  1.00  0.00     0.048 A 
ATOM     12  C   UNL A   1      36.879  23.703  25.027  1.00  0.00     0.123 A 
ATOM     13  C   UNL A   1      35.782  22.908  23.058  1.00  0.00     0.017 A 
ATOM     14  F   UNL A   1      37.991  23.900  25.746  1.00  0.00    -0.207 F 
ATOM     15  C   UNL A   1      36.958  23.109  23.787  1.00  0.00     0.040 A 
BRANCH  10  16
ATOM     16  C   UNL A   1      33.229  24.338  25.534  1.00  0.00    -0.017 A 
ATOM     17  C   UNL A   1      31.077  23.920  26.572  1.00  0.00     0.015 A 
ATOM     18  C   UNL A   1      30.922  25.281  26.856  1.00  0.00     0.011 A 
ATOM     19  C   UNL A   1      32.230  23.443  25.933  1.00  0.00     0.020 A 
ATOM     20  C   UNL A   1      31.925  26.177  26.496  1.00  0.00     0.001 A 
ATOM     21  C   UNL A   1      33.071  25.707  25.852  1.00  0.00     0.009 A 
BRANCH  17  22
ATOM     22  C   UNL A   1      29.965  22.996  26.868  1.00  0.00     0.260 C 
ATOM     23  O   UNL A   1      29.072  23.300  27.649  1.00  0.00    -0.298 OA
ENDBRANCH  17  22
ENDBRANCH  10  16
ENDBRANCH   6   9
ENDBRANCH   4   5
ENDBRANCH   3   4
ENDBRANCH   2   3
ENDBRANCH   1   2
BRANCH   1  24
ATOM     24  C   UNL A   1      32.333  29.085  23.954  1.00  0.00     0.021 C 
BRANCH  24  25
ATOM     25  C   UNL A   1      33.061  29.414  25.254  1.00  0.00     0.116 C 
BRANCH  25  26
ATOM     26  N   UNL A   1      32.655  30.681  25.828  1.00  0.00    -0.352 N 
ATOM     27  C   UNL A   1      33.176  31.407  26.871  1.00  0.00     0.251 C 
ATOM     28  H   UNL A   1      31.872  31.092  25.396  1.00  0.00     0.163 HD
ATOM     29  O   UNL A   1      32.561  32.401  27.257  1.00  0.00    -0.269 OA
BRANCH  27  30
ATOM     30  C   UNL A   1      34.444  31.032  27.555  1.00  0.00     0.039 A 
ATOM     31  C   UNL A   1      34.577  29.716  28.015  1.00  0.00     0.014 A 
ATOM     32  C   UNL A   1      35.453  31.956  27.840  1.00  0.00     0.014 A 
ATOM     33  C   UNL A   1      35.717  29.324  28.731  1.00  0.00     0.010 A 
ATOM     34  C   UNL A   1      36.618  31.550  28.503  1.00  0.00     0.010 A 
ATOM     35  C   UNL A   1      36.757  30.235  28.975  1.00  0.00    -0.014 A 
BRANCH  35  36
ATOM     36  C   UNL A   1      37.969  29.821  29.738  1.00  0.00     0.031 A 
ATOM     37  C   UNL A   1      38.222  30.345  31.129  1.00  0.00     0.074 A 
ATOM     38  C   UNL A   1      38.876  29.001  29.168  1.00  0.00     0.049 A 
ATOM     39  N   UNL A   1      39.218  30.089  31.941  1.00  0.00    -0.248 NA
ATOM     40  C   UNL A   1      37.239  31.295  31.675  1.00  0.00     0.031 C 
ATOM     41  C   UNL A   1      38.796  28.472  27.805  1.00  0.00     0.029 A 
ATOM     42  N   UNL A   1      40.051  28.482  29.657  1.00  0.00    -0.354 N 
ATOM     43  C   UNL A   1      39.002  30.865  33.073  1.00  0.00     0.074 A 
ATOM     44  C   UNL A   1      37.794  31.627  32.833  1.00  0.00     0.031 C 
ATOM     45  C   UNL A   1      39.873  27.704  27.569  1.00  0.00     0.029 A 
ATOM     46  C   UNL A   1      40.728  27.698  28.753  1.00  0.00     0.049 A 
ATOM     47  H   UNL A   1      40.377  28.657  30.569  1.00  0.00     0.167 HD
ATOM     48  C   UNL A   1      39.718  30.919  34.222  1.00  0.00     0.034 A 
ATOM     49  C   UNL A   1      41.901  27.043  28.861  1.00  0.00     0.034 A 
ATOM     50  C   UNL A   1      40.890  30.125  34.489  1.00  0.00     0.049 A 
ATOM     51  C   UNL A   1      42.654  27.082  30.164  1.00  0.00     0.074 A 
ATOM     52  C   UNL A   1      41.625  30.044  35.659  1.00  0.00     0.029 A 
ATOM     53  N   UNL A   1      41.499  29.280  33.576  1.00  0.00    -0.354 N 
ATOM     54  N   UNL A   1      42.339  27.690  31.281  1.00  0.00    -0.248 NA
ATOM     55  C   UNL A   1      43.904  26.310  30.235  1.00  0.00     0.031 C 
ATOM     56  C   UNL A   1      42.690  29.162  35.447  1.00  0.00     0.029 A 
ATOM     57  C   UNL A   1      42.608  28.681  34.151  1.00  0.00     0.049 A 
ATOM     58  H   UNL A   1      41.190  29.128  32.654  1.00  0.00     0.167 HD
ATOM     59  C   UNL A   1      43.332  27.352  32.194  1.00  0.00     0.074 A 
ATOM     60  C   UNL A   1      44.246  26.462  31.507  1.00  0.00     0.031 C 
ATOM     61  C   UNL A   1      43.486  27.758  33.478  1.00  0.00     0.034 A 
BRANCH  48  62
ATOM     62  C   UNL A   1      39.219  31.828  35.316  1.00  0.00     0.023 A 
ATOM     63  C   UNL A   1      38.252  31.352  36.224  1.00  0.00     0.012 A 
ATOM     64  C   UNL A   1      39.749  33.122  35.489  1.00  0.00     0.148 A 
ATOM     65  C   UNL A   1      37.793  32.159  37.264  1.00  0.00     0.002 A 
ATOM     66  C   UNL A   1      39.316  33.906  36.553  1.00  0.00     0.091 A 
ATOM     67  F   UNL A   1      40.653  33.567  34.605  1.00  0.00    -0.205 F 
ATOM     68  C   UNL A   1      38.332  33.431  37.435  1.00  0.00     0.022 A 
BRANCH  66  69
ATOM     69  S   UNL A   1      40.002  35.531  36.900  1.00  0.00     0.127 S 
ATOM     70  O   UNL A   1      39.591  36.284  35.716  1.00  0.00    -0.237 OA
ATOM     71  O   UNL A   1      39.307  35.905  38.132  1.00  0.00    -0.237 OA
ATOM     72  O   UNL A   1      41.437  35.334  37.051  1.00  0.00    -0.744 OA
ENDBRANCH  66  69
ENDBRANCH  48  62
BRANCH  49  73
ATOM     73  C   UNL A   1      42.406  26.232  27.717  1.00  0.00     0.023 A 
ATOM     74  C   UNL A   1      43.358  26.789  26.840  1.00  0.00     0.012 A 
ATOM     75  C   UNL A   1      41.972  24.909  27.509  1.00  0.00     0.148 A 
ATOM     76  C   UNL A   1      43.849  26.052  25.762  1.00  0.00     0.002 A 
ATOM     77  C   UNL A   1      42.506  24.161  26.465  1.00  0.00     0.091 A 
ATOM     78  F   UNL A   1      41.052  24.404  28.342  1.00  0.00    -0.205 F 
ATOM     79  C   UNL A   1      43.432  24.736  25.581  1.00  0.00     0.022 A 
BRANCH  77  80
ATOM     80  S   UNL A   1      42.126  22.419  26.249  1.00  0.00     0.127 S 
ATOM     81  O   UNL A   1      42.895  22.093  25.049  1.00  0.00    -0.237 OA
ATOM     82  O   UNL A   1      42.645  21.839  27.489  1.00  0.00    -0.237 OA
ATOM     83  O   UNL A   1      40.680  22.349  26.116  1.00  0.00    -0.744 OA
ENDBRANCH  77  80
ENDBRANCH  49  73
BRANCH  61  84
ATOM     84  C   UNL A   1      44.675  27.234  34.241  1.00  0.00     0.023 A 
ATOM     85  C   UNL A   1      45.875  27.972  34.253  1.00  0.00     0.012 A 
ATOM     86  C   UNL A   1      44.588  26.047  34.995  1.00  0.00     0.148 A 
ATOM     87  C   UNL A   1      46.980  27.522  34.976  1.00  0.00     0.002 A 
ATOM     88  C   UNL A   1      45.679  25.628  35.751  1.00  0.00     0.091 A 
ATOM     89  F   UNL A   1      43.447  25.345  34.957  1.00  0.00    -0.205 F 
ATOM     90  C   UNL A   1      46.878  26.357  35.733  1.00  0.00     0.022 A 
BRANCH  88  91
ATOM     91  S   UNL A   1      45.605  24.190  36.826  1.00  0.00     0.127 S 
ATOM     92  O   UNL A   1      45.008  23.188  35.944  1.00  0.00    -0.237 OA
ATOM     93  O   UNL A   1      47.016  23.962  37.142  1.00  0.00    -0.237 OA
ATOM     94  O   UNL A   1      44.791  24.589  37.967  1.00  0.00    -0.744 OA
ENDBRANCH  88  91
ENDBRANCH  61  84
ENDBRANCH  35  36
ENDBRANCH  27  30
ENDBRANCH  25  26
ENDBRANCH  24  25
ENDBRANCH   1  24
TORSDOF 18
ENDMDL
MODEL 3
REMARK VINA RESULT:     -11.2      5.387      8.355
REMARK SMILES O=Cc1cccc(-c2cc(F)ccc2C(=O)NCCCCCCNC(=O)c2ccc(-c3c4nc(c(-c5cccc(S(=O)(=O)[O-])c5F)c5ccc([nH]5)c(-c5cccc(S(=O)(=O)[O-])c5F)c5nc(c(-c6cccc(S(=O)(=O)[O-])c6F)c6ccc3[nH]6)C=C5)C=C4)cc2)c1
REMARK SMILES IDX 21 1 20 2 19 3 18 4 17 5 15 6 16 7 14 9 8 10 9 11 10 12
REMARK SMILES IDX 13 13 11 14 12 15 7 16 3 17 4 18 90 19 5 20 6 21 2 22 1 23
REMARK SMILES IDX 22 24 23 25 24 26 25 27 26 29 27 30 28 31 89 32 29 33 88 34
REMARK SMILES IDX 30 35 31 36 32 37 82 38 33 39 87 40 81 41 83 42 34 43 86 44
REMARK SMILES IDX 80 45 79 46 35 48 67 49 47 50 66 51 48 52 51 53 65 54 84 55
REMARK SMILES IDX 49 56 50 57 64 59 85 60 52 61 36 62 37 63 45 64 38 65 40 66
REMARK SMILES IDX 46 67 39 68 41 69 42 70 43 71 44 72 68 73 69 74 77 75 70 76
REMARK SMILES IDX 72 77 78 78 71 79 73 80 74 81 75 82 76 83 53 84 54 85 62 86
REMARK SMILES IDX 55 87 57 88 63 89 56 90 58 91 59 92 60 93 61 94
REMARK H PARENT 17 8 24 28 83 47 51 58
REMARK Flexibility Score: inf
ROOT
ATOM      1  C   UNL A   1      31.409  27.416  26.516  1.00  0.00     0.002 C 
ENDROOT
BRANCH   1   2
ATOM      2  C   UNL A   1      32.117  26.057  26.462  1.00  0.00     0.002 C 
BRANCH   2   3
ATOM      3  C   UNL A   1      31.278  24.777  26.380  1.00  0.00     0.021 C 
BRANCH   3   4
ATOM      4  C   UNL A   1      31.864  23.483  26.930  1.00  0.00     0.116 C 
BRANCH   4   5
ATOM      5  N   UNL A   1      31.556  22.269  26.221  1.00  0.00    -0.352 N 
ATOM      6  C   UNL A   1      32.342  21.435  25.461  1.00  0.00     0.251 C 
ATOM      7  O   UNL A   1      31.792  20.390  25.090  1.00  0.00    -0.269 OA
ATOM      8  H   UNL A   1      30.617  21.986  26.293  1.00  0.00     0.163 HD
BRANCH   6   9
ATOM      9  C   UNL A   1      33.747  21.691  24.959  1.00  0.00     0.047 A 
ATOM     10  C   UNL A   1      34.262  22.738  24.151  1.00  0.00    -0.003 A 
ATOM     11  C   UNL A   1      35.660  22.768  23.892  1.00  0.00     0.048 A 
ATOM     12  C   UNL A   1      36.527  21.817  24.410  1.00  0.00     0.123 A 
ATOM     13  C   UNL A   1      34.677  20.741  25.472  1.00  0.00     0.017 A 
ATOM     14  F   UNL A   1      37.838  21.897  24.144  1.00  0.00    -0.207 F 
ATOM     15  C   UNL A   1      36.048  20.800  25.203  1.00  0.00     0.040 A 
BRANCH  10  16
ATOM     16  C   UNL A   1      33.505  23.842  23.546  1.00  0.00    -0.017 A 
ATOM     17  C   UNL A   1      33.262  26.160  22.874  1.00  0.00     0.015 A 
ATOM     18  C   UNL A   1      31.964  25.915  22.413  1.00  0.00     0.011 A 
ATOM     19  C   UNL A   1      34.040  25.129  23.420  1.00  0.00     0.020 A 
ATOM     20  C   UNL A   1      31.434  24.631  22.500  1.00  0.00     0.001 A 
ATOM     21  C   UNL A   1      32.203  23.604  23.050  1.00  0.00     0.009 A 
BRANCH  17  22
ATOM     22  C   UNL A   1      33.775  27.544  22.868  1.00  0.00     0.260 C 
ATOM     23  O   UNL A   1      34.128  28.090  21.830  1.00  0.00    -0.298 OA
ENDBRANCH  17  22
ENDBRANCH  10  16
ENDBRANCH   6   9
ENDBRANCH   4   5
ENDBRANCH   3   4
ENDBRANCH   2   3
ENDBRANCH   1   2
BRANCH   1  24
ATOM     24  C   UNL A   1      32.121  28.592  27.189  1.00  0.00     0.021 C 
BRANCH  24  25
ATOM     25  C   UNL A   1      32.949  29.526  26.311  1.00  0.00     0.116 C 
BRANCH  25  26
ATOM     26  N   UNL A   1      32.810  30.921  26.675  1.00  0.00    -0.352 N 
ATOM     27  C   UNL A   1      33.588  31.729  27.468  1.00  0.00     0.251 C 
ATOM     28  H   UNL A   1      32.023  31.368  26.287  1.00  0.00     0.163 HD
ATOM     29  O   UNL A   1      33.178  32.859  27.734  1.00  0.00    -0.269 OA
BRANCH  27  30
ATOM     30  C   UNL A   1      34.896  31.287  28.023  1.00  0.00     0.039 A 
ATOM     31  C   UNL A   1      34.962  30.024  28.625  1.00  0.00     0.014 A 
ATOM     32  C   UNL A   1      36.024  32.113  28.055  1.00  0.00     0.014 A 
ATOM     33  C   UNL A   1      36.147  29.584  29.230  1.00  0.00     0.010 A 
ATOM     34  C   UNL A   1      37.225  31.649  28.607  1.00  0.00     0.010 A 
ATOM     35  C   UNL A   1      37.297  30.388  29.219  1.00  0.00    -0.014 A 
BRANCH  35  36
ATOM     36  C   UNL A   1      38.558  29.923  29.864  1.00  0.00     0.031 A 
ATOM     37  C   UNL A   1      38.999  30.485  31.193  1.00  0.00     0.074 A 
ATOM     38  C   UNL A   1      39.340  29.019  29.239  1.00  0.00     0.049 A 
ATOM     39  N   UNL A   1      40.061  30.194  31.901  1.00  0.00    -0.248 NA
ATOM     40  C   UNL A   1      38.147  31.523  31.795  1.00  0.00     0.031 C 
ATOM     41  C   UNL A   1      39.074  28.441  27.921  1.00  0.00     0.029 A 
ATOM     42  N   UNL A   1      40.527  28.441  29.622  1.00  0.00    -0.354 N 
ATOM     43  C   UNL A   1      40.024  31.030  33.011  1.00  0.00     0.074 A 
ATOM     44  C   UNL A   1      38.849  31.863  32.868  1.00  0.00     0.031 C 
ATOM     45  C   UNL A   1      40.065  27.591  27.606  1.00  0.00     0.029 A 
ATOM     46  C   UNL A   1      41.046  27.574  28.688  1.00  0.00     0.049 A 
ATOM     47  H   UNL A   1      40.964  28.630  30.483  1.00  0.00     0.167 HD
ATOM     48  C   UNL A   1      40.868  31.082  34.071  1.00  0.00     0.034 A 
ATOM     49  C   UNL A   1      42.180  26.845  28.699  1.00  0.00     0.034 A 
ATOM     50  C   UNL A   1      42.008  30.220  34.247  1.00  0.00     0.049 A 
ATOM     51  C   UNL A   1      43.075  26.885  29.908  1.00  0.00     0.074 A 
ATOM     52  C   UNL A   1      42.864  30.136  35.332  1.00  0.00     0.029 A 
ATOM     53  N   UNL A   1      42.455  29.297  33.315  1.00  0.00    -0.354 N 
ATOM     54  N   UNL A   1      42.927  27.559  31.022  1.00  0.00    -0.248 NA
ATOM     55  C   UNL A   1      44.273  26.031  29.879  1.00  0.00     0.031 C 
ATOM     56  C   UNL A   1      43.839  29.175  35.048  1.00  0.00     0.029 A 
ATOM     57  C   UNL A   1      43.581  28.647  33.793  1.00  0.00     0.049 A 
ATOM     58  H   UNL A   1      42.035  29.129  32.441  1.00  0.00     0.167 HD
ATOM     59  C   UNL A   1      43.993  27.191  31.836  1.00  0.00     0.074 A 
ATOM     60  C   UNL A   1      44.764  26.212  31.097  1.00  0.00     0.031 C 
ATOM     61  C   UNL A   1      44.316  27.638  33.075  1.00  0.00     0.034 A 
BRANCH  48  62
ATOM     62  C   UNL A   1      40.555  32.068  35.168  1.00  0.00     0.023 A 
ATOM     63  C   UNL A   1      41.308  33.256  35.265  1.00  0.00     0.012 A 
ATOM     64  C   UNL A   1      39.482  31.856  36.055  1.00  0.00     0.148 A 
ATOM     65  C   UNL A   1      41.021  34.201  36.250  1.00  0.00     0.002 A 
ATOM     66  C   UNL A   1      39.177  32.822  37.008  1.00  0.00     0.091 A 
ATOM     67  F   UNL A   1      38.788  30.713  35.961  1.00  0.00    -0.205 F 
ATOM     68  C   UNL A   1      39.951  33.989  37.114  1.00  0.00     0.022 A 
BRANCH  66  69
ATOM     69  S   UNL A   1      37.771  32.676  38.120  1.00  0.00     0.127 S 
ATOM     70  O   UNL A   1      38.027  33.764  39.062  1.00  0.00    -0.237 OA
ATOM     71  O   UNL A   1      36.640  32.899  37.221  1.00  0.00    -0.237 OA
ATOM     72  O   UNL A   1      37.843  31.333  38.679  1.00  0.00    -0.744 OA
ENDBRANCH  66  69
ENDBRANCH  48  62
BRANCH  49  73
ATOM     73  C   UNL A   1      42.499  25.954  27.548  1.00  0.00     0.023 A 
ATOM     74  C   UNL A   1      43.314  26.437  26.504  1.00  0.00     0.012 A 
ATOM     75  C   UNL A   1      42.027  24.629  27.494  1.00  0.00     0.148 A 
ATOM     76  C   UNL A   1      43.629  25.624  25.415  1.00  0.00     0.002 A 
ATOM     77  C   UNL A   1      42.391  23.807  26.433  1.00  0.00     0.091 A 
ATOM     78  F   UNL A   1      41.238  24.195  28.486  1.00  0.00    -0.205 F 
ATOM     79  C   UNL A   1      43.178  24.307  25.385  1.00  0.00     0.022 A 
BRANCH  77  80
ATOM     80  S   UNL A   1      41.967  22.062  26.389  1.00  0.00     0.127 S 
ATOM     81  O   UNL A   1      40.513  22.112  26.245  1.00  0.00    -0.237 OA
ATOM     82  O   UNL A   1      42.688  21.604  25.199  1.00  0.00    -0.237 OA
ATOM     83  O   UNL A   1      42.464  21.508  27.638  1.00  0.00    -0.744 OA
ENDBRANCH  77  80
ENDBRANCH  49  73
BRANCH  61  84
ATOM     84  C   UNL A   1      45.547  27.065  33.727  1.00  0.00     0.023 A 
ATOM     85  C   UNL A   1      46.777  27.743  33.610  1.00  0.00     0.012 A 
ATOM     86  C   UNL A   1      45.477  25.893  34.506  1.00  0.00     0.148 A 
ATOM     87  C   UNL A   1      47.924  27.247  34.230  1.00  0.00     0.002 A 
ATOM     88  C   UNL A   1      46.615  25.429  35.160  1.00  0.00     0.091 A 
ATOM     89  F   UNL A   1      44.305  25.248  34.591  1.00  0.00    -0.205 F 
ATOM     90  C   UNL A   1      47.840  26.098  35.013  1.00  0.00     0.022 A 
BRANCH  88  91
ATOM     91  S   UNL A   1      46.577  24.010  36.262  1.00  0.00     0.127 S 
ATOM     92  O   UNL A   1      45.455  24.344  37.138  1.00  0.00    -0.237 OA
ATOM     93  O   UNL A   1      46.321  22.903  35.339  1.00  0.00    -0.237 OA
ATOM     94  O   UNL A   1      47.885  23.970  36.901  1.00  0.00    -0.744 OA
ENDBRANCH  88  91
ENDBRANCH  61  84
ENDBRANCH  35  36
ENDBRANCH  27  30
ENDBRANCH  25  26
ENDBRANCH  24  25
ENDBRANCH   1  24
TORSDOF 18
ENDMDL
