MODEL 1
REMARK VINA RESULT:     -10.0      0.000      0.000
REMARK SMILES CC(=O)Oc1ccccc1SCCCCCC(=O)NCCCCCCNC(=O)c1ccc(-c2c3nc(c(-c4cccc(S(=O)(=O)[O-])c4F)c4ccc([nH]4)c(-c4cccc(S(=O)(=O)[O-])c4F)c4nc(c(-c5cccc(S(=O)(=O)[O-])c5F)c5ccc2[nH]5)C=C4)C=C3)cc1
REMARK SMILES IDX 20 1 19 2 17 3 18 4 16 6 15 7 14 8 13 9 12 10 11 11 10 12
REMARK SMILES IDX 5 13 6 14 7 15 9 16 8 17 4 18 2 19 1 20 3 21 21 22 22 23
REMARK SMILES IDX 23 24 24 25 25 26 26 27 27 28 28 30 29 31 30 32 91 33 31 34
REMARK SMILES IDX 90 35 32 36 33 37 34 38 84 39 35 40 89 41 83 42 85 43 36 44
REMARK SMILES IDX 88 45 82 46 81 47 37 49 69 50 49 51 68 52 50 53 53 54 67 55
REMARK SMILES IDX 86 56 51 57 52 58 66 60 87 61 54 62 38 63 39 64 47 65 40 66
REMARK SMILES IDX 42 67 48 68 41 69 43 70 44 71 45 72 46 73 70 74 71 75 79 76
REMARK SMILES IDX 72 77 74 78 80 79 73 80 75 81 76 82 77 83 78 84 55 85 56 86
REMARK SMILES IDX 64 87 57 88 59 89 65 90 58 91 60 92 61 93 62 94 63 95
REMARK H PARENT 19 5 26 29 85 48 53 59
REMARK Flexibility Score: inf
ROOT
ATOM      1  C   UNL A   1      31.840  27.407  26.104  1.00  0.00     0.116 C 
ENDROOT
BRANCH   1   2
ATOM      2  N   UNL A   1      30.687  27.513  25.238  1.00  0.00    -0.356 N 
ATOM      3  C   UNL A   1      30.057  26.524  24.548  1.00  0.00     0.219 C 
ATOM      4  O   UNL A   1      29.155  26.823  23.765  1.00  0.00    -0.275 OA
ATOM      5  H   UNL A   1      30.310  28.416  25.133  1.00  0.00     0.163 HD
BRANCH   3   6
ATOM      6  C   UNL A   1      30.459  25.083  24.774  1.00  0.00     0.100 C 
BRANCH   6   7
ATOM      7  C   UNL A   1      30.140  24.564  26.179  1.00  0.00     0.010 C 
BRANCH   7   8
ATOM      8  C   UNL A   1      30.232  23.045  26.460  1.00  0.00     0.001 C 
BRANCH   8   9
ATOM      9  C   UNL A   1      31.641  22.445  26.445  1.00  0.00     0.011 C 
BRANCH   9  10
ATOM     10  C   UNL A   1      32.897  23.200  26.915  1.00  0.00     0.075 C 
BRANCH  10  11
ATOM     11  S   UNL A   1      33.972  24.384  26.029  1.00  0.00    -0.122 SA
BRANCH  11  12
ATOM     12  C   UNL A   1      35.221  23.450  25.206  1.00  0.00     0.050 A 
ATOM     13  C   UNL A   1      35.411  23.378  23.823  1.00  0.00     0.144 A 
ATOM     14  C   UNL A   1      36.504  22.682  23.282  1.00  0.00     0.048 A 
ATOM     15  C   UNL A   1      37.394  22.010  24.118  1.00  0.00     0.004 A 
ATOM     16  C   UNL A   1      36.097  22.716  26.028  1.00  0.00     0.019 A 
ATOM     17  C   UNL A   1      37.181  22.013  25.492  1.00  0.00     0.001 A 
BRANCH  13  18
ATOM     18  O   UNL A   1      34.729  24.182  22.857  1.00  0.00    -0.426 OA
BRANCH  18  19
ATOM     19  C   UNL A   1      33.525  24.027  22.167  1.00  0.00     0.308 C 
ATOM     20  C   UNL A   1      32.805  22.854  22.768  1.00  0.00     0.139 C 
ATOM     21  O   UNL A   1      33.083  24.737  21.275  1.00  0.00    -0.252 OA
ENDBRANCH  18  19
ENDBRANCH  13  18
ENDBRANCH  11  12
ENDBRANCH  10  11
ENDBRANCH   9  10
ENDBRANCH   8   9
ENDBRANCH   7   8
ENDBRANCH   6   7
ENDBRANCH   3   6
ENDBRANCH   1   2
BRANCH   1  22
ATOM     22  C   UNL A   1      31.896  28.597  27.058  1.00  0.00     0.021 C 
BRANCH  22  23
ATOM     23  C   UNL A   1      32.475  29.855  26.424  1.00  0.00     0.002 C 
BRANCH  23  24
ATOM     24  C   UNL A   1      31.412  30.800  25.853  1.00  0.00     0.002 C 
BRANCH  24  25
ATOM     25  C   UNL A   1      31.296  32.160  26.552  1.00  0.00     0.021 C 
BRANCH  25  26
ATOM     26  C   UNL A   1      32.544  32.596  27.320  1.00  0.00     0.116 C 
BRANCH  26  27
ATOM     27  N   UNL A   1      32.508  34.016  27.630  1.00  0.00    -0.352 N 
ATOM     28  C   UNL A   1      33.143  34.709  28.626  1.00  0.00     0.251 C 
ATOM     29  H   UNL A   1      31.943  34.561  27.035  1.00  0.00     0.163 HD
ATOM     30  O   UNL A   1      32.763  35.838  28.923  1.00  0.00    -0.269 OA
BRANCH  28  31
ATOM     31  C   UNL A   1      34.285  34.098  29.334  1.00  0.00     0.039 A 
ATOM     32  C   UNL A   1      34.040  33.135  30.316  1.00  0.00     0.014 A 
ATOM     33  C   UNL A   1      35.592  34.509  29.057  1.00  0.00     0.014 A 
ATOM     34  C   UNL A   1      35.111  32.556  30.995  1.00  0.00     0.010 A 
ATOM     35  C   UNL A   1      36.661  33.880  29.685  1.00  0.00     0.010 A 
ATOM     36  C   UNL A   1      36.431  32.909  30.672  1.00  0.00    -0.014 A 
BRANCH  36  37
ATOM     37  C   UNL A   1      37.587  32.279  31.355  1.00  0.00     0.031 A 
ATOM     38  C   UNL A   1      38.319  31.136  30.706  1.00  0.00     0.074 A 
ATOM     39  C   UNL A   1      37.918  32.679  32.597  1.00  0.00     0.049 A 
ATOM     40  N   UNL A   1      39.312  30.424  31.169  1.00  0.00    -0.248 NA
ATOM     41  C   UNL A   1      37.855  30.720  29.371  1.00  0.00     0.031 C 
ATOM     42  C   UNL A   1      37.229  33.721  33.361  1.00  0.00     0.029 A 
ATOM     43  N   UNL A   1      38.899  32.236  33.449  1.00  0.00    -0.354 N 
ATOM     44  C   UNL A   1      39.568  29.456  30.206  1.00  0.00     0.074 A 
ATOM     45  C   UNL A   1      38.604  29.650  29.145  1.00  0.00     0.031 C 
ATOM     46  C   UNL A   1      37.808  33.837  34.567  1.00  0.00     0.029 A 
ATOM     47  C   UNL A   1      38.890  32.863  34.673  1.00  0.00     0.049 A 
ATOM     48  H   UNL A   1      39.548  31.537  33.206  1.00  0.00     0.167 HD
ATOM     49  C   UNL A   1      40.538  28.510  30.191  1.00  0.00     0.034 A 
ATOM     50  C   UNL A   1      39.662  32.670  35.758  1.00  0.00     0.034 A 
ATOM     51  C   UNL A   1      41.522  28.353  31.228  1.00  0.00     0.049 A 
ATOM     52  C   UNL A   1      40.764  31.648  35.697  1.00  0.00     0.074 A 
ATOM     53  C   UNL A   1      42.603  27.491  31.266  1.00  0.00     0.029 A 
ATOM     54  N   UNL A   1      41.541  29.072  32.414  1.00  0.00    -0.354 N 
ATOM     55  N   UNL A   1      41.098  30.853  34.708  1.00  0.00    -0.248 NA
ATOM     56  C   UNL A   1      41.621  31.520  36.884  1.00  0.00     0.031 C 
ATOM     57  C   UNL A   1      43.264  27.674  32.485  1.00  0.00     0.029 A 
ATOM     58  C   UNL A   1      42.610  28.667  33.195  1.00  0.00     0.049 A 
ATOM     59  H   UNL A   1      40.890  29.767  32.664  1.00  0.00     0.167 HD
ATOM     60  C   UNL A   1      42.221  30.158  35.139  1.00  0.00     0.074 A 
ATOM     61  C   UNL A   1      42.524  30.641  36.471  1.00  0.00     0.031 C 
ATOM     62  C   UNL A   1      42.929  29.196  34.497  1.00  0.00     0.034 A 
BRANCH  49  63
ATOM     63  C   UNL A   1      40.617  27.609  28.986  1.00  0.00     0.023 A 
ATOM     64  C   UNL A   1      39.694  26.552  28.847  1.00  0.00     0.012 A 
ATOM     65  C   UNL A   1      41.566  27.834  27.969  1.00  0.00     0.148 A 
ATOM     66  C   UNL A   1      39.737  25.710  27.737  1.00  0.00     0.002 A 
ATOM     67  C   UNL A   1      41.574  27.018  26.842  1.00  0.00     0.091 A 
ATOM     68  F   UNL A   1      42.450  28.829  28.126  1.00  0.00    -0.205 F 
ATOM     69  C   UNL A   1      40.669  25.949  26.732  1.00  0.00     0.022 A 
BRANCH  67  70
ATOM     70  S   UNL A   1      42.683  27.291  25.457  1.00  0.00     0.127 S 
ATOM     71  O   UNL A   1      42.096  28.480  24.838  1.00  0.00    -0.237 OA
ATOM     72  O   UNL A   1      43.963  27.523  26.127  1.00  0.00    -0.237 OA
ATOM     73  O   UNL A   1      42.630  26.077  24.655  1.00  0.00    -0.744 OA
ENDBRANCH  67  70
ENDBRANCH  49  63
BRANCH  50  74
ATOM     74  C   UNL A   1      39.466  33.519  36.967  1.00  0.00     0.023 A 
ATOM     75  C   UNL A   1      39.895  34.861  36.944  1.00  0.00     0.012 A 
ATOM     76  C   UNL A   1      38.821  33.025  38.117  1.00  0.00     0.148 A 
ATOM     77  C   UNL A   1      39.713  35.686  38.054  1.00  0.00     0.002 A 
ATOM     78  C   UNL A   1      38.592  33.867  39.199  1.00  0.00     0.091 A 
ATOM     79  F   UNL A   1      38.428  31.742  38.122  1.00  0.00    -0.205 F 
ATOM     80  C   UNL A   1      39.053  35.192  39.177  1.00  0.00     0.022 A 
BRANCH  78  81
ATOM     81  S   UNL A   1      37.630  33.359  40.628  1.00  0.00     0.127 S 
ATOM     82  O   UNL A   1      37.837  34.479  41.542  1.00  0.00    -0.237 OA
ATOM     83  O   UNL A   1      36.281  33.263  40.065  1.00  0.00    -0.237 OA
ATOM     84  O   UNL A   1      38.193  32.083  41.046  1.00  0.00    -0.744 OA
ENDBRANCH  78  81
ENDBRANCH  50  74
BRANCH  62  85
ATOM     85  C   UNL A   1      44.125  28.618  35.208  1.00  0.00     0.023 A 
ATOM     86  C   UNL A   1      45.402  29.170  34.991  1.00  0.00     0.012 A 
ATOM     87  C   UNL A   1      43.969  27.581  36.148  1.00  0.00     0.148 A 
ATOM     88  C   UNL A   1      46.513  28.678  35.676  1.00  0.00     0.002 A 
ATOM     89  C   UNL A   1      45.071  27.128  36.863  1.00  0.00     0.091 A 
ATOM     90  F   UNL A   1      42.748  27.056  36.325  1.00  0.00    -0.205 F 
ATOM     91  C   UNL A   1      46.346  27.667  36.620  1.00  0.00     0.022 A 
BRANCH  89  92
ATOM     92  S   UNL A   1      44.934  25.899  38.165  1.00  0.00     0.127 S 
ATOM     93  O   UNL A   1      46.309  25.828  38.656  1.00  0.00    -0.237 OA
ATOM     94  O   UNL A   1      43.988  26.527  39.089  1.00  0.00    -0.237 OA
ATOM     95  O   UNL A   1      44.435  24.689  37.523  1.00  0.00    -0.744 OA
ENDBRANCH  89  92
ENDBRANCH  62  85
ENDBRANCH  36  37
ENDBRANCH  28  31
ENDBRANCH  26  27
ENDBRANCH  25  26
ENDBRANCH  24  25
ENDBRANCH  23  24
ENDBRANCH  22  23
ENDBRANCH   1  22
TORSDOF 24
ENDMDL
MODEL 2
REMARK VINA RESULT:      -9.9      2.011      8.056
REMARK SMILES CC(=O)Oc1ccccc1SCCCCCC(=O)NCCCCCCNC(=O)c1ccc(-c2c3nc(c(-c4cccc(S(=O)(=O)[O-])c4F)c4ccc([nH]4)c(-c4cccc(S(=O)(=O)[O-])c4F)c4nc(c(-c5cccc(S(=O)(=O)[O-])c5F)c5ccc2[nH]5)C=C4)C=C3)cc1
REMARK SMILES IDX 20 1 19 2 17 3 18 4 16 6 15 7 14 8 13 9 12 10 11 11 10 12
REMARK SMILES IDX 5 13 6 14 7 15 9 16 8 17 4 18 2 19 1 20 3 21 21 22 22 23
REMARK SMILES IDX 23 24 24 25 25 26 26 27 27 28 28 30 29 31 30 32 91 33 31 34
REMARK SMILES IDX 90 35 32 36 33 37 34 38 84 39 35 40 89 41 83 42 85 43 36 44
REMARK SMILES IDX 88 45 82 46 81 47 37 49 69 50 49 51 68 52 50 53 53 54 67 55
REMARK SMILES IDX 86 56 51 57 52 58 66 60 87 61 54 62 38 63 39 64 47 65 40 66
REMARK SMILES IDX 42 67 48 68 41 69 43 70 44 71 45 72 46 73 70 74 71 75 79 76
REMARK SMILES IDX 72 77 74 78 80 79 73 80 75 81 76 82 77 83 78 84 55 85 56 86
REMARK SMILES IDX 64 87 57 88 59 89 65 90 58 91 60 92 61 93 62 94 63 95
REMARK H PARENT 19 5 26 29 85 48 53 59
REMARK Flexibility Score: inf
ROOT
ATOM      1  C   UNL A   1      33.800  30.597  27.042  1.00  0.00     0.116 C 
ENDROOT
BRANCH   1   2
ATOM      2  N   UNL A   1      32.830  29.780  27.738  1.00  0.00    -0.356 N 
ATOM      3  C   UNL A   1      32.229  28.637  27.311  1.00  0.00     0.219 C 
ATOM      4  O   UNL A   1      31.337  28.138  27.997  1.00  0.00    -0.275 OA
ATOM      5  H   UNL A   1      32.571  30.092  28.634  1.00  0.00     0.163 HD
BRANCH   3   6
ATOM      6  C   UNL A   1      32.684  27.991  26.020  1.00  0.00     0.100 C 
BRANCH   6   7
ATOM      7  C   UNL A   1      32.180  26.558  25.834  1.00  0.00     0.010 C 
BRANCH   7   8
ATOM      8  C   UNL A   1      33.077  25.532  25.101  1.00  0.00     0.001 C 
BRANCH   8   9
ATOM      9  C   UNL A   1      32.992  25.540  23.572  1.00  0.00     0.011 C 
BRANCH   9  10
ATOM     10  C   UNL A   1      32.605  24.312  22.730  1.00  0.00     0.075 C 
BRANCH  10  11
ATOM     11  S   UNL A   1      32.074  22.639  23.243  1.00  0.00    -0.122 SA
BRANCH  11  12
ATOM     12  C   UNL A   1      33.471  21.839  23.962  1.00  0.00     0.050 A 
ATOM     13  C   UNL A   1      33.487  20.551  24.505  1.00  0.00     0.144 A 
ATOM     14  C   UNL A   1      34.685  19.977  24.959  1.00  0.00     0.048 A 
ATOM     15  C   UNL A   1      35.874  20.703  24.916  1.00  0.00     0.004 A 
ATOM     16  C   UNL A   1      34.671  22.575  23.983  1.00  0.00     0.019 A 
ATOM     17  C   UNL A   1      35.865  22.010  24.444  1.00  0.00     0.001 A 
BRANCH  13  18
ATOM     18  O   UNL A   1      32.416  19.609  24.416  1.00  0.00    -0.426 OA
BRANCH  18  19
ATOM     19  C   UNL A   1      32.367  18.247  24.111  1.00  0.00     0.308 C 
ATOM     20  C   UNL A   1      32.504  18.111  22.622  1.00  0.00     0.139 C 
ATOM     21  O   UNL A   1      32.289  17.312  24.895  1.00  0.00    -0.252 OA
ENDBRANCH  18  19
ENDBRANCH  13  18
ENDBRANCH  11  12
ENDBRANCH  10  11
ENDBRANCH   9  10
ENDBRANCH   8   9
ENDBRANCH   7   8
ENDBRANCH   6   7
ENDBRANCH   3   6
ENDBRANCH   1   2
BRANCH   1  22
ATOM     22  C   UNL A   1      35.098  30.670  27.841  1.00  0.00     0.021 C 
BRANCH  22  23
ATOM     23  C   UNL A   1      35.207  31.918  28.708  1.00  0.00     0.002 C 
BRANCH  23  24
ATOM     24  C   UNL A   1      35.579  33.180  27.923  1.00  0.00     0.002 C 
BRANCH  24  25
ATOM     25  C   UNL A   1      34.532  34.302  27.944  1.00  0.00     0.021 C 
BRANCH  25  26
ATOM     26  C   UNL A   1      33.250  33.969  28.706  1.00  0.00     0.116 C 
BRANCH  26  27
ATOM     27  N   UNL A   1      32.933  34.995  29.687  1.00  0.00    -0.352 N 
ATOM     28  C   UNL A   1      33.363  35.129  30.980  1.00  0.00     0.251 C 
ATOM     29  H   UNL A   1      32.317  35.696  29.375  1.00  0.00     0.163 HD
ATOM     30  O   UNL A   1      32.764  35.875  31.749  1.00  0.00    -0.269 OA
BRANCH  28  31
ATOM     31  C   UNL A   1      34.551  34.383  31.440  1.00  0.00     0.039 A 
ATOM     32  C   UNL A   1      34.374  33.256  32.247  1.00  0.00     0.014 A 
ATOM     33  C   UNL A   1      35.836  34.823  31.112  1.00  0.00     0.014 A 
ATOM     34  C   UNL A   1      35.490  32.547  32.693  1.00  0.00     0.010 A 
ATOM     35  C   UNL A   1      36.942  34.075  31.499  1.00  0.00     0.010 A 
ATOM     36  C   UNL A   1      36.781  32.940  32.307  1.00  0.00    -0.014 A 
BRANCH  36  37
ATOM     37  C   UNL A   1      37.979  32.179  32.739  1.00  0.00     0.031 A 
ATOM     38  C   UNL A   1      38.685  32.542  34.017  1.00  0.00     0.074 A 
ATOM     39  C   UNL A   1      38.478  31.221  31.937  1.00  0.00     0.049 A 
ATOM     40  N   UNL A   1      39.773  32.032  34.531  1.00  0.00    -0.248 NA
ATOM     41  C   UNL A   1      38.108  33.642  34.809  1.00  0.00     0.031 C 
ATOM     42  C   UNL A   1      37.927  30.837  30.635  1.00  0.00     0.029 A 
ATOM     43  N   UNL A   1      39.580  30.416  32.081  1.00  0.00    -0.354 N 
ATOM     44  C   UNL A   1      40.033  32.769  35.680  1.00  0.00     0.074 A 
ATOM     45  C   UNL A   1      39.007  33.784  35.772  1.00  0.00     0.031 C 
ATOM     46  C   UNL A   1      38.693  29.872  30.101  1.00  0.00     0.029 A 
ATOM     47  C   UNL A   1      39.801  29.586  31.007  1.00  0.00     0.049 A 
ATOM     48  H   UNL A   1      40.157  30.430  32.879  1.00  0.00     0.167 HD
ATOM     49  C   UNL A   1      41.019  32.597  36.593  1.00  0.00     0.034 A 
ATOM     50  C   UNL A   1      40.788  28.700  30.777  1.00  0.00     0.034 A 
ATOM     51  C   UNL A   1      42.008  31.557  36.519  1.00  0.00     0.049 A 
ATOM     52  C   UNL A   1      41.843  28.493  31.829  1.00  0.00     0.074 A 
ATOM     53  C   UNL A   1      42.991  31.236  37.438  1.00  0.00     0.029 A 
ATOM     54  N   UNL A   1      42.145  30.670  35.461  1.00  0.00    -0.354 N 
ATOM     55  N   UNL A   1      41.975  29.086  32.992  1.00  0.00    -0.248 NA
ATOM     56  C   UNL A   1      42.861  27.469  31.559  1.00  0.00     0.031 C 
ATOM     57  C   UNL A   1      43.735  30.168  36.926  1.00  0.00     0.029 A 
ATOM     58  C   UNL A   1      43.201  29.807  35.700  1.00  0.00     0.049 A 
ATOM     59  H   UNL A   1      41.575  30.656  34.658  1.00  0.00     0.167 HD
ATOM     60  C   UNL A   1      43.068  28.486  33.604  1.00  0.00     0.074 A 
ATOM     61  C   UNL A   1      43.548  27.466  32.694  1.00  0.00     0.031 C 
ATOM     62  C   UNL A   1      43.633  28.762  34.807  1.00  0.00     0.034 A 
BRANCH  49  63
ATOM     63  C   UNL A   1      41.039  33.521  37.783  1.00  0.00     0.023 A 
ATOM     64  C   UNL A   1      41.946  34.601  37.809  1.00  0.00     0.012 A 
ATOM     65  C   UNL A   1      40.133  33.356  38.849  1.00  0.00     0.148 A 
ATOM     66  C   UNL A   1      41.978  35.478  38.892  1.00  0.00     0.002 A 
ATOM     67  C   UNL A   1      40.140  34.262  39.905  1.00  0.00     0.091 A 
ATOM     68  F   UNL A   1      39.292  32.313  38.820  1.00  0.00    -0.205 F 
ATOM     69  C   UNL A   1      41.070  35.315  39.933  1.00  0.00     0.022 A 
BRANCH  67  70
ATOM     70  S   UNL A   1      38.960  34.184  41.256  1.00  0.00     0.127 S 
ATOM     71  O   UNL A   1      37.704  33.963  40.539  1.00  0.00    -0.237 OA
ATOM     72  O   UNL A   1      39.437  33.028  42.017  1.00  0.00    -0.237 OA
ATOM     73  O   UNL A   1      39.067  35.456  41.956  1.00  0.00    -0.744 OA
ENDBRANCH  67  70
ENDBRANCH  49  63
BRANCH  50  74
ATOM     74  C   UNL A   1      40.778  27.889  29.527  1.00  0.00     0.023 A 
ATOM     75  C   UNL A   1      39.851  26.834  29.397  1.00  0.00     0.012 A 
ATOM     76  C   UNL A   1      41.642  28.179  28.454  1.00  0.00     0.148 A 
ATOM     77  C   UNL A   1      39.807  26.066  28.234  1.00  0.00     0.002 A 
ATOM     78  C   UNL A   1      41.555  27.445  27.277  1.00  0.00     0.091 A 
ATOM     79  F   UNL A   1      42.523  29.180  28.601  1.00  0.00    -0.205 F 
ATOM     80  C   UNL A   1      40.651  26.377  27.171  1.00  0.00     0.022 A 
BRANCH  78  81
ATOM     81  S   UNL A   1      42.504  27.863  25.810  1.00  0.00     0.127 S 
ATOM     82  O   UNL A   1      43.876  27.749  26.298  1.00  0.00    -0.237 OA
ATOM     83  O   UNL A   1      42.093  26.815  24.875  1.00  0.00    -0.237 OA
ATOM     84  O   UNL A   1      42.073  29.202  25.432  1.00  0.00    -0.744 OA
ENDBRANCH  78  81
ENDBRANCH  50  74
BRANCH  62  85
ATOM     85  C   UNL A   1      44.816  27.932  35.229  1.00  0.00     0.023 A 
ATOM     86  C   UNL A   1      46.123  28.403  34.991  1.00  0.00     0.012 A 
ATOM     87  C   UNL A   1      44.633  26.724  35.929  1.00  0.00     0.148 A 
ATOM     88  C   UNL A   1      47.229  27.669  35.416  1.00  0.00     0.002 A 
ATOM     89  C   UNL A   1      45.739  26.023  36.394  1.00  0.00     0.091 A 
ATOM     90  F   UNL A   1      43.383  26.283  36.129  1.00  0.00    -0.205 F 
ATOM     91  C   UNL A   1      47.038  26.486  36.128  1.00  0.00     0.022 A 
BRANCH  89  92
ATOM     92  S   UNL A   1      45.586  24.543  37.401  1.00  0.00     0.127 S 
ATOM     93  O   UNL A   1      46.983  24.245  37.708  1.00  0.00    -0.237 OA
ATOM     94  O   UNL A   1      44.799  25.020  38.539  1.00  0.00    -0.237 OA
ATOM     95  O   UNL A   1      44.905  23.560  36.568  1.00  0.00    -0.744 OA
ENDBRANCH  89  92
ENDBRANCH  62  85
ENDBRANCH  36  37
ENDBRANCH  28  31
ENDBRANCH  26  27
ENDBRANCH  25  26
ENDBRANCH  24  25
ENDBRANCH  23  24
ENDBRANCH  22  23
ENDBRANCH   1  22
TORSDOF 24
ENDMDL
MODEL 3
REMARK VINA RESULT:      -9.8      5.706      8.720
REMARK SMILES CC(=O)Oc1ccccc1SCCCCCC(=O)NCCCCCCNC(=O)c1ccc(-c2c3nc(c(-c4cccc(S(=O)(=O)[O-])c4F)c4ccc([nH]4)c(-c4cccc(S(=O)(=O)[O-])c4F)c4nc(c(-c5cccc(S(=O)(=O)[O-])c5F)c5ccc2[nH]5)C=C4)C=C3)cc1
REMARK SMILES IDX 20 1 19 2 17 3 18 4 16 6 15 7 14 8 13 9 12 10 11 11 10 12
REMARK SMILES IDX 5 13 6 14 7 15 9 16 8 17 4 18 2 19 1 20 3 21 21 22 22 23
REMARK SMILES IDX 23 24 24 25 25 26 26 27 27 28 28 30 29 31 30 32 91 33 31 34
REMARK SMILES IDX 90 35 32 36 33 37 34 38 84 39 35 40 89 41 83 42 85 43 36 44
REMARK SMILES IDX 88 45 82 46 81 47 37 49 69 50 49 51 68 52 50 53 53 54 67 55
REMARK SMILES IDX 86 56 51 57 52 58 66 60 87 61 54 62 38 63 39 64 47 65 40 66
REMARK SMILES IDX 42 67 48 68 41 69 43 70 44 71 45 72 46 73 70 74 71 75 79 76
REMARK SMILES IDX 72 77 74 78 80 79 73 80 75 81 76 82 77 83 78 84 55 85 56 86
REMARK SMILES IDX 64 87 57 88 59 89 65 90 58 91 60 92 61 93 62 94 63 95
REMARK H PARENT 19 5 26 29 85 48 53 59
REMARK Flexibility Score: inf
ROOT
ATOM      1  C   UNL A   1      33.173  19.655  24.750  1.00  0.00     0.116 C 
ENDROOT
BRANCH   1   2
ATOM      2  N   UNL A   1      32.646  19.878  23.422  1.00  0.00    -0.356 N 
ATOM      3  C   UNL A   1      32.220  21.045  22.870  1.00  0.00     0.219 C 
ATOM      4  O   UNL A   1      31.692  21.023  21.758  1.00  0.00    -0.275 OA
ATOM      5  H   UNL A   1      32.589  19.084  22.844  1.00  0.00     0.163 HD
BRANCH   3   6
ATOM      6  C   UNL A   1      32.423  22.345  23.620  1.00  0.00     0.100 C 
BRANCH   6   7
ATOM      7  C   UNL A   1      31.156  22.873  24.297  1.00  0.00     0.010 C 
BRANCH   7   8
ATOM      8  C   UNL A   1      30.892  22.523  25.781  1.00  0.00     0.001 C 
BRANCH   8   9
ATOM      9  C   UNL A   1      30.542  23.700  26.695  1.00  0.00     0.011 C 
BRANCH   9  10
ATOM     10  C   UNL A   1      30.040  25.062  26.183  1.00  0.00     0.075 C 
BRANCH  10  11
ATOM     11  S   UNL A   1      30.941  26.624  25.886  1.00  0.00    -0.122 SA
BRANCH  11  12
ATOM     12  C   UNL A   1      31.758  26.476  24.330  1.00  0.00     0.050 A 
ATOM     13  C   UNL A   1      31.205  26.782  23.083  1.00  0.00     0.144 A 
ATOM     14  C   UNL A   1      31.985  26.722  21.917  1.00  0.00     0.048 A 
ATOM     15  C   UNL A   1      33.314  26.310  21.979  1.00  0.00     0.004 A 
ATOM     16  C   UNL A   1      33.084  26.005  24.363  1.00  0.00     0.019 A 
ATOM     17  C   UNL A   1      33.861  25.934  23.201  1.00  0.00     0.001 A 
BRANCH  13  18
ATOM     18  O   UNL A   1      29.945  27.425  22.880  1.00  0.00    -0.426 OA
BRANCH  18  19
ATOM     19  C   UNL A   1      29.585  28.696  22.425  1.00  0.00     0.308 C 
ATOM     20  C   UNL A   1      28.240  29.022  23.007  1.00  0.00     0.139 C 
ATOM     21  O   UNL A   1      30.249  29.453  21.731  1.00  0.00    -0.252 OA
ENDBRANCH  18  19
ENDBRANCH  13  18
ENDBRANCH  11  12
ENDBRANCH  10  11
ENDBRANCH   9  10
ENDBRANCH   8   9
ENDBRANCH   7   8
ENDBRANCH   6   7
ENDBRANCH   3   6
ENDBRANCH   1   2
BRANCH   1  22
ATOM     22  C   UNL A   1      34.514  18.930  24.671  1.00  0.00     0.021 C 
BRANCH  22  23
ATOM     23  C   UNL A   1      35.706  19.822  24.992  1.00  0.00     0.002 C 
BRANCH  23  24
ATOM     24  C   UNL A   1      35.315  21.248  25.393  1.00  0.00     0.002 C 
BRANCH  24  25
ATOM     25  C   UNL A   1      36.226  22.358  24.852  1.00  0.00     0.021 C 
BRANCH  25  26
ATOM     26  C   UNL A   1      37.220  22.924  25.867  1.00  0.00     0.116 C 
BRANCH  26  27
ATOM     27  N   UNL A   1      38.353  22.032  26.055  1.00  0.00    -0.352 N 
ATOM     28  C   UNL A   1      39.661  22.328  26.327  1.00  0.00     0.251 C 
ATOM     29  H   UNL A   1      38.149  21.072  25.973  1.00  0.00     0.163 HD
ATOM     30  O   UNL A   1      40.530  21.478  26.153  1.00  0.00    -0.269 OA
BRANCH  28  31
ATOM     31  C   UNL A   1      40.021  23.666  26.837  1.00  0.00     0.039 A 
ATOM     32  C   UNL A   1      40.376  23.808  28.180  1.00  0.00     0.014 A 
ATOM     33  C   UNL A   1      39.965  24.783  25.998  1.00  0.00     0.014 A 
ATOM     34  C   UNL A   1      40.712  25.069  28.674  1.00  0.00     0.010 A 
ATOM     35  C   UNL A   1      40.367  26.025  26.475  1.00  0.00     0.010 A 
ATOM     36  C   UNL A   1      40.729  26.184  27.821  1.00  0.00    -0.014 A 
BRANCH  36  37
ATOM     37  C   UNL A   1      41.119  27.526  28.317  1.00  0.00     0.031 A 
ATOM     38  C   UNL A   1      42.572  27.885  28.467  1.00  0.00     0.074 A 
ATOM     39  C   UNL A   1      40.163  28.387  28.713  1.00  0.00     0.049 A 
ATOM     40  N   UNL A   1      43.106  28.983  28.933  1.00  0.00    -0.248 NA
ATOM     41  C   UNL A   1      43.556  26.864  28.066  1.00  0.00     0.031 C 
ATOM     42  C   UNL A   1      38.724  28.120  28.692  1.00  0.00     0.029 A 
ATOM     43  N   UNL A   1      40.259  29.650  29.241  1.00  0.00    -0.354 N 
ATOM     44  C   UNL A   1      44.481  28.774  28.918  1.00  0.00     0.074 A 
ATOM     45  C   UNL A   1      44.698  27.431  28.427  1.00  0.00     0.031 C 
ATOM     46  C   UNL A   1      38.072  29.185  29.185  1.00  0.00     0.029 A 
ATOM     47  C   UNL A   1      39.044  30.199  29.579  1.00  0.00     0.049 A 
ATOM     48  H   UNL A   1      41.115  30.119  29.365  1.00  0.00     0.167 HD
ATOM     49  C   UNL A   1      45.472  29.633  29.254  1.00  0.00     0.034 A 
ATOM     50  C   UNL A   1      38.749  31.383  30.148  1.00  0.00     0.034 A 
ATOM     51  C   UNL A   1      45.250  30.982  29.697  1.00  0.00     0.049 A 
ATOM     52  C   UNL A   1      39.867  32.338  30.465  1.00  0.00     0.074 A 
ATOM     53  C   UNL A   1      46.185  31.964  29.971  1.00  0.00     0.029 A 
ATOM     54  N   UNL A   1      44.002  31.539  29.938  1.00  0.00    -0.354 N 
ATOM     55  N   UNL A   1      41.157  32.187  30.286  1.00  0.00    -0.248 NA
ATOM     56  C   UNL A   1      39.489  33.644  31.025  1.00  0.00     0.031 C 
ATOM     57  C   UNL A   1      45.502  33.109  30.397  1.00  0.00     0.029 A 
ATOM     58  C   UNL A   1      44.143  32.848  30.366  1.00  0.00     0.049 A 
ATOM     59  H   UNL A   1      43.143  31.072  29.822  1.00  0.00     0.167 HD
ATOM     60  C   UNL A   1      41.741  33.385  30.678  1.00  0.00     0.074 A 
ATOM     61  C   UNL A   1      40.660  34.261  31.083  1.00  0.00     0.031 C 
ATOM     62  C   UNL A   1      43.054  33.725  30.714  1.00  0.00     0.034 A 
BRANCH  49  63
ATOM     63  C   UNL A   1      46.893  29.156  29.097  1.00  0.00     0.023 A 
ATOM     64  C   UNL A   1      47.552  28.564  30.194  1.00  0.00     0.012 A 
ATOM     65  C   UNL A   1      47.560  29.245  27.859  1.00  0.00     0.148 A 
ATOM     66  C   UNL A   1      48.863  28.103  30.073  1.00  0.00     0.002 A 
ATOM     67  C   UNL A   1      48.850  28.743  27.734  1.00  0.00     0.091 A 
ATOM     68  F   UNL A   1      46.927  29.830  26.831  1.00  0.00    -0.205 F 
ATOM     69  C   UNL A   1      49.507  28.183  28.843  1.00  0.00     0.022 A 
BRANCH  67  70
ATOM     70  S   UNL A   1      49.737  28.728  26.172  1.00  0.00     0.127 S 
ATOM     71  O   UNL A   1      48.688  28.311  25.241  1.00  0.00    -0.237 OA
ATOM     72  O   UNL A   1      50.149  30.126  26.037  1.00  0.00    -0.237 OA
ATOM     73  O   UNL A   1      50.834  27.786  26.343  1.00  0.00    -0.744 OA
ENDBRANCH  67  70
ENDBRANCH  49  63
BRANCH  50  74
ATOM     74  C   UNL A   1      37.326  31.757  30.382  1.00  0.00     0.023 A 
ATOM     75  C   UNL A   1      36.798  31.682  31.687  1.00  0.00     0.012 A 
ATOM     76  C   UNL A   1      36.507  32.228  29.337  1.00  0.00     0.148 A 
ATOM     77  C   UNL A   1      35.474  32.039  31.940  1.00  0.00     0.002 A 
ATOM     78  C   UNL A   1      35.206  32.634  29.606  1.00  0.00     0.091 A 
ATOM     79  F   UNL A   1      37.026  32.284  28.101  1.00  0.00    -0.205 F 
ATOM     80  C   UNL A   1      34.682  32.524  30.903  1.00  0.00     0.022 A 
BRANCH  78  81
ATOM     81  S   UNL A   1      34.160  33.401  28.363  1.00  0.00     0.127 S 
ATOM     82  O   UNL A   1      33.595  32.236  27.687  1.00  0.00    -0.237 OA
ATOM     83  O   UNL A   1      33.214  34.155  29.187  1.00  0.00    -0.237 OA
ATOM     84  O   UNL A   1      35.048  34.232  27.562  1.00  0.00    -0.744 OA
ENDBRANCH  78  81
ENDBRANCH  50  74
BRANCH  62  85
ATOM     85  C   UNL A   1      43.402  35.115  31.177  1.00  0.00     0.023 A 
ATOM     86  C   UNL A   1      43.699  35.347  32.534  1.00  0.00     0.012 A 
ATOM     87  C   UNL A   1      43.510  36.174  30.253  1.00  0.00     0.148 A 
ATOM     88  C   UNL A   1      44.068  36.619  32.971  1.00  0.00     0.002 A 
ATOM     89  C   UNL A   1      43.926  37.427  30.687  1.00  0.00     0.091 A 
ATOM     90  F   UNL A   1      43.204  35.937  28.970  1.00  0.00    -0.205 F 
ATOM     91  C   UNL A   1      44.193  37.655  32.047  1.00  0.00     0.022 A 
BRANCH  89  92
ATOM     92  S   UNL A   1      44.208  38.792  29.555  1.00  0.00     0.127 S 
ATOM     93  O   UNL A   1      44.967  39.721  30.389  1.00  0.00    -0.237 OA
ATOM     94  O   UNL A   1      44.984  38.156  28.488  1.00  0.00    -0.237 OA
ATOM     95  O   UNL A   1      42.888  39.253  29.146  1.00  0.00    -0.744 OA
ENDBRANCH  89  92
ENDBRANCH  62  85
ENDBRANCH  36  37
ENDBRANCH  28  31
ENDBRANCH  26  27
ENDBRANCH  25  26
ENDBRANCH  24  25
ENDBRANCH  23  24
ENDBRANCH  22  23
ENDBRANCH   1  22
TORSDOF 24
ENDMDL
