MODEL 1
REMARK VINA RESULT:     -12.7      0.000      0.000
REMARK SMILES CC(C)(C)c1cc(Nc2ccccc2C(=O)NCCCCCCNC(=O)c2ccc(-c3c4nc(c(-c5cccc(S(=O)(=O)[O-])c5F)c5ccc([nH]5)c(-c5cccc(S(=O)(=O)[O-])c5F)c5nc(c(-c6cccc(S(=O)(=O)[O-])c6F)c6ccc3[nH]6)C=C5)C=C4)cc2)cc2c1OCC2(C)C
REMARK SMILES IDX 20 1 19 2 18 3 17 4 15 5 16 6 14 8 9 9 10 10 11 11 13 12
REMARK SMILES IDX 12 13 8 14 7 16 5 17 6 18 92 19 91 20 93 21 90 22 95 23
REMARK SMILES IDX 94 24 96 25 97 26 2 27 1 28 3 29 4 30 21 31 22 32 23 33
REMARK SMILES IDX 24 34 25 35 26 37 27 38 28 39 89 40 29 41 88 42 30 43 31 44
REMARK SMILES IDX 32 45 82 46 33 47 87 48 81 49 83 50 34 51 86 52 80 53 79 54
REMARK SMILES IDX 35 56 67 57 47 58 66 59 48 60 51 61 65 62 84 63 49 64 50 65
REMARK SMILES IDX 64 67 85 68 52 69 36 70 37 71 45 72 38 73 40 74 46 75 39 76
REMARK SMILES IDX 41 77 42 78 43 79 44 80 68 81 69 82 77 83 70 84 72 85 78 86
REMARK SMILES IDX 71 87 73 88 74 89 75 90 76 91 53 92 54 93 62 94 55 95 57 96
REMARK SMILES IDX 63 97 56 98 58 99 59 100 60 101 61 102
REMARK H PARENT 17 7 8 15 24 36 83 55 51 66
REMARK Flexibility Score: inf
ROOT
ATOM      1  C   UNL A   1      32.808  27.017  26.823  1.00  0.00     0.002 C 
ENDROOT
BRANCH   1   2
ATOM      2  C   UNL A   1      32.611  25.588  26.316  1.00  0.00     0.021 C 
BRANCH   2   3
ATOM      3  C   UNL A   1      31.254  24.909  26.467  1.00  0.00     0.116 C 
BRANCH   3   4
ATOM      4  N   UNL A   1      30.135  25.485  25.774  1.00  0.00    -0.352 N 
ATOM      5  C   UNL A   1      29.971  25.768  24.436  1.00  0.00     0.253 C 
ATOM      6  O   UNL A   1      28.858  26.207  24.118  1.00  0.00    -0.269 OA
ATOM      7  H   UNL A   1      29.365  25.712  26.344  1.00  0.00     0.163 HD
BRANCH   5   8
ATOM      8  C   UNL A   1      31.013  25.665  23.349  1.00  0.00     0.063 A 
ATOM      9  C   UNL A   1      31.625  24.529  22.775  1.00  0.00     0.051 A 
ATOM     10  C   UNL A   1      32.492  24.707  21.665  1.00  0.00     0.027 A 
ATOM     11  C   UNL A   1      32.828  25.963  21.171  1.00  0.00     0.002 A 
ATOM     12  C   UNL A   1      31.368  26.933  22.814  1.00  0.00     0.016 A 
ATOM     13  C   UNL A   1      32.274  27.084  21.759  1.00  0.00     0.001 A 
BRANCH   9  14
ATOM     14  N   UNL A   1      31.536  23.207  23.263  1.00  0.00    -0.355 N 
ATOM     15  H   UNL A   1      30.635  22.832  23.389  1.00  0.00     0.167 HD
BRANCH  14  16
ATOM     16  C   UNL A   1      32.641  22.375  23.584  1.00  0.00     0.039 A 
ATOM     17  C   UNL A   1      33.516  20.110  24.076  1.00  0.00     0.002 A 
ATOM     18  C   UNL A   1      32.508  20.969  23.569  1.00  0.00     0.034 A 
ATOM     19  C   UNL A   1      34.678  20.726  24.535  1.00  0.00     0.127 A 
ATOM     20  C   UNL A   1      34.852  22.093  24.507  1.00  0.00     0.006 A 
ATOM     21  O   UNL A   1      35.732  20.068  25.106  1.00  0.00    -0.492 OA
ATOM     22  C   UNL A   1      33.845  22.921  24.049  1.00  0.00     0.034 A 
ATOM     23  C   UNL A   1      36.199  22.463  25.018  1.00  0.00     0.028 C 
ATOM     24  C   UNL A   1      36.737  21.065  25.377  1.00  0.00     0.240 C 
ATOM     25  C   UNL A   1      37.022  23.106  23.898  1.00  0.00     0.020 C 
ATOM     26  C   UNL A   1      36.136  23.372  26.248  1.00  0.00     0.020 C 
BRANCH  17  27
ATOM     27  C   UNL A   1      33.316  18.602  24.265  1.00  0.00    -0.009 C 
ATOM     28  C   UNL A   1      34.641  17.810  24.237  1.00  0.00     0.016 C 
ATOM     29  C   UNL A   1      32.426  17.965  23.175  1.00  0.00     0.016 C 
ATOM     30  C   UNL A   1      32.662  18.426  25.650  1.00  0.00     0.016 C 
ENDBRANCH  17  27
ENDBRANCH  14  16
ENDBRANCH   9  14
ENDBRANCH   5   8
ENDBRANCH   3   4
ENDBRANCH   2   3
ENDBRANCH   1   2
BRANCH   1  31
ATOM     31  C   UNL A   1      31.598  27.952  26.920  1.00  0.00     0.002 C 
BRANCH  31  32
ATOM     32  C   UNL A   1      31.345  28.934  25.772  1.00  0.00     0.021 C 
BRANCH  32  33
ATOM     33  C   UNL A   1      32.337  30.084  25.573  1.00  0.00     0.116 C 
BRANCH  33  34
ATOM     34  N   UNL A   1      31.989  31.332  26.228  1.00  0.00    -0.352 N 
ATOM     35  C   UNL A   1      32.722  32.089  27.124  1.00  0.00     0.251 C 
ATOM     36  H   UNL A   1      31.101  31.692  26.002  1.00  0.00     0.163 HD
ATOM     37  O   UNL A   1      32.256  33.144  27.546  1.00  0.00    -0.269 OA
BRANCH  35  38
ATOM     38  C   UNL A   1      34.044  31.625  27.623  1.00  0.00     0.039 A 
ATOM     39  C   UNL A   1      34.336  30.274  27.772  1.00  0.00     0.014 A 
ATOM     40  C   UNL A   1      35.031  32.563  27.933  1.00  0.00     0.014 A 
ATOM     41  C   UNL A   1      35.519  29.874  28.418  1.00  0.00     0.010 A 
ATOM     42  C   UNL A   1      36.251  32.152  28.502  1.00  0.00     0.010 A 
ATOM     43  C   UNL A   1      36.489  30.807  28.831  1.00  0.00    -0.014 A 
BRANCH  43  44
ATOM     44  C   UNL A   1      37.700  30.402  29.634  1.00  0.00     0.031 A 
ATOM     45  C   UNL A   1      38.761  29.485  29.041  1.00  0.00     0.074 A 
ATOM     46  C   UNL A   1      37.897  30.842  30.899  1.00  0.00     0.049 A 
ATOM     47  N   UNL A   1      39.789  28.915  29.627  1.00  0.00    -0.248 NA
ATOM     48  C   UNL A   1      38.651  29.158  27.610  1.00  0.00     0.031 C 
ATOM     49  C   UNL A   1      37.010  31.739  31.637  1.00  0.00     0.029 A 
ATOM     50  N   UNL A   1      38.916  30.586  31.793  1.00  0.00    -0.354 N 
ATOM     51  C   UNL A   1      40.398  28.116  28.662  1.00  0.00     0.074 A 
ATOM     52  C   UNL A   1      39.630  28.277  27.446  1.00  0.00     0.031 C 
ATOM     53  C   UNL A   1      37.536  31.992  32.844  1.00  0.00     0.029 A 
ATOM     54  C   UNL A   1      38.758  31.210  33.012  1.00  0.00     0.049 A 
ATOM     55  H   UNL A   1      39.686  30.010  31.581  1.00  0.00     0.167 HD
ATOM     56  C   UNL A   1      41.501  27.333  28.758  1.00  0.00     0.034 A 
ATOM     57  C   UNL A   1      39.476  31.149  34.152  1.00  0.00     0.034 A 
ATOM     58  C   UNL A   1      42.338  27.223  29.924  1.00  0.00     0.049 A 
ATOM     59  C   UNL A   1      40.690  30.266  34.244  1.00  0.00     0.074 A 
ATOM     60  C   UNL A   1      43.495  26.475  30.077  1.00  0.00     0.029 A 
ATOM     61  N   UNL A   1      42.129  27.882  31.121  1.00  0.00    -0.354 N 
ATOM     62  N   UNL A   1      41.240  29.527  33.313  1.00  0.00    -0.248 NA
ATOM     63  C   UNL A   1      41.385  30.211  35.541  1.00  0.00     0.031 C 
ATOM     64  C   UNL A   1      43.983  26.675  31.371  1.00  0.00     0.029 A 
ATOM     65  C   UNL A   1      43.140  27.563  32.016  1.00  0.00     0.049 A 
ATOM     66  H   UNL A   1      41.377  28.487  31.311  1.00  0.00     0.167 HD
ATOM     67  C   UNL A   1      42.354  28.940  33.904  1.00  0.00     0.074 A 
ATOM     68  C   UNL A   1      42.411  29.415  35.269  1.00  0.00     0.031 C 
ATOM     69  C   UNL A   1      43.238  28.072  33.357  1.00  0.00     0.034 A 
BRANCH  56  70
ATOM     70  C   UNL A   1      41.933  26.545  27.547  1.00  0.00     0.023 A 
ATOM     71  C   UNL A   1      42.764  27.154  26.586  1.00  0.00     0.012 A 
ATOM     72  C   UNL A   1      41.643  25.169  27.442  1.00  0.00     0.148 A 
ATOM     73  C   UNL A   1      43.294  26.408  25.534  1.00  0.00     0.002 A 
ATOM     74  C   UNL A   1      42.200  24.426  26.408  1.00  0.00     0.091 A 
ATOM     75  F   UNL A   1      40.852  24.613  28.370  1.00  0.00    -0.205 F 
ATOM     76  C   UNL A   1      43.023  25.045  25.452  1.00  0.00     0.022 A 
BRANCH  74  77
ATOM     77  S   UNL A   1      41.968  22.652  26.245  1.00  0.00     0.127 S 
ATOM     78  O   UNL A   1      42.689  22.374  25.002  1.00  0.00    -0.237 OA
ATOM     79  O   UNL A   1      42.617  22.144  27.453  1.00  0.00    -0.237 OA
ATOM     80  O   UNL A   1      40.528  22.436  26.185  1.00  0.00    -0.744 OA
ENDBRANCH  74  77
ENDBRANCH  56  70
BRANCH  57  81
ATOM     81  C   UNL A   1      39.066  31.982  35.318  1.00  0.00     0.023 A 
ATOM     82  C   UNL A   1      38.210  31.432  36.290  1.00  0.00     0.012 A 
ATOM     83  C   UNL A   1      39.566  33.287  35.495  1.00  0.00     0.148 A 
ATOM     84  C   UNL A   1      37.858  32.167  37.422  1.00  0.00     0.002 A 
ATOM     85  C   UNL A   1      39.249  33.995  36.648  1.00  0.00     0.091 A 
ATOM     86  F   UNL A   1      40.369  33.790  34.549  1.00  0.00    -0.205 F 
ATOM     87  C   UNL A   1      38.388  33.441  37.608  1.00  0.00     0.022 A 
BRANCH  85  88
ATOM     88  S   UNL A   1      39.966  35.597  37.030  1.00  0.00     0.127 S 
ATOM     89  O   UNL A   1      39.287  35.939  38.275  1.00  0.00    -0.237 OA
ATOM     90  O   UNL A   1      41.382  35.263  37.168  1.00  0.00    -0.237 OA
ATOM     91  O   UNL A   1      39.652  36.453  35.891  1.00  0.00    -0.744 OA
ENDBRANCH  85  88
ENDBRANCH  57  81
BRANCH  69  92
ATOM     92  C   UNL A   1      44.385  27.585  34.200  1.00  0.00     0.023 A 
ATOM     93  C   UNL A   1      45.596  28.304  34.210  1.00  0.00     0.012 A 
ATOM     94  C   UNL A   1      44.220  26.491  35.073  1.00  0.00     0.148 A 
ATOM     95  C   UNL A   1      46.630  27.935  35.071  1.00  0.00     0.002 A 
ATOM     96  C   UNL A   1      45.242  26.149  35.950  1.00  0.00     0.091 A 
ATOM     97  F   UNL A   1      43.060  25.819  35.040  1.00  0.00    -0.205 F 
ATOM     98  C   UNL A   1      46.449  26.867  35.948  1.00  0.00     0.022 A 
BRANCH  96  99
ATOM     99  S   UNL A   1      45.082  24.833  37.164  1.00  0.00     0.127 S 
ATOM    100  O   UNL A   1      45.967  25.301  38.229  1.00  0.00    -0.237 OA
ATOM    101  O   UNL A   1      43.657  24.885  37.488  1.00  0.00    -0.237 OA
ATOM    102  O   UNL A   1      45.512  23.612  36.496  1.00  0.00    -0.744 OA
ENDBRANCH  96  99
ENDBRANCH  69  92
ENDBRANCH  43  44
ENDBRANCH  35  38
ENDBRANCH  33  34
ENDBRANCH  32  33
ENDBRANCH  31  32
ENDBRANCH   1  31
TORSDOF 19
ENDMDL
MODEL 2
REMARK VINA RESULT:     -12.0      1.902      2.200
REMARK SMILES CC(C)(C)c1cc(Nc2ccccc2C(=O)NCCCCCCNC(=O)c2ccc(-c3c4nc(c(-c5cccc(S(=O)(=O)[O-])c5F)c5ccc([nH]5)c(-c5cccc(S(=O)(=O)[O-])c5F)c5nc(c(-c6cccc(S(=O)(=O)[O-])c6F)c6ccc3[nH]6)C=C5)C=C4)cc2)cc2c1OCC2(C)C
REMARK SMILES IDX 20 1 19 2 18 3 17 4 15 5 16 6 14 8 9 9 10 10 11 11 13 12
REMARK SMILES IDX 12 13 8 14 7 16 5 17 6 18 92 19 91 20 93 21 90 22 95 23
REMARK SMILES IDX 94 24 96 25 97 26 2 27 1 28 3 29 4 30 21 31 22 32 23 33
REMARK SMILES IDX 24 34 25 35 26 37 27 38 28 39 89 40 29 41 88 42 30 43 31 44
REMARK SMILES IDX 32 45 82 46 33 47 87 48 81 49 83 50 34 51 86 52 80 53 79 54
REMARK SMILES IDX 35 56 67 57 47 58 66 59 48 60 51 61 65 62 84 63 49 64 50 65
REMARK SMILES IDX 64 67 85 68 52 69 36 70 37 71 45 72 38 73 40 74 46 75 39 76
REMARK SMILES IDX 41 77 42 78 43 79 44 80 68 81 69 82 77 83 70 84 72 85 78 86
REMARK SMILES IDX 71 87 73 88 74 89 75 90 76 91 53 92 54 93 62 94 55 95 57 96
REMARK SMILES IDX 63 97 56 98 58 99 59 100 60 101 61 102
REMARK H PARENT 17 7 8 15 24 36 83 55 51 66
REMARK Flexibility Score: inf
ROOT
ATOM      1  C   UNL A   1      33.274  27.140  26.576  1.00  0.00     0.002 C 
ENDROOT
BRANCH   1   2
ATOM      2  C   UNL A   1      32.814  25.769  26.082  1.00  0.00     0.021 C 
BRANCH   2   3
ATOM      3  C   UNL A   1      31.504  25.179  26.593  1.00  0.00     0.116 C 
BRANCH   3   4
ATOM      4  N   UNL A   1      30.293  25.542  25.911  1.00  0.00    -0.352 N 
ATOM      5  C   UNL A   1      30.061  25.764  24.571  1.00  0.00     0.253 C 
ATOM      6  O   UNL A   1      28.886  26.002  24.266  1.00  0.00    -0.269 OA
ATOM      7  H   UNL A   1      29.505  25.649  26.492  1.00  0.00     0.163 HD
BRANCH   5   8
ATOM      8  C   UNL A   1      31.088  25.813  23.466  1.00  0.00     0.063 A 
ATOM      9  C   UNL A   1      31.676  24.769  22.718  1.00  0.00     0.051 A 
ATOM     10  C   UNL A   1      32.532  25.102  21.635  1.00  0.00     0.027 A 
ATOM     11  C   UNL A   1      32.881  26.414  21.332  1.00  0.00     0.002 A 
ATOM     12  C   UNL A   1      31.456  27.143  23.123  1.00  0.00     0.016 A 
ATOM     13  C   UNL A   1      32.351  27.440  22.091  1.00  0.00     0.001 A 
BRANCH   9  14
ATOM     14  N   UNL A   1      31.573  23.390  23.001  1.00  0.00    -0.355 N 
ATOM     15  H   UNL A   1      30.685  22.975  22.911  1.00  0.00     0.167 HD
BRANCH  14  16
ATOM     16  C   UNL A   1      32.647  22.552  23.404  1.00  0.00     0.039 A 
ATOM     17  C   UNL A   1      33.453  20.298  24.042  1.00  0.00     0.002 A 
ATOM     18  C   UNL A   1      32.483  21.151  23.456  1.00  0.00     0.034 A 
ATOM     19  C   UNL A   1      34.612  20.914  24.511  1.00  0.00     0.127 A 
ATOM     20  C   UNL A   1      34.818  22.272  24.419  1.00  0.00     0.006 A 
ATOM     21  O   UNL A   1      35.630  20.264  25.152  1.00  0.00    -0.492 OA
ATOM     22  C   UNL A   1      33.846  23.097  23.884  1.00  0.00     0.034 A 
ATOM     23  C   UNL A   1      36.154  22.641  24.960  1.00  0.00     0.028 C 
ATOM     24  C   UNL A   1      36.647  21.252  25.409  1.00  0.00     0.240 C 
ATOM     25  C   UNL A   1      37.030  23.209  23.839  1.00  0.00     0.020 C 
ATOM     26  C   UNL A   1      36.069  23.613  26.138  1.00  0.00     0.020 C 
BRANCH  17  27
ATOM     27  C   UNL A   1      33.213  18.807  24.300  1.00  0.00    -0.009 C 
ATOM     28  C   UNL A   1      34.508  17.969  24.243  1.00  0.00     0.016 C 
ATOM     29  C   UNL A   1      32.252  18.160  23.279  1.00  0.00     0.016 C 
ATOM     30  C   UNL A   1      32.620  18.707  25.720  1.00  0.00     0.016 C 
ENDBRANCH  17  27
ENDBRANCH  14  16
ENDBRANCH   9  14
ENDBRANCH   5   8
ENDBRANCH   3   4
ENDBRANCH   2   3
ENDBRANCH   1   2
BRANCH   1  31
ATOM     31  C   UNL A   1      32.292  28.030  27.344  1.00  0.00     0.002 C 
BRANCH  31  32
ATOM     32  C   UNL A   1      31.684  29.235  26.619  1.00  0.00     0.021 C 
BRANCH  32  33
ATOM     33  C   UNL A   1      32.626  30.351  26.158  1.00  0.00     0.116 C 
BRANCH  33  34
ATOM     34  N   UNL A   1      32.413  31.647  26.775  1.00  0.00    -0.352 N 
ATOM     35  C   UNL A   1      33.272  32.405  27.550  1.00  0.00     0.251 C 
ATOM     36  H   UNL A   1      31.526  32.046  26.619  1.00  0.00     0.163 HD
ATOM     37  O   UNL A   1      32.907  33.504  27.958  1.00  0.00    -0.269 OA
BRANCH  35  38
ATOM     38  C   UNL A   1      34.613  31.892  27.939  1.00  0.00     0.039 A 
ATOM     39  C   UNL A   1      34.809  30.566  28.308  1.00  0.00     0.014 A 
ATOM     40  C   UNL A   1      35.712  32.752  27.916  1.00  0.00     0.014 A 
ATOM     41  C   UNL A   1      36.042  30.157  28.846  1.00  0.00     0.010 A 
ATOM     42  C   UNL A   1      36.968  32.315  28.377  1.00  0.00     0.010 A 
ATOM     43  C   UNL A   1      37.141  31.033  28.927  1.00  0.00    -0.014 A 
BRANCH  43  44
ATOM     44  C   UNL A   1      38.427  30.646  29.615  1.00  0.00     0.031 A 
ATOM     45  C   UNL A   1      39.358  29.607  29.005  1.00  0.00     0.074 A 
ATOM     46  C   UNL A   1      38.807  31.208  30.786  1.00  0.00     0.049 A 
ATOM     47  N   UNL A   1      40.426  29.043  29.520  1.00  0.00    -0.248 NA
ATOM     48  C   UNL A   1      39.048  29.134  27.645  1.00  0.00     0.031 C 
ATOM     49  C   UNL A   1      38.065  32.232  31.520  1.00  0.00     0.029 A 
ATOM     50  N   UNL A   1      39.920  30.990  31.570  1.00  0.00    -0.354 N 
ATOM     51  C   UNL A   1      40.867  28.109  28.586  1.00  0.00     0.074 A 
ATOM     52  C   UNL A   1      39.955  28.183  27.465  1.00  0.00     0.031 C 
ATOM     53  C   UNL A   1      38.755  32.582  32.615  1.00  0.00     0.029 A 
ATOM     54  C   UNL A   1      39.951  31.751  32.719  1.00  0.00     0.049 A 
ATOM     55  H   UNL A   1      40.629  30.349  31.333  1.00  0.00     0.167 HD
ATOM     56  C   UNL A   1      41.935  27.276  28.634  1.00  0.00     0.034 A 
ATOM     57  C   UNL A   1      40.808  31.771  33.761  1.00  0.00     0.034 A 
ATOM     58  C   UNL A   1      42.911  27.242  29.693  1.00  0.00     0.049 A 
ATOM     59  C   UNL A   1      41.981  30.831  33.802  1.00  0.00     0.074 A 
ATOM     60  C   UNL A   1      44.043  26.447  29.786  1.00  0.00     0.029 A 
ATOM     61  N   UNL A   1      42.891  28.039  30.822  1.00  0.00    -0.354 N 
ATOM     62  N   UNL A   1      42.371  29.964  32.903  1.00  0.00    -0.248 NA
ATOM     63  C   UNL A   1      42.836  30.876  35.001  1.00  0.00     0.031 C 
ATOM     64  C   UNL A   1      44.704  26.757  30.978  1.00  0.00     0.029 A 
ATOM     65  C   UNL A   1      43.993  27.759  31.615  1.00  0.00     0.049 A 
ATOM     66  H   UNL A   1      42.199  28.706  31.033  1.00  0.00     0.167 HD
ATOM     67  C   UNL A   1      43.524  29.378  33.414  1.00  0.00     0.074 A 
ATOM     68  C   UNL A   1      43.780  29.995  34.698  1.00  0.00     0.031 C 
ATOM     69  C   UNL A   1      44.288  28.404  32.866  1.00  0.00     0.034 A 
BRANCH  56  70
ATOM     70  C   UNL A   1      42.169  26.337  27.478  1.00  0.00     0.023 A 
ATOM     71  C   UNL A   1      42.937  26.770  26.379  1.00  0.00     0.012 A 
ATOM     72  C   UNL A   1      41.762  24.989  27.552  1.00  0.00     0.148 A 
ATOM     73  C   UNL A   1      43.289  25.879  25.366  1.00  0.00     0.002 A 
ATOM     74  C   UNL A   1      42.142  24.100  26.554  1.00  0.00     0.091 A 
ATOM     75  F   UNL A   1      41.034  24.600  28.609  1.00  0.00    -0.205 F 
ATOM     76  C   UNL A   1      42.903  24.544  25.458  1.00  0.00     0.022 A 
BRANCH  74  77
ATOM     77  S   UNL A   1      41.753  22.346  26.607  1.00  0.00     0.127 S 
ATOM     78  O   UNL A   1      42.360  21.948  27.877  1.00  0.00    -0.237 OA
ATOM     79  O   UNL A   1      40.290  22.356  26.607  1.00  0.00    -0.237 OA
ATOM     80  O   UNL A   1      42.363  21.760  25.421  1.00  0.00    -0.744 OA
ENDBRANCH  74  77
ENDBRANCH  56  70
BRANCH  57  81
ATOM     81  C   UNL A   1      40.592  32.749  34.864  1.00  0.00     0.023 A 
ATOM     82  C   UNL A   1      41.227  34.005  34.804  1.00  0.00     0.012 A 
ATOM     83  C   UNL A   1      39.719  32.466  35.932  1.00  0.00     0.148 A 
ATOM     84  C   UNL A   1      40.995  34.963  35.791  1.00  0.00     0.002 A 
ATOM     85  C   UNL A   1      39.457  33.442  36.885  1.00  0.00     0.091 A 
ATOM     86  F   UNL A   1      39.139  31.259  35.971  1.00  0.00    -0.205 F 
ATOM     87  C   UNL A   1      40.101  34.688  36.822  1.00  0.00     0.022 A 
BRANCH  85  88
ATOM     88  S   UNL A   1      38.242  33.223  38.189  1.00  0.00     0.127 S 
ATOM     89  O   UNL A   1      37.029  32.949  37.425  1.00  0.00    -0.237 OA
ATOM     90  O   UNL A   1      38.789  32.078  38.915  1.00  0.00    -0.237 OA
ATOM     91  O   UNL A   1      38.237  34.473  38.941  1.00  0.00    -0.744 OA
ENDBRANCH  85  88
ENDBRANCH  57  81
BRANCH  69  92
ATOM     92  C   UNL A   1      45.512  27.943  33.610  1.00  0.00     0.023 A 
ATOM     93  C   UNL A   1      45.417  26.854  34.498  1.00  0.00     0.012 A 
ATOM     94  C   UNL A   1      46.774  28.507  33.335  1.00  0.00     0.148 A 
ATOM     95  C   UNL A   1      46.561  26.338  35.108  1.00  0.00     0.002 A 
ATOM     96  C   UNL A   1      47.912  27.968  33.923  1.00  0.00     0.091 A 
ATOM     97  F   UNL A   1      46.836  29.547  32.492  1.00  0.00    -0.205 F 
ATOM     98  C   UNL A   1      47.808  26.887  34.812  1.00  0.00     0.022 A 
BRANCH  96  99
ATOM     99  S   UNL A   1      49.569  28.560  33.554  1.00  0.00     0.127 S 
ATOM    100  O   UNL A   1      49.585  29.848  34.247  1.00  0.00    -0.237 OA
ATOM    101  O   UNL A   1      50.408  27.529  34.164  1.00  0.00    -0.237 OA
ATOM    102  O   UNL A   1      49.658  28.640  32.102  1.00  0.00    -0.744 OA
ENDBRANCH  96  99
ENDBRANCH  69  92
ENDBRANCH  43  44
ENDBRANCH  35  38
ENDBRANCH  33  34
ENDBRANCH  32  33
ENDBRANCH  31  32
ENDBRANCH   1  31
TORSDOF 19
ENDMDL
MODEL 3
REMARK VINA RESULT:     -11.7      2.202      7.795
REMARK SMILES CC(C)(C)c1cc(Nc2ccccc2C(=O)NCCCCCCNC(=O)c2ccc(-c3c4nc(c(-c5cccc(S(=O)(=O)[O-])c5F)c5ccc([nH]5)c(-c5cccc(S(=O)(=O)[O-])c5F)c5nc(c(-c6cccc(S(=O)(=O)[O-])c6F)c6ccc3[nH]6)C=C5)C=C4)cc2)cc2c1OCC2(C)C
REMARK SMILES IDX 20 1 19 2 18 3 17 4 15 5 16 6 14 8 9 9 10 10 11 11 13 12
REMARK SMILES IDX 12 13 8 14 7 16 5 17 6 18 92 19 91 20 93 21 90 22 95 23
REMARK SMILES IDX 94 24 96 25 97 26 2 27 1 28 3 29 4 30 21 31 22 32 23 33
REMARK SMILES IDX 24 34 25 35 26 37 27 38 28 39 89 40 29 41 88 42 30 43 31 44
REMARK SMILES IDX 32 45 82 46 33 47 87 48 81 49 83 50 34 51 86 52 80 53 79 54
REMARK SMILES IDX 35 56 67 57 47 58 66 59 48 60 51 61 65 62 84 63 49 64 50 65
REMARK SMILES IDX 64 67 85 68 52 69 36 70 37 71 45 72 38 73 40 74 46 75 39 76
REMARK SMILES IDX 41 77 42 78 43 79 44 80 68 81 69 82 77 83 70 84 72 85 78 86
REMARK SMILES IDX 71 87 73 88 74 89 75 90 76 91 53 92 54 93 62 94 55 95 57 96
REMARK SMILES IDX 63 97 56 98 58 99 59 100 60 101 61 102
REMARK H PARENT 17 7 8 15 24 36 83 55 51 66
REMARK Flexibility Score: inf
ROOT
ATOM      1  C   UNL A   1      33.747  29.286  27.205  1.00  0.00     0.002 C 
ENDROOT
BRANCH   1   2
ATOM      2  C   UNL A   1      33.155  27.923  26.846  1.00  0.00     0.021 C 
BRANCH   2   3
ATOM      3  C   UNL A   1      31.672  27.804  26.512  1.00  0.00     0.116 C 
BRANCH   3   4
ATOM      4  N   UNL A   1      31.017  26.559  26.801  1.00  0.00    -0.352 N 
ATOM      5  C   UNL A   1      30.921  25.411  26.045  1.00  0.00     0.253 C 
ATOM      6  O   UNL A   1      30.340  24.463  26.589  1.00  0.00    -0.269 OA
ATOM      7  H   UNL A   1      30.565  26.520  27.674  1.00  0.00     0.163 HD
BRANCH   5   8
ATOM      8  C   UNL A   1      31.383  25.216  24.622  1.00  0.00     0.063 A 
ATOM      9  C   UNL A   1      31.496  24.038  23.851  1.00  0.00     0.051 A 
ATOM     10  C   UNL A   1      31.841  24.150  22.477  1.00  0.00     0.027 A 
ATOM     11  C   UNL A   1      32.154  25.367  21.881  1.00  0.00     0.002 A 
ATOM     12  C   UNL A   1      31.698  26.445  23.979  1.00  0.00     0.016 A 
ATOM     13  C   UNL A   1      32.097  26.520  22.641  1.00  0.00     0.001 A 
BRANCH   9  14
ATOM     14  N   UNL A   1      31.389  22.718  24.338  1.00  0.00    -0.355 N 
ATOM     15  H   UNL A   1      30.486  22.381  24.538  1.00  0.00     0.167 HD
BRANCH  14  16
ATOM     16  C   UNL A   1      32.480  21.836  24.563  1.00  0.00     0.039 A 
ATOM     17  C   UNL A   1      34.925  21.501  24.778  1.00  0.00     0.002 A 
ATOM     18  C   UNL A   1      33.784  22.343  24.754  1.00  0.00     0.034 A 
ATOM     19  C   UNL A   1      34.685  20.134  24.666  1.00  0.00     0.127 A 
ATOM     20  C   UNL A   1      33.416  19.613  24.536  1.00  0.00     0.006 A 
ATOM     21  O   UNL A   1      35.660  19.176  24.615  1.00  0.00    -0.492 OA
ATOM     22  C   UNL A   1      32.317  20.447  24.472  1.00  0.00     0.034 A 
ATOM     23  C   UNL A   1      33.460  18.127  24.480  1.00  0.00     0.028 C 
ATOM     24  C   UNL A   1      34.982  17.906  24.561  1.00  0.00     0.240 C 
ATOM     25  C   UNL A   1      32.745  17.539  25.701  1.00  0.00     0.020 C 
ATOM     26  C   UNL A   1      32.880  17.566  23.180  1.00  0.00     0.020 C 
BRANCH  17  27
ATOM     27  C   UNL A   1      36.362  22.036  24.773  1.00  0.00    -0.009 C 
ATOM     28  C   UNL A   1      37.420  20.920  24.914  1.00  0.00     0.016 C 
ATOM     29  C   UNL A   1      36.646  23.028  25.921  1.00  0.00     0.016 C 
ATOM     30  C   UNL A   1      36.555  22.733  23.411  1.00  0.00     0.016 C 
ENDBRANCH  17  27
ENDBRANCH  14  16
ENDBRANCH   9  14
ENDBRANCH   5   8
ENDBRANCH   3   4
ENDBRANCH   2   3
ENDBRANCH   1   2
BRANCH   1  31
ATOM     31  C   UNL A   1      32.831  30.513  27.255  1.00  0.00     0.002 C 
BRANCH  31  32
ATOM     32  C   UNL A   1      33.378  31.803  27.871  1.00  0.00     0.021 C 
BRANCH  32  33
ATOM     33  C   UNL A   1      33.310  33.087  27.039  1.00  0.00     0.116 C 
BRANCH  33  34
ATOM     34  N   UNL A   1      32.702  34.229  27.697  1.00  0.00    -0.352 N 
ATOM     35  C   UNL A   1      33.105  34.910  28.831  1.00  0.00     0.251 C 
ATOM     36  H   UNL A   1      31.881  34.570  27.272  1.00  0.00     0.163 HD
ATOM     37  O   UNL A   1      32.460  35.883  29.213  1.00  0.00    -0.269 OA
BRANCH  35  38
ATOM     38  C   UNL A   1      34.278  34.455  29.625  1.00  0.00     0.039 A 
ATOM     39  C   UNL A   1      35.581  34.650  29.181  1.00  0.00     0.014 A 
ATOM     40  C   UNL A   1      34.074  33.835  30.859  1.00  0.00     0.014 A 
ATOM     41  C   UNL A   1      36.656  34.047  29.859  1.00  0.00     0.010 A 
ATOM     42  C   UNL A   1      35.163  33.306  31.578  1.00  0.00     0.010 A 
ATOM     43  C   UNL A   1      36.467  33.330  31.055  1.00  0.00    -0.014 A 
BRANCH  43  44
ATOM     44  C   UNL A   1      37.590  32.575  31.723  1.00  0.00     0.031 A 
ATOM     45  C   UNL A   1      38.062  32.951  33.121  1.00  0.00     0.074 A 
ATOM     46  C   UNL A   1      38.210  31.536  31.118  1.00  0.00     0.049 A 
ATOM     47  N   UNL A   1      39.103  32.515  33.792  1.00  0.00    -0.248 NA
ATOM     48  C   UNL A   1      37.269  33.949  33.858  1.00  0.00     0.031 C 
ATOM     49  C   UNL A   1      37.894  31.010  29.790  1.00  0.00     0.029 A 
ATOM     50  N   UNL A   1      39.248  30.733  31.545  1.00  0.00    -0.354 N 
ATOM     51  C   UNL A   1      39.128  33.231  34.986  1.00  0.00     0.074 A 
ATOM     52  C   UNL A   1      37.994  34.130  34.955  1.00  0.00     0.031 C 
ATOM     53  C   UNL A   1      38.682  29.957  29.529  1.00  0.00     0.029 A 
ATOM     54  C   UNL A   1      39.625  29.776  30.628  1.00  0.00     0.049 A 
ATOM     55  H   UNL A   1      39.680  30.835  32.424  1.00  0.00     0.167 HD
ATOM     56  C   UNL A   1      39.994  33.148  36.026  1.00  0.00     0.034 A 
ATOM     57  C   UNL A   1      40.629  28.873  30.635  1.00  0.00     0.034 A 
ATOM     58  C   UNL A   1      41.077  32.205  36.128  1.00  0.00     0.049 A 
ATOM     59  C   UNL A   1      41.586  28.803  31.791  1.00  0.00     0.074 A 
ATOM     60  C   UNL A   1      41.972  32.040  37.174  1.00  0.00     0.029 A 
ATOM     61  N   UNL A   1      41.404  31.259  35.173  1.00  0.00    -0.354 N 
ATOM     62  N   UNL A   1      41.580  29.491  32.905  1.00  0.00    -0.248 NA
ATOM     63  C   UNL A   1      42.687  27.829  31.694  1.00  0.00     0.031 C 
ATOM     64  C   UNL A   1      42.846  31.000  36.848  1.00  0.00     0.029 A 
ATOM     65  C   UNL A   1      42.482  30.505  35.609  1.00  0.00     0.049 A 
ATOM     66  H   UNL A   1      40.941  31.139  34.313  1.00  0.00     0.167 HD
ATOM     67  C   UNL A   1      42.658  29.020  33.648  1.00  0.00     0.074 A 
ATOM     68  C   UNL A   1      43.290  27.979  32.867  1.00  0.00     0.031 C 
ATOM     69  C   UNL A   1      43.085  29.432  34.865  1.00  0.00     0.034 A 
BRANCH  56  70
ATOM     70  C   UNL A   1      39.800  34.072  37.202  1.00  0.00     0.023 A 
ATOM     71  C   UNL A   1      40.098  35.442  37.061  1.00  0.00     0.012 A 
ATOM     72  C   UNL A   1      39.182  33.614  38.384  1.00  0.00     0.148 A 
ATOM     73  C   UNL A   1      39.792  36.341  38.083  1.00  0.00     0.002 A 
ATOM     74  C   UNL A   1      38.853  34.521  39.384  1.00  0.00     0.091 A 
ATOM     75  F   UNL A   1      38.907  32.306  38.492  1.00  0.00    -0.205 F 
ATOM     76  C   UNL A   1      39.161  35.884  39.237  1.00  0.00     0.022 A 
BRANCH  74  77
ATOM     77  S   UNL A   1      37.981  34.048  40.883  1.00  0.00     0.127 S 
ATOM     78  O   UNL A   1      38.995  33.249  41.573  1.00  0.00    -0.237 OA
ATOM     79  O   UNL A   1      37.705  35.346  41.500  1.00  0.00    -0.237 OA
ATOM     80  O   UNL A   1      36.802  33.311  40.451  1.00  0.00    -0.744 OA
ENDBRANCH  74  77
ENDBRANCH  56  70
BRANCH  57  81
ATOM     81  C   UNL A   1      40.766  27.928  29.490  1.00  0.00     0.023 A 
ATOM     82  C   UNL A   1      39.966  26.770  29.453  1.00  0.00     0.012 A 
ATOM     83  C   UNL A   1      41.634  28.203  28.416  1.00  0.00     0.148 A 
ATOM     84  C   UNL A   1      40.028  25.900  28.365  1.00  0.00     0.002 A 
ATOM     85  C   UNL A   1      41.657  27.356  27.314  1.00  0.00     0.091 A 
ATOM     86  F   UNL A   1      42.393  29.305  28.482  1.00  0.00    -0.205 F 
ATOM     87  C   UNL A   1      40.862  26.200  27.291  1.00  0.00     0.022 A 
BRANCH  85  88
ATOM     88  S   UNL A   1      42.615  27.712  25.837  1.00  0.00     0.127 S 
ATOM     89  O   UNL A   1      42.259  26.591  24.973  1.00  0.00    -0.237 OA
ATOM     90  O   UNL A   1      42.066  29.005  25.432  1.00  0.00    -0.237 OA
ATOM     91  O   UNL A   1      44.007  27.751  26.268  1.00  0.00    -0.744 OA
ENDBRANCH  85  88
ENDBRANCH  57  81
BRANCH  69  92
ATOM     92  C   UNL A   1      44.276  28.748  35.480  1.00  0.00     0.023 A 
ATOM     93  C   UNL A   1      45.575  29.174  35.142  1.00  0.00     0.012 A 
ATOM     94  C   UNL A   1      44.104  27.772  36.482  1.00  0.00     0.148 A 
ATOM     95  C   UNL A   1      46.687  28.633  35.787  1.00  0.00     0.002 A 
ATOM     96  C   UNL A   1      45.215  27.260  37.142  1.00  0.00     0.091 A 
ATOM     97  F   UNL A   1      42.859  27.378  36.781  1.00  0.00    -0.205 F 
ATOM     98  C   UNL A   1      46.507  27.685  36.794  1.00  0.00     0.022 A 
BRANCH  96  99
ATOM     99  S   UNL A   1      45.084  26.086  38.498  1.00  0.00     0.127 S 
ATOM    100  O   UNL A   1      44.562  24.902  37.816  1.00  0.00    -0.237 OA
ATOM    101  O   UNL A   1      46.473  25.972  38.942  1.00  0.00    -0.237 OA
ATOM    102  O   UNL A   1      44.180  26.688  39.469  1.00  0.00    -0.744 OA
ENDBRANCH  96  99
ENDBRANCH  69  92
ENDBRANCH  43  44
ENDBRANCH  35  38
ENDBRANCH  33  34
ENDBRANCH  32  33
ENDBRANCH  31  32
ENDBRANCH   1  31
TORSDOF 19
ENDMDL
