MODEL 1
REMARK VINA RESULT:     -11.8      0.000      0.000
REMARK SMILES CC1=NN(c2ccc(C(=O)NCCCCCCNC(=O)c3ccc(-c4c5nc(c(-c6cccc(S(=O)(=O)[O-])c6F)c6ccc([nH]6)c(-c6cccc(S(=O)(=O)[O-])c6F)c6nc(c(-c7cccc(S(=O)(=O)[O-])c7F)c7ccc4[nH]7)C=C6)C=C5)cc3)cc2)C(=O)/C1=C\c1ccc(N2CCCC2)cc1
REMARK SMILES IDX 14 1 13 2 12 3 11 4 9 5 10 6 8 8 5 9 6 10 85 11 7 12 84 13
REMARK SMILES IDX 4 14 1 15 2 16 3 17 88 18 86 19 89 20 87 21 90 22 91 23
REMARK SMILES IDX 100 24 92 25 99 26 93 27 94 28 95 29 98 30 96 31 97 32 15 33
REMARK SMILES IDX 16 34 17 35 18 36 19 37 20 39 21 40 22 41 83 42 23 43 82 44
REMARK SMILES IDX 24 45 25 46 26 47 76 48 27 49 81 50 75 51 77 52 28 53 80 54
REMARK SMILES IDX 74 55 73 56 29 58 61 59 41 60 60 61 42 62 45 63 59 64 78 65
REMARK SMILES IDX 43 66 44 67 58 69 79 70 46 71 30 72 31 73 39 74 32 75 34 76
REMARK SMILES IDX 40 77 33 78 35 79 36 80 37 81 38 82 62 83 63 84 71 85 64 86
REMARK SMILES IDX 66 87 72 88 65 89 67 90 68 91 69 92 70 93 47 94 48 95 56 96
REMARK SMILES IDX 49 97 51 98 57 99 50 100 52 101 53 102 54 103 55 104
REMARK H PARENT 11 7 18 38 77 57 45 68
REMARK Flexibility Score: inf
ROOT
ATOM      1  C   UNL A   1      43.012  26.766  37.128  1.00  0.00     0.002 C 
ENDROOT
BRANCH   1   2
ATOM      2  C   UNL A   1      42.294  25.967  36.032  1.00  0.00     0.021 C 
BRANCH   2   3
ATOM      3  C   UNL A   1      42.813  24.531  35.915  1.00  0.00     0.116 C 
BRANCH   3   4
ATOM      4  N   UNL A   1      43.055  24.214  34.518  1.00  0.00    -0.352 N 
ATOM      5  C   UNL A   1      44.018  23.475  33.880  1.00  0.00     0.251 C 
ATOM      6  O   UNL A   1      43.981  23.440  32.649  1.00  0.00    -0.269 OA
ATOM      7  H   UNL A   1      42.392  24.608  33.906  1.00  0.00     0.163 HD
BRANCH   5   8
ATOM      8  C   UNL A   1      45.044  22.666  34.597  1.00  0.00     0.039 A 
ATOM      9  C   UNL A   1      46.708  21.023  36.152  1.00  0.00     0.069 A 
ATOM     10  C   UNL A   1      45.703  20.446  35.379  1.00  0.00     0.029 A 
ATOM     11  C   UNL A   1      46.943  22.397  36.069  1.00  0.00     0.029 A 
ATOM     12  C   UNL A   1      44.850  21.273  34.638  1.00  0.00     0.016 A 
ATOM     13  C   UNL A   1      46.161  23.196  35.239  1.00  0.00     0.016 A 
BRANCH   9  14
ATOM     14  N   UNL A   1      47.471  20.253  37.034  1.00  0.00    -0.196 N 
ATOM     15  C   UNL A   1      50.762  19.513  38.251  1.00  0.00     0.069 C 
ATOM     16  C   UNL A   1      49.307  19.661  37.959  1.00  0.00     0.071 C 
ATOM     17  N   UNL A   1      48.844  20.195  36.859  1.00  0.00    -0.169 NA
ATOM     18  C   UNL A   1      48.235  19.233  38.879  1.00  0.00     0.065 C 
ATOM     19  C   UNL A   1      46.995  19.749  38.251  1.00  0.00     0.280 C 
ATOM     20  C   UNL A   1      48.360  18.482  39.980  1.00  0.00     0.024 C 
ATOM     21  O   UNL A   1      45.869  19.733  38.698  1.00  0.00    -0.267 OA
BRANCH  20  22
ATOM     22  C   UNL A   1      47.215  17.919  40.704  1.00  0.00    -0.025 A 
ATOM     23  C   UNL A   1      46.794  18.447  41.923  1.00  0.00     0.010 A 
ATOM     24  C   UNL A   1      46.519  16.831  40.167  1.00  0.00     0.010 A 
ATOM     25  C   UNL A   1      45.673  17.908  42.573  1.00  0.00     0.026 A 
ATOM     26  C   UNL A   1      45.411  16.295  40.831  1.00  0.00     0.026 A 
ATOM     27  C   UNL A   1      44.962  16.819  42.046  1.00  0.00     0.037 A 
BRANCH  27  28
ATOM     28  N   UNL A   1      43.851  16.326  42.690  1.00  0.00    -0.372 N 
ATOM     29  C   UNL A   1      43.835  15.842  44.063  1.00  0.00     0.116 C 
ATOM     30  C   UNL A   1      42.759  15.745  41.900  1.00  0.00     0.116 C 
ATOM     31  C   UNL A   1      42.943  14.608  44.003  1.00  0.00     0.023 C 
ATOM     32  C   UNL A   1      41.931  14.970  42.927  1.00  0.00     0.023 C 
ENDBRANCH  27  28
ENDBRANCH  20  22
ENDBRANCH   9  14
ENDBRANCH   5   8
ENDBRANCH   3   4
ENDBRANCH   2   3
ENDBRANCH   1   2
BRANCH   1  33
ATOM     33  C   UNL A   1      43.926  25.925  38.027  1.00  0.00     0.002 C 
BRANCH  33  34
ATOM     34  C   UNL A   1      45.305  26.537  38.286  1.00  0.00     0.021 C 
BRANCH  34  35
ATOM     35  C   UNL A   1      46.460  25.721  37.717  1.00  0.00     0.116 C 
BRANCH  35  36
ATOM     36  N   UNL A   1      47.611  26.565  37.427  1.00  0.00    -0.352 N 
ATOM     37  C   UNL A   1      47.821  27.408  36.366  1.00  0.00     0.251 C 
ATOM     38  H   UNL A   1      48.341  26.525  38.087  1.00  0.00     0.163 HD
ATOM     39  O   UNL A   1      48.946  27.842  36.135  1.00  0.00    -0.269 OA
BRANCH  37  40
ATOM     40  C   UNL A   1      46.684  27.786  35.501  1.00  0.00     0.039 A 
ATOM     41  C   UNL A   1      46.061  26.805  34.728  1.00  0.00     0.014 A 
ATOM     42  C   UNL A   1      46.241  29.111  35.453  1.00  0.00     0.014 A 
ATOM     43  C   UNL A   1      44.955  27.144  33.945  1.00  0.00     0.010 A 
ATOM     44  C   UNL A   1      45.095  29.431  34.732  1.00  0.00     0.010 A 
ATOM     45  C   UNL A   1      44.444  28.453  33.966  1.00  0.00    -0.014 A 
BRANCH  45  46
ATOM     46  C   UNL A   1      43.223  28.818  33.204  1.00  0.00     0.031 A 
ATOM     47  C   UNL A   1      42.125  29.606  33.869  1.00  0.00     0.074 A 
ATOM     48  C   UNL A   1      43.068  28.371  31.942  1.00  0.00     0.049 A 
ATOM     49  N   UNL A   1      40.955  29.949  33.397  1.00  0.00    -0.248 NA
ATOM     50  C   UNL A   1      42.364  30.048  35.254  1.00  0.00     0.031 C 
ATOM     51  C   UNL A   1      44.034  27.546  31.212  1.00  0.00     0.029 A 
ATOM     52  N   UNL A   1      42.029  28.522  31.059  1.00  0.00    -0.354 N 
ATOM     53  C   UNL A   1      40.310  30.622  34.427  1.00  0.00     0.074 A 
ATOM     54  C   UNL A   1      41.203  30.607  35.565  1.00  0.00     0.031 C 
ATOM     55  C   UNL A   1      43.543  27.267  29.993  1.00  0.00     0.029 A 
ATOM     56  C   UNL A   1      42.216  27.857  29.869  1.00  0.00     0.049 A 
ATOM     57  H   UNL A   1      41.226  29.056  31.257  1.00  0.00     0.167 HD
ATOM     58  C   UNL A   1      39.099  31.226  34.419  1.00  0.00     0.034 A 
ATOM     59  C   UNL A   1      41.401  27.725  28.804  1.00  0.00     0.034 A 
ATOM     60  C   UNL A   1      38.227  31.264  33.275  1.00  0.00     0.049 A 
ATOM     61  C   UNL A   1      40.058  28.407  28.825  1.00  0.00     0.074 A 
ATOM     62  C   UNL A   1      37.004  31.899  33.148  1.00  0.00     0.029 A 
ATOM     63  N   UNL A   1      38.480  30.639  32.065  1.00  0.00    -0.354 N 
ATOM     64  N   UNL A   1      39.526  29.154  29.761  1.00  0.00    -0.248 NA
ATOM     65  C   UNL A   1      39.217  28.254  27.629  1.00  0.00     0.031 C 
ATOM     66  C   UNL A   1      36.505  31.636  31.869  1.00  0.00     0.029 A 
ATOM     67  C   UNL A   1      37.434  30.867  31.187  1.00  0.00     0.049 A 
ATOM     68  H   UNL A   1      39.285  30.110  31.860  1.00  0.00     0.167 HD
ATOM     69  C   UNL A   1      38.309  29.595  29.251  1.00  0.00     0.074 A 
ATOM     70  C   UNL A   1      38.197  29.050  27.913  1.00  0.00     0.031 C 
ATOM     71  C   UNL A   1      37.363  30.366  29.839  1.00  0.00     0.034 A 
BRANCH  58  72
ATOM     72  C   UNL A   1      38.662  31.948  35.667  1.00  0.00     0.023 A 
ATOM     73  C   UNL A   1      38.797  33.350  35.739  1.00  0.00     0.012 A 
ATOM     74  C   UNL A   1      38.046  31.258  36.730  1.00  0.00     0.148 A 
ATOM     75  C   UNL A   1      38.352  34.050  36.860  1.00  0.00     0.002 A 
ATOM     76  C   UNL A   1      37.564  31.968  37.823  1.00  0.00     0.091 A 
ATOM     77  F   UNL A   1      37.942  29.924  36.650  1.00  0.00    -0.205 F 
ATOM     78  C   UNL A   1      37.726  33.362  37.894  1.00  0.00     0.022 A 
BRANCH  76  79
ATOM     79  S   UNL A   1      36.670  31.190  39.173  1.00  0.00     0.127 S 
ATOM     80  O   UNL A   1      37.708  31.100  40.200  1.00  0.00    -0.237 OA
ATOM     81  O   UNL A   1      35.622  32.171  39.451  1.00  0.00    -0.237 OA
ATOM     82  O   UNL A   1      36.194  29.913  38.660  1.00  0.00    -0.744 OA
ENDBRANCH  76  79
ENDBRANCH  58  72
BRANCH  59  83
ATOM     83  C   UNL A   1      41.838  26.951  27.605  1.00  0.00     0.023 A 
ATOM     84  C   UNL A   1      42.395  27.634  26.506  1.00  0.00     0.012 A 
ATOM     85  C   UNL A   1      41.690  25.552  27.539  1.00  0.00     0.148 A 
ATOM     86  C   UNL A   1      42.749  26.946  25.345  1.00  0.00     0.002 A 
ATOM     87  C   UNL A   1      42.099  24.865  26.401  1.00  0.00     0.091 A 
ATOM     88  F   UNL A   1      41.148  24.919  28.589  1.00  0.00    -0.205 F 
ATOM     89  C   UNL A   1      42.608  25.562  25.294  1.00  0.00     0.022 A 
BRANCH  87  90
ATOM     90  S   UNL A   1      42.071  23.073  26.300  1.00  0.00     0.127 S 
ATOM     91  O   UNL A   1      42.855  22.691  27.471  1.00  0.00    -0.237 OA
ATOM     92  O   UNL A   1      40.639  22.785  26.397  1.00  0.00    -0.237 OA
ATOM     93  O   UNL A   1      42.661  22.744  25.008  1.00  0.00    -0.744 OA
ENDBRANCH  87  90
ENDBRANCH  59  83
BRANCH  71  94
ATOM     94  C   UNL A   1      36.143  30.715  29.028  1.00  0.00     0.023 A 
ATOM     95  C   UNL A   1      35.393  29.696  28.408  1.00  0.00     0.012 A 
ATOM     96  C   UNL A   1      35.703  32.050  28.935  1.00  0.00     0.148 A 
ATOM     97  C   UNL A   1      34.247  30.004  27.676  1.00  0.00     0.002 A 
ATOM     98  C   UNL A   1      34.532  32.344  28.249  1.00  0.00     0.091 A 
ATOM     99  F   UNL A   1      36.439  33.008  29.518  1.00  0.00    -0.205 F 
ATOM    100  C   UNL A   1      33.810  31.325  27.606  1.00  0.00     0.022 A 
BRANCH  98 101
ATOM    101  S   UNL A   1      33.837  33.999  28.188  1.00  0.00     0.127 S 
ATOM    102  O   UNL A   1      34.758  34.675  27.275  1.00  0.00    -0.237 OA
ATOM    103  O   UNL A   1      32.503  33.753  27.639  1.00  0.00    -0.237 OA
ATOM    104  O   UNL A   1      33.846  34.491  29.559  1.00  0.00    -0.744 OA
ENDBRANCH  98 101
ENDBRANCH  71  94
ENDBRANCH  45  46
ENDBRANCH  37  40
ENDBRANCH  35  36
ENDBRANCH  34  35
ENDBRANCH  33  34
ENDBRANCH   1  33
TORSDOF 19
ENDMDL
MODEL 2
REMARK VINA RESULT:     -11.6      8.622     14.947
REMARK SMILES CC1=NN(c2ccc(C(=O)NCCCCCCNC(=O)c3ccc(-c4c5nc(c(-c6cccc(S(=O)(=O)[O-])c6F)c6ccc([nH]6)c(-c6cccc(S(=O)(=O)[O-])c6F)c6nc(c(-c7cccc(S(=O)(=O)[O-])c7F)c7ccc4[nH]7)C=C6)C=C5)cc3)cc2)C(=O)/C1=C\c1ccc(N2CCCC2)cc1
REMARK SMILES IDX 14 1 13 2 12 3 11 4 9 5 10 6 8 8 5 9 6 10 85 11 7 12 84 13
REMARK SMILES IDX 4 14 1 15 2 16 3 17 88 18 86 19 89 20 87 21 90 22 91 23
REMARK SMILES IDX 100 24 92 25 99 26 93 27 94 28 95 29 98 30 96 31 97 32 15 33
REMARK SMILES IDX 16 34 17 35 18 36 19 37 20 39 21 40 22 41 83 42 23 43 82 44
REMARK SMILES IDX 24 45 25 46 26 47 76 48 27 49 81 50 75 51 77 52 28 53 80 54
REMARK SMILES IDX 74 55 73 56 29 58 61 59 41 60 60 61 42 62 45 63 59 64 78 65
REMARK SMILES IDX 43 66 44 67 58 69 79 70 46 71 30 72 31 73 39 74 32 75 34 76
REMARK SMILES IDX 40 77 33 78 35 79 36 80 37 81 38 82 62 83 63 84 71 85 64 86
REMARK SMILES IDX 66 87 72 88 65 89 67 90 68 91 69 92 70 93 47 94 48 95 56 96
REMARK SMILES IDX 49 97 51 98 57 99 50 100 52 101 53 102 54 103 55 104
REMARK H PARENT 11 7 18 38 77 57 45 68
REMARK Flexibility Score: inf
ROOT
ATOM      1  C   UNL A   1      38.979  27.435  29.501  1.00  0.00     0.002 C 
ENDROOT
BRANCH   1   2
ATOM      2  C   UNL A   1      37.979  28.594  29.612  1.00  0.00     0.021 C 
BRANCH   2   3
ATOM      3  C   UNL A   1      37.979  29.490  28.370  1.00  0.00     0.116 C 
BRANCH   3   4
ATOM      4  N   UNL A   1      37.428  30.791  28.709  1.00  0.00    -0.352 N 
ATOM      5  C   UNL A   1      36.228  31.397  28.441  1.00  0.00     0.251 C 
ATOM      6  O   UNL A   1      36.080  32.557  28.830  1.00  0.00    -0.269 OA
ATOM      7  H   UNL A   1      38.040  31.349  29.241  1.00  0.00     0.163 HD
BRANCH   5   8
ATOM      8  C   UNL A   1      35.086  30.705  27.779  1.00  0.00     0.039 A 
ATOM      9  C   UNL A   1      33.143  29.383  26.242  1.00  0.00     0.069 A 
ATOM     10  C   UNL A   1      34.344  28.740  26.530  1.00  0.00     0.029 A 
ATOM     11  C   UNL A   1      32.876  30.634  26.801  1.00  0.00     0.029 A 
ATOM     12  C   UNL A   1      35.326  29.419  27.262  1.00  0.00     0.016 A 
ATOM     13  C   UNL A   1      33.814  31.253  27.623  1.00  0.00     0.016 A 
BRANCH   9  14
ATOM     14  N   UNL A   1      32.207  28.809  25.376  1.00  0.00    -0.196 N 
ATOM     15  C   UNL A   1      29.565  29.417  23.029  1.00  0.00     0.069 C 
ATOM     16  C   UNL A   1      30.647  28.899  23.915  1.00  0.00     0.071 C 
ATOM     17  N   UNL A   1      31.174  29.593  24.891  1.00  0.00    -0.169 NA
ATOM     18  C   UNL A   1      31.248  27.557  23.783  1.00  0.00     0.065 C 
ATOM     19  C   UNL A   1      32.382  27.574  24.738  1.00  0.00     0.280 C 
ATOM     20  C   UNL A   1      30.808  26.541  23.031  1.00  0.00     0.024 C 
ATOM     21  O   UNL A   1      33.232  26.728  24.903  1.00  0.00    -0.267 OA
BRANCH  20  22
ATOM     22  C   UNL A   1      31.336  25.175  23.136  1.00  0.00    -0.025 A 
ATOM     23  C   UNL A   1      32.369  24.729  22.312  1.00  0.00     0.010 A 
ATOM     24  C   UNL A   1      30.803  24.294  24.082  1.00  0.00     0.010 A 
ATOM     25  C   UNL A   1      32.876  23.429  22.463  1.00  0.00     0.026 A 
ATOM     26  C   UNL A   1      31.308  22.996  24.212  1.00  0.00     0.026 A 
ATOM     27  C   UNL A   1      32.354  22.534  23.409  1.00  0.00     0.037 A 
BRANCH  27  28
ATOM     28  N   UNL A   1      32.885  21.273  23.554  1.00  0.00    -0.372 N 
ATOM     29  C   UNL A   1      32.258  20.050  23.074  1.00  0.00     0.116 C 
ATOM     30  C   UNL A   1      33.818  21.006  24.655  1.00  0.00     0.116 C 
ATOM     31  C   UNL A   1      32.514  19.048  24.193  1.00  0.00     0.023 C 
ATOM     32  C   UNL A   1      33.868  19.479  24.735  1.00  0.00     0.023 C 
ENDBRANCH  27  28
ENDBRANCH  20  22
ENDBRANCH   9  14
ENDBRANCH   5   8
ENDBRANCH   3   4
ENDBRANCH   2   3
ENDBRANCH   1   2
BRANCH   1  33
ATOM     33  C   UNL A   1      39.328  27.038  28.062  1.00  0.00     0.002 C 
BRANCH  33  34
ATOM     34  C   UNL A   1      39.500  25.532  27.839  1.00  0.00     0.021 C 
BRANCH  34  35
ATOM     35  C   UNL A   1      40.932  25.041  28.015  1.00  0.00     0.116 C 
BRANCH  35  36
ATOM     36  N   UNL A   1      41.646  25.030  26.746  1.00  0.00    -0.352 N 
ATOM     37  C   UNL A   1      42.286  26.060  26.105  1.00  0.00     0.251 C 
ATOM     38  H   UNL A   1      41.675  24.161  26.284  1.00  0.00     0.163 HD
ATOM     39  O   UNL A   1      42.608  25.947  24.926  1.00  0.00    -0.269 OA
BRANCH  37  40
ATOM     40  C   UNL A   1      42.581  27.306  26.842  1.00  0.00     0.039 A 
ATOM     41  C   UNL A   1      42.165  28.527  26.310  1.00  0.00     0.014 A 
ATOM     42  C   UNL A   1      43.273  27.263  28.056  1.00  0.00     0.014 A 
ATOM     43  C   UNL A   1      42.397  29.704  27.025  1.00  0.00     0.010 A 
ATOM     44  C   UNL A   1      43.436  28.426  28.801  1.00  0.00     0.010 A 
ATOM     45  C   UNL A   1      43.005  29.660  28.291  1.00  0.00    -0.014 A 
BRANCH  45  46
ATOM     46  C   UNL A   1      43.190  30.889  29.103  1.00  0.00     0.031 A 
ATOM     47  C   UNL A   1      44.476  31.667  29.014  1.00  0.00     0.074 A 
ATOM     48  C   UNL A   1      42.233  31.256  29.979  1.00  0.00     0.049 A 
ATOM     49  N   UNL A   1      44.854  32.713  29.700  1.00  0.00    -0.248 NA
ATOM     50  C   UNL A   1      45.477  31.195  28.042  1.00  0.00     0.031 C 
ATOM     51  C   UNL A   1      40.971  30.547  30.201  1.00  0.00     0.029 A 
ATOM     52  N   UNL A   1      42.185  32.301  30.868  1.00  0.00    -0.354 N 
ATOM     53  C   UNL A   1      46.139  33.011  29.264  1.00  0.00     0.074 A 
ATOM     54  C   UNL A   1      46.494  32.011  28.281  1.00  0.00     0.031 C 
ATOM     55  C   UNL A   1      40.273  31.178  31.159  1.00  0.00     0.029 A 
ATOM     56  C   UNL A   1      41.052  32.310  31.647  1.00  0.00     0.049 A 
ATOM     57  H   UNL A   1      42.894  32.980  30.939  1.00  0.00     0.167 HD
ATOM     58  C   UNL A   1      46.942  34.040  29.626  1.00  0.00     0.034 A 
ATOM     59  C   UNL A   1      40.689  33.130  32.654  1.00  0.00     0.034 A 
ATOM     60  C   UNL A   1      46.573  35.049  30.582  1.00  0.00     0.049 A 
ATOM     61  C   UNL A   1      41.604  34.265  33.034  1.00  0.00     0.074 A 
ATOM     62  C   UNL A   1      47.293  36.165  30.974  1.00  0.00     0.029 A 
ATOM     63  N   UNL A   1      45.390  35.065  31.301  1.00  0.00    -0.354 N 
ATOM     64  N   UNL A   1      42.757  34.607  32.512  1.00  0.00    -0.248 NA
ATOM     65  C   UNL A   1      41.151  35.146  34.120  1.00  0.00     0.031 C 
ATOM     66  C   UNL A   1      46.554  36.841  31.950  1.00  0.00     0.029 A 
ATOM     67  C   UNL A   1      45.359  36.166  32.140  1.00  0.00     0.049 A 
ATOM     68  H   UNL A   1      44.674  34.392  31.227  1.00  0.00     0.167 HD
ATOM     69  C   UNL A   1      43.146  35.766  33.176  1.00  0.00     0.074 A 
ATOM     70  C   UNL A   1      42.092  36.079  34.120  1.00  0.00     0.031 C 
ATOM     71  C   UNL A   1      44.278  36.496  33.031  1.00  0.00     0.034 A 
BRANCH  58  72
ATOM     72  C   UNL A   1      48.279  34.165  28.943  1.00  0.00     0.023 A 
ATOM     73  C   UNL A   1      49.428  33.639  29.571  1.00  0.00     0.012 A 
ATOM     74  C   UNL A   1      48.390  34.724  27.655  1.00  0.00     0.148 A 
ATOM     75  C   UNL A   1      50.670  33.693  28.939  1.00  0.00     0.002 A 
ATOM     76  C   UNL A   1      49.623  34.732  27.013  1.00  0.00     0.091 A 
ATOM     77  F   UNL A   1      47.290  35.232  27.082  1.00  0.00    -0.205 F 
ATOM     78  C   UNL A   1      50.765  34.227  27.657  1.00  0.00     0.022 A 
BRANCH  76  79
ATOM     79  S   UNL A   1      49.841  35.323  25.331  1.00  0.00     0.127 S 
ATOM     80  O   UNL A   1      50.578  34.215  24.722  1.00  0.00    -0.237 OA
ATOM     81  O   UNL A   1      48.459  35.460  24.873  1.00  0.00    -0.237 OA
ATOM     82  O   UNL A   1      50.579  36.574  25.434  1.00  0.00    -0.744 OA
ENDBRANCH  76  79
ENDBRANCH  58  72
BRANCH  59  83
ATOM     83  C   UNL A   1      39.384  32.943  33.353  1.00  0.00     0.023 A 
ATOM     84  C   UNL A   1      39.326  32.129  34.501  1.00  0.00     0.012 A 
ATOM     85  C   UNL A   1      38.204  33.548  32.881  1.00  0.00     0.148 A 
ATOM     86  C   UNL A   1      38.109  31.879  35.136  1.00  0.00     0.002 A 
ATOM     87  C   UNL A   1      37.004  33.343  33.553  1.00  0.00     0.091 A 
ATOM     88  F   UNL A   1      38.275  34.311  31.781  1.00  0.00    -0.205 F 
ATOM     89  C   UNL A   1      36.949  32.491  34.667  1.00  0.00     0.022 A 
BRANCH  87  90
ATOM     90  S   UNL A   1      35.489  34.190  33.093  1.00  0.00     0.127 S 
ATOM     91  O   UNL A   1      35.814  35.579  33.402  1.00  0.00    -0.237 OA
ATOM     92  O   UNL A   1      35.390  33.883  31.666  1.00  0.00    -0.237 OA
ATOM     93  O   UNL A   1      34.441  33.588  33.908  1.00  0.00    -0.744 OA
ENDBRANCH  87  90
ENDBRANCH  59  83
BRANCH  71  94
ATOM     94  C   UNL A   1      44.421  37.737  33.873  1.00  0.00     0.023 A 
ATOM     95  C   UNL A   1      45.212  37.711  35.038  1.00  0.00     0.012 A 
ATOM     96  C   UNL A   1      43.821  38.947  33.471  1.00  0.00     0.148 A 
ATOM     97  C   UNL A   1      45.372  38.861  35.812  1.00  0.00     0.002 A 
ATOM     98  C   UNL A   1      44.029  40.100  34.217  1.00  0.00     0.091 A 
ATOM     99  F   UNL A   1      43.059  38.947  32.367  1.00  0.00    -0.205 F 
ATOM    100  C   UNL A   1      44.792  40.056  35.396  1.00  0.00     0.022 A 
BRANCH  98 101
ATOM    101  S   UNL A   1      43.405  41.706  33.708  1.00  0.00     0.127 S 
ATOM    102  O   UNL A   1      43.936  42.577  34.755  1.00  0.00    -0.237 OA
ATOM    103  O   UNL A   1      44.030  41.877  32.396  1.00  0.00    -0.237 OA
ATOM    104  O   UNL A   1      41.954  41.583  33.676  1.00  0.00    -0.744 OA
ENDBRANCH  98 101
ENDBRANCH  71  94
ENDBRANCH  45  46
ENDBRANCH  37  40
ENDBRANCH  35  36
ENDBRANCH  34  35
ENDBRANCH  33  34
ENDBRANCH   1  33
TORSDOF 19
ENDMDL
MODEL 3
REMARK VINA RESULT:     -11.5      8.683     14.012
REMARK SMILES CC1=NN(c2ccc(C(=O)NCCCCCCNC(=O)c3ccc(-c4c5nc(c(-c6cccc(S(=O)(=O)[O-])c6F)c6ccc([nH]6)c(-c6cccc(S(=O)(=O)[O-])c6F)c6nc(c(-c7cccc(S(=O)(=O)[O-])c7F)c7ccc4[nH]7)C=C6)C=C5)cc3)cc2)C(=O)/C1=C\c1ccc(N2CCCC2)cc1
REMARK SMILES IDX 14 1 13 2 12 3 11 4 9 5 10 6 8 8 5 9 6 10 85 11 7 12 84 13
REMARK SMILES IDX 4 14 1 15 2 16 3 17 88 18 86 19 89 20 87 21 90 22 91 23
REMARK SMILES IDX 100 24 92 25 99 26 93 27 94 28 95 29 98 30 96 31 97 32 15 33
REMARK SMILES IDX 16 34 17 35 18 36 19 37 20 39 21 40 22 41 83 42 23 43 82 44
REMARK SMILES IDX 24 45 25 46 26 47 76 48 27 49 81 50 75 51 77 52 28 53 80 54
REMARK SMILES IDX 74 55 73 56 29 58 61 59 41 60 60 61 42 62 45 63 59 64 78 65
REMARK SMILES IDX 43 66 44 67 58 69 79 70 46 71 30 72 31 73 39 74 32 75 34 76
REMARK SMILES IDX 40 77 33 78 35 79 36 80 37 81 38 82 62 83 63 84 71 85 64 86
REMARK SMILES IDX 66 87 72 88 65 89 67 90 68 91 69 92 70 93 47 94 48 95 56 96
REMARK SMILES IDX 49 97 51 98 57 99 50 100 52 101 53 102 54 103 55 104
REMARK H PARENT 11 7 18 38 77 57 45 68
REMARK Flexibility Score: inf
ROOT
ATOM      1  C   UNL A   1      39.161  27.469  29.507  1.00  0.00     0.002 C 
ENDROOT
BRANCH   1   2
ATOM      2  C   UNL A   1      38.161  28.619  29.695  1.00  0.00     0.021 C 
BRANCH   2   3
ATOM      3  C   UNL A   1      37.967  29.443  28.420  1.00  0.00     0.116 C 
BRANCH   3   4
ATOM      4  N   UNL A   1      37.434  30.750  28.762  1.00  0.00    -0.352 N 
ATOM      5  C   UNL A   1      36.246  31.377  28.487  1.00  0.00     0.251 C 
ATOM      6  O   UNL A   1      36.113  32.536  28.883  1.00  0.00    -0.269 OA
ATOM      7  H   UNL A   1      38.050  31.296  29.303  1.00  0.00     0.163 HD
BRANCH   5   8
ATOM      8  C   UNL A   1      35.099  30.707  27.810  1.00  0.00     0.039 A 
ATOM      9  C   UNL A   1      33.154  29.418  26.250  1.00  0.00     0.069 A 
ATOM     10  C   UNL A   1      34.330  28.746  26.572  1.00  0.00     0.029 A 
ATOM     11  C   UNL A   1      32.909  30.683  26.786  1.00  0.00     0.029 A 
ATOM     12  C   UNL A   1      35.315  29.408  27.316  1.00  0.00     0.016 A 
ATOM     13  C   UNL A   1      33.847  31.287  27.620  1.00  0.00     0.016 A 
BRANCH   9  14
ATOM     14  N   UNL A   1      32.221  28.858  25.372  1.00  0.00    -0.196 N 
ATOM     15  C   UNL A   1      29.600  29.503  23.011  1.00  0.00     0.069 C 
ATOM     16  C   UNL A   1      30.672  28.970  23.900  1.00  0.00     0.071 C 
ATOM     17  N   UNL A   1      31.196  29.652  24.886  1.00  0.00    -0.169 NA
ATOM     18  C   UNL A   1      31.265  27.625  23.762  1.00  0.00     0.065 C 
ATOM     19  C   UNL A   1      32.392  27.627  24.725  1.00  0.00     0.280 C 
ATOM     20  C   UNL A   1      30.825  26.618  22.997  1.00  0.00     0.024 C 
ATOM     21  O   UNL A   1      33.235  26.773  24.889  1.00  0.00    -0.267 OA
BRANCH  20  22
ATOM     22  C   UNL A   1      31.343  25.249  23.094  1.00  0.00    -0.025 A 
ATOM     23  C   UNL A   1      32.389  24.808  22.286  1.00  0.00     0.010 A 
ATOM     24  C   UNL A   1      30.785  24.358  24.017  1.00  0.00     0.010 A 
ATOM     25  C   UNL A   1      32.886  23.503  22.429  1.00  0.00     0.026 A 
ATOM     26  C   UNL A   1      31.281  23.056  24.140  1.00  0.00     0.026 A 
ATOM     27  C   UNL A   1      32.340  22.598  23.352  1.00  0.00     0.037 A 
BRANCH  27  28
ATOM     28  N   UNL A   1      32.862  21.333  23.490  1.00  0.00    -0.372 N 
ATOM     29  C   UNL A   1      32.163  20.105  23.134  1.00  0.00     0.116 C 
ATOM     30  C   UNL A   1      33.906  21.088  24.492  1.00  0.00     0.116 C 
ATOM     31  C   UNL A   1      32.523  19.143  24.259  1.00  0.00     0.023 C 
ATOM     32  C   UNL A   1      33.936  19.565  24.630  1.00  0.00     0.023 C 
ENDBRANCH  27  28
ENDBRANCH  20  22
ENDBRANCH   9  14
ENDBRANCH   5   8
ENDBRANCH   3   4
ENDBRANCH   2   3
ENDBRANCH   1   2
BRANCH   1  33
ATOM     33  C   UNL A   1      39.343  27.022  28.052  1.00  0.00     0.002 C 
BRANCH  33  34
ATOM     34  C   UNL A   1      39.664  25.535  27.877  1.00  0.00     0.021 C 
BRANCH  34  35
ATOM     35  C   UNL A   1      41.149  25.207  27.986  1.00  0.00     0.116 C 
BRANCH  35  36
ATOM     36  N   UNL A   1      41.800  25.267  26.685  1.00  0.00    -0.352 N 
ATOM     37  C   UNL A   1      42.385  26.339  26.059  1.00  0.00     0.251 C 
ATOM     38  H   UNL A   1      41.826  24.420  26.185  1.00  0.00     0.163 HD
ATOM     39  O   UNL A   1      42.651  26.284  24.862  1.00  0.00    -0.269 OA
BRANCH  37  40
ATOM     40  C   UNL A   1      42.686  27.559  26.836  1.00  0.00     0.039 A 
ATOM     41  C   UNL A   1      42.169  28.783  26.408  1.00  0.00     0.014 A 
ATOM     42  C   UNL A   1      43.485  27.491  27.981  1.00  0.00     0.014 A 
ATOM     43  C   UNL A   1      42.409  29.934  27.163  1.00  0.00     0.010 A 
ATOM     44  C   UNL A   1      43.659  28.622  28.771  1.00  0.00     0.010 A 
ATOM     45  C   UNL A   1      43.129  29.856  28.368  1.00  0.00    -0.014 A 
BRANCH  45  46
ATOM     46  C   UNL A   1      43.328  31.051  29.227  1.00  0.00     0.031 A 
ATOM     47  C   UNL A   1      42.248  31.483  30.182  1.00  0.00     0.074 A 
ATOM     48  C   UNL A   1      44.446  31.791  29.087  1.00  0.00     0.049 A 
ATOM     49  N   UNL A   1      42.203  32.539  30.952  1.00  0.00    -0.248 NA
ATOM     50  C   UNL A   1      41.051  30.629  30.269  1.00  0.00     0.031 C 
ATOM     51  C   UNL A   1      45.536  31.508  28.150  1.00  0.00     0.029 A 
ATOM     52  N   UNL A   1      44.840  32.947  29.712  1.00  0.00    -0.354 N 
ATOM     53  C   UNL A   1      40.972  32.491  31.594  1.00  0.00     0.074 A 
ATOM     54  C   UNL A   1      40.280  31.323  31.095  1.00  0.00     0.031 C 
ATOM     55  C   UNL A   1      46.474  32.463  28.264  1.00  0.00     0.029 A 
ATOM     56  C   UNL A   1      46.037  33.444  29.250  1.00  0.00     0.049 A 
ATOM     57  H   UNL A   1      44.315  33.380  30.424  1.00  0.00     0.167 HD
ATOM     58  C   UNL A   1      40.472  33.326  32.535  1.00  0.00     0.034 A 
ATOM     59  C   UNL A   1      46.699  34.572  29.575  1.00  0.00     0.034 A 
ATOM     60  C   UNL A   1      41.176  34.471  33.051  1.00  0.00     0.049 A 
ATOM     61  C   UNL A   1      46.117  35.482  30.624  1.00  0.00     0.074 A 
ATOM     62  C   UNL A   1      40.780  35.346  34.047  1.00  0.00     0.029 A 
ATOM     63  N   UNL A   1      42.415  34.903  32.609  1.00  0.00    -0.354 N 
ATOM     64  N   UNL A   1      45.013  35.344  31.317  1.00  0.00    -0.248 NA
ATOM     65  C   UNL A   1      46.890  36.686  30.961  1.00  0.00     0.031 C 
ATOM     66  C   UNL A   1      41.769  36.323  34.189  1.00  0.00     0.029 A 
ATOM     67  C   UNL A   1      42.798  36.036  33.306  1.00  0.00     0.049 A 
ATOM     68  H   UNL A   1      42.947  34.469  31.902  1.00  0.00     0.167 HD
ATOM     69  C   UNL A   1      44.980  36.419  32.200  1.00  0.00     0.074 A 
ATOM     70  C   UNL A   1      46.188  37.183  31.969  1.00  0.00     0.031 C 
ATOM     71  C   UNL A   1      44.030  36.753  33.106  1.00  0.00     0.034 A 
BRANCH  58  72
ATOM     72  C   UNL A   1      39.121  33.005  33.118  1.00  0.00     0.023 A 
ATOM     73  C   UNL A   1      39.023  32.065  34.166  1.00  0.00     0.012 A 
ATOM     74  C   UNL A   1      37.963  33.685  32.691  1.00  0.00     0.148 A 
ATOM     75  C   UNL A   1      37.793  31.787  34.760  1.00  0.00     0.002 A 
ATOM     76  C   UNL A   1      36.749  33.437  33.319  1.00  0.00     0.091 A 
ATOM     77  F   UNL A   1      38.073  34.562  31.684  1.00  0.00    -0.205 F 
ATOM     78  C   UNL A   1      36.660  32.481  34.345  1.00  0.00     0.022 A 
BRANCH  76  79
ATOM     79  S   UNL A   1      35.243  34.331  32.918  1.00  0.00     0.127 S 
ATOM     80  O   UNL A   1      35.196  34.190  31.463  1.00  0.00    -0.237 OA
ATOM     81  O   UNL A   1      34.229  33.561  33.638  1.00  0.00    -0.237 OA
ATOM     82  O   UNL A   1      35.439  35.690  33.403  1.00  0.00    -0.744 OA
ENDBRANCH  76  79
ENDBRANCH  58  72
BRANCH  59  83
ATOM     83  C   UNL A   1      48.007  34.895  28.934  1.00  0.00     0.023 A 
ATOM     84  C   UNL A   1      49.203  34.600  29.619  1.00  0.00     0.012 A 
ATOM     85  C   UNL A   1      48.076  35.503  27.667  1.00  0.00     0.148 A 
ATOM     86  C   UNL A   1      50.440  34.953  29.077  1.00  0.00     0.002 A 
ATOM     87  C   UNL A   1      49.313  35.799  27.106  1.00  0.00     0.091 A 
ATOM     88  F   UNL A   1      46.929  35.786  27.034  1.00  0.00    -0.205 F 
ATOM     89  C   UNL A   1      50.496  35.546  27.818  1.00  0.00     0.022 A 
BRANCH  87  90
ATOM     90  S   UNL A   1      49.483  36.446  25.439  1.00  0.00     0.127 S 
ATOM     91  O   UNL A   1      49.014  35.324  24.631  1.00  0.00    -0.237 OA
ATOM     92  O   UNL A   1      48.586  37.602  25.469  1.00  0.00    -0.237 OA
ATOM     93  O   UNL A   1      50.892  36.787  25.293  1.00  0.00    -0.744 OA
ENDBRANCH  87  90
ENDBRANCH  59  83
BRANCH  71  94
ATOM     94  C   UNL A   1      44.277  37.970  33.959  1.00  0.00     0.023 A 
ATOM     95  C   UNL A   1      45.048  37.865  35.132  1.00  0.00     0.012 A 
ATOM     96  C   UNL A   1      43.795  39.233  33.558  1.00  0.00     0.148 A 
ATOM     97  C   UNL A   1      45.304  38.990  35.916  1.00  0.00     0.002 A 
ATOM     98  C   UNL A   1      44.100  40.357  34.315  1.00  0.00     0.091 A 
ATOM     99  F   UNL A   1      43.049  39.310  32.447  1.00  0.00    -0.205 F 
ATOM    100  C   UNL A   1      44.841  40.236  35.502  1.00  0.00     0.022 A 
BRANCH  98 101
ATOM    101  S   UNL A   1      43.631  42.016  33.810  1.00  0.00     0.127 S 
ATOM    102  O   UNL A   1      42.221  42.057  34.193  1.00  0.00    -0.237 OA
ATOM    103  O   UNL A   1      44.512  42.848  34.631  1.00  0.00    -0.237 OA
ATOM    104  O   UNL A   1      43.891  42.091  32.379  1.00  0.00    -0.744 OA
ENDBRANCH  98 101
ENDBRANCH  71  94
ENDBRANCH  45  46
ENDBRANCH  37  40
ENDBRANCH  35  36
ENDBRANCH  34  35
ENDBRANCH  33  34
ENDBRANCH   1  33
TORSDOF 19
ENDMDL
