MODEL 1
REMARK VINA RESULT:     -10.9      0.000      0.000
REMARK SMILES CCN1C(=O)C[C@@H](C(=O)NCCCCCCNC(=O)c2ccc(-c3c4nc(c(-c5cccc(S(=O)(=O)[O-])c5F)c5ccc([nH]5)c(-c5cccc(S(=O)(=O)[O-])c5F)c5nc(c(-c6cccc(S(=O)(=O)[O-])c6F)c6ccc3[nH]6)C=C5)C=C4)cc2)[C@H]1c1ccccc1C1CC1
REMARK SMILES IDX 14 1 13 2 12 3 11 4 10 5 8 6 9 7 7 9 3 10 4 11 83 12 5 13
REMARK SMILES IDX 6 14 2 15 1 16 84 17 85 18 89 19 86 20 88 21 87 22 90 23
REMARK SMILES IDX 91 24 92 25 15 26 16 27 17 28 18 29 19 31 20 32 21 33 82 34
REMARK SMILES IDX 22 35 81 36 23 37 24 38 25 39 75 40 26 41 80 42 74 43 76 44
REMARK SMILES IDX 27 45 79 46 73 47 72 48 28 50 60 51 40 52 59 53 41 54 44 55
REMARK SMILES IDX 58 56 77 57 42 58 43 59 57 61 78 62 45 63 29 64 30 65 38 66
REMARK SMILES IDX 31 67 33 68 39 69 32 70 34 71 35 72 36 73 37 74 61 75 62 76
REMARK SMILES IDX 70 77 63 78 65 79 71 80 64 81 66 82 67 83 68 84 69 85 46 86
REMARK SMILES IDX 47 87 55 88 48 89 50 90 56 91 49 92 51 93 52 94 53 95 54 96
REMARK H PARENT 10 8 17 30 76 49 44 60
REMARK Flexibility Score: inf
ROOT
ATOM      1  C   UNL A   1      31.729  30.866  25.992  1.00  0.00     0.002 C 
ENDROOT
BRANCH   1   2
ATOM      2  C   UNL A   1      32.797  29.768  25.991  1.00  0.00     0.002 C 
BRANCH   2   3
ATOM      3  C   UNL A   1      32.731  28.788  27.171  1.00  0.00     0.021 C 
BRANCH   3   4
ATOM      4  C   UNL A   1      32.036  27.472  26.848  1.00  0.00     0.116 C 
BRANCH   4   5
ATOM      5  N   UNL A   1      32.974  26.364  26.825  1.00  0.00    -0.356 N 
ATOM      6  C   UNL A   1      32.784  25.073  26.436  1.00  0.00     0.226 C 
ATOM      7  O   UNL A   1      33.766  24.330  26.413  1.00  0.00    -0.275 OA
ATOM      8  H   UNL A   1      33.884  26.578  27.137  1.00  0.00     0.163 HD
BRANCH   6   9
ATOM      9  C   UNL A   1      31.392  24.603  26.048  1.00  0.00     0.115 C 
ATOM     10  N   UNL A   1      31.394  23.037  24.259  1.00  0.00    -0.335 N 
ATOM     11  C   UNL A   1      31.374  22.284  25.435  1.00  0.00     0.223 C 
ATOM     12  C   UNL A   1      31.110  24.444  24.538  1.00  0.00     0.128 C 
ATOM     13  O   UNL A   1      31.395  21.066  25.515  1.00  0.00    -0.275 OA
ATOM     14  C   UNL A   1      31.151  23.202  26.608  1.00  0.00     0.116 C 
BRANCH  10  15
ATOM     15  C   UNL A   1      31.089  22.361  22.999  1.00  0.00     0.117 C 
ATOM     16  C   UNL A   1      32.228  21.658  22.285  1.00  0.00     0.027 C 
ENDBRANCH  10  15
BRANCH  12  17
ATOM     17  C   UNL A   1      31.774  25.441  23.600  1.00  0.00    -0.021 A 
ATOM     18  C   UNL A   1      32.948  24.994  22.930  1.00  0.00     0.006 A 
ATOM     19  C   UNL A   1      31.312  26.769  23.370  1.00  0.00    -0.040 A 
ATOM     20  C   UNL A   1      33.713  25.828  22.121  1.00  0.00     0.000 A 
ATOM     21  C   UNL A   1      32.134  27.580  22.537  1.00  0.00     0.004 A 
ATOM     22  C   UNL A   1      33.312  27.134  21.936  1.00  0.00     0.000 A 
BRANCH  19  23
ATOM     23  C   UNL A   1      30.047  27.469  23.869  1.00  0.00     0.019 C 
ATOM     24  C   UNL A   1      29.762  28.944  23.825  1.00  0.00     0.009 C 
ATOM     25  C   UNL A   1      28.990  27.997  22.940  1.00  0.00     0.009 C 
ENDBRANCH  19  23
ENDBRANCH  12  17
ENDBRANCH   6   9
ENDBRANCH   4   5
ENDBRANCH   3   4
ENDBRANCH   2   3
ENDBRANCH   1   2
BRANCH   1  26
ATOM     26  C   UNL A   1      31.744  31.784  27.215  1.00  0.00     0.021 C 
BRANCH  26  27
ATOM     27  C   UNL A   1      32.960  32.697  27.308  1.00  0.00     0.116 C 
BRANCH  27  28
ATOM     28  N   UNL A   1      32.602  34.071  27.629  1.00  0.00    -0.352 N 
ATOM     29  C   UNL A   1      33.109  34.878  28.618  1.00  0.00     0.251 C 
ATOM     30  H   UNL A   1      31.906  34.476  27.062  1.00  0.00     0.163 HD
ATOM     31  O   UNL A   1      32.595  35.965  28.864  1.00  0.00    -0.269 OA
BRANCH  29  32
ATOM     32  C   UNL A   1      34.270  34.406  29.400  1.00  0.00     0.039 A 
ATOM     33  C   UNL A   1      34.055  33.648  30.552  1.00  0.00     0.014 A 
ATOM     34  C   UNL A   1      35.568  34.682  28.964  1.00  0.00     0.014 A 
ATOM     35  C   UNL A   1      35.146  33.112  31.238  1.00  0.00     0.010 A 
ATOM     36  C   UNL A   1      36.648  34.083  29.602  1.00  0.00     0.010 A 
ATOM     37  C   UNL A   1      36.450  33.301  30.750  1.00  0.00    -0.014 A 
BRANCH  37  38
ATOM     38  C   UNL A   1      37.633  32.707  31.423  1.00  0.00     0.031 A 
ATOM     39  C   UNL A   1      38.349  31.551  30.777  1.00  0.00     0.074 A 
ATOM     40  C   UNL A   1      37.993  33.127  32.651  1.00  0.00     0.049 A 
ATOM     41  N   UNL A   1      39.306  30.801  31.257  1.00  0.00    -0.248 NA
ATOM     42  C   UNL A   1      37.906  31.167  29.426  1.00  0.00     0.031 C 
ATOM     43  C   UNL A   1      37.339  34.198  33.406  1.00  0.00     0.029 A 
ATOM     44  N   UNL A   1      38.974  32.675  33.499  1.00  0.00    -0.354 N 
ATOM     45  C   UNL A   1      39.549  29.835  30.289  1.00  0.00     0.074 A 
ATOM     46  C   UNL A   1      38.615  30.070  29.210  1.00  0.00     0.031 C 
ATOM     47  C   UNL A   1      37.930  34.314  34.606  1.00  0.00     0.029 A 
ATOM     48  C   UNL A   1      38.974  33.301  34.724  1.00  0.00     0.049 A 
ATOM     49  H   UNL A   1      39.617  31.971  33.253  1.00  0.00     0.167 HD
ATOM     50  C   UNL A   1      40.484  28.855  30.283  1.00  0.00     0.034 A 
ATOM     51  C   UNL A   1      39.715  33.069  35.827  1.00  0.00     0.034 A 
ATOM     52  C   UNL A   1      41.433  28.649  31.343  1.00  0.00     0.049 A 
ATOM     53  C   UNL A   1      40.761  31.987  35.792  1.00  0.00     0.074 A 
ATOM     54  C   UNL A   1      42.467  27.732  31.403  1.00  0.00     0.029 A 
ATOM     55  N   UNL A   1      41.461  29.365  32.530  1.00  0.00    -0.354 N 
ATOM     56  N   UNL A   1      41.062  31.163  34.816  1.00  0.00    -0.248 NA
ATOM     57  C   UNL A   1      41.592  31.820  36.993  1.00  0.00     0.031 C 
ATOM     58  C   UNL A   1      43.100  27.872  32.642  1.00  0.00     0.029 A 
ATOM     59  C   UNL A   1      42.489  28.907  33.332  1.00  0.00     0.049 A 
ATOM     60  H   UNL A   1      40.841  30.092  32.766  1.00  0.00     0.167 HD
ATOM     61  C   UNL A   1      42.146  30.419  35.266  1.00  0.00     0.074 A 
ATOM     62  C   UNL A   1      42.452  30.890  36.601  1.00  0.00     0.031 C 
ATOM     63  C   UNL A   1      42.823  29.430  34.632  1.00  0.00     0.034 A 
BRANCH  50  64
ATOM     64  C   UNL A   1      40.550  27.957  29.076  1.00  0.00     0.023 A 
ATOM     65  C   UNL A   1      39.644  26.883  28.953  1.00  0.00     0.012 A 
ATOM     66  C   UNL A   1      41.473  28.204  28.041  1.00  0.00     0.148 A 
ATOM     67  C   UNL A   1      39.685  26.043  27.843  1.00  0.00     0.002 A 
ATOM     68  C   UNL A   1      41.472  27.392  26.913  1.00  0.00     0.091 A 
ATOM     69  F   UNL A   1      42.339  29.217  28.183  1.00  0.00    -0.205 F 
ATOM     70  C   UNL A   1      40.590  26.303  26.819  1.00  0.00     0.022 A 
BRANCH  68  71
ATOM     71  S   UNL A   1      42.543  27.694  25.502  1.00  0.00     0.127 S 
ATOM     72  O   UNL A   1      42.292  26.510  24.682  1.00  0.00    -0.237 OA
ATOM     73  O   UNL A   1      41.994  28.938  24.962  1.00  0.00    -0.237 OA
ATOM     74  O   UNL A   1      43.893  27.808  26.038  1.00  0.00    -0.744 OA
ENDBRANCH  68  71
ENDBRANCH  50  64
BRANCH  51  75
ATOM     75  C   UNL A   1      39.523  33.908  37.044  1.00  0.00     0.023 A 
ATOM     76  C   UNL A   1      39.986  35.237  37.052  1.00  0.00     0.012 A 
ATOM     77  C   UNL A   1      38.862  33.404  38.181  1.00  0.00     0.148 A 
ATOM     78  C   UNL A   1      39.827  36.040  38.182  1.00  0.00     0.002 A 
ATOM     79  C   UNL A   1      38.655  34.227  39.283  1.00  0.00     0.091 A 
ATOM     80  F   UNL A   1      38.434  32.135  38.157  1.00  0.00    -0.205 F 
ATOM     81  C   UNL A   1      39.154  35.538  39.293  1.00  0.00     0.022 A 
BRANCH  79  82
ATOM     82  S   UNL A   1      37.687  33.708  40.705  1.00  0.00     0.127 S 
ATOM     83  O   UNL A   1      36.601  32.965  40.073  1.00  0.00    -0.237 OA
ATOM     84  O   UNL A   1      38.651  32.888  41.440  1.00  0.00    -0.237 OA
ATOM     85  O   UNL A   1      37.300  34.935  41.389  1.00  0.00    -0.744 OA
ENDBRANCH  79  82
ENDBRANCH  51  75
BRANCH  63  86
ATOM     86  C   UNL A   1      44.013  28.826  35.328  1.00  0.00     0.023 A 
ATOM     87  C   UNL A   1      45.292  29.390  35.165  1.00  0.00     0.012 A 
ATOM     88  C   UNL A   1      43.834  27.763  36.235  1.00  0.00     0.148 A 
ATOM     89  C   UNL A   1      46.381  28.893  35.882  1.00  0.00     0.002 A 
ATOM     90  C   UNL A   1      44.910  27.308  36.985  1.00  0.00     0.091 A 
ATOM     91  F   UNL A   1      42.610  27.230  36.360  1.00  0.00    -0.205 F 
ATOM     92  C   UNL A   1      46.187  27.863  36.802  1.00  0.00     0.022 A 
BRANCH  90  93
ATOM     93  S   UNL A   1      44.736  26.060  38.266  1.00  0.00     0.127 S 
ATOM     94  O   UNL A   1      46.120  25.883  38.699  1.00  0.00    -0.237 OA
ATOM     95  O   UNL A   1      43.874  26.735  39.237  1.00  0.00    -0.237 OA
ATOM     96  O   UNL A   1      44.133  24.900  37.622  1.00  0.00    -0.744 OA
ENDBRANCH  90  93
ENDBRANCH  63  86
ENDBRANCH  37  38
ENDBRANCH  29  32
ENDBRANCH  27  28
ENDBRANCH  26  27
ENDBRANCH   1  26
TORSDOF 19
ENDMDL
MODEL 2
REMARK VINA RESULT:     -10.8      5.541     10.332
REMARK SMILES CCN1C(=O)C[C@@H](C(=O)NCCCCCCNC(=O)c2ccc(-c3c4nc(c(-c5cccc(S(=O)(=O)[O-])c5F)c5ccc([nH]5)c(-c5cccc(S(=O)(=O)[O-])c5F)c5nc(c(-c6cccc(S(=O)(=O)[O-])c6F)c6ccc3[nH]6)C=C5)C=C4)cc2)[C@H]1c1ccccc1C1CC1
REMARK SMILES IDX 14 1 13 2 12 3 11 4 10 5 8 6 9 7 7 9 3 10 4 11 83 12 5 13
REMARK SMILES IDX 6 14 2 15 1 16 84 17 85 18 89 19 86 20 88 21 87 22 90 23
REMARK SMILES IDX 91 24 92 25 15 26 16 27 17 28 18 29 19 31 20 32 21 33 82 34
REMARK SMILES IDX 22 35 81 36 23 37 24 38 25 39 75 40 26 41 80 42 74 43 76 44
REMARK SMILES IDX 27 45 79 46 73 47 72 48 28 50 60 51 40 52 59 53 41 54 44 55
REMARK SMILES IDX 58 56 77 57 42 58 43 59 57 61 78 62 45 63 29 64 30 65 38 66
REMARK SMILES IDX 31 67 33 68 39 69 32 70 34 71 35 72 36 73 37 74 61 75 62 76
REMARK SMILES IDX 70 77 63 78 65 79 71 80 64 81 66 82 67 83 68 84 69 85 46 86
REMARK SMILES IDX 47 87 55 88 48 89 50 90 56 91 49 92 51 93 52 94 53 95 54 96
REMARK H PARENT 10 8 17 30 76 49 44 60
REMARK Flexibility Score: inf
ROOT
ATOM      1  C   UNL A   1      34.753  24.237  25.285  1.00  0.00     0.002 C 
ENDROOT
BRANCH   1   2
ATOM      2  C   UNL A   1      33.303  24.694  25.479  1.00  0.00     0.002 C 
BRANCH   2   3
ATOM      3  C   UNL A   1      32.310  23.583  25.847  1.00  0.00     0.021 C 
BRANCH   3   4
ATOM      4  C   UNL A   1      30.891  23.830  25.351  1.00  0.00     0.116 C 
BRANCH   4   5
ATOM      5  N   UNL A   1      30.880  24.309  23.980  1.00  0.00    -0.356 N 
ATOM      6  C   UNL A   1      30.479  25.512  23.484  1.00  0.00     0.226 C 
ATOM      7  O   UNL A   1      30.655  25.725  22.283  1.00  0.00    -0.275 OA
ATOM      8  H   UNL A   1      31.211  23.669  23.309  1.00  0.00     0.163 HD
BRANCH   6   9
ATOM      9  C   UNL A   1      29.842  26.532  24.412  1.00  0.00     0.115 C 
ATOM     10  N   UNL A   1      29.442  28.631  23.369  1.00  0.00    -0.335 N 
ATOM     11  C   UNL A   1      28.251  27.910  23.261  1.00  0.00     0.223 C 
ATOM     12  C   UNL A   1      30.358  27.984  24.306  1.00  0.00     0.128 C 
ATOM     13  O   UNL A   1      27.229  28.280  22.705  1.00  0.00    -0.275 OA
ATOM     14  C   UNL A   1      28.353  26.657  24.089  1.00  0.00     0.116 C 
BRANCH  10  15
ATOM     15  C   UNL A   1      29.410  30.066  23.094  1.00  0.00     0.117 C 
ATOM     16  C   UNL A   1      29.364  30.504  21.642  1.00  0.00     0.027 C 
ENDBRANCH  10  15
BRANCH  12  17
ATOM     17  C   UNL A   1      31.838  28.172  24.007  1.00  0.00    -0.021 A 
ATOM     18  C   UNL A   1      32.185  28.382  22.642  1.00  0.00     0.006 A 
ATOM     19  C   UNL A   1      32.874  28.136  24.984  1.00  0.00    -0.040 A 
ATOM     20  C   UNL A   1      33.504  28.472  22.210  1.00  0.00     0.000 A 
ATOM     21  C   UNL A   1      34.205  28.228  24.487  1.00  0.00     0.004 A 
ATOM     22  C   UNL A   1      34.522  28.378  23.136  1.00  0.00     0.000 A 
BRANCH  19  23
ATOM     23  C   UNL A   1      32.783  28.027  26.508  1.00  0.00     0.019 C 
ATOM     24  C   UNL A   1      33.660  28.724  27.509  1.00  0.00     0.009 C 
ATOM     25  C   UNL A   1      32.211  29.117  27.367  1.00  0.00     0.009 C 
ENDBRANCH  19  23
ENDBRANCH  12  17
ENDBRANCH   6   9
ENDBRANCH   4   5
ENDBRANCH   3   4
ENDBRANCH   2   3
ENDBRANCH   1   2
BRANCH   1  26
ATOM     26  C   UNL A   1      34.968  22.723  25.328  1.00  0.00     0.021 C 
BRANCH  26  27
ATOM     27  C   UNL A   1      35.948  22.253  26.395  1.00  0.00     0.116 C 
BRANCH  27  28
ATOM     28  N   UNL A   1      36.876  21.248  25.895  1.00  0.00    -0.352 N 
ATOM     29  C   UNL A   1      38.244  21.319  25.800  1.00  0.00     0.251 C 
ATOM     30  H   UNL A   1      36.469  20.406  25.585  1.00  0.00     0.163 HD
ATOM     31  O   UNL A   1      38.876  20.448  25.211  1.00  0.00    -0.269 OA
BRANCH  29  32
ATOM     32  C   UNL A   1      38.942  22.475  26.399  1.00  0.00     0.039 A 
ATOM     33  C   UNL A   1      40.030  22.251  27.246  1.00  0.00     0.014 A 
ATOM     34  C   UNL A   1      38.543  23.776  26.085  1.00  0.00     0.014 A 
ATOM     35  C   UNL A   1      40.758  23.339  27.733  1.00  0.00     0.010 A 
ATOM     36  C   UNL A   1      39.315  24.851  26.506  1.00  0.00     0.010 A 
ATOM     37  C   UNL A   1      40.424  24.646  27.341  1.00  0.00    -0.014 A 
BRANCH  37  38
ATOM     38  C   UNL A   1      41.204  25.824  27.797  1.00  0.00     0.031 A 
ATOM     39  C   UNL A   1      40.515  26.910  28.579  1.00  0.00     0.074 A 
ATOM     40  C   UNL A   1      42.488  25.971  27.419  1.00  0.00     0.049 A 
ATOM     41  N   UNL A   1      40.971  28.078  28.947  1.00  0.00    -0.248 NA
ATOM     42  C   UNL A   1      39.116  26.661  28.968  1.00  0.00     0.031 C 
ATOM     43  C   UNL A   1      43.249  25.017  26.610  1.00  0.00     0.029 A 
ATOM     44  N   UNL A   1      43.371  27.002  27.633  1.00  0.00    -0.354 N 
ATOM     45  C   UNL A   1      39.907  28.718  29.571  1.00  0.00     0.074 A 
ATOM     46  C   UNL A   1      38.772  27.824  29.500  1.00  0.00     0.031 C 
ATOM     47  C   UNL A   1      44.478  25.510  26.388  1.00  0.00     0.029 A 
ATOM     48  C   UNL A   1      44.581  26.831  27.001  1.00  0.00     0.049 A 
ATOM     49  H   UNL A   1      43.158  27.788  28.186  1.00  0.00     0.167 HD
ATOM     50  C   UNL A   1      39.882  29.930  30.175  1.00  0.00     0.034 A 
ATOM     51  C   UNL A   1      45.644  27.655  26.905  1.00  0.00     0.034 A 
ATOM     52  C   UNL A   1      41.023  30.799  30.273  1.00  0.00     0.049 A 
ATOM     53  C   UNL A   1      45.601  28.990  27.599  1.00  0.00     0.074 A 
ATOM     54  C   UNL A   1      41.123  32.014  30.926  1.00  0.00     0.029 A 
ATOM     55  N   UNL A   1      42.259  30.548  29.700  1.00  0.00    -0.354 N 
ATOM     56  N   UNL A   1      44.626  29.525  28.295  1.00  0.00    -0.248 NA
ATOM     57  C   UNL A   1      46.811  29.821  27.527  1.00  0.00     0.031 C 
ATOM     58  C   UNL A   1      42.411  32.514  30.718  1.00  0.00     0.029 A 
ATOM     59  C   UNL A   1      43.126  31.588  29.977  1.00  0.00     0.049 A 
ATOM     60  H   UNL A   1      42.486  29.748  29.173  1.00  0.00     0.167 HD
ATOM     61  C   UNL A   1      45.122  30.729  28.782  1.00  0.00     0.074 A 
ATOM     62  C   UNL A   1      46.484  30.843  28.306  1.00  0.00     0.031 C 
ATOM     63  C   UNL A   1      44.501  31.658  29.550  1.00  0.00     0.034 A 
BRANCH  50  64
ATOM     64  C   UNL A   1      38.588  30.369  30.809  1.00  0.00     0.023 A 
ATOM     65  C   UNL A   1      38.342  30.083  32.167  1.00  0.00     0.012 A 
ATOM     66  C   UNL A   1      37.637  31.107  30.076  1.00  0.00     0.148 A 
ATOM     67  C   UNL A   1      37.155  30.484  32.775  1.00  0.00     0.002 A 
ATOM     68  C   UNL A   1      36.478  31.547  30.703  1.00  0.00     0.091 A 
ATOM     69  F   UNL A   1      37.878  31.353  28.781  1.00  0.00    -0.205 F 
ATOM     70  C   UNL A   1      36.228  31.224  32.047  1.00  0.00     0.022 A 
BRANCH  68  71
ATOM     71  S   UNL A   1      35.261  32.578  29.876  1.00  0.00     0.127 S 
ATOM     72  O   UNL A   1      34.304  32.827  30.954  1.00  0.00    -0.237 OA
ATOM     73  O   UNL A   1      36.059  33.741  29.487  1.00  0.00    -0.237 OA
ATOM     74  O   UNL A   1      34.754  31.788  28.762  1.00  0.00    -0.744 OA
ENDBRANCH  68  71
ENDBRANCH  50  64
BRANCH  51  75
ATOM     75  C   UNL A   1      46.858  27.220  26.156  1.00  0.00     0.023 A 
ATOM     76  C   UNL A   1      46.950  27.475  24.775  1.00  0.00     0.012 A 
ATOM     77  C   UNL A   1      47.930  26.581  26.809  1.00  0.00     0.148 A 
ATOM     78  C   UNL A   1      48.070  27.069  24.049  1.00  0.00     0.002 A 
ATOM     79  C   UNL A   1      49.068  26.231  26.092  1.00  0.00     0.091 A 
ATOM     80  F   UNL A   1      47.820  26.342  28.123  1.00  0.00    -0.205 F 
ATOM     81  C   UNL A   1      49.133  26.456  24.709  1.00  0.00     0.022 A 
BRANCH  79  82
ATOM     82  S   UNL A   1      50.535  25.556  26.881  1.00  0.00     0.127 S 
ATOM     83  O   UNL A   1      50.916  26.640  27.781  1.00  0.00    -0.237 OA
ATOM     84  O   UNL A   1      49.999  24.365  27.541  1.00  0.00    -0.237 OA
ATOM     85  O   UNL A   1      51.470  25.273  25.801  1.00  0.00    -0.744 OA
ENDBRANCH  79  82
ENDBRANCH  51  75
BRANCH  63  86
ATOM     86  C   UNL A   1      45.296  32.854  29.998  1.00  0.00     0.023 A 
ATOM     87  C   UNL A   1      46.049  32.803  31.186  1.00  0.00     0.012 A 
ATOM     88  C   UNL A   1      45.382  33.992  29.171  1.00  0.00     0.148 A 
ATOM     89  C   UNL A   1      46.862  33.875  31.554  1.00  0.00     0.002 A 
ATOM     90  C   UNL A   1      46.234  35.033  29.516  1.00  0.00     0.091 A 
ATOM     91  F   UNL A   1      44.642  34.026  28.052  1.00  0.00    -0.205 F 
ATOM     92  C   UNL A   1      46.966  34.982  30.713  1.00  0.00     0.022 A 
BRANCH  90  93
ATOM     93  S   UNL A   1      46.512  36.449  28.445  1.00  0.00     0.127 S 
ATOM     94  O   UNL A   1      47.163  37.387  29.357  1.00  0.00    -0.237 OA
ATOM     95  O   UNL A   1      47.389  35.888  27.417  1.00  0.00    -0.237 OA
ATOM     96  O   UNL A   1      45.199  36.858  27.966  1.00  0.00    -0.744 OA
ENDBRANCH  90  93
ENDBRANCH  63  86
ENDBRANCH  37  38
ENDBRANCH  29  32
ENDBRANCH  27  28
ENDBRANCH  26  27
ENDBRANCH   1  26
TORSDOF 19
ENDMDL
MODEL 3
REMARK VINA RESULT:     -10.7      6.161     11.291
REMARK SMILES CCN1C(=O)C[C@@H](C(=O)NCCCCCCNC(=O)c2ccc(-c3c4nc(c(-c5cccc(S(=O)(=O)[O-])c5F)c5ccc([nH]5)c(-c5cccc(S(=O)(=O)[O-])c5F)c5nc(c(-c6cccc(S(=O)(=O)[O-])c6F)c6ccc3[nH]6)C=C5)C=C4)cc2)[C@H]1c1ccccc1C1CC1
REMARK SMILES IDX 14 1 13 2 12 3 11 4 10 5 8 6 9 7 7 9 3 10 4 11 83 12 5 13
REMARK SMILES IDX 6 14 2 15 1 16 84 17 85 18 89 19 86 20 88 21 87 22 90 23
REMARK SMILES IDX 91 24 92 25 15 26 16 27 17 28 18 29 19 31 20 32 21 33 82 34
REMARK SMILES IDX 22 35 81 36 23 37 24 38 25 39 75 40 26 41 80 42 74 43 76 44
REMARK SMILES IDX 27 45 79 46 73 47 72 48 28 50 60 51 40 52 59 53 41 54 44 55
REMARK SMILES IDX 58 56 77 57 42 58 43 59 57 61 78 62 45 63 29 64 30 65 38 66
REMARK SMILES IDX 31 67 33 68 39 69 32 70 34 71 35 72 36 73 37 74 61 75 62 76
REMARK SMILES IDX 70 77 63 78 65 79 71 80 64 81 66 82 67 83 68 84 69 85 46 86
REMARK SMILES IDX 47 87 55 88 48 89 50 90 56 91 49 92 51 93 52 94 53 95 54 96
REMARK H PARENT 10 8 17 30 76 49 44 60
REMARK Flexibility Score: inf
ROOT
ATOM      1  C   UNL A   1      36.114  20.514  25.016  1.00  0.00     0.002 C 
ENDROOT
BRANCH   1   2
ATOM      2  C   UNL A   1      35.851  21.712  24.098  1.00  0.00     0.002 C 
BRANCH   2   3
ATOM      3  C   UNL A   1      34.426  22.280  24.154  1.00  0.00     0.021 C 
BRANCH   3   4
ATOM      4  C   UNL A   1      33.979  22.965  22.870  1.00  0.00     0.116 C 
BRANCH   4   5
ATOM      5  N   UNL A   1      34.259  24.390  22.899  1.00  0.00    -0.356 N 
ATOM      6  C   UNL A   1      33.418  25.444  22.706  1.00  0.00     0.226 C 
ATOM      7  O   UNL A   1      33.870  26.577  22.878  1.00  0.00    -0.275 OA
ATOM      8  H   UNL A   1      35.195  24.630  23.087  1.00  0.00     0.163 HD
BRANCH   6   9
ATOM      9  C   UNL A   1      31.978  25.190  22.295  1.00  0.00     0.115 C 
ATOM     10  N   UNL A   1      30.414  26.541  23.471  1.00  0.00    -0.335 N 
ATOM     11  C   UNL A   1      30.688  27.213  22.277  1.00  0.00     0.223 C 
ATOM     12  C   UNL A   1      30.927  25.173  23.427  1.00  0.00     0.128 C 
ATOM     13  O   UNL A   1      30.239  28.296  21.936  1.00  0.00    -0.275 OA
ATOM     14  C   UNL A   1      31.501  26.318  21.380  1.00  0.00     0.116 C 
BRANCH  10  15
ATOM     15  C   UNL A   1      29.259  26.971  24.257  1.00  0.00     0.117 C 
ATOM     16  C   UNL A   1      27.896  26.917  23.593  1.00  0.00     0.027 C 
ENDBRANCH  10  15
BRANCH  12  17
ATOM     17  C   UNL A   1      31.360  24.596  24.765  1.00  0.00    -0.021 A 
ATOM     18  C   UNL A   1      31.126  23.205  24.961  1.00  0.00     0.006 A 
ATOM     19  C   UNL A   1      31.958  25.349  25.817  1.00  0.00    -0.040 A 
ATOM     20  C   UNL A   1      31.380  22.565  26.170  1.00  0.00     0.000 A 
ATOM     21  C   UNL A   1      32.194  24.645  27.032  1.00  0.00     0.004 A 
ATOM     22  C   UNL A   1      31.903  23.293  27.217  1.00  0.00     0.000 A 
BRANCH  19  23
ATOM     23  C   UNL A   1      32.408  26.811  25.846  1.00  0.00     0.019 C 
ATOM     24  C   UNL A   1      31.881  27.893  26.745  1.00  0.00     0.009 C 
ATOM     25  C   UNL A   1      33.284  27.370  26.931  1.00  0.00     0.009 C 
ENDBRANCH  19  23
ENDBRANCH  12  17
ENDBRANCH   6   9
ENDBRANCH   4   5
ENDBRANCH   3   4
ENDBRANCH   2   3
ENDBRANCH   1   2
BRANCH   1  26
ATOM     26  C   UNL A   1      37.477  19.844  24.834  1.00  0.00     0.021 C 
BRANCH  26  27
ATOM     27  C   UNL A   1      38.569  20.367  25.757  1.00  0.00     0.116 C 
BRANCH  27  28
ATOM     28  N   UNL A   1      39.689  19.444  25.875  1.00  0.00    -0.352 N 
ATOM     29  C   UNL A   1      41.002  19.725  26.165  1.00  0.00     0.251 C 
ATOM     30  H   UNL A   1      39.478  18.493  25.729  1.00  0.00     0.163 HD
ATOM     31  O   UNL A   1      41.862  18.854  26.076  1.00  0.00    -0.269 OA
BRANCH  29  32
ATOM     32  C   UNL A   1      41.367  21.099  26.564  1.00  0.00     0.039 A 
ATOM     33  C   UNL A   1      41.819  21.336  27.864  1.00  0.00     0.014 A 
ATOM     34  C   UNL A   1      41.301  22.140  25.635  1.00  0.00     0.014 A 
ATOM     35  C   UNL A   1      42.263  22.611  28.217  1.00  0.00     0.010 A 
ATOM     36  C   UNL A   1      41.817  23.388  25.965  1.00  0.00     0.010 A 
ATOM     37  C   UNL A   1      42.294  23.639  27.260  1.00  0.00    -0.014 A 
BRANCH  37  38
ATOM     38  C   UNL A   1      42.805  24.996  27.583  1.00  0.00     0.031 A 
ATOM     39  C   UNL A   1      41.882  26.005  28.210  1.00  0.00     0.074 A 
ATOM     40  C   UNL A   1      44.051  25.352  27.216  1.00  0.00     0.049 A 
ATOM     41  N   UNL A   1      42.082  27.276  28.440  1.00  0.00    -0.248 NA
ATOM     42  C   UNL A   1      40.543  25.528  28.599  1.00  0.00     0.031 C 
ATOM     43  C   UNL A   1      45.020  24.482  26.547  1.00  0.00     0.029 A 
ATOM     44  N   UNL A   1      44.703  26.557  27.318  1.00  0.00    -0.354 N 
ATOM     45  C   UNL A   1      40.886  27.758  28.958  1.00  0.00     0.074 A 
ATOM     46  C   UNL A   1      39.954  26.652  28.976  1.00  0.00     0.031 C 
ATOM     47  C   UNL A   1      46.137  25.182  26.291  1.00  0.00     0.029 A 
ATOM     48  C   UNL A   1      45.950  26.559  26.738  1.00  0.00     0.049 A 
ATOM     49  H   UNL A   1      44.315  27.344  27.766  1.00  0.00     0.167 HD
ATOM     50  C   UNL A   1      40.596  29.002  29.407  1.00  0.00     0.034 A 
ATOM     51  C   UNL A   1      46.834  27.563  26.562  1.00  0.00     0.034 A 
ATOM     52  C   UNL A   1      41.538  30.088  29.420  1.00  0.00     0.049 A 
ATOM     53  C   UNL A   1      46.497  28.934  27.085  1.00  0.00     0.074 A 
ATOM     54  C   UNL A   1      41.368  31.366  29.919  1.00  0.00     0.029 A 
ATOM     55  N   UNL A   1      42.824  30.025  28.907  1.00  0.00    -0.354 N 
ATOM     56  N   UNL A   1      45.406  29.340  27.688  1.00  0.00    -0.248 NA
ATOM     57  C   UNL A   1      47.522  29.977  26.934  1.00  0.00     0.031 C 
ATOM     58  C   UNL A   1      42.540  32.087  29.678  1.00  0.00     0.029 A 
ATOM     59  C   UNL A   1      43.456  31.243  29.071  1.00  0.00     0.049 A 
ATOM     60  H   UNL A   1      43.228  29.230  28.488  1.00  0.00     0.167 HD
ATOM     61  C   UNL A   1      45.633  30.668  28.033  1.00  0.00     0.074 A 
ATOM     62  C   UNL A   1      46.967  30.997  27.574  1.00  0.00     0.031 C 
ATOM     63  C   UNL A   1      44.808  31.537  28.667  1.00  0.00     0.034 A 
BRANCH  50  64
ATOM     64  C   UNL A   1      39.214  29.244  29.955  1.00  0.00     0.023 A 
ATOM     65  C   UNL A   1      38.888  28.798  31.252  1.00  0.00     0.012 A 
ATOM     66  C   UNL A   1      38.253  29.954  29.208  1.00  0.00     0.148 A 
ATOM     67  C   UNL A   1      37.618  29.015  31.781  1.00  0.00     0.002 A 
ATOM     68  C   UNL A   1      37.005  30.211  29.762  1.00  0.00     0.091 A 
ATOM     69  F   UNL A   1      38.574  30.354  27.969  1.00  0.00    -0.205 F 
ATOM     70  C   UNL A   1      36.681  29.730  31.041  1.00  0.00     0.022 A 
BRANCH  68  71
ATOM     71  S   UNL A   1      35.757  31.195  28.924  1.00  0.00     0.127 S 
ATOM     72  O   UNL A   1      35.113  31.874  30.048  1.00  0.00    -0.237 OA
ATOM     73  O   UNL A   1      36.572  32.062  28.073  1.00  0.00    -0.237 OA
ATOM     74  O   UNL A   1      34.918  30.250  28.201  1.00  0.00    -0.744 OA
ENDBRANCH  68  71
ENDBRANCH  50  64
BRANCH  51  75
ATOM     75  C   UNL A   1      48.141  27.296  25.897  1.00  0.00     0.023 A 
ATOM     76  C   UNL A   1      49.227  26.831  26.662  1.00  0.00     0.012 A 
ATOM     77  C   UNL A   1      48.306  27.477  24.510  1.00  0.00     0.148 A 
ATOM     78  C   UNL A   1      50.465  26.585  26.065  1.00  0.00     0.002 A 
ATOM     79  C   UNL A   1      49.523  27.175  23.911  1.00  0.00     0.091 A 
ATOM     80  F   UNL A   1      47.261  27.927  23.800  1.00  0.00    -0.205 F 
ATOM     81  C   UNL A   1      50.610  26.747  24.690  1.00  0.00     0.022 A 
BRANCH  79  82
ATOM     82  S   UNL A   1      49.763  27.230  22.132  1.00  0.00     0.127 S 
ATOM     83  O   UNL A   1      49.535  28.643  21.842  1.00  0.00    -0.237 OA
ATOM     84  O   UNL A   1      51.153  26.789  22.003  1.00  0.00    -0.237 OA
ATOM     85  O   UNL A   1      48.787  26.305  21.572  1.00  0.00    -0.744 OA
ENDBRANCH  79  82
ENDBRANCH  51  75
BRANCH  63  86
ATOM     86  C   UNL A   1      45.332  32.913  28.979  1.00  0.00     0.023 A 
ATOM     87  C   UNL A   1      46.084  33.139  30.147  1.00  0.00     0.012 A 
ATOM     88  C   UNL A   1      45.168  33.957  28.047  1.00  0.00     0.148 A 
ATOM     89  C   UNL A   1      46.652  34.389  30.392  1.00  0.00     0.002 A 
ATOM     90  C   UNL A   1      45.779  35.183  28.270  1.00  0.00     0.091 A 
ATOM     91  F   UNL A   1      44.432  33.723  26.950  1.00  0.00    -0.205 F 
ATOM     92  C   UNL A   1      46.512  35.406  29.448  1.00  0.00     0.022 A 
BRANCH  90  93
ATOM     93  S   UNL A   1      45.742  36.514  27.064  1.00  0.00     0.127 S 
ATOM     94  O   UNL A   1      46.426  35.903  25.926  1.00  0.00    -0.237 OA
ATOM     95  O   UNL A   1      44.306  36.718  26.875  1.00  0.00    -0.237 OA
ATOM     96  O   UNL A   1      46.439  37.637  27.678  1.00  0.00    -0.744 OA
ENDBRANCH  90  93
ENDBRANCH  63  86
ENDBRANCH  37  38
ENDBRANCH  29  32
ENDBRANCH  27  28
ENDBRANCH  26  27
ENDBRANCH   1  26
TORSDOF 19
ENDMDL
