MODEL 1
REMARK VINA RESULT:     -12.0      0.000      0.000
REMARK SMILES O=C(NCCCCCCNC(=O)[C@H]1CCCC[C@@H]1C(=O)Nc1ccc(Br)c(Cl)c1)c1ccc(-c2c3nc(c(-c4cccc(S(=O)(=O)[O-])c4F)c4ccc([nH]4)c(-c4cccc(S(=O)(=O)[O-])c4F)c4nc(c(-c5cccc(S(=O)(=O)[O-])c5F)c5ccc2[nH]5)C=C4)C=C3)cc1
REMARK SMILES IDX 6 1 5 2 4 3 3 4 1 5 2 6 30 8 31 9 92 10 32 11 91 12 33 13
REMARK SMILES IDX 34 14 35 15 85 16 36 17 90 18 84 19 86 20 37 21 89 22 83 23
REMARK SMILES IDX 82 24 38 26 70 27 50 28 69 29 51 30 54 31 68 32 87 33 52 34
REMARK SMILES IDX 53 35 67 37 88 38 55 39 39 40 40 41 48 42 41 43 43 44 49 45
REMARK SMILES IDX 42 46 44 47 45 48 46 49 47 50 71 51 72 52 80 53 73 54 75 55
REMARK SMILES IDX 81 56 74 57 76 58 77 59 78 60 79 61 56 62 57 63 65 64 58 65
REMARK SMILES IDX 60 66 66 67 59 68 61 69 62 70 63 71 64 72 7 73 8 74 9 75
REMARK SMILES IDX 10 76 11 77 12 79 13 80 14 81 18 82 15 83 17 84 16 85 19 86
REMARK SMILES IDX 20 87 21 88 22 90 23 91 29 92 24 93 27 94 25 95 28 96 26 97
REMARK H PARENT 3 7 86 25 54 36 10 78 21 89
REMARK Flexibility Score: inf
ROOT
ATOM      1  C   UNL A   1      36.607  23.223  23.643  1.00  0.00     0.002 C 
ENDROOT
BRANCH   1   2
ATOM      2  C   UNL A   1      36.874  21.839  24.242  1.00  0.00     0.021 C 
BRANCH   2   3
ATOM      3  C   UNL A   1      37.230  21.824  25.728  1.00  0.00     0.116 C 
BRANCH   3   4
ATOM      4  N   UNL A   1      38.305  20.891  26.017  1.00  0.00    -0.352 N 
ATOM      5  O   UNL A   1      40.410  20.215  26.402  1.00  0.00    -0.269 OA
ATOM      6  C   UNL A   1      39.596  21.135  26.412  1.00  0.00     0.251 C 
ATOM      7  H   UNL A   1      38.073  19.940  25.912  1.00  0.00     0.163 HD
BRANCH   6   8
ATOM      8  C   UNL A   1      40.017  22.486  26.851  1.00  0.00     0.039 A 
ATOM      9  C   UNL A   1      39.496  23.599  26.183  1.00  0.00     0.014 A 
ATOM     10  C   UNL A   1      40.982  22.660  27.847  1.00  0.00     0.014 A 
ATOM     11  C   UNL A   1      39.926  24.885  26.524  1.00  0.00     0.010 A 
ATOM     12  C   UNL A   1      41.375  23.946  28.220  1.00  0.00     0.010 A 
ATOM     13  C   UNL A   1      40.868  25.069  27.547  1.00  0.00    -0.014 A 
BRANCH  13  14
ATOM     14  C   UNL A   1      41.384  26.418  27.894  1.00  0.00     0.031 A 
ATOM     15  C   UNL A   1      42.804  26.783  27.549  1.00  0.00     0.074 A 
ATOM     16  C   UNL A   1      40.602  27.295  28.552  1.00  0.00     0.049 A 
ATOM     17  N   UNL A   1      43.479  27.855  27.869  1.00  0.00    -0.248 NA
ATOM     18  C   UNL A   1      43.570  25.810  26.749  1.00  0.00     0.031 C 
ATOM     19  C   UNL A   1      39.210  27.062  28.946  1.00  0.00     0.029 A 
ATOM     20  N   UNL A   1      40.871  28.558  29.018  1.00  0.00    -0.354 N 
ATOM     21  C   UNL A   1      44.754  27.673  27.345  1.00  0.00     0.074 A 
ATOM     22  C   UNL A   1      44.766  26.383  26.693  1.00  0.00     0.031 C 
ATOM     23  C   UNL A   1      38.747  28.151  29.584  1.00  0.00     0.029 A 
ATOM     24  C   UNL A   1      39.814  29.142  29.676  1.00  0.00     0.049 A 
ATOM     25  H   UNL A   1      41.741  29.003  28.894  1.00  0.00     0.167 HD
ATOM     26  C   UNL A   1      45.811  28.516  27.385  1.00  0.00     0.034 A 
ATOM     27  C   UNL A   1      39.718  30.339  30.287  1.00  0.00     0.034 A 
ATOM     28  C   UNL A   1      45.785  29.822  27.980  1.00  0.00     0.049 A 
ATOM     29  C   UNL A   1      40.908  31.258  30.303  1.00  0.00     0.074 A 
ATOM     30  C   UNL A   1      46.806  30.754  28.048  1.00  0.00     0.029 A 
ATOM     31  N   UNL A   1      44.678  30.392  28.587  1.00  0.00    -0.354 N 
ATOM     32  N   UNL A   1      42.092  31.081  29.769  1.00  0.00    -0.248 NA
ATOM     33  C   UNL A   1      40.745  32.552  30.985  1.00  0.00     0.031 C 
ATOM     34  C   UNL A   1      46.313  31.894  28.688  1.00  0.00     0.029 A 
ATOM     35  C   UNL A   1      44.986  31.673  29.011  1.00  0.00     0.049 A 
ATOM     36  H   UNL A   1      43.805  29.953  28.699  1.00  0.00     0.167 HD
ATOM     37  C   UNL A   1      42.797  32.254  30.009  1.00  0.00     0.074 A 
ATOM     38  C   UNL A   1      41.910  33.137  30.738  1.00  0.00     0.031 C 
ATOM     39  C   UNL A   1      44.068  32.566  29.664  1.00  0.00     0.034 A 
BRANCH  26  40
ATOM     40  C   UNL A   1      47.085  28.097  26.706  1.00  0.00     0.023 A 
ATOM     41  C   UNL A   1      48.106  27.509  27.477  1.00  0.00     0.012 A 
ATOM     42  C   UNL A   1      47.210  28.148  25.304  1.00  0.00     0.148 A 
ATOM     43  C   UNL A   1      49.237  26.974  26.862  1.00  0.00     0.002 A 
ATOM     44  C   UNL A   1      48.326  27.586  24.695  1.00  0.00     0.091 A 
ATOM     45  F   UNL A   1      46.224  28.716  24.597  1.00  0.00    -0.205 F 
ATOM     46  C   UNL A   1      49.340  27.000  25.473  1.00  0.00     0.022 A 
BRANCH  44  47
ATOM     47  S   UNL A   1      48.533  27.511  22.913  1.00  0.00     0.127 S 
ATOM     48  O   UNL A   1      49.848  28.127  22.742  1.00  0.00    -0.237 OA
ATOM     49  O   UNL A   1      48.494  26.072  22.661  1.00  0.00    -0.237 OA
ATOM     50  O   UNL A   1      47.425  28.269  22.346  1.00  0.00    -0.744 OA
ENDBRANCH  44  47
ENDBRANCH  26  40
BRANCH  27  51
ATOM     51  C   UNL A   1      38.417  30.778  30.863  1.00  0.00     0.023 A 
ATOM     52  C   UNL A   1      38.150  30.508  32.219  1.00  0.00     0.012 A 
ATOM     53  C   UNL A   1      37.463  31.475  30.098  1.00  0.00     0.148 A 
ATOM     54  C   UNL A   1      36.948  30.906  32.801  1.00  0.00     0.002 A 
ATOM     55  C   UNL A   1      36.282  31.904  30.693  1.00  0.00     0.091 A 
ATOM     56  F   UNL A   1      37.734  31.709  28.806  1.00  0.00    -0.205 F 
ATOM     57  C   UNL A   1      36.018  31.609  32.041  1.00  0.00     0.022 A 
BRANCH  55  58
ATOM     58  S   UNL A   1      35.064  32.897  29.825  1.00  0.00     0.127 S 
ATOM     59  O   UNL A   1      34.538  31.943  28.852  1.00  0.00    -0.237 OA
ATOM     60  O   UNL A   1      34.141  33.253  30.902  1.00  0.00    -0.237 OA
ATOM     61  O   UNL A   1      35.801  34.025  29.266  1.00  0.00    -0.744 OA
ENDBRANCH  55  58
ENDBRANCH  27  51
BRANCH  39  62
ATOM     62  C   UNL A   1      44.581  33.936  30.007  1.00  0.00     0.023 A 
ATOM     63  C   UNL A   1      45.338  34.125  31.177  1.00  0.00     0.012 A 
ATOM     64  C   UNL A   1      44.414  35.004  29.103  1.00  0.00     0.148 A 
ATOM     65  C   UNL A   1      45.916  35.363  31.450  1.00  0.00     0.002 A 
ATOM     66  C   UNL A   1      45.021  36.225  29.364  1.00  0.00     0.091 A 
ATOM     67  F   UNL A   1      43.677  34.799  28.002  1.00  0.00    -0.205 F 
ATOM     68  C   UNL A   1      45.769  36.408  30.539  1.00  0.00     0.022 A 
BRANCH  66  69
ATOM     69  S   UNL A   1      44.952  37.602  28.213  1.00  0.00     0.127 S 
ATOM     70  O   UNL A   1      45.542  37.015  27.011  1.00  0.00    -0.237 OA
ATOM     71  O   UNL A   1      43.515  37.861  28.123  1.00  0.00    -0.237 OA
ATOM     72  O   UNL A   1      45.723  38.678  28.824  1.00  0.00    -0.744 OA
ENDBRANCH  66  69
ENDBRANCH  39  62
ENDBRANCH  13  14
ENDBRANCH   6   8
ENDBRANCH   3   4
ENDBRANCH   2   3
ENDBRANCH   1   2
BRANCH   1  73
ATOM     73  C   UNL A   1      35.154  23.501  23.247  1.00  0.00     0.002 C 
BRANCH  73  74
ATOM     74  C   UNL A   1      34.599  24.857  23.696  1.00  0.00     0.021 C 
BRANCH  74  75
ATOM     75  C   UNL A   1      33.587  25.483  22.742  1.00  0.00     0.116 C 
BRANCH  75  76
ATOM     76  N   UNL A   1      33.725  26.921  22.657  1.00  0.00    -0.356 N 
ATOM     77  C   UNL A   1      33.678  27.866  23.636  1.00  0.00     0.223 C 
ATOM     78  H   UNL A   1      33.877  27.271  21.749  1.00  0.00     0.163 HD
ATOM     79  O   UNL A   1      33.982  29.014  23.311  1.00  0.00    -0.275 OA
BRANCH  77  80
ATOM     80  C   UNL A   1      33.275  27.489  25.073  1.00  0.00     0.091 C 
ATOM     81  C   UNL A   1      34.043  28.329  26.110  1.00  0.00     0.014 C 
ATOM     82  C   UNL A   1      31.759  27.592  25.303  1.00  0.00     0.091 C 
ATOM     83  C   UNL A   1      33.611  29.794  26.166  1.00  0.00     0.001 C 
ATOM     84  C   UNL A   1      31.331  29.081  25.274  1.00  0.00     0.014 C 
ATOM     85  C   UNL A   1      32.102  29.970  26.253  1.00  0.00     0.001 C 
BRANCH  82  86
ATOM     86  C   UNL A   1      31.239  26.914  26.591  1.00  0.00     0.228 C 
ATOM     87  O   UNL A   1      31.000  27.569  27.612  1.00  0.00    -0.274 OA
ATOM     88  N   UNL A   1      30.870  25.601  26.636  1.00  0.00    -0.326 N 
ATOM     89  H   UNL A   1      30.343  25.361  27.431  1.00  0.00     0.169 HD
BRANCH  88  90
ATOM     90  C   UNL A   1      31.099  24.534  25.769  1.00  0.00     0.042 A 
ATOM     91  C   UNL A   1      30.567  24.520  24.480  1.00  0.00     0.027 A 
ATOM     92  C   UNL A   1      32.028  23.561  26.142  1.00  0.00     0.047 A 
ATOM     93  C   UNL A   1      30.880  23.477  23.603  1.00  0.00     0.019 A 
ATOM     94  C   UNL A   1      32.332  22.506  25.273  1.00  0.00     0.057 A 
ATOM     95  C   UNL A   1      31.751  22.460  24.002  1.00  0.00     0.036 A 
ATOM     96  Cl  UNL A   1      33.412  21.291  25.851  1.00  0.00    -0.083 Cl
ATOM     97  Br  UNL A   1      32.099  21.067  22.761  1.00  0.00    -0.049 Br
ENDBRANCH  88  90
ENDBRANCH  82  86
ENDBRANCH  77  80
ENDBRANCH  75  76
ENDBRANCH  74  75
ENDBRANCH  73  74
ENDBRANCH   1  73
TORSDOF 18
ENDMDL
MODEL 2
REMARK VINA RESULT:     -11.7      5.224     10.345
REMARK SMILES O=C(NCCCCCCNC(=O)[C@H]1CCCC[C@@H]1C(=O)Nc1ccc(Br)c(Cl)c1)c1ccc(-c2c3nc(c(-c4cccc(S(=O)(=O)[O-])c4F)c4ccc([nH]4)c(-c4cccc(S(=O)(=O)[O-])c4F)c4nc(c(-c5cccc(S(=O)(=O)[O-])c5F)c5ccc2[nH]5)C=C4)C=C3)cc1
REMARK SMILES IDX 6 1 5 2 4 3 3 4 1 5 2 6 30 8 31 9 92 10 32 11 91 12 33 13
REMARK SMILES IDX 34 14 35 15 85 16 36 17 90 18 84 19 86 20 37 21 89 22 83 23
REMARK SMILES IDX 82 24 38 26 70 27 50 28 69 29 51 30 54 31 68 32 87 33 52 34
REMARK SMILES IDX 53 35 67 37 88 38 55 39 39 40 40 41 48 42 41 43 43 44 49 45
REMARK SMILES IDX 42 46 44 47 45 48 46 49 47 50 71 51 72 52 80 53 73 54 75 55
REMARK SMILES IDX 81 56 74 57 76 58 77 59 78 60 79 61 56 62 57 63 65 64 58 65
REMARK SMILES IDX 60 66 66 67 59 68 61 69 62 70 63 71 64 72 7 73 8 74 9 75
REMARK SMILES IDX 10 76 11 77 12 79 13 80 14 81 18 82 15 83 17 84 16 85 19 86
REMARK SMILES IDX 20 87 21 88 22 90 23 91 29 92 24 93 27 94 25 95 28 96 26 97
REMARK H PARENT 3 7 86 25 54 36 10 78 21 89
REMARK Flexibility Score: inf
ROOT
ATOM      1  C   UNL A   1      31.627  30.515  26.881  1.00  0.00     0.002 C 
ENDROOT
BRANCH   1   2
ATOM      2  C   UNL A   1      31.472  32.038  26.821  1.00  0.00     0.021 C 
BRANCH   2   3
ATOM      3  C   UNL A   1      32.776  32.833  26.868  1.00  0.00     0.116 C 
BRANCH   3   4
ATOM      4  N   UNL A   1      32.595  34.132  27.491  1.00  0.00    -0.352 N 
ATOM      5  O   UNL A   1      32.710  35.686  29.106  1.00  0.00    -0.269 OA
ATOM      6  C   UNL A   1      33.154  34.641  28.636  1.00  0.00     0.251 C 
ATOM      7  H   UNL A   1      31.978  34.739  27.022  1.00  0.00     0.163 HD
BRANCH   6   8
ATOM      8  C   UNL A   1      34.281  33.953  29.306  1.00  0.00     0.039 A 
ATOM      9  C   UNL A   1      35.586  34.359  29.008  1.00  0.00     0.014 A 
ATOM     10  C   UNL A   1      34.069  32.860  30.152  1.00  0.00     0.014 A 
ATOM     11  C   UNL A   1      36.676  33.685  29.567  1.00  0.00     0.010 A 
ATOM     12  C   UNL A   1      35.156  32.218  30.749  1.00  0.00     0.010 A 
ATOM     13  C   UNL A   1      36.468  32.610  30.444  1.00  0.00    -0.014 A 
BRANCH  13  14
ATOM     14  C   UNL A   1      37.605  31.841  31.010  1.00  0.00     0.031 A 
ATOM     15  C   UNL A   1      38.046  32.099  32.428  1.00  0.00     0.074 A 
ATOM     16  C   UNL A   1      38.269  30.950  30.248  1.00  0.00     0.049 A 
ATOM     17  N   UNL A   1      39.083  31.625  33.066  1.00  0.00    -0.248 NA
ATOM     18  C   UNL A   1      37.218  33.017  33.230  1.00  0.00     0.031 C 
ATOM     19  C   UNL A   1      37.944  30.613  28.861  1.00  0.00     0.029 A 
ATOM     20  N   UNL A   1      39.366  30.174  30.530  1.00  0.00    -0.354 N 
ATOM     21  C   UNL A   1      39.056  32.213  34.326  1.00  0.00     0.074 A 
ATOM     22  C   UNL A   1      37.904  33.086  34.364  1.00  0.00     0.031 C 
ATOM     23  C   UNL A   1      38.816  29.689  28.418  1.00  0.00     0.029 A 
ATOM     24  C   UNL A   1      39.780  29.397  29.474  1.00  0.00     0.049 A 
ATOM     25  H   UNL A   1      39.814  30.175  31.407  1.00  0.00     0.167 HD
ATOM     26  C   UNL A   1      39.901  32.022  35.365  1.00  0.00     0.034 A 
ATOM     27  C   UNL A   1      40.821  28.548  29.369  1.00  0.00     0.034 A 
ATOM     28  C   UNL A   1      41.010  31.111  35.351  1.00  0.00     0.049 A 
ATOM     29  C   UNL A   1      41.735  28.350  30.546  1.00  0.00     0.074 A 
ATOM     30  C   UNL A   1      41.909  30.838  36.368  1.00  0.00     0.029 A 
ATOM     31  N   UNL A   1      41.360  30.306  34.279  1.00  0.00    -0.354 N 
ATOM     32  N   UNL A   1      41.668  28.887  31.739  1.00  0.00    -0.248 NA
ATOM     33  C   UNL A   1      42.855  27.411  30.372  1.00  0.00     0.031 C 
ATOM     34  C   UNL A   1      42.797  29.860  35.915  1.00  0.00     0.029 A 
ATOM     35  C   UNL A   1      42.446  29.520  34.620  1.00  0.00     0.049 A 
ATOM     36  H   UNL A   1      40.903  30.296  33.408  1.00  0.00     0.167 HD
ATOM     37  C   UNL A   1      42.704  28.320  32.471  1.00  0.00     0.074 A 
ATOM     38  C   UNL A   1      43.387  27.396  31.588  1.00  0.00     0.031 C 
ATOM     39  C   UNL A   1      43.063  28.551  33.755  1.00  0.00     0.034 A 
BRANCH  26  40
ATOM     40  C   UNL A   1      39.633  32.757  36.649  1.00  0.00     0.023 A 
ATOM     41  C   UNL A   1      40.245  34.008  36.857  1.00  0.00     0.012 A 
ATOM     42  C   UNL A   1      38.675  32.287  37.567  1.00  0.00     0.148 A 
ATOM     43  C   UNL A   1      39.905  34.786  37.963  1.00  0.00     0.002 A 
ATOM     44  C   UNL A   1      38.319  33.080  38.652  1.00  0.00     0.091 A 
ATOM     45  F   UNL A   1      38.112  31.091  37.344  1.00  0.00    -0.205 F 
ATOM     46  C   UNL A   1      38.935  34.328  38.851  1.00  0.00     0.022 A 
BRANCH  44  47
ATOM     47  S   UNL A   1      37.040  32.615  39.823  1.00  0.00     0.127 S 
ATOM     48  O   UNL A   1      35.872  32.487  38.952  1.00  0.00    -0.237 OA
ATOM     49  O   UNL A   1      37.552  31.351  40.348  1.00  0.00    -0.237 OA
ATOM     50  O   UNL A   1      36.964  33.702  40.791  1.00  0.00    -0.744 OA
ENDBRANCH  44  47
ENDBRANCH  26  40
BRANCH  27  51
ATOM     51  C   UNL A   1      41.008  27.751  28.125  1.00  0.00     0.023 A 
ATOM     52  C   UNL A   1      41.541  28.387  26.986  1.00  0.00     0.012 A 
ATOM     53  C   UNL A   1      40.693  26.381  28.065  1.00  0.00     0.148 A 
ATOM     54  C   UNL A   1      41.738  27.678  25.802  1.00  0.00     0.002 A 
ATOM     55  C   UNL A   1      40.927  25.670  26.894  1.00  0.00     0.091 A 
ATOM     56  F   UNL A   1      40.175  25.802  29.157  1.00  0.00    -0.205 F 
ATOM     57  C   UNL A   1      41.439  26.320  25.758  1.00  0.00     0.022 A 
BRANCH  55  58
ATOM     58  S   UNL A   1      40.664  23.899  26.766  1.00  0.00     0.127 S 
ATOM     59  O   UNL A   1      41.090  23.437  28.083  1.00  0.00    -0.237 OA
ATOM     60  O   UNL A   1      39.224  23.824  26.521  1.00  0.00    -0.237 OA
ATOM     61  O   UNL A   1      41.488  23.457  25.647  1.00  0.00    -0.744 OA
ENDBRANCH  55  58
ENDBRANCH  27  51
BRANCH  39  62
ATOM     62  C   UNL A   1      44.207  27.762  34.327  1.00  0.00     0.023 A 
ATOM     63  C   UNL A   1      45.510  28.290  34.282  1.00  0.00     0.012 A 
ATOM     64  C   UNL A   1      43.965  26.557  35.016  1.00  0.00     0.148 A 
ATOM     65  C   UNL A   1      46.562  27.624  34.907  1.00  0.00     0.002 A 
ATOM     66  C   UNL A   1      45.011  25.917  35.666  1.00  0.00     0.091 A 
ATOM     67  F   UNL A   1      42.715  26.071  35.033  1.00  0.00    -0.205 F 
ATOM     68  C   UNL A   1      46.311  26.446  35.609  1.00  0.00     0.022 A 
BRANCH  66  69
ATOM     69  S   UNL A   1      44.770  24.440  36.659  1.00  0.00     0.127 S 
ATOM     70  O   UNL A   1      44.023  23.583  35.740  1.00  0.00    -0.237 OA
ATOM     71  O   UNL A   1      46.145  24.008  36.914  1.00  0.00    -0.237 OA
ATOM     72  O   UNL A   1      44.039  24.865  37.846  1.00  0.00    -0.744 OA
ENDBRANCH  66  69
ENDBRANCH  39  62
ENDBRANCH  13  14
ENDBRANCH   6   8
ENDBRANCH   3   4
ENDBRANCH   2   3
ENDBRANCH   1   2
BRANCH   1  73
ATOM     73  C   UNL A   1      33.025  30.009  27.246  1.00  0.00     0.002 C 
BRANCH  73  74
ATOM     74  C   UNL A   1      33.155  28.490  27.396  1.00  0.00     0.021 C 
BRANCH  74  75
ATOM     75  C   UNL A   1      33.992  27.808  26.318  1.00  0.00     0.116 C 
BRANCH  75  76
ATOM     76  N   UNL A   1      33.368  27.869  25.014  1.00  0.00    -0.356 N 
ATOM     77  C   UNL A   1      32.236  27.268  24.555  1.00  0.00     0.223 C 
ATOM     78  H   UNL A   1      33.835  28.434  24.356  1.00  0.00     0.163 HD
ATOM     79  O   UNL A   1      31.840  27.615  23.441  1.00  0.00    -0.275 OA
BRANCH  77  80
ATOM     80  C   UNL A   1      31.499  26.223  25.410  1.00  0.00     0.091 C 
ATOM     81  C   UNL A   1      30.035  26.062  24.961  1.00  0.00     0.014 C 
ATOM     82  C   UNL A   1      32.217  24.864  25.422  1.00  0.00     0.091 C 
ATOM     83  C   UNL A   1      29.871  25.360  23.613  1.00  0.00     0.001 C 
ATOM     84  C   UNL A   1      32.108  24.207  24.023  1.00  0.00     0.014 C 
ATOM     85  C   UNL A   1      30.673  24.071  23.509  1.00  0.00     0.001 C 
BRANCH  82  86
ATOM     86  C   UNL A   1      31.742  23.876  26.512  1.00  0.00     0.228 C 
ATOM     87  O   UNL A   1      30.751  24.116  27.211  1.00  0.00    -0.274 OA
ATOM     88  N   UNL A   1      32.279  22.630  26.664  1.00  0.00    -0.326 N 
ATOM     89  H   UNL A   1      31.738  22.027  27.222  1.00  0.00     0.169 HD
BRANCH  88  90
ATOM     90  C   UNL A   1      33.450  22.052  26.179  1.00  0.00     0.042 A 
ATOM     91  C   UNL A   1      34.698  22.621  26.431  1.00  0.00     0.027 A 
ATOM     92  C   UNL A   1      33.375  20.787  25.593  1.00  0.00     0.047 A 
ATOM     93  C   UNL A   1      35.863  21.977  26.002  1.00  0.00     0.019 A 
ATOM     94  C   UNL A   1      34.537  20.145  25.148  1.00  0.00     0.057 A 
ATOM     95  C   UNL A   1      35.785  20.744  25.347  1.00  0.00     0.036 A 
ATOM     96  Cl  UNL A   1      34.346  18.630  24.344  1.00  0.00    -0.083 Cl
ATOM     97  Br  UNL A   1      37.410  19.952  24.773  1.00  0.00    -0.049 Br
ENDBRANCH  88  90
ENDBRANCH  82  86
ENDBRANCH  77  80
ENDBRANCH  75  76
ENDBRANCH  74  75
ENDBRANCH  73  74
ENDBRANCH   1  73
TORSDOF 18
ENDMDL
MODEL 3
REMARK VINA RESULT:     -11.7      1.783      7.650
REMARK SMILES O=C(NCCCCCCNC(=O)[C@H]1CCCC[C@@H]1C(=O)Nc1ccc(Br)c(Cl)c1)c1ccc(-c2c3nc(c(-c4cccc(S(=O)(=O)[O-])c4F)c4ccc([nH]4)c(-c4cccc(S(=O)(=O)[O-])c4F)c4nc(c(-c5cccc(S(=O)(=O)[O-])c5F)c5ccc2[nH]5)C=C4)C=C3)cc1
REMARK SMILES IDX 6 1 5 2 4 3 3 4 1 5 2 6 30 8 31 9 92 10 32 11 91 12 33 13
REMARK SMILES IDX 34 14 35 15 85 16 36 17 90 18 84 19 86 20 37 21 89 22 83 23
REMARK SMILES IDX 82 24 38 26 70 27 50 28 69 29 51 30 54 31 68 32 87 33 52 34
REMARK SMILES IDX 53 35 67 37 88 38 55 39 39 40 40 41 48 42 41 43 43 44 49 45
REMARK SMILES IDX 42 46 44 47 45 48 46 49 47 50 71 51 72 52 80 53 73 54 75 55
REMARK SMILES IDX 81 56 74 57 76 58 77 59 78 60 79 61 56 62 57 63 65 64 58 65
REMARK SMILES IDX 60 66 66 67 59 68 61 69 62 70 63 71 64 72 7 73 8 74 9 75
REMARK SMILES IDX 10 76 11 77 12 79 13 80 14 81 18 82 15 83 17 84 16 85 19 86
REMARK SMILES IDX 20 87 21 88 22 90 23 91 29 92 24 93 27 94 25 95 28 96 26 97
REMARK H PARENT 3 7 86 25 54 36 10 78 21 89
REMARK Flexibility Score: inf
ROOT
ATOM      1  C   UNL A   1      35.603  23.057  23.902  1.00  0.00     0.002 C 
ENDROOT
BRANCH   1   2
ATOM      2  C   UNL A   1      36.490  21.822  24.088  1.00  0.00     0.021 C 
BRANCH   2   3
ATOM      3  C   UNL A   1      36.737  21.403  25.536  1.00  0.00     0.116 C 
BRANCH   3   4
ATOM      4  N   UNL A   1      37.750  20.367  25.635  1.00  0.00    -0.352 N 
ATOM      5  O   UNL A   1      39.815  19.495  25.734  1.00  0.00    -0.269 OA
ATOM      6  C   UNL A   1      39.091  20.474  25.901  1.00  0.00     0.251 C 
ATOM      7  H   UNL A   1      37.425  19.450  25.487  1.00  0.00     0.163 HD
BRANCH   6   8
ATOM      8  C   UNL A   1      39.674  21.745  26.390  1.00  0.00     0.039 A 
ATOM      9  C   UNL A   1      39.210  22.947  25.844  1.00  0.00     0.014 A 
ATOM     10  C   UNL A   1      40.728  21.759  27.308  1.00  0.00     0.014 A 
ATOM     11  C   UNL A   1      39.787  24.160  26.230  1.00  0.00     0.010 A 
ATOM     12  C   UNL A   1      41.270  22.974  27.730  1.00  0.00     0.010 A 
ATOM     13  C   UNL A   1      40.820  24.183  27.178  1.00  0.00    -0.014 A 
BRANCH  13  14
ATOM     14  C   UNL A   1      41.489  25.451  27.566  1.00  0.00     0.031 A 
ATOM     15  C   UNL A   1      40.719  26.493  28.336  1.00  0.00     0.074 A 
ATOM     16  C   UNL A   1      42.762  25.689  27.194  1.00  0.00     0.049 A 
ATOM     17  N   UNL A   1      41.079  27.706  28.663  1.00  0.00    -0.248 NA
ATOM     18  C   UNL A   1      39.365  26.127  28.788  1.00  0.00     0.031 C 
ATOM     19  C   UNL A   1      43.613  24.764  26.443  1.00  0.00     0.029 A 
ATOM     20  N   UNL A   1      43.557  26.791  27.385  1.00  0.00    -0.354 N 
ATOM     21  C   UNL A   1      39.988  28.261  29.324  1.00  0.00     0.074 A 
ATOM     22  C   UNL A   1      38.948  27.257  29.345  1.00  0.00     0.031 C 
ATOM     23  C   UNL A   1      44.816  25.333  26.250  1.00  0.00     0.029 A 
ATOM     24  C   UNL A   1      44.809  26.673  26.828  1.00  0.00     0.049 A 
ATOM     25  H   UNL A   1      43.259  27.592  27.876  1.00  0.00     0.167 HD
ATOM     26  C   UNL A   1      39.874  29.487  29.882  1.00  0.00     0.034 A 
ATOM     27  C   UNL A   1      45.833  27.548  26.786  1.00  0.00     0.034 A 
ATOM     28  C   UNL A   1      40.925  30.464  29.915  1.00  0.00     0.049 A 
ATOM     29  C   UNL A   1      45.678  28.900  27.426  1.00  0.00     0.074 A 
ATOM     30  C   UNL A   1      40.904  31.728  30.480  1.00  0.00     0.029 A 
ATOM     31  N   UNL A   1      42.191  30.281  29.385  1.00  0.00    -0.354 N 
ATOM     32  N   UNL A   1      44.652  29.388  28.078  1.00  0.00    -0.248 NA
ATOM     33  C   UNL A   1      46.829  29.813  27.348  1.00  0.00     0.031 C 
ATOM     34  C   UNL A   1      42.162  32.307  30.300  1.00  0.00     0.029 A 
ATOM     35  C   UNL A   1      42.966  31.400  29.631  1.00  0.00     0.049 A 
ATOM     36  H   UNL A   1      42.494  29.476  28.907  1.00  0.00     0.167 HD
ATOM     37  C   UNL A   1      45.047  30.643  28.525  1.00  0.00     0.074 A 
ATOM     38  C   UNL A   1      46.408  30.843  28.071  1.00  0.00     0.031 C 
ATOM     39  C   UNL A   1      44.342  31.551  29.240  1.00  0.00     0.034 A 
BRANCH  26  40
ATOM     40  C   UNL A   1      38.588  29.840  30.577  1.00  0.00     0.023 A 
ATOM     41  C   UNL A   1      38.402  29.433  31.913  1.00  0.00     0.012 A 
ATOM     42  C   UNL A   1      37.643  30.688  29.968  1.00  0.00     0.148 A 
ATOM     43  C   UNL A   1      37.293  29.867  32.636  1.00  0.00     0.002 A 
ATOM     44  C   UNL A   1      36.555  31.141  30.704  1.00  0.00     0.091 A 
ATOM     45  F   UNL A   1      37.845  31.056  28.695  1.00  0.00    -0.205 F 
ATOM     46  C   UNL A   1      36.378  30.730  32.037  1.00  0.00     0.022 A 
BRANCH  44  47
ATOM     47  S   UNL A   1      35.349  32.301  30.052  1.00  0.00     0.127 S 
ATOM     48  O   UNL A   1      34.420  32.426  31.175  1.00  0.00    -0.237 OA
ATOM     49  O   UNL A   1      36.168  33.485  29.802  1.00  0.00    -0.237 OA
ATOM     50  O   UNL A   1      34.789  31.674  28.862  1.00  0.00    -0.744 OA
ENDBRANCH  44  47
ENDBRANCH  26  40
BRANCH  27  51
ATOM     51  C   UNL A   1      47.134  27.142  26.184  1.00  0.00     0.023 A 
ATOM     52  C   UNL A   1      47.371  27.429  24.825  1.00  0.00     0.012 A 
ATOM     53  C   UNL A   1      48.136  26.507  26.940  1.00  0.00     0.148 A 
ATOM     54  C   UNL A   1      48.576  27.072  24.222  1.00  0.00     0.002 A 
ATOM     55  C   UNL A   1      49.351  26.188  26.344  1.00  0.00     0.091 A 
ATOM     56  F   UNL A   1      47.882  26.233  28.227  1.00  0.00    -0.205 F 
ATOM     57  C   UNL A   1      49.568  26.459  24.983  1.00  0.00     0.022 A 
BRANCH  55  58
ATOM     58  S   UNL A   1      50.725  25.482  27.260  1.00  0.00     0.127 S 
ATOM     59  O   UNL A   1      50.965  26.506  28.273  1.00  0.00    -0.237 OA
ATOM     60  O   UNL A   1      50.145  24.238  27.765  1.00  0.00    -0.237 OA
ATOM     61  O   UNL A   1      51.795  25.297  26.287  1.00  0.00    -0.744 OA
ENDBRANCH  55  58
ENDBRANCH  27  51
BRANCH  39  62
ATOM     62  C   UNL A   1      45.026  32.827  29.640  1.00  0.00     0.023 A 
ATOM     63  C   UNL A   1      45.856  32.846  30.777  1.00  0.00     0.012 A 
ATOM     64  C   UNL A   1      44.942  33.968  28.818  1.00  0.00     0.148 A 
ATOM     65  C   UNL A   1      46.586  33.989  31.096  1.00  0.00     0.002 A 
ATOM     66  C   UNL A   1      45.699  35.090  29.123  1.00  0.00     0.091 A 
ATOM     67  F   UNL A   1      44.135  33.925  27.748  1.00  0.00    -0.205 F 
ATOM     68  C   UNL A   1      46.519  35.105  30.263  1.00  0.00     0.022 A 
BRANCH  66  69
ATOM     69  S   UNL A   1      45.736  36.544  28.068  1.00  0.00     0.127 S 
ATOM     70  O   UNL A   1      46.514  36.063  26.927  1.00  0.00    -0.237 OA
ATOM     71  O   UNL A   1      44.316  36.763  27.789  1.00  0.00    -0.237 OA
ATOM     72  O   UNL A   1      46.368  37.597  28.853  1.00  0.00    -0.744 OA
ENDBRANCH  66  69
ENDBRANCH  39  62
ENDBRANCH  13  14
ENDBRANCH   6   8
ENDBRANCH   3   4
ENDBRANCH   2   3
ENDBRANCH   1   2
BRANCH   1  73
ATOM     73  C   UNL A   1      35.710  24.116  25.003  1.00  0.00     0.002 C 
BRANCH  73  74
ATOM     74  C   UNL A   1      34.504  25.053  25.131  1.00  0.00     0.021 C 
BRANCH  74  75
ATOM     75  C   UNL A   1      33.888  25.490  23.805  1.00  0.00     0.116 C 
BRANCH  75  76
ATOM     76  N   UNL A   1      34.011  26.915  23.583  1.00  0.00    -0.356 N 
ATOM     77  C   UNL A   1      33.157  27.928  23.896  1.00  0.00     0.223 C 
ATOM     78  H   UNL A   1      34.843  27.196  23.136  1.00  0.00     0.163 HD
ATOM     79  O   UNL A   1      33.578  29.074  23.734  1.00  0.00    -0.275 OA
BRANCH  77  80
ATOM     80  C   UNL A   1      31.748  27.629  24.436  1.00  0.00     0.091 C 
ATOM     81  C   UNL A   1      31.289  28.707  25.436  1.00  0.00     0.014 C 
ATOM     82  C   UNL A   1      30.714  27.453  23.312  1.00  0.00     0.091 C 
ATOM     83  C   UNL A   1      30.968  30.055  24.791  1.00  0.00     0.001 C 
ATOM     84  C   UNL A   1      30.465  28.817  22.620  1.00  0.00     0.014 C 
ATOM     85  C   UNL A   1      30.055  29.937  23.579  1.00  0.00     0.001 C 
BRANCH  82  86
ATOM     86  C   UNL A   1      29.371  26.822  23.744  1.00  0.00     0.228 C 
ATOM     87  O   UNL A   1      28.294  27.387  23.523  1.00  0.00    -0.274 OA
ATOM     88  N   UNL A   1      29.278  25.556  24.246  1.00  0.00    -0.326 N 
ATOM     89  H   UNL A   1      28.362  25.196  24.256  1.00  0.00     0.169 HD
BRANCH  88  90
ATOM     90  C   UNL A   1      30.235  24.678  24.750  1.00  0.00     0.042 A 
ATOM     91  C   UNL A   1      30.542  24.641  26.110  1.00  0.00     0.027 A 
ATOM     92  C   UNL A   1      30.752  23.699  23.900  1.00  0.00     0.047 A 
ATOM     93  C   UNL A   1      31.447  23.695  26.600  1.00  0.00     0.019 A 
ATOM     94  C   UNL A   1      31.671  22.759  24.383  1.00  0.00     0.057 A 
ATOM     95  C   UNL A   1      32.025  22.761  25.736  1.00  0.00     0.036 A 
ATOM     96  Cl  UNL A   1      32.339  21.647  23.244  1.00  0.00    -0.083 Cl
ATOM     97  Br  UNL A   1      33.264  21.531  26.478  1.00  0.00    -0.049 Br
ENDBRANCH  88  90
ENDBRANCH  82  86
ENDBRANCH  77  80
ENDBRANCH  75  76
ENDBRANCH  74  75
ENDBRANCH  73  74
ENDBRANCH   1  73
TORSDOF 18
ENDMDL
