MODEL 1
REMARK VINA RESULT:     -11.5      0.000      0.000
REMARK SMILES CCc1ccc(S(=O)(=O)N2CCC3(CC2)NC(=O)C[C@H]3C(=O)NCCCCCCNC(=O)c2ccc(-c3c4nc(c(-c5cccc(S(=O)(=O)[O-])c5F)c5ccc([nH]5)c(-c5cccc(S(=O)(=O)[O-])c5F)c5nc(c(-c6cccc(S(=O)(=O)[O-])c6F)c6ccc3[nH]6)C=C5)C=C4)cc2)s1
REMARK SMILES IDX 26 1 25 2 24 3 23 4 21 5 22 6 20 8 10 9 11 10 15 11 12 12
REMARK SMILES IDX 14 13 13 14 16 15 17 16 19 18 18 19 7 20 8 21 9 22 6 23 3 24
REMARK SMILES IDX 4 25 96 26 5 27 2 28 1 29 27 30 28 31 29 32 30 33 31 34
REMARK SMILES IDX 32 36 33 37 34 38 95 39 35 40 94 41 36 42 37 43 38 44 88 45
REMARK SMILES IDX 39 46 93 47 87 48 89 49 40 50 92 51 86 52 85 53 41 55 73 56
REMARK SMILES IDX 53 57 72 58 54 59 57 60 71 61 90 62 55 63 56 64 70 66 91 67
REMARK SMILES IDX 58 68 42 69 43 70 51 71 44 72 46 73 52 74 45 75 47 76 48 77
REMARK SMILES IDX 49 78 50 79 74 80 75 81 83 82 76 83 78 84 84 85 77 86 79 87
REMARK SMILES IDX 80 88 81 89 82 90 59 91 60 92 68 93 61 94 63 95 69 96 62 97
REMARK SMILES IDX 64 98 65 99 66 100 67 101
REMARK H PARENT 23 7 16 17 30 35 89 54 57 65
REMARK Flexibility Score: inf
ROOT
ATOM      1  C   UNL A   1      39.798  21.888  26.711  1.00  0.00     0.002 C 
ENDROOT
BRANCH   1   2
ATOM      2  C   UNL A   1      39.679  23.344  27.157  1.00  0.00     0.021 C 
BRANCH   2   3
ATOM      3  C   UNL A   1      38.429  24.068  26.644  1.00  0.00     0.116 C 
BRANCH   3   4
ATOM      4  N   UNL A   1      38.046  23.675  25.294  1.00  0.00    -0.356 N 
ATOM      5  C   UNL A   1      36.922  23.170  24.722  1.00  0.00     0.226 C 
ATOM      6  O   UNL A   1      36.989  22.943  23.507  1.00  0.00    -0.275 OA
ATOM      7  H   UNL A   1      38.773  23.805  24.643  1.00  0.00     0.163 HD
BRANCH   5   8
ATOM      8  C   UNL A   1      35.598  22.866  25.439  1.00  0.00     0.113 C 
ATOM      9  N   UNL A   1      32.573  25.538  24.568  1.00  0.00    -0.197 NA
ATOM     10  C   UNL A   1      32.574  24.839  25.850  1.00  0.00     0.105 C 
ATOM     11  C   UNL A   1      33.893  25.619  23.961  1.00  0.00     0.105 C 
ATOM     12  C   UNL A   1      33.080  23.407  25.706  1.00  0.00     0.046 C 
ATOM     13  C   UNL A   1      34.381  24.229  23.598  1.00  0.00     0.046 C 
ATOM     14  C   UNL A   1      34.264  23.144  24.706  1.00  0.00     0.055 C 
ATOM     15  N   UNL A   1      34.014  21.807  24.160  1.00  0.00    -0.350 N 
ATOM     16  C   UNL A   1      34.604  20.787  24.870  1.00  0.00     0.221 C 
ATOM     17  H   UNL A   1      33.469  21.651  23.355  1.00  0.00     0.164 HD
ATOM     18  C   UNL A   1      35.545  21.389  25.865  1.00  0.00     0.116 C 
ATOM     19  O   UNL A   1      34.393  19.604  24.685  1.00  0.00    -0.275 OA
BRANCH   9  20
ATOM     20  S   UNL A   1      31.160  25.869  23.681  1.00  0.00     0.252 S 
ATOM     21  O   UNL A   1      30.069  25.197  24.333  1.00  0.00    -0.206 OA
ATOM     22  O   UNL A   1      31.471  25.664  22.278  1.00  0.00    -0.206 OA
BRANCH  20  23
ATOM     23  C   UNL A   1      30.776  27.610  23.810  1.00  0.00     0.135 A 
ATOM     24  C   UNL A   1      29.776  29.854  23.452  1.00  0.00     0.006 A 
ATOM     25  C   UNL A   1      30.685  29.854  24.485  1.00  0.00     0.017 A 
ATOM     26  S   UNL A   1      29.604  28.285  22.757  1.00  0.00    -0.127 S 
ATOM     27  C   UNL A   1      31.278  28.589  24.632  1.00  0.00     0.034 A 
BRANCH  24  28
ATOM     28  C   UNL A   1      29.037  31.055  22.950  1.00  0.00     0.043 C 
ATOM     29  C   UNL A   1      27.714  31.264  23.662  1.00  0.00     0.010 C 
ENDBRANCH  24  28
ENDBRANCH  20  23
ENDBRANCH   9  20
ENDBRANCH   5   8
ENDBRANCH   3   4
ENDBRANCH   2   3
ENDBRANCH   1   2
BRANCH   1  30
ATOM     30  C   UNL A   1      41.231  21.359  26.642  1.00  0.00     0.002 C 
BRANCH  30  31
ATOM     31  C   UNL A   1      41.373  19.943  26.072  1.00  0.00     0.021 C 
BRANCH  31  32
ATOM     32  C   UNL A   1      42.683  19.239  26.421  1.00  0.00     0.116 C 
BRANCH  32  33
ATOM     33  N   UNL A   1      43.543  19.095  25.259  1.00  0.00    -0.352 N 
ATOM     34  C   UNL A   1      44.220  20.047  24.543  1.00  0.00     0.251 C 
ATOM     35  H   UNL A   1      43.656  18.172  24.935  1.00  0.00     0.163 HD
ATOM     36  O   UNL A   1      44.690  19.755  23.446  1.00  0.00    -0.269 OA
BRANCH  34  37
ATOM     37  C   UNL A   1      44.387  21.415  25.080  1.00  0.00     0.039 A 
ATOM     38  C   UNL A   1      44.910  21.568  26.367  1.00  0.00     0.014 A 
ATOM     39  C   UNL A   1      43.986  22.539  24.350  1.00  0.00     0.014 A 
ATOM     40  C   UNL A   1      45.059  22.846  26.907  1.00  0.00     0.010 A 
ATOM     41  C   UNL A   1      44.202  23.817  24.863  1.00  0.00     0.010 A 
ATOM     42  C   UNL A   1      44.725  23.984  26.152  1.00  0.00    -0.014 A 
BRANCH  42  43
ATOM     43  C   UNL A   1      44.939  25.344  26.713  1.00  0.00     0.031 A 
ATOM     44  C   UNL A   1      46.307  25.971  26.723  1.00  0.00     0.074 A 
ATOM     45  C   UNL A   1      43.895  26.003  27.249  1.00  0.00     0.049 A 
ATOM     46  N   UNL A   1      46.659  27.169  27.114  1.00  0.00    -0.248 NA
ATOM     47  C   UNL A   1      47.431  25.141  26.259  1.00  0.00     0.031 C 
ATOM     48  C   UNL A   1      42.540  25.464  27.391  1.00  0.00     0.029 A 
ATOM     49  N   UNL A   1      43.807  27.264  27.783  1.00  0.00    -0.354 N 
ATOM     50  C   UNL A   1      48.039  27.232  26.963  1.00  0.00     0.074 A 
ATOM     51  C   UNL A   1      48.468  25.935  26.486  1.00  0.00     0.031 C 
ATOM     52  C   UNL A   1      41.754  26.394  27.956  1.00  0.00     0.029 A 
ATOM     53  C   UNL A   1      42.548  27.586  28.231  1.00  0.00     0.049 A 
ATOM     54  H   UNL A   1      44.574  27.878  27.840  1.00  0.00     0.167 HD
ATOM     55  C   UNL A   1      48.871  28.282  27.171  1.00  0.00     0.034 A 
ATOM     56  C   UNL A   1      42.082  28.720  28.791  1.00  0.00     0.034 A 
ATOM     57  C   UNL A   1      48.436  29.579  27.615  1.00  0.00     0.049 A 
ATOM     58  C   UNL A   1      43.010  29.893  28.942  1.00  0.00     0.074 A 
ATOM     59  C   UNL A   1      49.186  30.731  27.781  1.00  0.00     0.029 A 
ATOM     60  N   UNL A   1      47.135  29.899  27.972  1.00  0.00    -0.354 N 
ATOM     61  N   UNL A   1      44.280  29.986  28.632  1.00  0.00    -0.248 NA
ATOM     62  C   UNL A   1      42.427  31.133  29.474  1.00  0.00     0.031 C 
ATOM     63  C   UNL A   1      48.342  31.739  28.257  1.00  0.00     0.029 A 
ATOM     64  C   UNL A   1      47.060  31.226  28.360  1.00  0.00     0.049 A 
ATOM     65  H   UNL A   1      46.375  29.273  27.953  1.00  0.00     0.167 HD
ATOM     66  C   UNL A   1      44.642  31.301  28.899  1.00  0.00     0.074 A 
ATOM     67  C   UNL A   1      43.447  31.975  29.367  1.00  0.00     0.031 C 
ATOM     68  C   UNL A   1      45.856  31.895  28.785  1.00  0.00     0.034 A 
BRANCH  55  69
ATOM     69  C   UNL A   1      50.334  28.085  26.861  1.00  0.00     0.023 A 
ATOM     70  C   UNL A   1      51.226  27.761  27.904  1.00  0.00     0.012 A 
ATOM     71  C   UNL A   1      50.819  28.163  25.540  1.00  0.00     0.148 A 
ATOM     72  C   UNL A   1      52.581  27.554  27.645  1.00  0.00     0.002 A 
ATOM     73  C   UNL A   1      52.161  27.910  25.283  1.00  0.00     0.091 A 
ATOM     74  F   UNL A   1      49.962  28.493  24.563  1.00  0.00    -0.205 F 
ATOM     75  C   UNL A   1      53.045  27.617  26.335  1.00  0.00     0.022 A 
BRANCH  73  76
ATOM     76  S   UNL A   1      52.843  27.888  23.622  1.00  0.00     0.127 S 
ATOM     77  O   UNL A   1      54.128  27.224  23.840  1.00  0.00    -0.237 OA
ATOM     78  O   UNL A   1      51.859  27.086  22.894  1.00  0.00    -0.237 OA
ATOM     79  O   UNL A   1      52.923  29.280  23.202  1.00  0.00    -0.744 OA
ENDBRANCH  73  76
ENDBRANCH  55  69
BRANCH  56  80
ATOM     80  C   UNL A   1      40.645  28.821  29.169  1.00  0.00     0.023 A 
ATOM     81  C   UNL A   1      39.667  28.945  28.162  1.00  0.00     0.012 A 
ATOM     82  C   UNL A   1      40.239  28.757  30.515  1.00  0.00     0.148 A 
ATOM     83  C   UNL A   1      38.315  29.039  28.492  1.00  0.00     0.002 A 
ATOM     84  C   UNL A   1      38.886  28.792  30.834  1.00  0.00     0.091 A 
ATOM     85  F   UNL A   1      41.185  28.650  31.459  1.00  0.00    -0.205 F 
ATOM     86  C   UNL A   1      37.924  28.951  29.824  1.00  0.00     0.022 A 
BRANCH  84  87
ATOM     87  S   UNL A   1      38.288  28.544  32.508  1.00  0.00     0.127 S 
ATOM     88  O   UNL A   1      36.954  29.135  32.440  1.00  0.00    -0.237 OA
ATOM     89  O   UNL A   1      38.312  27.085  32.625  1.00  0.00    -0.237 OA
ATOM     90  O   UNL A   1      39.243  29.228  33.371  1.00  0.00    -0.744 OA
ENDBRANCH  84  87
ENDBRANCH  56  80
BRANCH  68  91
ATOM     91  C   UNL A   1      45.947  33.355  29.147  1.00  0.00     0.023 A 
ATOM     92  C   UNL A   1      46.395  33.736  30.427  1.00  0.00     0.012 A 
ATOM     93  C   UNL A   1      45.621  34.353  28.205  1.00  0.00     0.148 A 
ATOM     94  C   UNL A   1      46.470  35.082  30.783  1.00  0.00     0.002 A 
ATOM     95  C   UNL A   1      45.747  35.694  28.550  1.00  0.00     0.091 A 
ATOM     96  F   UNL A   1      45.177  33.975  26.998  1.00  0.00    -0.205 F 
ATOM     97  C   UNL A   1      46.155  36.060  29.842  1.00  0.00     0.022 A 
BRANCH  95  98
ATOM     98  S   UNL A   1      45.454  37.013  27.368  1.00  0.00     0.127 S 
ATOM     99  O   UNL A   1      44.062  36.775  26.993  1.00  0.00    -0.237 OA
ATOM    100  O   UNL A   1      45.671  38.213  28.177  1.00  0.00    -0.237 OA
ATOM    101  O   UNL A   1      46.436  36.821  26.309  1.00  0.00    -0.744 OA
ENDBRANCH  95  98
ENDBRANCH  68  91
ENDBRANCH  42  43
ENDBRANCH  34  37
ENDBRANCH  32  33
ENDBRANCH  31  32
ENDBRANCH  30  31
ENDBRANCH   1  30
TORSDOF 19
ENDMDL
MODEL 2
REMARK VINA RESULT:     -11.4      1.180      7.565
REMARK SMILES CCc1ccc(S(=O)(=O)N2CCC3(CC2)NC(=O)C[C@H]3C(=O)NCCCCCCNC(=O)c2ccc(-c3c4nc(c(-c5cccc(S(=O)(=O)[O-])c5F)c5ccc([nH]5)c(-c5cccc(S(=O)(=O)[O-])c5F)c5nc(c(-c6cccc(S(=O)(=O)[O-])c6F)c6ccc3[nH]6)C=C5)C=C4)cc2)s1
REMARK SMILES IDX 26 1 25 2 24 3 23 4 21 5 22 6 20 8 10 9 11 10 15 11 12 12
REMARK SMILES IDX 14 13 13 14 16 15 17 16 19 18 18 19 7 20 8 21 9 22 6 23 3 24
REMARK SMILES IDX 4 25 96 26 5 27 2 28 1 29 27 30 28 31 29 32 30 33 31 34
REMARK SMILES IDX 32 36 33 37 34 38 95 39 35 40 94 41 36 42 37 43 38 44 88 45
REMARK SMILES IDX 39 46 93 47 87 48 89 49 40 50 92 51 86 52 85 53 41 55 73 56
REMARK SMILES IDX 53 57 72 58 54 59 57 60 71 61 90 62 55 63 56 64 70 66 91 67
REMARK SMILES IDX 58 68 42 69 43 70 51 71 44 72 46 73 52 74 45 75 47 76 48 77
REMARK SMILES IDX 49 78 50 79 74 80 75 81 83 82 76 83 78 84 84 85 77 86 79 87
REMARK SMILES IDX 80 88 81 89 82 90 59 91 60 92 68 93 61 94 63 95 69 96 62 97
REMARK SMILES IDX 64 98 65 99 66 100 67 101
REMARK H PARENT 23 7 16 17 30 35 89 54 57 65
REMARK Flexibility Score: inf
ROOT
ATOM      1  C   UNL A   1      39.510  23.051  25.993  1.00  0.00     0.002 C 
ENDROOT
BRANCH   1   2
ATOM      2  C   UNL A   1      38.469  24.005  26.578  1.00  0.00     0.021 C 
BRANCH   2   3
ATOM      3  C   UNL A   1      37.033  23.746  26.109  1.00  0.00     0.116 C 
BRANCH   3   4
ATOM      4  N   UNL A   1      36.836  22.411  25.558  1.00  0.00    -0.356 N 
ATOM      5  C   UNL A   1      35.777  21.570  25.432  1.00  0.00     0.226 C 
ATOM      6  O   UNL A   1      36.016  20.475  24.904  1.00  0.00    -0.275 OA
ATOM      7  H   UNL A   1      37.666  22.028  25.192  1.00  0.00     0.163 HD
BRANCH   5   8
ATOM      8  C   UNL A   1      34.335  21.855  25.875  1.00  0.00     0.113 C 
ATOM      9  N   UNL A   1      32.711  25.259  24.195  1.00  0.00    -0.197 NA
ATOM     10  C   UNL A   1      32.237  24.798  25.496  1.00  0.00     0.105 C 
ATOM     11  C   UNL A   1      34.049  24.785  23.874  1.00  0.00     0.105 C 
ATOM     12  C   UNL A   1      32.191  23.275  25.567  1.00  0.00     0.046 C 
ATOM     13  C   UNL A   1      34.039  23.274  23.725  1.00  0.00     0.046 C 
ATOM     14  C   UNL A   1      33.343  22.473  24.859  1.00  0.00     0.055 C 
ATOM     15  N   UNL A   1      32.710  21.243  24.374  1.00  0.00    -0.350 N 
ATOM     16  C   UNL A   1      32.751  20.195  25.265  1.00  0.00     0.221 C 
ATOM     17  H   UNL A   1      32.290  21.172  23.486  1.00  0.00     0.164 HD
ATOM     18  C   UNL A   1      33.666  20.568  26.388  1.00  0.00     0.116 C 
ATOM     19  O   UNL A   1      32.150  19.147  25.127  1.00  0.00    -0.275 OA
BRANCH   9  20
ATOM     20  S   UNL A   1      31.693  25.930  23.008  1.00  0.00     0.252 S 
ATOM     21  O   UNL A   1      30.477  25.164  22.994  1.00  0.00    -0.206 OA
ATOM     22  O   UNL A   1      32.494  26.136  21.816  1.00  0.00    -0.206 OA
BRANCH  20  23
ATOM     23  C   UNL A   1      31.200  27.573  23.514  1.00  0.00     0.135 A 
ATOM     24  C   UNL A   1      30.013  29.745  23.694  1.00  0.00     0.006 A 
ATOM     25  C   UNL A   1      31.016  29.628  24.627  1.00  0.00     0.017 A 
ATOM     26  S   UNL A   1      29.886  28.331  22.716  1.00  0.00    -0.127 S 
ATOM     27  C   UNL A   1      31.710  28.416  24.470  1.00  0.00     0.034 A 
BRANCH  24  28
ATOM     28  C   UNL A   1      29.144  30.950  23.504  1.00  0.00     0.043 C 
ATOM     29  C   UNL A   1      27.673  30.597  23.404  1.00  0.00     0.010 C 
ENDBRANCH  24  28
ENDBRANCH  20  23
ENDBRANCH   9  20
ENDBRANCH   5   8
ENDBRANCH   3   4
ENDBRANCH   2   3
ENDBRANCH   1   2
BRANCH   1  30
ATOM     30  C   UNL A   1      39.885  21.882  26.905  1.00  0.00     0.002 C 
BRANCH  30  31
ATOM     31  C   UNL A   1      40.018  20.527  26.201  1.00  0.00     0.021 C 
BRANCH  31  32
ATOM     32  C   UNL A   1      40.783  19.466  26.989  1.00  0.00     0.116 C 
BRANCH  32  33
ATOM     33  N   UNL A   1      41.848  18.872  26.200  1.00  0.00    -0.352 N 
ATOM     34  C   UNL A   1      42.887  19.467  25.536  1.00  0.00     0.251 C 
ATOM     35  H   UNL A   1      41.817  17.890  26.130  1.00  0.00     0.163 HD
ATOM     36  O   UNL A   1      43.534  18.815  24.720  1.00  0.00    -0.269 OA
BRANCH  34  37
ATOM     37  C   UNL A   1      43.233  20.883  25.793  1.00  0.00     0.039 A 
ATOM     38  C   UNL A   1      43.565  21.262  27.096  1.00  0.00     0.014 A 
ATOM     39  C   UNL A   1      43.181  21.842  24.776  1.00  0.00     0.014 A 
ATOM     40  C   UNL A   1      43.874  22.595  27.371  1.00  0.00     0.010 A 
ATOM     41  C   UNL A   1      43.559  23.158  25.039  1.00  0.00     0.010 A 
ATOM     42  C   UNL A   1      43.894  23.552  26.341  1.00  0.00    -0.014 A 
BRANCH  42  43
ATOM     43  C   UNL A   1      44.279  24.957  26.632  1.00  0.00     0.031 A 
ATOM     44  C   UNL A   1      43.289  25.927  27.220  1.00  0.00     0.074 A 
ATOM     45  C   UNL A   1      45.525  25.371  26.330  1.00  0.00     0.049 A 
ATOM     46  N   UNL A   1      43.476  27.167  27.594  1.00  0.00    -0.248 NA
ATOM     47  C   UNL A   1      41.905  25.455  27.389  1.00  0.00     0.031 C 
ATOM     48  C   UNL A   1      46.545  24.557  25.666  1.00  0.00     0.029 A 
ATOM     49  N   UNL A   1      46.144  26.578  26.532  1.00  0.00    -0.354 N 
ATOM     50  C   UNL A   1      42.237  27.629  28.021  1.00  0.00     0.074 A 
ATOM     51  C   UNL A   1      41.294  26.550  27.819  1.00  0.00     0.031 C 
ATOM     52  C   UNL A   1      47.667  25.282  25.532  1.00  0.00     0.029 A 
ATOM     53  C   UNL A   1      47.443  26.613  26.084  1.00  0.00     0.049 A 
ATOM     54  H   UNL A   1      45.698  27.347  26.957  1.00  0.00     0.167 HD
ATOM     55  C   UNL A   1      41.917  28.830  28.563  1.00  0.00     0.034 A 
ATOM     56  C   UNL A   1      48.357  27.603  26.125  1.00  0.00     0.034 A 
ATOM     57  C   UNL A   1      42.864  29.889  28.790  1.00  0.00     0.049 A 
ATOM     58  C   UNL A   1      47.997  28.899  26.796  1.00  0.00     0.074 A 
ATOM     59  C   UNL A   1      42.659  31.113  29.404  1.00  0.00     0.029 A 
ATOM     60  N   UNL A   1      44.197  29.856  28.408  1.00  0.00    -0.354 N 
ATOM     61  N   UNL A   1      46.864  29.256  27.350  1.00  0.00    -0.248 NA
ATOM     62  C   UNL A   1      49.059  29.911  26.893  1.00  0.00     0.031 C 
ATOM     63  C   UNL A   1      43.862  31.826  29.374  1.00  0.00     0.029 A 
ATOM     64  C   UNL A   1      44.825  31.036  28.769  1.00  0.00     0.049 A 
ATOM     65  H   UNL A   1      44.633  29.103  27.947  1.00  0.00     0.167 HD
ATOM     66  C   UNL A   1      47.083  30.518  27.890  1.00  0.00     0.074 A 
ATOM     67  C   UNL A   1      48.469  30.849  27.623  1.00  0.00     0.031 C 
ATOM     68  C   UNL A   1      46.214  31.337  28.533  1.00  0.00     0.034 A 
BRANCH  55  69
ATOM     69  C   UNL A   1      40.489  29.041  29.002  1.00  0.00     0.023 A 
ATOM     70  C   UNL A   1      39.504  29.336  28.037  1.00  0.00     0.012 A 
ATOM     71  C   UNL A   1      40.110  28.891  30.351  1.00  0.00     0.148 A 
ATOM     72  C   UNL A   1      38.173  29.516  28.411  1.00  0.00     0.002 A 
ATOM     73  C   UNL A   1      38.774  29.026  30.709  1.00  0.00     0.091 A 
ATOM     74  F   UNL A   1      41.063  28.632  31.258  1.00  0.00    -0.205 F 
ATOM     75  C   UNL A   1      37.806  29.350  29.743  1.00  0.00     0.022 A 
BRANCH  73  76
ATOM     76  S   UNL A   1      38.187  28.754  32.384  1.00  0.00     0.127 S 
ATOM     77  O   UNL A   1      36.770  29.095  32.259  1.00  0.00    -0.237 OA
ATOM     78  O   UNL A   1      38.456  27.329  32.578  1.00  0.00    -0.237 OA
ATOM     79  O   UNL A   1      38.970  29.641  33.234  1.00  0.00    -0.744 OA
ENDBRANCH  73  76
ENDBRANCH  55  69
BRANCH  56  80
ATOM     80  C   UNL A   1      49.724  27.369  25.584  1.00  0.00     0.023 A 
ATOM     81  C   UNL A   1      50.756  26.963  26.453  1.00  0.00     0.012 A 
ATOM     82  C   UNL A   1      49.999  27.511  24.211  1.00  0.00     0.148 A 
ATOM     83  C   UNL A   1      52.045  26.735  25.969  1.00  0.00     0.002 A 
ATOM     84  C   UNL A   1      51.270  27.226  23.725  1.00  0.00     0.091 A 
ATOM     85  F   UNL A   1      49.006  27.909  23.403  1.00  0.00    -0.205 F 
ATOM     86  C   UNL A   1      52.299  26.856  24.606  1.00  0.00     0.022 A 
BRANCH  84  87
ATOM     87  S   UNL A   1      51.648  27.218  21.970  1.00  0.00     0.127 S 
ATOM     88  O   UNL A   1      50.442  26.614  21.408  1.00  0.00    -0.237 OA
ATOM     89  O   UNL A   1      51.812  28.645  21.690  1.00  0.00    -0.237 OA
ATOM     90  O   UNL A   1      52.871  26.439  21.836  1.00  0.00    -0.744 OA
ENDBRANCH  84  87
ENDBRANCH  56  80
BRANCH  68  91
ATOM     91  C   UNL A   1      46.745  32.662  29.018  1.00  0.00     0.023 A 
ATOM     92  C   UNL A   1      47.314  32.763  30.303  1.00  0.00     0.012 A 
ATOM     93  C   UNL A   1      46.711  33.800  28.186  1.00  0.00     0.148 A 
ATOM     94  C   UNL A   1      47.794  33.985  30.773  1.00  0.00     0.002 A 
ATOM     95  C   UNL A   1      47.240  35.002  28.642  1.00  0.00     0.091 A 
ATOM     96  F   UNL A   1      46.149  33.693  26.974  1.00  0.00    -0.205 F 
ATOM     97  C   UNL A   1      47.766  35.101  29.939  1.00  0.00     0.022 A 
BRANCH  95  98
ATOM     98  S   UNL A   1      47.329  36.461  27.598  1.00  0.00     0.127 S 
ATOM     99  O   UNL A   1      47.968  37.428  28.489  1.00  0.00    -0.237 OA
ATOM    100  O   UNL A   1      48.170  36.004  26.492  1.00  0.00    -0.237 OA
ATOM    101  O   UNL A   1      45.955  36.761  27.220  1.00  0.00    -0.744 OA
ENDBRANCH  95  98
ENDBRANCH  68  91
ENDBRANCH  42  43
ENDBRANCH  34  37
ENDBRANCH  32  33
ENDBRANCH  31  32
ENDBRANCH  30  31
ENDBRANCH   1  30
TORSDOF 19
ENDMDL
MODEL 3
REMARK VINA RESULT:     -11.1      2.362      7.966
REMARK SMILES CCc1ccc(S(=O)(=O)N2CCC3(CC2)NC(=O)C[C@H]3C(=O)NCCCCCCNC(=O)c2ccc(-c3c4nc(c(-c5cccc(S(=O)(=O)[O-])c5F)c5ccc([nH]5)c(-c5cccc(S(=O)(=O)[O-])c5F)c5nc(c(-c6cccc(S(=O)(=O)[O-])c6F)c6ccc3[nH]6)C=C5)C=C4)cc2)s1
REMARK SMILES IDX 26 1 25 2 24 3 23 4 21 5 22 6 20 8 10 9 11 10 15 11 12 12
REMARK SMILES IDX 14 13 13 14 16 15 17 16 19 18 18 19 7 20 8 21 9 22 6 23 3 24
REMARK SMILES IDX 4 25 96 26 5 27 2 28 1 29 27 30 28 31 29 32 30 33 31 34
REMARK SMILES IDX 32 36 33 37 34 38 95 39 35 40 94 41 36 42 37 43 38 44 88 45
REMARK SMILES IDX 39 46 93 47 87 48 89 49 40 50 92 51 86 52 85 53 41 55 73 56
REMARK SMILES IDX 53 57 72 58 54 59 57 60 71 61 90 62 55 63 56 64 70 66 91 67
REMARK SMILES IDX 58 68 42 69 43 70 51 71 44 72 46 73 52 74 45 75 47 76 48 77
REMARK SMILES IDX 49 78 50 79 74 80 75 81 83 82 76 83 78 84 84 85 77 86 79 87
REMARK SMILES IDX 80 88 81 89 82 90 59 91 60 92 68 93 61 94 63 95 69 96 62 97
REMARK SMILES IDX 64 98 65 99 66 100 67 101
REMARK H PARENT 23 7 16 17 30 35 89 54 57 65
REMARK Flexibility Score: inf
ROOT
ATOM      1  C   UNL A   1      34.795  19.839  24.796  1.00  0.00     0.002 C 
ENDROOT
BRANCH   1   2
ATOM      2  C   UNL A   1      33.716  20.245  25.798  1.00  0.00     0.021 C 
BRANCH   2   3
ATOM      3  C   UNL A   1      33.743  21.724  26.200  1.00  0.00     0.116 C 
BRANCH   3   4
ATOM      4  N   UNL A   1      32.574  22.136  26.968  1.00  0.00    -0.356 N 
ATOM      5  C   UNL A   1      31.429  22.810  26.688  1.00  0.00     0.226 C 
ATOM      6  O   UNL A   1      30.657  22.985  27.641  1.00  0.00    -0.275 OA
ATOM      7  H   UNL A   1      32.628  21.861  27.912  1.00  0.00     0.163 HD
BRANCH   5   8
ATOM      8  C   UNL A   1      31.013  23.362  25.316  1.00  0.00     0.113 C 
ATOM      9  N   UNL A   1      30.785  27.482  25.169  1.00  0.00    -0.197 NA
ATOM     10  C   UNL A   1      29.957  26.679  24.274  1.00  0.00     0.105 C 
ATOM     11  C   UNL A   1      31.204  26.759  26.361  1.00  0.00     0.105 C 
ATOM     12  C   UNL A   1      30.695  25.433  23.795  1.00  0.00     0.046 C 
ATOM     13  C   UNL A   1      32.121  25.612  25.974  1.00  0.00     0.046 C 
ATOM     14  C   UNL A   1      31.628  24.693  24.821  1.00  0.00     0.055 C 
ATOM     15  N   UNL A   1      32.731  24.157  24.019  1.00  0.00    -0.350 N 
ATOM     16  C   UNL A   1      32.518  22.883  23.544  1.00  0.00     0.221 C 
ATOM     17  H   UNL A   1      33.554  24.665  23.834  1.00  0.00     0.164 HD
ATOM     18  C   UNL A   1      31.300  22.329  24.213  1.00  0.00     0.116 C 
ATOM     19  O   UNL A   1      33.229  22.321  22.733  1.00  0.00    -0.275 OA
BRANCH   9  20
ATOM     20  S   UNL A   1      31.520  28.945  24.708  1.00  0.00     0.252 S 
ATOM     21  O   UNL A   1      32.761  28.623  24.057  1.00  0.00    -0.206 OA
ATOM     22  O   UNL A   1      31.452  29.843  25.846  1.00  0.00    -0.206 OA
BRANCH  20  23
ATOM     23  C   UNL A   1      30.526  29.733  23.448  1.00  0.00     0.135 A 
ATOM     24  C   UNL A   1      28.937  31.235  22.271  1.00  0.00     0.006 A 
ATOM     25  C   UNL A   1      29.554  30.360  21.408  1.00  0.00     0.017 A 
ATOM     26  S   UNL A   1      29.489  31.024  23.892  1.00  0.00    -0.127 S 
ATOM     27  C   UNL A   1      30.405  29.484  22.103  1.00  0.00     0.034 A 
BRANCH  24  28
ATOM     28  C   UNL A   1      27.890  32.234  21.889  1.00  0.00     0.043 C 
ATOM     29  C   UNL A   1      27.818  32.457  20.390  1.00  0.00     0.010 C 
ENDBRANCH  24  28
ENDBRANCH  20  23
ENDBRANCH   9  20
ENDBRANCH   5   8
ENDBRANCH   3   4
ENDBRANCH   2   3
ENDBRANCH   1   2
BRANCH   1  30
ATOM     30  C   UNL A   1      36.126  20.573  24.963  1.00  0.00     0.002 C 
BRANCH  30  31
ATOM     31  C   UNL A   1      37.369  19.674  24.958  1.00  0.00     0.021 C 
BRANCH  31  32
ATOM     32  C   UNL A   1      38.673  20.380  25.319  1.00  0.00     0.116 C 
BRANCH  32  33
ATOM     33  N   UNL A   1      39.632  19.467  25.917  1.00  0.00    -0.352 N 
ATOM     34  C   UNL A   1      40.883  19.712  26.419  1.00  0.00     0.251 C 
ATOM     35  H   UNL A   1      39.338  18.529  25.968  1.00  0.00     0.163 HD
ATOM     36  O   UNL A   1      41.634  18.768  26.650  1.00  0.00    -0.269 OA
BRANCH  34  37
ATOM     37  C   UNL A   1      41.332  21.096  26.682  1.00  0.00     0.039 A 
ATOM     38  C   UNL A   1      41.644  21.915  25.593  1.00  0.00     0.014 A 
ATOM     39  C   UNL A   1      41.497  21.574  27.986  1.00  0.00     0.014 A 
ATOM     40  C   UNL A   1      42.091  23.219  25.812  1.00  0.00     0.010 A 
ATOM     41  C   UNL A   1      41.874  22.899  28.201  1.00  0.00     0.010 A 
ATOM     42  C   UNL A   1      42.191  23.730  27.118  1.00  0.00    -0.014 A 
BRANCH  42  43
ATOM     43  C   UNL A   1      42.613  25.137  27.341  1.00  0.00     0.031 A 
ATOM     44  C   UNL A   1      41.685  26.131  27.986  1.00  0.00     0.074 A 
ATOM     45  C   UNL A   1      43.832  25.529  26.926  1.00  0.00     0.049 A 
ATOM     46  N   UNL A   1      41.914  27.378  28.312  1.00  0.00    -0.248 NA
ATOM     47  C   UNL A   1      40.316  25.680  28.281  1.00  0.00     0.031 C 
ATOM     48  C   UNL A   1      44.786  24.688  26.198  1.00  0.00     0.029 A 
ATOM     49  N   UNL A   1      44.477  26.734  27.045  1.00  0.00    -0.354 N 
ATOM     50  C   UNL A   1      40.720  27.865  28.830  1.00  0.00     0.074 A 
ATOM     51  C   UNL A   1      39.754  26.792  28.734  1.00  0.00     0.031 C 
ATOM     52  C   UNL A   1      45.899  25.397  25.952  1.00  0.00     0.029 A 
ATOM     53  C   UNL A   1      45.735  26.743  26.489  1.00  0.00     0.049 A 
ATOM     54  H   UNL A   1      44.077  27.517  27.487  1.00  0.00     0.167 HD
ATOM     55  C   UNL A   1      40.458  29.082  29.366  1.00  0.00     0.034 A 
ATOM     56  C   UNL A   1      46.658  27.723  26.428  1.00  0.00     0.034 A 
ATOM     57  C   UNL A   1      41.431  30.135  29.488  1.00  0.00     0.049 A 
ATOM     58  C   UNL A   1      46.368  29.039  27.096  1.00  0.00     0.074 A 
ATOM     59  C   UNL A   1      41.289  31.375  30.086  1.00  0.00     0.029 A 
ATOM     60  N   UNL A   1      42.726  30.077  28.996  1.00  0.00    -0.354 N 
ATOM     61  N   UNL A   1      45.289  29.421  27.733  1.00  0.00    -0.248 NA
ATOM     62  C   UNL A   1      47.444  30.041  27.078  1.00  0.00     0.031 C 
ATOM     63  C   UNL A   1      42.492  32.074  29.938  1.00  0.00     0.029 A 
ATOM     64  C   UNL A   1      43.394  31.258  29.274  1.00  0.00     0.049 A 
ATOM     65  H   UNL A   1      43.115  29.308  28.519  1.00  0.00     0.167 HD
ATOM     66  C   UNL A   1      45.565  30.693  28.221  1.00  0.00     0.074 A 
ATOM     67  C   UNL A   1      46.926  31.002  27.831  1.00  0.00     0.031 C 
ATOM     68  C   UNL A   1      44.761  31.538  28.915  1.00  0.00     0.034 A 
BRANCH  55  69
ATOM     69  C   UNL A   1      39.074  29.319  29.918  1.00  0.00     0.023 A 
ATOM     70  C   UNL A   1      38.729  28.787  31.177  1.00  0.00     0.012 A 
ATOM     71  C   UNL A   1      38.138  30.112  29.225  1.00  0.00     0.148 A 
ATOM     72  C   UNL A   1      37.464  29.007  31.721  1.00  0.00     0.002 A 
ATOM     73  C   UNL A   1      36.895  30.365  29.795  1.00  0.00     0.091 A 
ATOM     74  F   UNL A   1      38.474  30.592  28.019  1.00  0.00    -0.205 F 
ATOM     75  C   UNL A   1      36.553  29.804  31.036  1.00  0.00     0.022 A 
BRANCH  73  76
ATOM     76  S   UNL A   1      35.680  31.444  29.030  1.00  0.00     0.127 S 
ATOM     77  O   UNL A   1      35.128  32.136  30.194  1.00  0.00    -0.237 OA
ATOM     78  O   UNL A   1      36.511  32.279  28.162  1.00  0.00    -0.237 OA
ATOM     79  O   UNL A   1      34.753  30.569  28.325  1.00  0.00    -0.744 OA
ENDBRANCH  73  76
ENDBRANCH  55  69
BRANCH  56  80
ATOM     80  C   UNL A   1      47.973  27.461  25.781  1.00  0.00     0.023 A 
ATOM     81  C   UNL A   1      49.054  27.005  26.560  1.00  0.00     0.012 A 
ATOM     82  C   UNL A   1      48.148  27.624  24.393  1.00  0.00     0.148 A 
ATOM     83  C   UNL A   1      50.295  26.750  25.976  1.00  0.00     0.002 A 
ATOM     84  C   UNL A   1      49.369  27.312  23.808  1.00  0.00     0.091 A 
ATOM     85  F   UNL A   1      47.110  28.069  23.671  1.00  0.00    -0.205 F 
ATOM     86  C   UNL A   1      50.449  26.893  24.600  1.00  0.00     0.022 A 
BRANCH  84  87
ATOM     87  S   UNL A   1      49.613  27.332  22.029  1.00  0.00     0.127 S 
ATOM     88  O   UNL A   1      49.327  28.727  21.703  1.00  0.00    -0.237 OA
ATOM     89  O   UNL A   1      51.020  26.946  21.912  1.00  0.00    -0.237 OA
ATOM     90  O   UNL A   1      48.678  26.350  21.495  1.00  0.00    -0.744 OA
ENDBRANCH  84  87
ENDBRANCH  56  80
BRANCH  68  91
ATOM     91  C   UNL A   1      45.343  32.867  29.320  1.00  0.00     0.023 A 
ATOM     92  C   UNL A   1      46.029  32.990  30.545  1.00  0.00     0.012 A 
ATOM     93  C   UNL A   1      45.240  33.988  28.472  1.00  0.00     0.148 A 
ATOM     94  C   UNL A   1      46.559  34.217  30.943  1.00  0.00     0.002 A 
ATOM     95  C   UNL A   1      45.816  35.195  28.852  1.00  0.00     0.091 A 
ATOM     96  F   UNL A   1      44.567  33.862  27.320  1.00  0.00    -0.205 F 
ATOM     97  C   UNL A   1      46.462  35.316  30.092  1.00  0.00     0.022 A 
BRANCH  95  98
ATOM     98  S   UNL A   1      45.818  36.632  27.774  1.00  0.00     0.127 S 
ATOM     99  O   UNL A   1      45.952  36.016  26.455  1.00  0.00    -0.237 OA
ATOM    100  O   UNL A   1      44.507  37.225  28.039  1.00  0.00    -0.237 OA
ATOM    101  O   UNL A   1      46.943  37.449  28.207  1.00  0.00    -0.744 OA
ENDBRANCH  95  98
ENDBRANCH  68  91
ENDBRANCH  42  43
ENDBRANCH  34  37
ENDBRANCH  32  33
ENDBRANCH  31  32
ENDBRANCH  30  31
ENDBRANCH   1  30
TORSDOF 19
ENDMDL
