MODEL 1
REMARK VINA RESULT:     -12.6      0.000      0.000
REMARK SMILES O=C(NCCCCCCNC(=O)c1ccc(-c2c3nc(c(-c4cccc(S(=O)(=O)[O-])c4F)c4ccc([nH]4)c(-c4cccc(S(=O)(=O)[O-])c4F)c4nc(c(-c5cccc(S(=O)(=O)[O-])c5F)c5ccc2[nH]5)C=C4)C=C3)cc1)C1=Cc2cc(Cl)cc(-c3ccc(O)cc3)c2O[C@@H]1C(F)(F)F
REMARK SMILES IDX 7 1 6 2 5 3 4 4 3 5 1 6 2 7 76 9 77 10 93 11 78 12 92 13
REMARK SMILES IDX 79 14 91 15 80 16 83 17 81 18 82 19 94 20 95 21 96 22 97 23
REMARK SMILES IDX 84 24 85 25 90 26 86 27 89 28 87 29 88 30 8 32 9 33 10 34
REMARK SMILES IDX 11 35 12 37 13 38 14 39 75 40 15 41 74 42 16 43 17 44 18 45
REMARK SMILES IDX 68 46 19 47 73 48 67 49 69 50 20 51 72 52 66 53 65 54 21 56
REMARK SMILES IDX 53 57 33 58 52 59 34 60 37 61 51 62 70 63 35 64 36 65 50 67
REMARK SMILES IDX 71 68 38 69 22 70 23 71 31 72 24 73 26 74 32 75 25 76 27 77
REMARK SMILES IDX 28 78 29 79 30 80 54 81 55 82 63 83 56 84 58 85 64 86 57 87
REMARK SMILES IDX 59 88 60 89 61 90 62 91 39 92 40 93 48 94 41 95 43 96 49 97
REMARK SMILES IDX 42 98 44 99 45 100 46 101 47 102
REMARK H PARENT 3 8 88 31 10 36 69 55 37 66
REMARK Flexibility Score: inf
ROOT
ATOM      1  C   UNL A   1      32.189  27.958  24.550  1.00  0.00     0.002 C 
ENDROOT
BRANCH   1   2
ATOM      2  C   UNL A   1      30.817  27.291  24.704  1.00  0.00     0.002 C 
BRANCH   2   3
ATOM      3  C   UNL A   1      30.479  26.716  26.080  1.00  0.00     0.021 C 
BRANCH   3   4
ATOM      4  C   UNL A   1      29.912  25.297  26.112  1.00  0.00     0.116 C 
BRANCH   4   5
ATOM      5  N   UNL A   1      30.637  24.362  26.961  1.00  0.00    -0.352 N 
ATOM      6  O   UNL A   1      32.364  23.134  27.704  1.00  0.00    -0.270 OA
ATOM      7  C   UNL A   1      31.859  23.770  26.779  1.00  0.00     0.251 C 
ATOM      8  H   UNL A   1      30.177  24.116  27.796  1.00  0.00     0.163 HD
BRANCH   7   9
ATOM      9  C   UNL A   1      32.657  23.949  25.529  1.00  0.00     0.067 C 
ATOM     10  C   UNL A   1      33.957  24.281  25.569  1.00  0.00     0.025 C 
ATOM     11  C   UNL A   1      32.183  23.066  24.401  1.00  0.00     0.314 C 
ATOM     12  C   UNL A   1      34.854  23.192  25.125  1.00  0.00     0.019 A 
ATOM     13  O   UNL A   1      32.981  21.859  24.310  1.00  0.00    -0.475 OA
ATOM     14  C   UNL A   1      36.195  23.275  25.512  1.00  0.00     0.032 A 
ATOM     15  C   UNL A   1      34.305  21.970  24.674  1.00  0.00     0.135 A 
ATOM     16  C   UNL A   1      36.970  22.123  25.526  1.00  0.00     0.042 A 
ATOM     17  C   UNL A   1      35.071  20.792  24.742  1.00  0.00     0.026 A 
ATOM     18  Cl  UNL A   1      38.554  22.178  26.190  1.00  0.00    -0.084 Cl
ATOM     19  C   UNL A   1      36.418  20.898  25.154  1.00  0.00     0.033 A 
BRANCH  11  20
ATOM     20  C   UNL A   1      32.123  23.851  23.075  1.00  0.00     0.429 C 
ATOM     21  F   UNL A   1      32.889  24.966  23.118  1.00  0.00    -0.167 F 
ATOM     22  F   UNL A   1      32.587  23.103  22.040  1.00  0.00    -0.167 F 
ATOM     23  F   UNL A   1      30.869  24.236  22.743  1.00  0.00    -0.167 F 
ENDBRANCH  11  20
BRANCH  17  24
ATOM     24  C   UNL A   1      34.481  19.442  24.658  1.00  0.00    -0.014 A 
ATOM     25  C   UNL A   1      33.091  19.312  24.831  1.00  0.00     0.012 A 
ATOM     26  C   UNL A   1      35.226  18.276  24.475  1.00  0.00     0.012 A 
ATOM     27  C   UNL A   1      32.459  18.074  24.883  1.00  0.00     0.047 A 
ATOM     28  C   UNL A   1      34.598  17.020  24.526  1.00  0.00     0.047 A 
ATOM     29  C   UNL A   1      33.225  16.932  24.750  1.00  0.00     0.115 A 
BRANCH  29  30
ATOM     30  O   UNL A   1      32.592  15.732  24.861  1.00  0.00    -0.508 OA
ATOM     31  H   UNL A   1      32.446  15.206  24.098  1.00  0.00     0.293 HD
ENDBRANCH  29  30
ENDBRANCH  17  24
ENDBRANCH   7   9
ENDBRANCH   4   5
ENDBRANCH   3   4
ENDBRANCH   2   3
ENDBRANCH   1   2
BRANCH   1  32
ATOM     32  C   UNL A   1      33.090  27.968  25.789  1.00  0.00     0.021 C 
BRANCH  32  33
ATOM     33  C   UNL A   1      34.270  28.927  25.754  1.00  0.00     0.116 C 
BRANCH  33  34
ATOM     34  N   UNL A   1      33.984  30.154  26.479  1.00  0.00    -0.352 N 
ATOM     35  C   UNL A   1      34.555  30.683  27.611  1.00  0.00     0.251 C 
ATOM     36  H   UNL A   1      33.258  30.697  26.095  1.00  0.00     0.163 HD
ATOM     37  O   UNL A   1      33.980  31.607  28.184  1.00  0.00    -0.269 OA
BRANCH  35  38
ATOM     38  C   UNL A   1      35.841  30.173  28.152  1.00  0.00     0.039 A 
ATOM     39  C   UNL A   1      36.993  30.276  27.361  1.00  0.00     0.014 A 
ATOM     40  C   UNL A   1      35.917  29.525  29.386  1.00  0.00     0.014 A 
ATOM     41  C   UNL A   1      38.212  29.764  27.821  1.00  0.00     0.010 A 
ATOM     42  C   UNL A   1      37.148  29.103  29.884  1.00  0.00     0.010 A 
ATOM     43  C   UNL A   1      38.305  29.188  29.098  1.00  0.00    -0.014 A 
BRANCH  43  44
ATOM     44  C   UNL A   1      39.586  28.640  29.617  1.00  0.00     0.031 A 
ATOM     45  C   UNL A   1      40.317  29.352  30.729  1.00  0.00     0.074 A 
ATOM     46  C   UNL A   1      40.137  27.555  29.038  1.00  0.00     0.049 A 
ATOM     47  N   UNL A   1      41.482  29.080  31.259  1.00  0.00    -0.248 NA
ATOM     48  C   UNL A   1      39.670  30.547  31.299  1.00  0.00     0.031 C 
ATOM     49  C   UNL A   1      39.569  26.819  27.905  1.00  0.00     0.029 A 
ATOM     50  N   UNL A   1      41.312  26.896  29.301  1.00  0.00    -0.354 N 
ATOM     51  C   UNL A   1      41.727  30.092  32.181  1.00  0.00     0.074 A 
ATOM     52  C   UNL A   1      40.606  31.002  32.119  1.00  0.00     0.031 C 
ATOM     53  C   UNL A   1      40.392  25.812  27.575  1.00  0.00     0.029 A 
ATOM     54  C   UNL A   1      41.561  25.845  28.448  1.00  0.00     0.049 A 
ATOM     55  H   UNL A   1      41.921  27.152  30.031  1.00  0.00     0.167 HD
ATOM     56  C   UNL A   1      42.776  30.236  33.027  1.00  0.00     0.034 A 
ATOM     57  C   UNL A   1      42.614  25.008  28.372  1.00  0.00     0.034 A 
ATOM     58  C   UNL A   1      43.855  29.292  33.135  1.00  0.00     0.049 A 
ATOM     59  C   UNL A   1      43.736  25.156  29.365  1.00  0.00     0.074 A 
ATOM     60  C   UNL A   1      44.910  29.291  34.031  1.00  0.00     0.029 A 
ATOM     61  N   UNL A   1      44.018  28.183  32.321  1.00  0.00    -0.354 N 
ATOM     62  N   UNL A   1      43.870  26.027  30.336  1.00  0.00    -0.248 NA
ATOM     63  C   UNL A   1      44.834  24.183  29.278  1.00  0.00     0.031 C 
ATOM     64  C   UNL A   1      45.723  28.190  33.745  1.00  0.00     0.029 A 
ATOM     65  C   UNL A   1      45.161  27.492  32.688  1.00  0.00     0.049 A 
ATOM     66  H   UNL A   1      43.412  27.924  31.590  1.00  0.00     0.167 HD
ATOM     67  C   UNL A   1      45.043  25.684  30.998  1.00  0.00     0.074 A 
ATOM     68  C   UNL A   1      45.572  24.512  30.330  1.00  0.00     0.031 C 
ATOM     69  C   UNL A   1      45.639  26.293  32.053  1.00  0.00     0.034 A 
BRANCH  56  70
ATOM     70  C   UNL A   1      42.781  31.428  33.950  1.00  0.00     0.023 A 
ATOM     71  C   UNL A   1      43.316  32.653  33.503  1.00  0.00     0.012 A 
ATOM     72  C   UNL A   1      42.190  31.359  35.228  1.00  0.00     0.148 A 
ATOM     73  C   UNL A   1      43.296  33.780  34.324  1.00  0.00     0.002 A 
ATOM     74  C   UNL A   1      42.133  32.498  36.023  1.00  0.00     0.091 A 
ATOM     75  F   UNL A   1      41.703  30.181  35.644  1.00  0.00    -0.205 F 
ATOM     76  C   UNL A   1      42.695  33.706  35.577  1.00  0.00     0.022 A 
BRANCH  74  77
ATOM     77  S   UNL A   1      41.310  32.529  37.620  1.00  0.00     0.127 S 
ATOM     78  O   UNL A   1      42.119  31.583  38.387  1.00  0.00    -0.237 OA
ATOM     79  O   UNL A   1      41.467  33.928  38.018  1.00  0.00    -0.237 OA
ATOM     80  O   UNL A   1      39.935  32.117  37.373  1.00  0.00    -0.744 OA
ENDBRANCH  74  77
ENDBRANCH  56  70
BRANCH  57  81
ATOM     81  C   UNL A   1      42.626  23.909  27.364  1.00  0.00     0.023 A 
ATOM     82  C   UNL A   1      43.180  24.150  26.091  1.00  0.00     0.012 A 
ATOM     83  C   UNL A   1      42.115  22.631  27.659  1.00  0.00     0.148 A 
ATOM     84  C   UNL A   1      43.192  23.150  25.119  1.00  0.00     0.002 A 
ATOM     85  C   UNL A   1      42.181  21.622  26.704  1.00  0.00     0.091 A 
ATOM     86  F   UNL A   1      41.580  22.423  28.870  1.00  0.00    -0.205 F 
ATOM     87  C   UNL A   1      42.701  21.884  25.427  1.00  0.00     0.022 A 
BRANCH  85  88
ATOM     88  S   UNL A   1      41.694  19.929  27.060  1.00  0.00     0.127 S 
ATOM     89  O   UNL A   1      40.531  20.125  27.918  1.00  0.00    -0.237 OA
ATOM     90  O   UNL A   1      41.396  19.411  25.724  1.00  0.00    -0.237 OA
ATOM     91  O   UNL A   1      42.856  19.315  27.691  1.00  0.00    -0.744 OA
ENDBRANCH  85  88
ENDBRANCH  57  81
BRANCH  69  92
ATOM     92  C   UNL A   1      46.909  25.685  32.585  1.00  0.00     0.023 A 
ATOM     93  C   UNL A   1      46.864  24.838  33.710  1.00  0.00     0.012 A 
ATOM     94  C   UNL A   1      48.135  25.887  31.920  1.00  0.00     0.148 A 
ATOM     95  C   UNL A   1      48.024  24.228  34.185  1.00  0.00     0.002 A 
ATOM     96  C   UNL A   1      49.278  25.237  32.369  1.00  0.00     0.091 A 
ATOM     97  F   UNL A   1      48.160  26.711  30.862  1.00  0.00    -0.205 F 
ATOM     98  C   UNL A   1      49.227  24.418  33.508  1.00  0.00     0.022 A 
BRANCH  96  99
ATOM     99  S   UNL A   1      50.847  25.344  31.502  1.00  0.00     0.127 S 
ATOM    100  O   UNL A   1      50.462  24.972  30.141  1.00  0.00    -0.237 OA
ATOM    101  O   UNL A   1      51.202  26.753  31.672  1.00  0.00    -0.237 OA
ATOM    102  O   UNL A   1      51.742  24.412  32.176  1.00  0.00    -0.744 OA
ENDBRANCH  96  99
ENDBRANCH  69  92
ENDBRANCH  43  44
ENDBRANCH  35  38
ENDBRANCH  33  34
ENDBRANCH  32  33
ENDBRANCH   1  32
TORSDOF 19
ENDMDL
MODEL 2
REMARK VINA RESULT:     -12.5      2.183      3.066
REMARK SMILES O=C(NCCCCCCNC(=O)c1ccc(-c2c3nc(c(-c4cccc(S(=O)(=O)[O-])c4F)c4ccc([nH]4)c(-c4cccc(S(=O)(=O)[O-])c4F)c4nc(c(-c5cccc(S(=O)(=O)[O-])c5F)c5ccc2[nH]5)C=C4)C=C3)cc1)C1=Cc2cc(Cl)cc(-c3ccc(O)cc3)c2O[C@@H]1C(F)(F)F
REMARK SMILES IDX 7 1 6 2 5 3 4 4 3 5 1 6 2 7 76 9 77 10 93 11 78 12 92 13
REMARK SMILES IDX 79 14 91 15 80 16 83 17 81 18 82 19 94 20 95 21 96 22 97 23
REMARK SMILES IDX 84 24 85 25 90 26 86 27 89 28 87 29 88 30 8 32 9 33 10 34
REMARK SMILES IDX 11 35 12 37 13 38 14 39 75 40 15 41 74 42 16 43 17 44 18 45
REMARK SMILES IDX 68 46 19 47 73 48 67 49 69 50 20 51 72 52 66 53 65 54 21 56
REMARK SMILES IDX 53 57 33 58 52 59 34 60 37 61 51 62 70 63 35 64 36 65 50 67
REMARK SMILES IDX 71 68 38 69 22 70 23 71 31 72 24 73 26 74 32 75 25 76 27 77
REMARK SMILES IDX 28 78 29 79 30 80 54 81 55 82 63 83 56 84 58 85 64 86 57 87
REMARK SMILES IDX 59 88 60 89 61 90 62 91 39 92 40 93 48 94 41 95 43 96 49 97
REMARK SMILES IDX 42 98 44 99 45 100 46 101 47 102
REMARK H PARENT 3 8 88 31 10 36 69 55 37 66
REMARK Flexibility Score: inf
ROOT
ATOM      1  C   UNL A   1      31.816  29.690  25.082  1.00  0.00     0.002 C 
ENDROOT
BRANCH   1   2
ATOM      2  C   UNL A   1      30.645  29.166  24.243  1.00  0.00     0.002 C 
BRANCH   2   3
ATOM      3  C   UNL A   1      30.858  29.091  22.731  1.00  0.00     0.021 C 
BRANCH   3   4
ATOM      4  C   UNL A   1      30.643  27.727  22.074  1.00  0.00     0.116 C 
BRANCH   4   5
ATOM      5  N   UNL A   1      31.863  27.013  21.721  1.00  0.00    -0.352 N 
ATOM      6  O   UNL A   1      33.336  25.319  21.650  1.00  0.00    -0.270 OA
ATOM      7  C   UNL A   1      32.366  25.835  22.206  1.00  0.00     0.251 C 
ATOM      8  H   UNL A   1      32.410  27.444  21.026  1.00  0.00     0.163 HD
BRANCH   7   9
ATOM      9  C   UNL A   1      31.722  25.090  23.330  1.00  0.00     0.067 C 
ATOM     10  C   UNL A   1      31.110  23.913  23.131  1.00  0.00     0.025 C 
ATOM     11  C   UNL A   1      32.408  25.322  24.654  1.00  0.00     0.314 C 
ATOM     12  C   UNL A   1      31.824  22.771  23.743  1.00  0.00     0.019 A 
ATOM     13  O   UNL A   1      33.338  24.252  24.955  1.00  0.00    -0.475 OA
ATOM     14  C   UNL A   1      31.519  21.495  23.259  1.00  0.00     0.032 A 
ATOM     15  C   UNL A   1      33.004  22.999  24.488  1.00  0.00     0.135 A 
ATOM     16  C   UNL A   1      32.427  20.463  23.447  1.00  0.00     0.042 A 
ATOM     17  C   UNL A   1      33.951  21.968  24.630  1.00  0.00     0.026 A 
ATOM     18  Cl  UNL A   1      32.153  18.947  22.683  1.00  0.00    -0.084 Cl
ATOM     19  C   UNL A   1      33.628  20.693  24.116  1.00  0.00     0.033 A 
BRANCH  11  20
ATOM     20  C   UNL A   1      31.376  25.558  25.776  1.00  0.00     0.429 C 
ATOM     21  F   UNL A   1      30.956  24.392  26.322  1.00  0.00    -0.167 F 
ATOM     22  F   UNL A   1      31.909  26.290  26.788  1.00  0.00    -0.167 F 
ATOM     23  F   UNL A   1      30.276  26.224  25.353  1.00  0.00    -0.167 F 
ENDBRANCH  11  20
BRANCH  17  24
ATOM     24  C   UNL A   1      35.345  22.208  25.049  1.00  0.00    -0.014 A 
ATOM     25  C   UNL A   1      35.616  23.340  25.840  1.00  0.00     0.012 A 
ATOM     26  C   UNL A   1      36.425  21.414  24.659  1.00  0.00     0.012 A 
ATOM     27  C   UNL A   1      36.910  23.714  26.188  1.00  0.00     0.047 A 
ATOM     28  C   UNL A   1      37.735  21.782  25.005  1.00  0.00     0.047 A 
ATOM     29  C   UNL A   1      37.965  22.939  25.748  1.00  0.00     0.115 A 
BRANCH  29  30
ATOM     30  O   UNL A   1      39.225  23.357  26.054  1.00  0.00    -0.508 OA
ATOM     31  H   UNL A   1      39.544  23.278  26.932  1.00  0.00     0.293 HD
ENDBRANCH  29  30
ENDBRANCH  17  24
ENDBRANCH   7   9
ENDBRANCH   4   5
ENDBRANCH   3   4
ENDBRANCH   2   3
ENDBRANCH   1   2
BRANCH   1  32
ATOM     32  C   UNL A   1      33.099  28.851  25.069  1.00  0.00     0.021 C 
BRANCH  32  33
ATOM     33  C   UNL A   1      34.054  29.068  26.233  1.00  0.00     0.116 C 
BRANCH  33  34
ATOM     34  N   UNL A   1      33.894  30.390  26.816  1.00  0.00    -0.352 N 
ATOM     35  C   UNL A   1      34.575  31.010  27.835  1.00  0.00     0.251 C 
ATOM     36  H   UNL A   1      33.177  30.932  26.414  1.00  0.00     0.163 HD
ATOM     37  O   UNL A   1      34.099  32.034  28.323  1.00  0.00    -0.269 OA
BRANCH  35  38
ATOM     38  C   UNL A   1      35.863  30.482  28.353  1.00  0.00     0.039 A 
ATOM     39  C   UNL A   1      37.046  30.806  27.677  1.00  0.00     0.014 A 
ATOM     40  C   UNL A   1      35.918  29.611  29.443  1.00  0.00     0.014 A 
ATOM     41  C   UNL A   1      38.272  30.287  28.110  1.00  0.00     0.010 A 
ATOM     42  C   UNL A   1      37.147  29.174  29.933  1.00  0.00     0.010 A 
ATOM     43  C   UNL A   1      38.336  29.480  29.257  1.00  0.00    -0.014 A 
BRANCH  43  44
ATOM     44  C   UNL A   1      39.623  28.917  29.747  1.00  0.00     0.031 A 
ATOM     45  C   UNL A   1      40.348  29.578  30.893  1.00  0.00     0.074 A 
ATOM     46  C   UNL A   1      40.183  27.869  29.111  1.00  0.00     0.049 A 
ATOM     47  N   UNL A   1      41.516  29.291  31.407  1.00  0.00    -0.248 NA
ATOM     48  C   UNL A   1      39.690  30.736  31.524  1.00  0.00     0.031 C 
ATOM     49  C   UNL A   1      39.621  27.188  27.942  1.00  0.00     0.029 A 
ATOM     50  N   UNL A   1      41.365  27.209  29.340  1.00  0.00    -0.354 N 
ATOM     51  C   UNL A   1      41.753  30.256  32.380  1.00  0.00     0.074 A 
ATOM     52  C   UNL A   1      40.623  31.157  32.366  1.00  0.00     0.031 C 
ATOM     53  C   UNL A   1      40.454  26.207  27.560  1.00  0.00     0.029 A 
ATOM     54  C   UNL A   1      41.623  26.206  28.433  1.00  0.00     0.049 A 
ATOM     55  H   UNL A   1      41.972  27.433  30.082  1.00  0.00     0.167 HD
ATOM     56  C   UNL A   1      42.801  30.367  33.232  1.00  0.00     0.034 A 
ATOM     57  C   UNL A   1      42.684  25.384  28.314  1.00  0.00     0.034 A 
ATOM     58  C   UNL A   1      43.889  29.429  33.291  1.00  0.00     0.049 A 
ATOM     59  C   UNL A   1      43.806  25.491  29.312  1.00  0.00     0.074 A 
ATOM     60  C   UNL A   1      44.945  29.391  34.184  1.00  0.00     0.029 A 
ATOM     61  N   UNL A   1      44.062  28.364  32.420  1.00  0.00    -0.354 N 
ATOM     62  N   UNL A   1      43.932  26.313  30.327  1.00  0.00    -0.248 NA
ATOM     63  C   UNL A   1      44.913  24.535  29.174  1.00  0.00     0.031 C 
ATOM     64  C   UNL A   1      45.768  28.314  33.842  1.00  0.00     0.029 A 
ATOM     65  C   UNL A   1      45.211  27.667  32.750  1.00  0.00     0.049 A 
ATOM     66  H   UNL A   1      43.458  28.138  31.678  1.00  0.00     0.167 HD
ATOM     67  C   UNL A   1      45.110  25.947  30.969  1.00  0.00     0.074 A 
ATOM     68  C   UNL A   1      45.648  24.817  30.241  1.00  0.00     0.031 C 
ATOM     69  C   UNL A   1      45.701  26.507  32.054  1.00  0.00     0.034 A 
BRANCH  56  70
ATOM     70  C   UNL A   1      42.795  31.509  34.216  1.00  0.00     0.023 A 
ATOM     71  C   UNL A   1      43.425  32.723  33.876  1.00  0.00     0.012 A 
ATOM     72  C   UNL A   1      42.105  31.409  35.441  1.00  0.00     0.148 A 
ATOM     73  C   UNL A   1      43.399  33.808  34.752  1.00  0.00     0.002 A 
ATOM     74  C   UNL A   1      42.045  32.509  36.289  1.00  0.00     0.091 A 
ATOM     75  F   UNL A   1      41.528  30.240  35.756  1.00  0.00    -0.205 F 
ATOM     76  C   UNL A   1      42.701  33.704  35.952  1.00  0.00     0.022 A 
BRANCH  74  77
ATOM     77  S   UNL A   1      41.104  32.506  37.820  1.00  0.00     0.127 S 
ATOM     78  O   UNL A   1      41.912  31.623  38.660  1.00  0.00    -0.237 OA
ATOM     79  O   UNL A   1      41.143  33.916  38.205  1.00  0.00    -0.237 OA
ATOM     80  O   UNL A   1      39.781  32.003  37.479  1.00  0.00    -0.744 OA
ENDBRANCH  74  77
ENDBRANCH  56  70
BRANCH  57  81
ATOM     81  C   UNL A   1      42.706  24.339  27.250  1.00  0.00     0.023 A 
ATOM     82  C   UNL A   1      43.326  24.625  26.018  1.00  0.00     0.012 A 
ATOM     83  C   UNL A   1      42.138  23.067  27.453  1.00  0.00     0.148 A 
ATOM     84  C   UNL A   1      43.349  23.676  24.995  1.00  0.00     0.002 A 
ATOM     85  C   UNL A   1      42.213  22.107  26.450  1.00  0.00     0.091 A 
ATOM     86  F   UNL A   1      41.541  22.817  28.627  1.00  0.00    -0.205 F 
ATOM     87  C   UNL A   1      42.801  22.415  25.213  1.00  0.00     0.022 A 
BRANCH  85  88
ATOM     88  S   UNL A   1      41.654  20.416  26.693  1.00  0.00     0.127 S 
ATOM     89  O   UNL A   1      42.091  19.775  25.458  1.00  0.00    -0.237 OA
ATOM     90  O   UNL A   1      42.395  20.019  27.891  1.00  0.00    -0.237 OA
ATOM     91  O   UNL A   1      40.212  20.508  26.887  1.00  0.00    -0.744 OA
ENDBRANCH  85  88
ENDBRANCH  57  81
BRANCH  69  92
ATOM     92  C   UNL A   1      46.977  25.884  32.553  1.00  0.00     0.023 A 
ATOM     93  C   UNL A   1      48.219  26.361  32.090  1.00  0.00     0.012 A 
ATOM     94  C   UNL A   1      46.947  24.881  33.542  1.00  0.00     0.148 A 
ATOM     95  C   UNL A   1      49.410  25.828  32.579  1.00  0.00     0.002 A 
ATOM     96  C   UNL A   1      48.138  24.389  34.062  1.00  0.00     0.091 A 
ATOM     97  F   UNL A   1      45.755  24.427  33.956  1.00  0.00    -0.205 F 
ATOM     98  C   UNL A   1      49.371  24.852  33.573  1.00  0.00     0.022 A 
BRANCH  96  99
ATOM     99  S   UNL A   1      48.182  23.205  35.411  1.00  0.00     0.127 S 
ATOM    100  O   UNL A   1      47.427  23.907  36.448  1.00  0.00    -0.237 OA
ATOM    101  O   UNL A   1      47.495  22.049  34.834  1.00  0.00    -0.237 OA
ATOM    102  O   UNL A   1      49.591  22.984  35.705  1.00  0.00    -0.744 OA
ENDBRANCH  96  99
ENDBRANCH  69  92
ENDBRANCH  43  44
ENDBRANCH  35  38
ENDBRANCH  33  34
ENDBRANCH  32  33
ENDBRANCH   1  32
TORSDOF 19
ENDMDL
MODEL 3
REMARK VINA RESULT:     -12.4      4.328      9.596
REMARK SMILES O=C(NCCCCCCNC(=O)c1ccc(-c2c3nc(c(-c4cccc(S(=O)(=O)[O-])c4F)c4ccc([nH]4)c(-c4cccc(S(=O)(=O)[O-])c4F)c4nc(c(-c5cccc(S(=O)(=O)[O-])c5F)c5ccc2[nH]5)C=C4)C=C3)cc1)C1=Cc2cc(Cl)cc(-c3ccc(O)cc3)c2O[C@@H]1C(F)(F)F
REMARK SMILES IDX 7 1 6 2 5 3 4 4 3 5 1 6 2 7 76 9 77 10 93 11 78 12 92 13
REMARK SMILES IDX 79 14 91 15 80 16 83 17 81 18 82 19 94 20 95 21 96 22 97 23
REMARK SMILES IDX 84 24 85 25 90 26 86 27 89 28 87 29 88 30 8 32 9 33 10 34
REMARK SMILES IDX 11 35 12 37 13 38 14 39 75 40 15 41 74 42 16 43 17 44 18 45
REMARK SMILES IDX 68 46 19 47 73 48 67 49 69 50 20 51 72 52 66 53 65 54 21 56
REMARK SMILES IDX 53 57 33 58 52 59 34 60 37 61 51 62 70 63 35 64 36 65 50 67
REMARK SMILES IDX 71 68 38 69 22 70 23 71 31 72 24 73 26 74 32 75 25 76 27 77
REMARK SMILES IDX 28 78 29 79 30 80 54 81 55 82 63 83 56 84 58 85 64 86 57 87
REMARK SMILES IDX 59 88 60 89 61 90 62 91 39 92 40 93 48 94 41 95 43 96 49 97
REMARK SMILES IDX 42 98 44 99 45 100 46 101 47 102
REMARK H PARENT 3 8 88 31 10 36 69 55 37 66
REMARK Flexibility Score: inf
ROOT
ATOM      1  C   UNL A   1      35.624  21.146  24.807  1.00  0.00     0.002 C 
ENDROOT
BRANCH   1   2
ATOM      2  C   UNL A   1      34.503  20.102  24.854  1.00  0.00     0.002 C 
BRANCH   2   3
ATOM      3  C   UNL A   1      33.354  20.367  25.828  1.00  0.00     0.021 C 
BRANCH   3   4
ATOM      4  C   UNL A   1      32.074  20.960  25.237  1.00  0.00     0.116 C 
BRANCH   4   5
ATOM      5  N   UNL A   1      31.452  22.005  26.038  1.00  0.00    -0.352 N 
ATOM      6  O   UNL A   1      30.445  23.962  26.487  1.00  0.00    -0.270 OA
ATOM      7  C   UNL A   1      31.118  23.291  25.704  1.00  0.00     0.251 C 
ATOM      8  H   UNL A   1      31.237  21.747  26.964  1.00  0.00     0.163 HD
BRANCH   7   9
ATOM      9  C   UNL A   1      31.455  23.888  24.376  1.00  0.00     0.067 C 
ATOM     10  C   UNL A   1      30.506  24.396  23.576  1.00  0.00     0.025 C 
ATOM     11  C   UNL A   1      32.823  24.522  24.351  1.00  0.00     0.314 C 
ATOM     12  C   UNL A   1      30.577  25.868  23.443  1.00  0.00     0.019 A 
ATOM     13  O   UNL A   1      32.741  25.953  24.568  1.00  0.00    -0.475 OA
ATOM     14  C   UNL A   1      29.428  26.523  22.992  1.00  0.00     0.032 A 
ATOM     15  C   UNL A   1      31.609  26.582  24.095  1.00  0.00     0.135 A 
ATOM     16  C   UNL A   1      29.268  27.876  23.262  1.00  0.00     0.042 A 
ATOM     17  C   UNL A   1      31.424  27.938  24.419  1.00  0.00     0.026 A 
ATOM     18  Cl  UNL A   1      27.774  28.641  22.891  1.00  0.00    -0.084 Cl
ATOM     19  C   UNL A   1      30.246  28.573  23.969  1.00  0.00     0.033 A 
BRANCH  11  20
ATOM     20  C   UNL A   1      33.578  24.152  23.058  1.00  0.00     0.429 C 
ATOM     21  F   UNL A   1      34.920  24.175  23.238  1.00  0.00    -0.167 F 
ATOM     22  F   UNL A   1      33.264  22.895  22.648  1.00  0.00    -0.167 F 
ATOM     23  F   UNL A   1      33.296  24.979  22.024  1.00  0.00    -0.167 F 
ENDBRANCH  11  20
BRANCH  17  24
ATOM     24  C   UNL A   1      32.257  28.651  25.406  1.00  0.00    -0.014 A 
ATOM     25  C   UNL A   1      33.621  28.320  25.487  1.00  0.00     0.012 A 
ATOM     26  C   UNL A   1      31.762  29.593  26.309  1.00  0.00     0.012 A 
ATOM     27  C   UNL A   1      34.461  28.852  26.460  1.00  0.00     0.047 A 
ATOM     28  C   UNL A   1      32.600  30.137  27.296  1.00  0.00     0.047 A 
ATOM     29  C   UNL A   1      33.935  29.745  27.374  1.00  0.00     0.115 A 
BRANCH  29  30
ATOM     30  O   UNL A   1      34.764  30.208  28.351  1.00  0.00    -0.508 OA
ATOM     31  H   UNL A   1      35.598  29.803  28.489  1.00  0.00     0.293 HD
ENDBRANCH  29  30
ENDBRANCH  17  24
ENDBRANCH   7   9
ENDBRANCH   4   5
ENDBRANCH   3   4
ENDBRANCH   2   3
ENDBRANCH   1   2
BRANCH   1  32
ATOM     32  C   UNL A   1      35.494  22.338  25.762  1.00  0.00     0.021 C 
BRANCH  32  33
ATOM     33  C   UNL A   1      36.746  23.176  25.963  1.00  0.00     0.116 C 
BRANCH  33  34
ATOM     34  N   UNL A   1      37.924  22.343  26.146  1.00  0.00    -0.352 N 
ATOM     35  C   UNL A   1      39.227  22.677  26.422  1.00  0.00     0.251 C 
ATOM     36  H   UNL A   1      37.759  21.376  26.058  1.00  0.00     0.163 HD
ATOM     37  O   UNL A   1      40.097  21.818  26.284  1.00  0.00    -0.269 OA
BRANCH  35  38
ATOM     38  C   UNL A   1      39.607  24.038  26.881  1.00  0.00     0.039 A 
ATOM     39  C   UNL A   1      40.080  24.960  25.938  1.00  0.00     0.014 A 
ATOM     40  C   UNL A   1      39.581  24.395  28.230  1.00  0.00     0.014 A 
ATOM     41  C   UNL A   1      40.491  26.235  26.344  1.00  0.00     0.010 A 
ATOM     42  C   UNL A   1      39.897  25.695  28.620  1.00  0.00     0.010 A 
ATOM     43  C   UNL A   1      40.385  26.622  27.689  1.00  0.00    -0.014 A 
BRANCH  43  44
ATOM     44  C   UNL A   1      40.808  27.971  28.151  1.00  0.00     0.031 A 
ATOM     45  C   UNL A   1      42.273  28.336  28.178  1.00  0.00     0.074 A 
ATOM     46  C   UNL A   1      39.891  28.837  28.626  1.00  0.00     0.049 A 
ATOM     47  N   UNL A   1      42.845  29.424  28.624  1.00  0.00    -0.248 NA
ATOM     48  C   UNL A   1      43.222  27.331  27.669  1.00  0.00     0.031 C 
ATOM     49  C   UNL A   1      38.452  28.577  28.724  1.00  0.00     0.029 A 
ATOM     50  N   UNL A   1      40.033  30.101  29.142  1.00  0.00    -0.354 N 
ATOM     51  C   UNL A   1      44.214  29.215  28.497  1.00  0.00     0.074 A 
ATOM     52  C   UNL A   1      44.390  27.885  27.961  1.00  0.00     0.031 C 
ATOM     53  C   UNL A   1      37.846  29.648  29.262  1.00  0.00     0.029 A 
ATOM     54  C   UNL A   1      38.852  30.657  29.577  1.00  0.00     0.049 A 
ATOM     55  H   UNL A   1      40.899  30.566  29.197  1.00  0.00     0.167 HD
ATOM     56  C   UNL A   1      45.233  30.065  28.770  1.00  0.00     0.034 A 
ATOM     57  C   UNL A   1      38.607  31.843  30.169  1.00  0.00     0.034 A 
ATOM     58  C   UNL A   1      45.051  31.412  29.237  1.00  0.00     0.049 A 
ATOM     59  C   UNL A   1      39.752  32.790  30.405  1.00  0.00     0.074 A 
ATOM     60  C   UNL A   1      46.010  32.387  29.445  1.00  0.00     0.029 A 
ATOM     61  N   UNL A   1      43.828  31.975  29.570  1.00  0.00    -0.354 N 
ATOM     62  N   UNL A   1      41.025  32.634  30.127  1.00  0.00    -0.248 NA
ATOM     63  C   UNL A   1      39.426  34.094  31.001  1.00  0.00     0.031 C 
ATOM     64  C   UNL A   1      45.369  33.535  29.923  1.00  0.00     0.029 A 
ATOM     65  C   UNL A   1      44.008  33.282  29.988  1.00  0.00     0.049 A 
ATOM     66  H   UNL A   1      42.962  31.513  29.516  1.00  0.00     0.167 HD
ATOM     67  C   UNL A   1      41.642  33.830  30.477  1.00  0.00     0.074 A 
ATOM     68  C   UNL A   1      40.600  34.708  30.968  1.00  0.00     0.031 C 
ATOM     69  C   UNL A   1      42.954  34.163  30.414  1.00  0.00     0.034 A 
BRANCH  56  70
ATOM     70  C   UNL A   1      46.640  29.587  28.515  1.00  0.00     0.023 A 
ATOM     71  C   UNL A   1      47.260  29.874  27.282  1.00  0.00     0.012 A 
ATOM     72  C   UNL A   1      47.374  28.922  29.518  1.00  0.00     0.148 A 
ATOM     73  C   UNL A   1      48.574  29.478  27.037  1.00  0.00     0.002 A 
ATOM     74  C   UNL A   1      48.698  28.570  29.283  1.00  0.00     0.091 A 
ATOM     75  F   UNL A   1      46.762  28.640  30.677  1.00  0.00    -0.205 F 
ATOM     76  C   UNL A   1      49.296  28.837  28.040  1.00  0.00     0.022 A 
BRANCH  74  77
ATOM     77  S   UNL A   1      49.741  27.813  30.536  1.00  0.00     0.127 S 
ATOM     78  O   UNL A   1      49.062  26.537  30.752  1.00  0.00    -0.237 OA
ATOM     79  O   UNL A   1      51.026  27.711  29.844  1.00  0.00    -0.237 OA
ATOM     80  O   UNL A   1      49.731  28.725  31.672  1.00  0.00    -0.744 OA
ENDBRANCH  74  77
ENDBRANCH  56  70
BRANCH  57  81
ATOM     81  C   UNL A   1      37.209  32.232  30.515  1.00  0.00     0.023 A 
ATOM     82  C   UNL A   1      36.725  31.973  31.813  1.00  0.00     0.012 A 
ATOM     83  C   UNL A   1      36.368  32.869  29.584  1.00  0.00     0.148 A 
ATOM     84  C   UNL A   1      35.417  32.308  32.165  1.00  0.00     0.002 A 
ATOM     85  C   UNL A   1      35.085  33.252  29.958  1.00  0.00     0.091 A 
ATOM     86  F   UNL A   1      36.841  33.097  28.351  1.00  0.00    -0.205 F 
ATOM     87  C   UNL A   1      34.600  32.955  31.242  1.00  0.00     0.022 A 
BRANCH  85  88
ATOM     88  S   UNL A   1      34.012  34.207  28.878  1.00  0.00     0.127 S 
ATOM     89  O   UNL A   1      34.896  35.291  28.459  1.00  0.00    -0.237 OA
ATOM     90  O   UNL A   1      33.690  33.235  27.832  1.00  0.00    -0.237 OA
ATOM     91  O   UNL A   1      32.875  34.595  29.703  1.00  0.00    -0.744 OA
ENDBRANCH  85  88
ENDBRANCH  57  81
BRANCH  69  92
ATOM     92  C   UNL A   1      43.343  35.553  30.845  1.00  0.00     0.023 A 
ATOM     93  C   UNL A   1      43.735  35.791  32.176  1.00  0.00     0.012 A 
ATOM     94  C   UNL A   1      43.397  36.605  29.909  1.00  0.00     0.148 A 
ATOM     95  C   UNL A   1      44.144  37.061  32.578  1.00  0.00     0.002 A 
ATOM     96  C   UNL A   1      43.853  37.856  30.304  1.00  0.00     0.091 A 
ATOM     97  F   UNL A   1      43.002  36.362  28.650  1.00  0.00    -0.205 F 
ATOM     98  C   UNL A   1      44.215  38.090  31.641  1.00  0.00     0.022 A 
BRANCH  96  99
ATOM     99  S   UNL A   1      44.072  39.210  29.145  1.00  0.00     0.127 S 
ATOM    100  O   UNL A   1      44.702  40.225  29.988  1.00  0.00    -0.237 OA
ATOM    101  O   UNL A   1      44.955  38.619  28.138  1.00  0.00    -0.237 OA
ATOM    102  O   UNL A   1      42.739  39.540  28.658  1.00  0.00    -0.744 OA
ENDBRANCH  96  99
ENDBRANCH  69  92
ENDBRANCH  43  44
ENDBRANCH  35  38
ENDBRANCH  33  34
ENDBRANCH  32  33
ENDBRANCH   1  32
TORSDOF 19
ENDMDL
