MODEL 1
REMARK VINA RESULT:     -12.1      0.000      0.000
REMARK SMILES NS(=O)(=O)c1ccc(-n2nc(C(F)F)cc2-c2ccc(C(=O)NCCCCCCNC(=O)c3ccc(-c4c5nc(c(-c6cccc(S(=O)(=O)[O-])c6F)c6ccc([nH]6)c(-c6cccc(S(=O)(=O)[O-])c6F)c6nc(c(-c7cccc(S(=O)(=O)[O-])c7F)c7ccc4[nH]7)C=C6)C=C5)cc3)cc2)cc1
REMARK SMILES IDX 26 1 25 2 24 3 23 4 21 5 22 6 20 8 17 9 18 10 97 11 19 12
REMARK SMILES IDX 96 13 16 14 9 15 10 16 11 17 15 18 8 19 5 20 6 21 99 22 7 23
REMARK SMILES IDX 98 24 2 25 3 26 4 27 1 28 12 31 13 32 14 33 27 34 28 35
REMARK SMILES IDX 29 36 30 37 31 38 32 40 33 41 34 42 95 43 35 44 94 45 36 46
REMARK SMILES IDX 37 47 38 48 88 49 39 50 93 51 87 52 89 53 40 54 92 55 86 56
REMARK SMILES IDX 85 57 41 59 73 60 53 61 72 62 54 63 57 64 71 65 90 66 55 67
REMARK SMILES IDX 56 68 70 70 91 71 58 72 42 73 43 74 51 75 44 76 46 77 52 78
REMARK SMILES IDX 45 79 47 80 48 81 49 82 50 83 74 84 75 85 83 86 76 87 78 88
REMARK SMILES IDX 84 89 77 90 79 91 80 92 81 93 82 94 59 95 60 96 68 97 61 98
REMARK SMILES IDX 63 99 69 100 62 101 64 102 65 103 66 104 67 105
REMARK H PARENT 23 7 1 29 1 30 30 39 89 58 57 69
REMARK Flexibility Score: inf
ROOT
ATOM      1  C   UNL A   1      40.793  20.574  26.288  1.00  0.00     0.002 C 
ENDROOT
BRANCH   1   2
ATOM      2  C   UNL A   1      39.477  19.917  25.856  1.00  0.00     0.021 C 
BRANCH   2   3
ATOM      3  C   UNL A   1      38.389  20.928  25.492  1.00  0.00     0.116 C 
BRANCH   3   4
ATOM      4  N   UNL A   1      38.808  22.269  25.851  1.00  0.00    -0.352 N 
ATOM      5  C   UNL A   1      38.125  23.458  25.894  1.00  0.00     0.251 C 
ATOM      6  O   UNL A   1      38.728  24.454  26.296  1.00  0.00    -0.269 OA
ATOM      7  H   UNL A   1      39.754  22.339  26.113  1.00  0.00     0.163 HD
BRANCH   5   8
ATOM      8  C   UNL A   1      36.675  23.555  25.578  1.00  0.00     0.039 A 
ATOM      9  C   UNL A   1      33.998  23.984  24.843  1.00  0.00     0.000 A 
ATOM     10  C   UNL A   1      34.997  23.928  23.863  1.00  0.00     0.011 A 
ATOM     11  C   UNL A   1      34.334  23.766  26.179  1.00  0.00     0.011 A 
ATOM     12  C   UNL A   1      36.328  23.720  24.229  1.00  0.00     0.014 A 
ATOM     13  C   UNL A   1      35.657  23.501  26.533  1.00  0.00     0.014 A 
BRANCH   9  14
ATOM     14  C   UNL A   1      32.608  24.204  24.474  1.00  0.00     0.075 A 
ATOM     15  N   UNL A   1      31.745  23.216  24.018  1.00  0.00    -0.233 N 
ATOM     16  N   UNL A   1      30.619  23.751  23.475  1.00  0.00    -0.166 NA
ATOM     17  C   UNL A   1      30.639  25.040  23.862  1.00  0.00     0.129 A 
ATOM     18  C   UNL A   1      31.889  25.379  24.432  1.00  0.00     0.060 A 
BRANCH  15  19
ATOM     19  C   UNL A   1      31.991  21.821  23.995  1.00  0.00     0.065 A 
ATOM     20  C   UNL A   1      32.790  19.162  23.943  1.00  0.00     0.082 A 
ATOM     21  C   UNL A   1      32.598  19.789  25.173  1.00  0.00     0.024 A 
ATOM     22  C   UNL A   1      32.539  19.838  22.741  1.00  0.00     0.024 A 
ATOM     23  C   UNL A   1      32.202  21.124  25.196  1.00  0.00     0.030 A 
ATOM     24  C   UNL A   1      32.108  21.166  22.765  1.00  0.00     0.030 A 
BRANCH  20  25
ATOM     25  S   UNL A   1      33.391  17.504  23.884  1.00  0.00     0.238 S 
ATOM     26  O   UNL A   1      34.637  17.394  24.615  1.00  0.00    -0.207 OA
ATOM     27  O   UNL A   1      33.238  17.003  22.544  1.00  0.00    -0.207 OA
BRANCH  25  28
ATOM     28  N   UNL A   1      32.260  16.685  24.819  1.00  0.00    -0.225 NA
ATOM     29  H   UNL A   1      31.541  17.337  25.131  1.00  0.00     0.137 HD
ATOM     30  H   UNL A   1      32.723  16.275  25.630  1.00  0.00     0.137 HD
ENDBRANCH  25  28
ENDBRANCH  20  25
ENDBRANCH  15  19
BRANCH  17  31
ATOM     31  C   UNL A   1      29.483  25.973  23.660  1.00  0.00     0.393 C 
ATOM     32  F   UNL A   1      28.834  26.264  24.821  1.00  0.00    -0.203 F 
ATOM     33  F   UNL A   1      29.877  27.163  23.127  1.00  0.00    -0.203 F 
ENDBRANCH  17  31
ENDBRANCH   9  14
ENDBRANCH   5   8
ENDBRANCH   3   4
ENDBRANCH   2   3
ENDBRANCH   1   2
BRANCH   1  34
ATOM     34  C   UNL A   1      41.760  19.660  27.057  1.00  0.00     0.002 C 
BRANCH  34  35
ATOM     35  C   UNL A   1      42.364  18.498  26.255  1.00  0.00     0.021 C 
BRANCH  35  36
ATOM     36  C   UNL A   1      43.880  18.574  26.135  1.00  0.00     0.116 C 
BRANCH  36  37
ATOM     37  N   UNL A   1      44.297  18.690  24.739  1.00  0.00    -0.352 N 
ATOM     38  C   UNL A   1      44.439  19.824  23.970  1.00  0.00     0.251 C 
ATOM     39  H   UNL A   1      44.504  17.842  24.284  1.00  0.00     0.163 HD
ATOM     40  O   UNL A   1      44.451  19.752  22.746  1.00  0.00    -0.269 OA
BRANCH  38  41
ATOM     41  C   UNL A   1      44.574  21.124  24.644  1.00  0.00     0.039 A 
ATOM     42  C   UNL A   1      43.520  22.041  24.640  1.00  0.00     0.014 A 
ATOM     43  C   UNL A   1      45.765  21.400  25.312  1.00  0.00     0.014 A 
ATOM     44  C   UNL A   1      43.647  23.210  25.384  1.00  0.00     0.010 A 
ATOM     45  C   UNL A   1      45.832  22.479  26.157  1.00  0.00     0.010 A 
ATOM     46  C   UNL A   1      44.799  23.414  26.159  1.00  0.00    -0.014 A 
BRANCH  46  47
ATOM     47  C   UNL A   1      44.870  24.534  27.093  1.00  0.00     0.031 A 
ATOM     48  C   UNL A   1      46.081  25.381  26.920  1.00  0.00     0.074 A 
ATOM     49  C   UNL A   1      43.826  24.907  27.866  1.00  0.00     0.049 A 
ATOM     50  N   UNL A   1      47.083  25.509  27.727  1.00  0.00    -0.248 NA
ATOM     51  C   UNL A   1      46.284  26.036  25.617  1.00  0.00     0.031 C 
ATOM     52  C   UNL A   1      42.470  24.342  27.840  1.00  0.00     0.029 A 
ATOM     53  N   UNL A   1      43.695  25.967  28.716  1.00  0.00    -0.354 N 
ATOM     54  C   UNL A   1      47.890  26.489  27.149  1.00  0.00     0.074 A 
ATOM     55  C   UNL A   1      47.500  26.564  25.771  1.00  0.00     0.031 C 
ATOM     56  C   UNL A   1      41.608  25.217  28.399  1.00  0.00     0.029 A 
ATOM     57  C   UNL A   1      42.371  26.295  28.993  1.00  0.00     0.049 A 
ATOM     58  H   UNL A   1      44.463  26.452  29.096  1.00  0.00     0.167 HD
ATOM     59  C   UNL A   1      48.541  27.394  27.935  1.00  0.00     0.034 A 
ATOM     60  C   UNL A   1      41.914  27.391  29.643  1.00  0.00     0.034 A 
ATOM     61  C   UNL A   1      48.518  26.971  29.314  1.00  0.00     0.049 A 
ATOM     62  C   UNL A   1      43.022  27.919  30.462  1.00  0.00     0.074 A 
ATOM     63  C   UNL A   1      49.116  26.004  30.089  1.00  0.00     0.029 A 
ATOM     64  N   UNL A   1      47.426  27.436  29.998  1.00  0.00    -0.354 N 
ATOM     65  N   UNL A   1      43.540  27.267  31.466  1.00  0.00    -0.248 NA
ATOM     66  C   UNL A   1      43.804  29.049  29.977  1.00  0.00     0.031 C 
ATOM     67  C   UNL A   1      48.238  25.788  31.193  1.00  0.00     0.029 A 
ATOM     68  C   UNL A   1      47.149  26.653  31.083  1.00  0.00     0.049 A 
ATOM     69  H   UNL A   1      46.907  28.233  29.742  1.00  0.00     0.167 HD
ATOM     70  C   UNL A   1      44.880  27.600  31.417  1.00  0.00     0.074 A 
ATOM     71  C   UNL A   1      44.944  28.829  30.639  1.00  0.00     0.031 C 
ATOM     72  C   UNL A   1      45.841  26.676  31.701  1.00  0.00     0.034 A 
BRANCH  59  73
ATOM     73  C   UNL A   1      48.737  28.876  27.620  1.00  0.00     0.023 A 
ATOM     74  C   UNL A   1      50.034  29.402  27.846  1.00  0.00     0.012 A 
ATOM     75  C   UNL A   1      47.702  29.822  27.437  1.00  0.00     0.148 A 
ATOM     76  C   UNL A   1      50.268  30.777  27.967  1.00  0.00     0.002 A 
ATOM     77  C   UNL A   1      47.949  31.191  27.499  1.00  0.00     0.091 A 
ATOM     78  F   UNL A   1      46.435  29.425  27.322  1.00  0.00    -0.205 F 
ATOM     79  C   UNL A   1      49.224  31.674  27.796  1.00  0.00     0.022 A 
BRANCH  77  80
ATOM     80  S   UNL A   1      46.634  32.397  27.267  1.00  0.00     0.127 S 
ATOM     81  O   UNL A   1      47.380  33.651  27.309  1.00  0.00    -0.237 OA
ATOM     82  O   UNL A   1      46.116  32.023  25.950  1.00  0.00    -0.237 OA
ATOM     83  O   UNL A   1      45.697  32.175  28.361  1.00  0.00    -0.744 OA
ENDBRANCH  77  80
ENDBRANCH  59  73
BRANCH  60  84
ATOM     84  C   UNL A   1      40.629  28.105  29.502  1.00  0.00     0.023 A 
ATOM     85  C   UNL A   1      40.011  28.198  28.241  1.00  0.00     0.012 A 
ATOM     86  C   UNL A   1      39.882  28.462  30.647  1.00  0.00     0.148 A 
ATOM     87  C   UNL A   1      38.675  28.597  28.125  1.00  0.00     0.002 A 
ATOM     88  C   UNL A   1      38.554  28.859  30.526  1.00  0.00     0.091 A 
ATOM     89  F   UNL A   1      40.453  28.332  31.852  1.00  0.00    -0.205 F 
ATOM     90  C   UNL A   1      37.943  28.915  29.266  1.00  0.00     0.022 A 
BRANCH  88  91
ATOM     91  S   UNL A   1      37.534  29.259  31.952  1.00  0.00     0.127 S 
ATOM     92  O   UNL A   1      36.229  29.482  31.328  1.00  0.00    -0.237 OA
ATOM     93  O   UNL A   1      37.633  28.038  32.748  1.00  0.00    -0.237 OA
ATOM     94  O   UNL A   1      38.128  30.448  32.550  1.00  0.00    -0.744 OA
ENDBRANCH  88  91
ENDBRANCH  60  84
BRANCH  72  95
ATOM     95  C   UNL A   1      45.456  25.506  32.556  1.00  0.00     0.023 A 
ATOM     96  C   UNL A   1      44.876  24.330  32.038  1.00  0.00     0.012 A 
ATOM     97  C   UNL A   1      45.788  25.561  33.919  1.00  0.00     0.148 A 
ATOM     98  C   UNL A   1      44.620  23.239  32.874  1.00  0.00     0.002 A 
ATOM     99  C   UNL A   1      45.578  24.459  34.734  1.00  0.00     0.091 A 
ATOM    100  F   UNL A   1      46.328  26.695  34.392  1.00  0.00    -0.205 F 
ATOM    101  C   UNL A   1      44.984  23.298  34.218  1.00  0.00     0.022 A 
BRANCH  99 102
ATOM    102  S   UNL A   1      46.138  24.443  36.437  1.00  0.00     0.127 S 
ATOM    103  O   UNL A   1      45.883  23.059  36.830  1.00  0.00    -0.237 OA
ATOM    104  O   UNL A   1      47.553  24.792  36.306  1.00  0.00    -0.237 OA
ATOM    105  O   UNL A   1      45.341  25.450  37.128  1.00  0.00    -0.744 OA
ENDBRANCH  99 102
ENDBRANCH  72  95
ENDBRANCH  46  47
ENDBRANCH  38  41
ENDBRANCH  36  37
ENDBRANCH  35  36
ENDBRANCH  34  35
ENDBRANCH   1  34
TORSDOF 21
ENDMDL
MODEL 2
REMARK VINA RESULT:     -11.9      3.161      7.638
REMARK SMILES NS(=O)(=O)c1ccc(-n2nc(C(F)F)cc2-c2ccc(C(=O)NCCCCCCNC(=O)c3ccc(-c4c5nc(c(-c6cccc(S(=O)(=O)[O-])c6F)c6ccc([nH]6)c(-c6cccc(S(=O)(=O)[O-])c6F)c6nc(c(-c7cccc(S(=O)(=O)[O-])c7F)c7ccc4[nH]7)C=C6)C=C5)cc3)cc2)cc1
REMARK SMILES IDX 26 1 25 2 24 3 23 4 21 5 22 6 20 8 17 9 18 10 97 11 19 12
REMARK SMILES IDX 96 13 16 14 9 15 10 16 11 17 15 18 8 19 5 20 6 21 99 22 7 23
REMARK SMILES IDX 98 24 2 25 3 26 4 27 1 28 12 31 13 32 14 33 27 34 28 35
REMARK SMILES IDX 29 36 30 37 31 38 32 40 33 41 34 42 95 43 35 44 94 45 36 46
REMARK SMILES IDX 37 47 38 48 88 49 39 50 93 51 87 52 89 53 40 54 92 55 86 56
REMARK SMILES IDX 85 57 41 59 73 60 53 61 72 62 54 63 57 64 71 65 90 66 55 67
REMARK SMILES IDX 56 68 70 70 91 71 58 72 42 73 43 74 51 75 44 76 46 77 52 78
REMARK SMILES IDX 45 79 47 80 48 81 49 82 50 83 74 84 75 85 83 86 76 87 78 88
REMARK SMILES IDX 84 89 77 90 79 91 80 92 81 93 82 94 59 95 60 96 68 97 61 98
REMARK SMILES IDX 63 99 69 100 62 101 64 102 65 103 66 104 67 105
REMARK H PARENT 23 7 1 29 1 30 30 39 89 58 57 69
REMARK Flexibility Score: inf
ROOT
ATOM      1  C   UNL A   1      33.187  29.051  24.650  1.00  0.00     0.002 C 
ENDROOT
BRANCH   1   2
ATOM      2  C   UNL A   1      31.926  28.673  23.862  1.00  0.00     0.021 C 
BRANCH   2   3
ATOM      3  C   UNL A   1      32.199  27.684  22.728  1.00  0.00     0.116 C 
BRANCH   3   4
ATOM      4  N   UNL A   1      31.315  26.539  22.836  1.00  0.00    -0.352 N 
ATOM      5  C   UNL A   1      31.531  25.256  23.272  1.00  0.00     0.251 C 
ATOM      6  O   UNL A   1      30.568  24.490  23.306  1.00  0.00    -0.269 OA
ATOM      7  H   UNL A   1      30.392  26.714  22.544  1.00  0.00     0.163 HD
BRANCH   5   8
ATOM      8  C   UNL A   1      32.848  24.805  23.796  1.00  0.00     0.039 A 
ATOM      9  C   UNL A   1      35.269  23.692  24.686  1.00  0.00     0.000 A 
ATOM     10  C   UNL A   1      34.906  23.601  23.336  1.00  0.00     0.011 A 
ATOM     11  C   UNL A   1      34.449  24.391  25.572  1.00  0.00     0.011 A 
ATOM     12  C   UNL A   1      33.701  24.150  22.895  1.00  0.00     0.014 A 
ATOM     13  C   UNL A   1      33.274  24.987  25.114  1.00  0.00     0.014 A 
BRANCH   9  14
ATOM     14  C   UNL A   1      36.521  23.121  25.157  1.00  0.00     0.075 A 
ATOM     15  N   UNL A   1      36.732  21.771  25.404  1.00  0.00    -0.233 N 
ATOM     16  N   UNL A   1      37.877  21.566  26.107  1.00  0.00    -0.166 NA
ATOM     17  C   UNL A   1      38.530  22.741  26.036  1.00  0.00     0.129 A 
ATOM     18  C   UNL A   1      37.695  23.753  25.508  1.00  0.00     0.060 A 
BRANCH  15  19
ATOM     19  C   UNL A   1      35.854  20.705  25.085  1.00  0.00     0.065 A 
ATOM     20  C   UNL A   1      34.165  18.523  24.770  1.00  0.00     0.082 A 
ATOM     21  C   UNL A   1      33.621  19.756  25.128  1.00  0.00     0.024 A 
ATOM     22  C   UNL A   1      35.538  18.384  24.520  1.00  0.00     0.024 A 
ATOM     23  C   UNL A   1      34.471  20.847  25.291  1.00  0.00     0.030 A 
ATOM     24  C   UNL A   1      36.385  19.487  24.649  1.00  0.00     0.030 A 
BRANCH  20  25
ATOM     25  S   UNL A   1      33.127  17.101  24.659  1.00  0.00     0.238 S 
ATOM     26  O   UNL A   1      33.451  16.333  23.474  1.00  0.00    -0.207 OA
ATOM     27  O   UNL A   1      31.779  17.484  24.984  1.00  0.00    -0.207 OA
BRANCH  25  28
ATOM     28  N   UNL A   1      33.669  16.168  25.948  1.00  0.00    -0.225 NA
ATOM     29  H   UNL A   1      33.411  16.618  26.826  1.00  0.00     0.137 HD
ATOM     30  H   UNL A   1      34.683  16.075  25.899  1.00  0.00     0.137 HD
ENDBRANCH  25  28
ENDBRANCH  20  25
ENDBRANCH  15  19
BRANCH  17  31
ATOM     31  C   UNL A   1      39.943  22.922  26.504  1.00  0.00     0.393 C 
ATOM     32  F   UNL A   1      40.092  22.668  27.833  1.00  0.00    -0.203 F 
ATOM     33  F   UNL A   1      40.805  22.094  25.851  1.00  0.00    -0.203 F 
ENDBRANCH  17  31
ENDBRANCH   9  14
ENDBRANCH   5   8
ENDBRANCH   3   4
ENDBRANCH   2   3
ENDBRANCH   1   2
BRANCH   1  34
ATOM     34  C   UNL A   1      32.939  29.539  26.086  1.00  0.00     0.002 C 
BRANCH  34  35
ATOM     35  C   UNL A   1      33.684  28.775  27.190  1.00  0.00     0.021 C 
BRANCH  35  36
ATOM     36  C   UNL A   1      35.115  29.255  27.394  1.00  0.00     0.116 C 
BRANCH  36  37
ATOM     37  N   UNL A   1      35.204  30.198  28.508  1.00  0.00    -0.352 N 
ATOM     38  C   UNL A   1      36.154  30.274  29.502  1.00  0.00     0.251 C 
ATOM     39  H   UNL A   1      34.486  30.870  28.556  1.00  0.00     0.163 HD
ATOM     40  O   UNL A   1      35.920  30.871  30.547  1.00  0.00    -0.269 OA
BRANCH  38  41
ATOM     41  C   UNL A   1      37.456  29.624  29.289  1.00  0.00     0.039 A 
ATOM     42  C   UNL A   1      38.314  30.064  28.278  1.00  0.00     0.014 A 
ATOM     43  C   UNL A   1      37.822  28.585  30.141  1.00  0.00     0.014 A 
ATOM     44  C   UNL A   1      39.582  29.498  28.182  1.00  0.00     0.010 A 
ATOM     45  C   UNL A   1      39.117  28.131  30.137  1.00  0.00     0.010 A 
ATOM     46  C   UNL A   1      39.985  28.545  29.130  1.00  0.00    -0.014 A 
BRANCH  46  47
ATOM     47  C   UNL A   1      41.370  28.083  29.166  1.00  0.00     0.031 A 
ATOM     48  C   UNL A   1      41.664  26.996  28.194  1.00  0.00     0.074 A 
ATOM     49  C   UNL A   1      42.343  28.742  29.835  1.00  0.00     0.049 A 
ATOM     50  N   UNL A   1      41.943  25.759  28.447  1.00  0.00    -0.248 NA
ATOM     51  C   UNL A   1      41.455  27.275  26.763  1.00  0.00     0.031 C 
ATOM     52  C   UNL A   1      42.210  30.028  30.533  1.00  0.00     0.029 A 
ATOM     53  N   UNL A   1      43.684  28.501  29.900  1.00  0.00    -0.354 N 
ATOM     54  C   UNL A   1      42.231  25.192  27.204  1.00  0.00     0.074 A 
ATOM     55  C   UNL A   1      41.661  26.071  26.225  1.00  0.00     0.031 C 
ATOM     56  C   UNL A   1      43.431  30.581  30.694  1.00  0.00     0.029 A 
ATOM     57  C   UNL A   1      44.428  29.608  30.298  1.00  0.00     0.049 A 
ATOM     58  H   UNL A   1      44.087  27.629  29.685  1.00  0.00     0.167 HD
ATOM     59  C   UNL A   1      43.218  24.258  27.087  1.00  0.00     0.034 A 
ATOM     60  C   UNL A   1      45.775  29.743  30.283  1.00  0.00     0.034 A 
ATOM     61  C   UNL A   1      43.610  23.775  28.389  1.00  0.00     0.049 A 
ATOM     62  C   UNL A   1      46.359  28.389  30.280  1.00  0.00     0.074 A 
ATOM     63  C   UNL A   1      43.086  22.967  29.371  1.00  0.00     0.029 A 
ATOM     64  N   UNL A   1      44.622  24.509  28.949  1.00  0.00    -0.354 N 
ATOM     65  N   UNL A   1      46.232  27.555  31.275  1.00  0.00    -0.248 NA
ATOM     66  C   UNL A   1      46.824  27.805  29.028  1.00  0.00     0.031 C 
ATOM     67  C   UNL A   1      43.714  23.370  30.587  1.00  0.00     0.029 A 
ATOM     68  C   UNL A   1      44.629  24.385  30.310  1.00  0.00     0.049 A 
ATOM     69  H   UNL A   1      45.262  25.054  28.438  1.00  0.00     0.167 HD
ATOM     70  C   UNL A   1      46.141  26.321  30.660  1.00  0.00     0.074 A 
ATOM     71  C   UNL A   1      46.711  26.509  29.333  1.00  0.00     0.031 C 
ATOM     72  C   UNL A   1      45.302  25.361  31.141  1.00  0.00     0.034 A 
BRANCH  59  73
ATOM     73  C   UNL A   1      44.205  24.139  25.927  1.00  0.00     0.023 A 
ATOM     74  C   UNL A   1      44.316  22.861  25.324  1.00  0.00     0.012 A 
ATOM     75  C   UNL A   1      45.222  25.069  25.613  1.00  0.00     0.148 A 
ATOM     76  C   UNL A   1      45.414  22.505  24.531  1.00  0.00     0.002 A 
ATOM     77  C   UNL A   1      46.282  24.731  24.776  1.00  0.00     0.091 A 
ATOM     78  F   UNL A   1      45.260  26.259  26.212  1.00  0.00    -0.205 F 
ATOM     79  C   UNL A   1      46.402  23.441  24.259  1.00  0.00     0.022 A 
BRANCH  77  80
ATOM     80  S   UNL A   1      47.580  25.912  24.376  1.00  0.00     0.127 S 
ATOM     81  O   UNL A   1      48.328  25.956  25.630  1.00  0.00    -0.237 OA
ATOM     82  O   UNL A   1      48.261  25.243  23.268  1.00  0.00    -0.237 OA
ATOM     83  O   UNL A   1      46.893  27.141  23.999  1.00  0.00    -0.744 OA
ENDBRANCH  77  80
ENDBRANCH  59  73
BRANCH  60  84
ATOM     84  C   UNL A   1      46.600  30.957  30.126  1.00  0.00     0.023 A 
ATOM     85  C   UNL A   1      47.513  31.323  31.133  1.00  0.00     0.012 A 
ATOM     86  C   UNL A   1      46.683  31.607  28.874  1.00  0.00     0.148 A 
ATOM     87  C   UNL A   1      48.506  32.278  30.889  1.00  0.00     0.002 A 
ATOM     88  C   UNL A   1      47.672  32.557  28.636  1.00  0.00     0.091 A 
ATOM     89  F   UNL A   1      45.845  31.230  27.899  1.00  0.00    -0.205 F 
ATOM     90  C   UNL A   1      48.594  32.886  29.639  1.00  0.00     0.022 A 
BRANCH  88  91
ATOM     91  S   UNL A   1      47.869  33.365  27.042  1.00  0.00     0.127 S 
ATOM     92  O   UNL A   1      46.507  33.828  26.775  1.00  0.00    -0.237 OA
ATOM     93  O   UNL A   1      48.826  34.423  27.355  1.00  0.00    -0.237 OA
ATOM     94  O   UNL A   1      48.348  32.337  26.127  1.00  0.00    -0.744 OA
ENDBRANCH  88  91
ENDBRANCH  60  84
BRANCH  72  95
ATOM     95  C   UNL A   1      44.901  25.439  32.584  1.00  0.00     0.023 A 
ATOM     96  C   UNL A   1      45.667  24.885  33.628  1.00  0.00     0.012 A 
ATOM     97  C   UNL A   1      43.759  26.192  32.899  1.00  0.00     0.148 A 
ATOM     98  C   UNL A   1      45.287  25.067  34.961  1.00  0.00     0.002 A 
ATOM     99  C   UNL A   1      43.411  26.412  34.224  1.00  0.00     0.091 A 
ATOM    100  F   UNL A   1      43.038  26.701  31.888  1.00  0.00    -0.205 F 
ATOM    101  C   UNL A   1      44.167  25.842  35.259  1.00  0.00     0.022 A 
BRANCH  99 102
ATOM    102  S   UNL A   1      42.054  27.498  34.660  1.00  0.00     0.127 S 
ATOM    103  O   UNL A   1      40.931  26.568  34.739  1.00  0.00    -0.237 OA
ATOM    104  O   UNL A   1      42.490  28.044  35.946  1.00  0.00    -0.237 OA
ATOM    105  O   UNL A   1      41.976  28.488  33.593  1.00  0.00    -0.744 OA
ENDBRANCH  99 102
ENDBRANCH  72  95
ENDBRANCH  46  47
ENDBRANCH  38  41
ENDBRANCH  36  37
ENDBRANCH  35  36
ENDBRANCH  34  35
ENDBRANCH   1  34
TORSDOF 21
ENDMDL
MODEL 3
REMARK VINA RESULT:     -11.8      2.980      8.846
REMARK SMILES NS(=O)(=O)c1ccc(-n2nc(C(F)F)cc2-c2ccc(C(=O)NCCCCCCNC(=O)c3ccc(-c4c5nc(c(-c6cccc(S(=O)(=O)[O-])c6F)c6ccc([nH]6)c(-c6cccc(S(=O)(=O)[O-])c6F)c6nc(c(-c7cccc(S(=O)(=O)[O-])c7F)c7ccc4[nH]7)C=C6)C=C5)cc3)cc2)cc1
REMARK SMILES IDX 26 1 25 2 24 3 23 4 21 5 22 6 20 8 17 9 18 10 97 11 19 12
REMARK SMILES IDX 96 13 16 14 9 15 10 16 11 17 15 18 8 19 5 20 6 21 99 22 7 23
REMARK SMILES IDX 98 24 2 25 3 26 4 27 1 28 12 31 13 32 14 33 27 34 28 35
REMARK SMILES IDX 29 36 30 37 31 38 32 40 33 41 34 42 95 43 35 44 94 45 36 46
REMARK SMILES IDX 37 47 38 48 88 49 39 50 93 51 87 52 89 53 40 54 92 55 86 56
REMARK SMILES IDX 85 57 41 59 73 60 53 61 72 62 54 63 57 64 71 65 90 66 55 67
REMARK SMILES IDX 56 68 70 70 91 71 58 72 42 73 43 74 51 75 44 76 46 77 52 78
REMARK SMILES IDX 45 79 47 80 48 81 49 82 50 83 74 84 75 85 83 86 76 87 78 88
REMARK SMILES IDX 84 89 77 90 79 91 80 92 81 93 82 94 59 95 60 96 68 97 61 98
REMARK SMILES IDX 63 99 69 100 62 101 64 102 65 103 66 104 67 105
REMARK H PARENT 23 7 1 29 1 30 30 39 89 58 57 69
REMARK Flexibility Score: inf
ROOT
ATOM      1  C   UNL A   1      32.155  28.261  25.871  1.00  0.00     0.002 C 
ENDROOT
BRANCH   1   2
ATOM      2  C   UNL A   1      31.276  28.558  24.651  1.00  0.00     0.021 C 
BRANCH   2   3
ATOM      3  C   UNL A   1      31.679  27.760  23.410  1.00  0.00     0.116 C 
BRANCH   3   4
ATOM      4  N   UNL A   1      30.778  26.640  23.216  1.00  0.00    -0.352 N 
ATOM      5  C   UNL A   1      30.971  25.286  23.318  1.00  0.00     0.251 C 
ATOM      6  O   UNL A   1      29.997  24.552  23.148  1.00  0.00    -0.269 OA
ATOM      7  H   UNL A   1      29.862  26.899  22.968  1.00  0.00     0.163 HD
BRANCH   5   8
ATOM      8  C   UNL A   1      32.274  24.695  23.725  1.00  0.00     0.039 A 
ATOM      9  C   UNL A   1      34.772  23.813  24.656  1.00  0.00     0.000 A 
ATOM     10  C   UNL A   1      33.753  24.126  25.564  1.00  0.00     0.011 A 
ATOM     11  C   UNL A   1      34.518  23.884  23.287  1.00  0.00     0.011 A 
ATOM     12  C   UNL A   1      32.513  24.570  25.101  1.00  0.00     0.014 A 
ATOM     13  C   UNL A   1      33.259  24.272  22.829  1.00  0.00     0.014 A 
BRANCH   9  14
ATOM     14  C   UNL A   1      36.070  23.353  25.128  1.00  0.00     0.075 A 
ATOM     15  N   UNL A   1      36.415  22.022  25.322  1.00  0.00    -0.233 N 
ATOM     16  N   UNL A   1      37.565  21.906  26.038  1.00  0.00    -0.166 NA
ATOM     17  C   UNL A   1      38.094  23.143  26.028  1.00  0.00     0.129 A 
ATOM     18  C   UNL A   1      37.167  24.087  25.525  1.00  0.00     0.060 A 
BRANCH  15  19
ATOM     19  C   UNL A   1      35.657  20.887  24.944  1.00  0.00     0.065 A 
ATOM     20  C   UNL A   1      34.137  18.602  24.520  1.00  0.00     0.082 A 
ATOM     21  C   UNL A   1      33.495  19.836  24.614  1.00  0.00     0.024 A 
ATOM     22  C   UNL A   1      35.534  18.507  24.585  1.00  0.00     0.024 A 
ATOM     23  C   UNL A   1      34.259  20.980  24.833  1.00  0.00     0.030 A 
ATOM     24  C   UNL A   1      36.303  19.659  24.768  1.00  0.00     0.030 A 
BRANCH  20  25
ATOM     25  S   UNL A   1      33.186  17.125  24.348  1.00  0.00     0.238 S 
ATOM     26  O   UNL A   1      32.054  17.148  25.252  1.00  0.00    -0.207 OA
ATOM     27  O   UNL A   1      34.083  16.003  24.264  1.00  0.00    -0.207 OA
BRANCH  25  28
ATOM     28  N   UNL A   1      32.525  17.308  22.813  1.00  0.00    -0.225 NA
ATOM     29  H   UNL A   1      32.123  18.241  22.726  1.00  0.00     0.137 HD
ATOM     30  H   UNL A   1      31.797  16.609  22.671  1.00  0.00     0.137 HD
ENDBRANCH  25  28
ENDBRANCH  20  25
ENDBRANCH  15  19
BRANCH  17  31
ATOM     31  C   UNL A   1      39.474  23.448  26.529  1.00  0.00     0.393 C 
ATOM     32  F   UNL A   1      39.576  23.344  27.883  1.00  0.00    -0.203 F 
ATOM     33  F   UNL A   1      40.404  22.605  26.003  1.00  0.00    -0.203 F 
ENDBRANCH  17  31
ENDBRANCH   9  14
ENDBRANCH   5   8
ENDBRANCH   3   4
ENDBRANCH   2   3
ENDBRANCH   1   2
BRANCH   1  34
ATOM     34  C   UNL A   1      33.129  29.383  26.265  1.00  0.00     0.002 C 
BRANCH  34  35
ATOM     35  C   UNL A   1      34.072  29.072  27.436  1.00  0.00     0.021 C 
BRANCH  35  36
ATOM     36  C   UNL A   1      35.296  29.976  27.480  1.00  0.00     0.116 C 
BRANCH  36  37
ATOM     37  N   UNL A   1      35.210  30.932  28.584  1.00  0.00    -0.352 N 
ATOM     38  C   UNL A   1      36.001  31.029  29.707  1.00  0.00     0.251 C 
ATOM     39  H   UNL A   1      34.487  31.597  28.516  1.00  0.00     0.163 HD
ATOM     40  O   UNL A   1      35.608  31.635  30.698  1.00  0.00    -0.269 OA
BRANCH  38  41
ATOM     41  C   UNL A   1      37.325  30.391  29.697  1.00  0.00     0.039 A 
ATOM     42  C   UNL A   1      38.484  31.157  29.550  1.00  0.00     0.014 A 
ATOM     43  C   UNL A   1      37.394  29.011  29.872  1.00  0.00     0.014 A 
ATOM     44  C   UNL A   1      39.721  30.530  29.660  1.00  0.00     0.010 A 
ATOM     45  C   UNL A   1      38.607  28.420  30.123  1.00  0.00     0.010 A 
ATOM     46  C   UNL A   1      39.776  29.162  29.968  1.00  0.00    -0.014 A 
BRANCH  46  47
ATOM     47  C   UNL A   1      41.054  28.527  30.279  1.00  0.00     0.031 A 
ATOM     48  C   UNL A   1      41.403  28.561  31.724  1.00  0.00     0.074 A 
ATOM     49  C   UNL A   1      41.730  27.770  29.385  1.00  0.00     0.049 A 
ATOM     50  N   UNL A   1      42.352  29.227  32.296  1.00  0.00    -0.248 NA
ATOM     51  C   UNL A   1      40.482  27.910  32.671  1.00  0.00     0.031 C 
ATOM     52  C   UNL A   1      41.278  27.389  28.040  1.00  0.00     0.029 A 
ATOM     53  N   UNL A   1      42.875  27.044  29.535  1.00  0.00    -0.354 N 
ATOM     54  C   UNL A   1      42.314  28.834  33.635  1.00  0.00     0.074 A 
ATOM     55  C   UNL A   1      41.016  28.261  33.844  1.00  0.00     0.031 C 
ATOM     56  C   UNL A   1      41.971  26.310  27.622  1.00  0.00     0.029 A 
ATOM     57  C   UNL A   1      43.034  26.053  28.571  1.00  0.00     0.049 A 
ATOM     58  H   UNL A   1      43.526  27.205  30.256  1.00  0.00     0.167 HD
ATOM     59  C   UNL A   1      43.472  28.683  34.340  1.00  0.00     0.034 A 
ATOM     60  C   UNL A   1      43.957  25.063  28.552  1.00  0.00     0.034 A 
ATOM     61  C   UNL A   1      44.575  29.278  33.627  1.00  0.00     0.049 A 
ATOM     62  C   UNL A   1      45.081  25.485  29.411  1.00  0.00     0.074 A 
ATOM     63  C   UNL A   1      45.028  30.542  33.329  1.00  0.00     0.029 A 
ATOM     64  N   UNL A   1      45.195  28.402  32.774  1.00  0.00    -0.354 N 
ATOM     65  N   UNL A   1      45.845  26.504  29.133  1.00  0.00    -0.248 NA
ATOM     66  C   UNL A   1      45.178  24.979  30.774  1.00  0.00     0.031 C 
ATOM     67  C   UNL A   1      45.817  30.408  32.148  1.00  0.00     0.029 A 
ATOM     68  C   UNL A   1      45.857  29.064  31.779  1.00  0.00     0.049 A 
ATOM     69  H   UNL A   1      45.168  27.422  32.868  1.00  0.00     0.167 HD
ATOM     70  C   UNL A   1      46.141  27.039  30.373  1.00  0.00     0.074 A 
ATOM     71  C   UNL A   1      45.889  25.967  31.325  1.00  0.00     0.031 C 
ATOM     72  C   UNL A   1      46.218  28.389  30.551  1.00  0.00     0.034 A 
BRANCH  59  73
ATOM     73  C   UNL A   1      43.758  27.589  35.367  1.00  0.00     0.023 A 
ATOM     74  C   UNL A   1      44.220  28.021  36.636  1.00  0.00     0.012 A 
ATOM     75  C   UNL A   1      43.912  26.213  35.081  1.00  0.00     0.148 A 
ATOM     76  C   UNL A   1      44.870  27.156  37.525  1.00  0.00     0.002 A 
ATOM     77  C   UNL A   1      44.505  25.343  35.992  1.00  0.00     0.091 A 
ATOM     78  F   UNL A   1      43.603  25.733  33.877  1.00  0.00    -0.205 F 
ATOM     79  C   UNL A   1      45.015  25.815  37.202  1.00  0.00     0.022 A 
BRANCH  77  80
ATOM     80  S   UNL A   1      44.702  23.591  35.631  1.00  0.00     0.127 S 
ATOM     81  O   UNL A   1      45.677  23.628  34.545  1.00  0.00    -0.237 OA
ATOM     82  O   UNL A   1      45.208  23.080  36.905  1.00  0.00    -0.237 OA
ATOM     83  O   UNL A   1      43.373  23.107  35.279  1.00  0.00    -0.744 OA
ENDBRANCH  77  80
ENDBRANCH  59  73
BRANCH  60  84
ATOM     84  C   UNL A   1      43.880  23.712  27.963  1.00  0.00     0.023 A 
ATOM     85  C   UNL A   1      42.912  22.798  28.418  1.00  0.00     0.012 A 
ATOM     86  C   UNL A   1      44.581  23.412  26.773  1.00  0.00     0.148 A 
ATOM     87  C   UNL A   1      42.619  21.640  27.691  1.00  0.00     0.002 A 
ATOM     88  C   UNL A   1      44.288  22.258  26.053  1.00  0.00     0.091 A 
ATOM     89  F   UNL A   1      45.473  24.300  26.312  1.00  0.00    -0.205 F 
ATOM     90  C   UNL A   1      43.297  21.375  26.503  1.00  0.00     0.022 A 
BRANCH  88  91
ATOM     91  S   UNL A   1      45.098  21.859  24.498  1.00  0.00     0.127 S 
ATOM     92  O   UNL A   1      44.872  23.081  23.726  1.00  0.00    -0.237 OA
ATOM     93  O   UNL A   1      46.479  21.647  24.921  1.00  0.00    -0.237 OA
ATOM     94  O   UNL A   1      44.413  20.681  23.979  1.00  0.00    -0.744 OA
ENDBRANCH  88  91
ENDBRANCH  60  84
BRANCH  72  95
ATOM     95  C   UNL A   1      46.510  29.238  29.350  1.00  0.00     0.023 A 
ATOM     96  C   UNL A   1      47.773  29.287  28.730  1.00  0.00     0.012 A 
ATOM     97  C   UNL A   1      45.435  29.930  28.770  1.00  0.00     0.148 A 
ATOM     98  C   UNL A   1      47.960  30.030  27.560  1.00  0.00     0.002 A 
ATOM     99  C   UNL A   1      45.612  30.626  27.583  1.00  0.00     0.091 A 
ATOM    100  F   UNL A   1      44.244  29.878  29.385  1.00  0.00    -0.205 F 
ATOM    101  C   UNL A   1      46.877  30.689  26.979  1.00  0.00     0.022 A 
BRANCH  99 102
ATOM    102  S   UNL A   1      44.227  31.386  26.736  1.00  0.00     0.127 S 
ATOM    103  O   UNL A   1      43.385  30.232  26.432  1.00  0.00    -0.237 OA
ATOM    104  O   UNL A   1      43.689  32.285  27.758  1.00  0.00    -0.237 OA
ATOM    105  O   UNL A   1      44.793  32.073  25.582  1.00  0.00    -0.744 OA
ENDBRANCH  99 102
ENDBRANCH  72  95
ENDBRANCH  46  47
ENDBRANCH  38  41
ENDBRANCH  36  37
ENDBRANCH  35  36
ENDBRANCH  34  35
ENDBRANCH   1  34
TORSDOF 21
ENDMDL
