MODEL 1
REMARK VINA RESULT:     -11.9      0.000      0.000
REMARK SMILES O=C(NCCCCCCNC(=O)[C@H]1C[C@](O)(c2ccc(F)cc2)[C@@H](c2ccc(F)cc2)O1)c1ccc(-c2c3nc(c(-c4cccc(S(=O)(=O)[O-])c4F)c4ccc([nH]4)c(-c4cccc(S(=O)(=O)[O-])c4F)c4nc(c(-c5cccc(S(=O)(=O)[O-])c5F)c5ccc2[nH]5)C=C4)C=C3)cc1
REMARK SMILES IDX 5 1 4 2 3 3 1 4 2 5 33 7 34 8 95 9 35 10 94 11 36 12 37 13
REMARK SMILES IDX 38 14 88 15 39 16 93 17 87 18 89 19 40 20 92 21 86 22 85 23
REMARK SMILES IDX 41 25 73 26 53 27 72 28 54 29 57 30 71 31 90 32 55 33 56 34
REMARK SMILES IDX 70 36 91 37 58 38 42 39 43 40 51 41 44 42 46 43 52 44 45 45
REMARK SMILES IDX 47 46 48 47 49 48 50 49 74 50 75 51 83 52 76 53 78 54 84 55
REMARK SMILES IDX 77 56 79 57 80 58 81 59 82 60 59 61 60 62 68 63 61 64 63 65
REMARK SMILES IDX 69 66 62 67 64 68 65 69 66 70 67 71 6 72 7 73 8 74 9 75
REMARK SMILES IDX 10 76 11 77 12 79 13 80 14 81 32 82 15 83 24 84 17 85 18 86
REMARK SMILES IDX 23 87 19 88 22 89 20 90 21 91 16 92 25 94 26 95 31 96 27 97
REMARK SMILES IDX 30 98 28 99 29 100
REMARK H PARENT 3 6 89 24 57 35 10 78 16 93
REMARK Flexibility Score: inf
ROOT
ATOM      1  C   UNL A   1      31.779  30.059  26.731  1.00  0.00     0.021 C 
ENDROOT
BRANCH   1   2
ATOM      2  C   UNL A   1      32.902  30.999  26.307  1.00  0.00     0.116 C 
BRANCH   2   3
ATOM      3  N   UNL A   1      32.637  32.372  26.699  1.00  0.00    -0.352 N 
ATOM      4  O   UNL A   1      32.750  34.190  28.025  1.00  0.00    -0.269 OA
ATOM      5  C   UNL A   1      33.244  33.120  27.677  1.00  0.00     0.251 C 
ATOM      6  H   UNL A   1      31.926  32.829  26.195  1.00  0.00     0.163 HD
BRANCH   5   7
ATOM      7  C   UNL A   1      34.477  32.617  28.320  1.00  0.00     0.039 A 
ATOM      8  C   UNL A   1      35.713  33.216  28.054  1.00  0.00     0.014 A 
ATOM      9  C   UNL A   1      34.392  31.542  29.205  1.00  0.00     0.014 A 
ATOM     10  C   UNL A   1      36.879  32.666  28.581  1.00  0.00     0.010 A 
ATOM     11  C   UNL A   1      35.555  31.037  29.790  1.00  0.00     0.010 A 
ATOM     12  C   UNL A   1      36.809  31.581  29.468  1.00  0.00    -0.014 A 
BRANCH  12  13
ATOM     13  C   UNL A   1      38.039  31.059  30.116  1.00  0.00     0.031 A 
ATOM     14  C   UNL A   1      38.902  30.041  29.425  1.00  0.00     0.074 A 
ATOM     15  C   UNL A   1      38.346  31.478  31.361  1.00  0.00     0.049 A 
ATOM     16  N   UNL A   1      39.939  29.392  29.889  1.00  0.00    -0.248 NA
ATOM     17  C   UNL A   1      38.558  29.702  28.033  1.00  0.00     0.031 C 
ATOM     18  C   UNL A   1      37.579  32.457  32.135  1.00  0.00     0.029 A 
ATOM     19  N   UNL A   1      39.366  31.116  32.203  1.00  0.00    -0.354 N 
ATOM     20  C   UNL A   1      40.352  28.546  28.867  1.00  0.00     0.074 A 
ATOM     21  C   UNL A   1      39.452  28.760  27.754  1.00  0.00     0.031 C 
ATOM     22  C   UNL A   1      38.151  32.615  33.337  1.00  0.00     0.029 A 
ATOM     23  C   UNL A   1      39.287  31.706  33.444  1.00  0.00     0.049 A 
ATOM     24  H   UNL A   1      40.085  30.495  31.945  1.00  0.00     0.167 HD
ATOM     25  C   UNL A   1      41.393  27.680  28.857  1.00  0.00     0.034 A 
ATOM     26  C   UNL A   1      40.020  31.510  34.556  1.00  0.00     0.034 A 
ATOM     27  C   UNL A   1      42.299  27.491  29.960  1.00  0.00     0.049 A 
ATOM     28  C   UNL A   1      41.150  30.520  34.517  1.00  0.00     0.074 A 
ATOM     29  C   UNL A   1      43.403  26.658  30.028  1.00  0.00     0.029 A 
ATOM     30  N   UNL A   1      42.210  28.134  31.184  1.00  0.00    -0.354 N 
ATOM     31  N   UNL A   1      41.579  29.794  33.514  1.00  0.00    -0.248 NA
ATOM     32  C   UNL A   1      41.914  30.338  35.760  1.00  0.00     0.031 C 
ATOM     33  C   UNL A   1      43.966  26.780  31.301  1.00  0.00     0.029 A 
ATOM     34  C   UNL A   1      43.236  27.715  32.015  1.00  0.00     0.049 A 
ATOM     35  H   UNL A   1      41.520  28.794  31.427  1.00  0.00     0.167 HD
ATOM     36  C   UNL A   1      42.680  29.095  33.993  1.00  0.00     0.074 A 
ATOM     37  C   UNL A   1      42.873  29.512  35.367  1.00  0.00     0.031 C 
ATOM     38  C   UNL A   1      43.449  28.174  33.363  1.00  0.00     0.034 A 
BRANCH  25  39
ATOM     39  C   UNL A   1      41.658  26.889  27.603  1.00  0.00     0.023 A 
ATOM     40  C   UNL A   1      42.274  27.521  26.505  1.00  0.00     0.012 A 
ATOM     41  C   UNL A   1      41.438  25.496  27.566  1.00  0.00     0.148 A 
ATOM     42  C   UNL A   1      42.663  26.782  25.387  1.00  0.00     0.002 A 
ATOM     43  C   UNL A   1      41.866  24.761  26.468  1.00  0.00     0.091 A 
ATOM     44  F   UNL A   1      40.840  24.918  28.618  1.00  0.00    -0.205 F 
ATOM     45  C   UNL A   1      42.472  25.402  25.376  1.00  0.00     0.022 A 
BRANCH  43  46
ATOM     46  S   UNL A   1      41.748  22.969  26.386  1.00  0.00     0.127 S 
ATOM     47  O   UNL A   1      42.417  22.573  27.624  1.00  0.00    -0.237 OA
ATOM     48  O   UNL A   1      40.301  22.760  26.380  1.00  0.00    -0.237 OA
ATOM     49  O   UNL A   1      42.434  22.575  25.162  1.00  0.00    -0.744 OA
ENDBRANCH  43  46
ENDBRANCH  25  39
BRANCH  26  50
ATOM     50  C   UNL A   1      39.727  32.287  35.794  1.00  0.00     0.023 A 
ATOM     51  C   UNL A   1      40.406  33.498  36.025  1.00  0.00     0.012 A 
ATOM     52  C   UNL A   1      38.775  31.844  36.735  1.00  0.00     0.148 A 
ATOM     53  C   UNL A   1      40.175  34.234  37.186  1.00  0.00     0.002 A 
ATOM     54  C   UNL A   1      38.503  32.614  37.859  1.00  0.00     0.091 A 
ATOM     55  F   UNL A   1      38.150  30.681  36.507  1.00  0.00    -0.205 F 
ATOM     56  C   UNL A   1      39.216  33.798  38.098  1.00  0.00     0.022 A 
BRANCH  54  57
ATOM     57  S   UNL A   1      37.187  32.205  39.010  1.00  0.00     0.127 S 
ATOM     58  O   UNL A   1      37.248  30.745  39.027  1.00  0.00    -0.237 OA
ATOM     59  O   UNL A   1      37.647  32.855  40.237  1.00  0.00    -0.237 OA
ATOM     60  O   UNL A   1      35.977  32.782  38.443  1.00  0.00    -0.744 OA
ENDBRANCH  54  57
ENDBRANCH  26  50
BRANCH  38  61
ATOM     61  C   UNL A   1      44.594  27.573  34.137  1.00  0.00     0.023 A 
ATOM     62  C   UNL A   1      45.826  28.253  34.207  1.00  0.00     0.012 A 
ATOM     63  C   UNL A   1      44.431  26.367  34.848  1.00  0.00     0.148 A 
ATOM     64  C   UNL A   1      46.890  27.723  34.935  1.00  0.00     0.002 A 
ATOM     65  C   UNL A   1      45.476  25.874  35.618  1.00  0.00     0.091 A 
ATOM     66  F   UNL A   1      43.258  25.724  34.757  1.00  0.00    -0.205 F 
ATOM     67  C   UNL A   1      46.712  26.541  35.651  1.00  0.00     0.022 A 
BRANCH  65  68
ATOM     68  S   UNL A   1      45.303  24.418  36.656  1.00  0.00     0.127 S 
ATOM     69  O   UNL A   1      46.690  23.969  36.772  1.00  0.00    -0.237 OA
ATOM     70  O   UNL A   1      44.740  24.978  37.885  1.00  0.00    -0.237 OA
ATOM     71  O   UNL A   1      44.412  23.518  35.938  1.00  0.00    -0.744 OA
ENDBRANCH  65  68
ENDBRANCH  38  61
ENDBRANCH  12  13
ENDBRANCH   5   7
ENDBRANCH   2   3
ENDBRANCH   1   2
BRANCH   1  72
ATOM     72  C   UNL A   1      32.254  28.770  27.401  1.00  0.00     0.002 C 
BRANCH  72  73
ATOM     73  C   UNL A   1      31.184  27.680  27.513  1.00  0.00     0.002 C 
BRANCH  73  74
ATOM     74  C   UNL A   1      31.012  26.802  26.261  1.00  0.00     0.021 C 
BRANCH  74  75
ATOM     75  C   UNL A   1      30.678  25.338  26.558  1.00  0.00     0.116 C 
BRANCH  75  76
ATOM     76  N   UNL A   1      30.214  24.697  25.345  1.00  0.00    -0.354 N 
ATOM     77  C   UNL A   1      30.948  24.038  24.407  1.00  0.00     0.249 C 
ATOM     78  H   UNL A   1      29.245  24.742  25.179  1.00  0.00     0.163 HD
ATOM     79  O   UNL A   1      30.532  24.089  23.248  1.00  0.00    -0.272 OA
BRANCH  77  80
ATOM     80  C   UNL A   1      32.191  23.220  24.823  1.00  0.00     0.211 C 
ATOM     81  C   UNL A   1      32.912  22.547  23.650  1.00  0.00     0.085 C 
ATOM     82  O   UNL A   1      33.142  24.107  25.445  1.00  0.00    -0.357 OA
ATOM     83  C   UNL A   1      34.331  23.119  23.646  1.00  0.00     0.123 C 
ATOM     84  C   UNL A   1      34.179  24.411  24.492  1.00  0.00     0.186 C 
BRANCH  83  85
ATOM     85  C   UNL A   1      35.338  22.080  24.179  1.00  0.00    -0.013 A 
ATOM     86  C   UNL A   1      34.848  20.827  24.618  1.00  0.00     0.010 A 
ATOM     87  C   UNL A   1      36.732  22.270  24.204  1.00  0.00     0.010 A 
ATOM     88  C   UNL A   1      35.709  19.801  25.012  1.00  0.00     0.039 A 
ATOM     89  C   UNL A   1      37.596  21.235  24.582  1.00  0.00     0.039 A 
ATOM     90  C   UNL A   1      37.078  20.009  24.975  1.00  0.00     0.123 A 
ATOM     91  F   UNL A   1      37.911  19.017  25.315  1.00  0.00    -0.207 F 
ENDBRANCH  83  85
BRANCH  83  92
ATOM     92  O   UNL A   1      34.776  23.371  22.307  1.00  0.00    -0.382 OA
ATOM     93  H   UNL A   1      34.008  23.456  21.722  1.00  0.00     0.212 HD
ENDBRANCH  83  92
BRANCH  84  94
ATOM     94  C   UNL A   1      33.890  25.749  23.808  1.00  0.00    -0.016 A 
ATOM     95  C   UNL A   1      33.435  25.879  22.484  1.00  0.00     0.009 A 
ATOM     96  C   UNL A   1      34.039  26.928  24.566  1.00  0.00     0.009 A 
ATOM     97  C   UNL A   1      33.126  27.130  21.944  1.00  0.00     0.039 A 
ATOM     98  C   UNL A   1      33.749  28.182  24.021  1.00  0.00     0.039 A 
ATOM     99  C   UNL A   1      33.287  28.270  22.717  1.00  0.00     0.123 A 
ATOM    100  F   UNL A   1      32.989  29.469  22.199  1.00  0.00    -0.207 F 
ENDBRANCH  84  94
ENDBRANCH  77  80
ENDBRANCH  75  76
ENDBRANCH  74  75
ENDBRANCH  73  74
ENDBRANCH  72  73
ENDBRANCH   1  72
TORSDOF 19
ENDMDL
MODEL 2
REMARK VINA RESULT:     -11.6      5.344      9.132
REMARK SMILES O=C(NCCCCCCNC(=O)[C@H]1C[C@](O)(c2ccc(F)cc2)[C@@H](c2ccc(F)cc2)O1)c1ccc(-c2c3nc(c(-c4cccc(S(=O)(=O)[O-])c4F)c4ccc([nH]4)c(-c4cccc(S(=O)(=O)[O-])c4F)c4nc(c(-c5cccc(S(=O)(=O)[O-])c5F)c5ccc2[nH]5)C=C4)C=C3)cc1
REMARK SMILES IDX 5 1 4 2 3 3 1 4 2 5 33 7 34 8 95 9 35 10 94 11 36 12 37 13
REMARK SMILES IDX 38 14 88 15 39 16 93 17 87 18 89 19 40 20 92 21 86 22 85 23
REMARK SMILES IDX 41 25 73 26 53 27 72 28 54 29 57 30 71 31 90 32 55 33 56 34
REMARK SMILES IDX 70 36 91 37 58 38 42 39 43 40 51 41 44 42 46 43 52 44 45 45
REMARK SMILES IDX 47 46 48 47 49 48 50 49 74 50 75 51 83 52 76 53 78 54 84 55
REMARK SMILES IDX 77 56 79 57 80 58 81 59 82 60 59 61 60 62 68 63 61 64 63 65
REMARK SMILES IDX 69 66 62 67 64 68 65 69 66 70 67 71 6 72 7 73 8 74 9 75
REMARK SMILES IDX 10 76 11 77 12 79 13 80 14 81 32 82 15 83 24 84 17 85 18 86
REMARK SMILES IDX 23 87 19 88 22 89 20 90 21 91 16 92 25 94 26 95 31 96 27 97
REMARK SMILES IDX 30 98 28 99 29 100
REMARK H PARENT 3 6 89 24 57 35 10 78 16 93
REMARK Flexibility Score: inf
ROOT
ATOM      1  C   UNL A   1      38.039  19.211  25.206  1.00  0.00     0.021 C 
ENDROOT
BRANCH   1   2
ATOM      2  C   UNL A   1      39.231  20.014  25.714  1.00  0.00     0.116 C 
BRANCH   2   3
ATOM      3  N   UNL A   1      40.327  19.154  26.127  1.00  0.00    -0.352 N 
ATOM      4  O   UNL A   1      42.470  18.629  26.580  1.00  0.00    -0.269 OA
ATOM      5  C   UNL A   1      41.610  19.500  26.468  1.00  0.00     0.251 C 
ATOM      6  H   UNL A   1      40.121  18.192  26.170  1.00  0.00     0.163 HD
BRANCH   5   7
ATOM      7  C   UNL A   1      41.952  20.924  26.673  1.00  0.00     0.039 A 
ATOM      8  C   UNL A   1      42.219  21.414  27.957  1.00  0.00     0.014 A 
ATOM      9  C   UNL A   1      42.013  21.774  25.569  1.00  0.00     0.014 A 
ATOM     10  C   UNL A   1      42.433  22.776  28.149  1.00  0.00     0.010 A 
ATOM     11  C   UNL A   1      42.299  23.129  25.756  1.00  0.00     0.010 A 
ATOM     12  C   UNL A   1      42.492  23.644  27.048  1.00  0.00    -0.014 A 
BRANCH  12  13
ATOM     13  C   UNL A   1      42.826  25.079  27.239  1.00  0.00     0.031 A 
ATOM     14  C   UNL A   1      44.176  25.614  26.850  1.00  0.00     0.074 A 
ATOM     15  C   UNL A   1      41.913  25.888  27.813  1.00  0.00     0.049 A 
ATOM     16  N   UNL A   1      44.677  26.805  27.054  1.00  0.00    -0.248 NA
ATOM     17  C   UNL A   1      45.085  24.695  26.143  1.00  0.00     0.031 C 
ATOM     18  C   UNL A   1      40.572  25.480  28.239  1.00  0.00     0.029 A 
ATOM     19  N   UNL A   1      41.982  27.213  28.160  1.00  0.00    -0.354 N 
ATOM     20  C   UNL A   1      45.966  26.773  26.536  1.00  0.00     0.074 A 
ATOM     21  C   UNL A   1      46.175  25.442  26.008  1.00  0.00     0.031 C 
ATOM     22  C   UNL A   1      39.947  26.528  28.793  1.00  0.00     0.029 A 
ATOM     23  C   UNL A   1      40.861  27.665  28.818  1.00  0.00     0.049 A 
ATOM     24  H   UNL A   1      42.757  27.785  27.958  1.00  0.00     0.167 HD
ATOM     25  C   UNL A   1      46.884  27.768  26.496  1.00  0.00     0.034 A 
ATOM     26  C   UNL A   1      40.609  28.847  29.411  1.00  0.00     0.034 A 
ATOM     27  C   UNL A   1      46.659  29.098  27.001  1.00  0.00     0.049 A 
ATOM     28  C   UNL A   1      41.663  29.919  29.372  1.00  0.00     0.074 A 
ATOM     29  C   UNL A   1      47.520  30.181  26.973  1.00  0.00     0.029 A 
ATOM     30  N   UNL A   1      45.499  29.528  27.624  1.00  0.00    -0.354 N 
ATOM     31  N   UNL A   1      42.842  29.899  28.800  1.00  0.00    -0.248 NA
ATOM     32  C   UNL A   1      41.341  31.188  30.040  1.00  0.00     0.031 C 
ATOM     33  C   UNL A   1      46.891  31.259  27.602  1.00  0.00     0.029 A 
ATOM     34  C   UNL A   1      45.623  30.858  27.990  1.00  0.00     0.049 A 
ATOM     35  H   UNL A   1      44.702  28.971  27.783  1.00  0.00     0.167 HD
ATOM     36  C   UNL A   1      43.389  31.158  29.011  1.00  0.00     0.074 A 
ATOM     37  C   UNL A   1      42.397  31.929  29.734  1.00  0.00     0.031 C 
ATOM     38  C   UNL A   1      44.610  31.630  28.661  1.00  0.00     0.034 A 
BRANCH  25  39
ATOM     39  C   UNL A   1      48.214  27.493  25.844  1.00  0.00     0.023 A 
ATOM     40  C   UNL A   1      49.264  26.960  26.617  1.00  0.00     0.012 A 
ATOM     41  C   UNL A   1      48.376  27.621  24.449  1.00  0.00     0.148 A 
ATOM     42  C   UNL A   1      50.457  26.561  26.013  1.00  0.00     0.002 A 
ATOM     43  C   UNL A   1      49.550  27.182  23.850  1.00  0.00     0.091 A 
ATOM     44  F   UNL A   1      47.367  28.142  23.736  1.00  0.00    -0.205 F 
ATOM     45  C   UNL A   1      50.594  26.659  24.631  1.00  0.00     0.022 A 
BRANCH  43  46
ATOM     46  S   UNL A   1      49.799  27.182  22.070  1.00  0.00     0.127 S 
ATOM     47  O   UNL A   1      51.172  26.692  21.965  1.00  0.00    -0.237 OA
ATOM     48  O   UNL A   1      48.777  26.237  21.621  1.00  0.00    -0.237 OA
ATOM     49  O   UNL A   1      49.601  28.558  21.634  1.00  0.00    -0.744 OA
ENDBRANCH  43  46
ENDBRANCH  25  39
BRANCH  26  50
ATOM     50  C   UNL A   1      39.294  29.092  30.070  1.00  0.00     0.023 A 
ATOM     51  C   UNL A   1      39.018  28.477  31.305  1.00  0.00     0.012 A 
ATOM     52  C   UNL A   1      38.326  29.936  29.491  1.00  0.00     0.148 A 
ATOM     53  C   UNL A   1      37.787  28.663  31.934  1.00  0.00     0.002 A 
ATOM     54  C   UNL A   1      37.127  30.169  30.154  1.00  0.00     0.091 A 
ATOM     55  F   UNL A   1      38.599  30.502  28.308  1.00  0.00    -0.205 F 
ATOM     56  C   UNL A   1      36.846  29.517  31.364  1.00  0.00     0.022 A 
BRANCH  54  57
ATOM     57  S   UNL A   1      35.918  31.361  29.567  1.00  0.00     0.127 S 
ATOM     58  O   UNL A   1      35.209  30.591  28.548  1.00  0.00    -0.237 OA
ATOM     59  O   UNL A   1      35.149  31.634  30.781  1.00  0.00    -0.237 OA
ATOM     60  O   UNL A   1      36.692  32.495  29.081  1.00  0.00    -0.744 OA
ENDBRANCH  54  57
ENDBRANCH  26  50
BRANCH  38  61
ATOM     61  C   UNL A   1      44.938  33.056  29.023  1.00  0.00     0.023 A 
ATOM     62  C   UNL A   1      45.577  33.339  30.247  1.00  0.00     0.012 A 
ATOM     63  C   UNL A   1      44.673  34.109  28.124  1.00  0.00     0.148 A 
ATOM     64  C   UNL A   1      45.907  34.649  30.589  1.00  0.00     0.002 A 
ATOM     65  C   UNL A   1      45.056  35.404  28.447  1.00  0.00     0.091 A 
ATOM     66  F   UNL A   1      44.049  33.824  26.972  1.00  0.00    -0.205 F 
ATOM     67  C   UNL A   1      45.659  35.680  29.685  1.00  0.00     0.022 A 
BRANCH  65  68
ATOM     68  S   UNL A   1      44.874  36.776  27.300  1.00  0.00     0.127 S 
ATOM     69  O   UNL A   1      45.162  37.922  28.160  1.00  0.00    -0.237 OA
ATOM     70  O   UNL A   1      45.905  36.486  26.304  1.00  0.00    -0.237 OA
ATOM     71  O   UNL A   1      43.509  36.698  26.797  1.00  0.00    -0.744 OA
ENDBRANCH  65  68
ENDBRANCH  38  61
ENDBRANCH  12  13
ENDBRANCH   5   7
ENDBRANCH   2   3
ENDBRANCH   1   2
BRANCH   1  72
ATOM     72  C   UNL A   1      36.767  20.033  24.995  1.00  0.00     0.002 C 
BRANCH  72  73
ATOM     73  C   UNL A   1      36.964  21.548  25.106  1.00  0.00     0.002 C 
BRANCH  73  74
ATOM     74  C   UNL A   1      36.951  22.307  23.767  1.00  0.00     0.021 C 
BRANCH  74  75
ATOM     75  C   UNL A   1      36.195  23.638  23.805  1.00  0.00     0.116 C 
BRANCH  75  76
ATOM     76  N   UNL A   1      35.197  23.652  22.756  1.00  0.00    -0.354 N 
ATOM     77  C   UNL A   1      33.976  24.254  22.764  1.00  0.00     0.249 C 
ATOM     78  H   UNL A   1      35.430  23.166  21.933  1.00  0.00     0.163 HD
ATOM     79  O   UNL A   1      33.087  23.706  22.110  1.00  0.00    -0.272 OA
BRANCH  77  80
ATOM     80  C   UNL A   1      33.772  25.594  23.508  1.00  0.00     0.211 C 
ATOM     81  C   UNL A   1      32.303  25.951  23.753  1.00  0.00     0.085 C 
ATOM     82  O   UNL A   1      34.403  25.505  24.802  1.00  0.00    -0.357 OA
ATOM     83  C   UNL A   1      32.142  26.051  25.271  1.00  0.00     0.123 C 
ATOM     84  C   UNL A   1      33.383  25.281  25.795  1.00  0.00     0.186 C 
BRANCH  83  85
ATOM     85  C   UNL A   1      32.029  27.525  25.711  1.00  0.00    -0.013 A 
ATOM     86  C   UNL A   1      31.549  28.474  24.777  1.00  0.00     0.010 A 
ATOM     87  C   UNL A   1      32.318  27.987  27.008  1.00  0.00     0.010 A 
ATOM     88  C   UNL A   1      31.320  29.803  25.136  1.00  0.00     0.039 A 
ATOM     89  C   UNL A   1      32.070  29.316  27.373  1.00  0.00     0.039 A 
ATOM     90  C   UNL A   1      31.567  30.210  26.438  1.00  0.00     0.123 A 
ATOM     91  F   UNL A   1      31.314  31.474  26.799  1.00  0.00    -0.207 F 
ENDBRANCH  83  85
BRANCH  83  92
ATOM     92  O   UNL A   1      30.900  25.473  25.692  1.00  0.00    -0.382 OA
ATOM     93  H   UNL A   1      30.428  25.124  24.920  1.00  0.00     0.212 HD
ENDBRANCH  83  92
BRANCH  84  94
ATOM     94  C   UNL A   1      33.283  23.789  26.118  1.00  0.00    -0.016 A 
ATOM     95  C   UNL A   1      32.361  22.910  25.521  1.00  0.00     0.009 A 
ATOM     96  C   UNL A   1      34.204  23.244  27.035  1.00  0.00     0.009 A 
ATOM     97  C   UNL A   1      32.370  21.543  25.813  1.00  0.00     0.039 A 
ATOM     98  C   UNL A   1      34.202  21.881  27.343  1.00  0.00     0.039 A 
ATOM     99  C   UNL A   1      33.289  21.042  26.722  1.00  0.00     0.123 A 
ATOM    100  F   UNL A   1      33.298  19.732  27.001  1.00  0.00    -0.207 F 
ENDBRANCH  84  94
ENDBRANCH  77  80
ENDBRANCH  75  76
ENDBRANCH  74  75
ENDBRANCH  73  74
ENDBRANCH  72  73
ENDBRANCH   1  72
TORSDOF 19
ENDMDL
MODEL 3
REMARK VINA RESULT:     -11.6      5.872     11.015
REMARK SMILES O=C(NCCCCCCNC(=O)[C@H]1C[C@](O)(c2ccc(F)cc2)[C@@H](c2ccc(F)cc2)O1)c1ccc(-c2c3nc(c(-c4cccc(S(=O)(=O)[O-])c4F)c4ccc([nH]4)c(-c4cccc(S(=O)(=O)[O-])c4F)c4nc(c(-c5cccc(S(=O)(=O)[O-])c5F)c5ccc2[nH]5)C=C4)C=C3)cc1
REMARK SMILES IDX 5 1 4 2 3 3 1 4 2 5 33 7 34 8 95 9 35 10 94 11 36 12 37 13
REMARK SMILES IDX 38 14 88 15 39 16 93 17 87 18 89 19 40 20 92 21 86 22 85 23
REMARK SMILES IDX 41 25 73 26 53 27 72 28 54 29 57 30 71 31 90 32 55 33 56 34
REMARK SMILES IDX 70 36 91 37 58 38 42 39 43 40 51 41 44 42 46 43 52 44 45 45
REMARK SMILES IDX 47 46 48 47 49 48 50 49 74 50 75 51 83 52 76 53 78 54 84 55
REMARK SMILES IDX 77 56 79 57 80 58 81 59 82 60 59 61 60 62 68 63 61 64 63 65
REMARK SMILES IDX 69 66 62 67 64 68 65 69 66 70 67 71 6 72 7 73 8 74 9 75
REMARK SMILES IDX 10 76 11 77 12 79 13 80 14 81 32 82 15 83 24 84 17 85 18 86
REMARK SMILES IDX 23 87 19 88 22 89 20 90 21 91 16 92 25 94 26 95 31 96 27 97
REMARK SMILES IDX 30 98 28 99 29 100
REMARK H PARENT 3 6 89 24 57 35 10 78 16 93
REMARK Flexibility Score: inf
ROOT
ATOM      1  C   UNL A   1      38.138  20.095  24.909  1.00  0.00     0.021 C 
ENDROOT
BRANCH   1   2
ATOM      2  C   UNL A   1      39.197  20.369  25.970  1.00  0.00     0.116 C 
BRANCH   2   3
ATOM      3  N   UNL A   1      40.257  19.375  25.947  1.00  0.00    -0.352 N 
ATOM      4  O   UNL A   1      42.376  18.634  25.767  1.00  0.00    -0.269 OA
ATOM      5  C   UNL A   1      41.614  19.563  26.022  1.00  0.00     0.251 C 
ATOM      6  H   UNL A   1      39.962  18.440  25.866  1.00  0.00     0.163 HD
BRANCH   5   7
ATOM      7  C   UNL A   1      42.147  20.892  26.390  1.00  0.00     0.039 A 
ATOM      8  C   UNL A   1      42.392  21.217  27.729  1.00  0.00     0.014 A 
ATOM      9  C   UNL A   1      42.413  21.820  25.382  1.00  0.00     0.014 A 
ATOM     10  C   UNL A   1      42.791  22.506  28.069  1.00  0.00     0.010 A 
ATOM     11  C   UNL A   1      42.883  23.091  25.720  1.00  0.00     0.010 A 
ATOM     12  C   UNL A   1      43.056  23.451  27.067  1.00  0.00    -0.014 A 
BRANCH  12  13
ATOM     13  C   UNL A   1      43.585  24.794  27.419  1.00  0.00     0.031 A 
ATOM     14  C   UNL A   1      42.666  25.881  27.903  1.00  0.00     0.074 A 
ATOM     15  C   UNL A   1      44.900  25.040  27.251  1.00  0.00     0.049 A 
ATOM     16  N   UNL A   1      42.936  27.139  28.140  1.00  0.00    -0.248 NA
ATOM     17  C   UNL A   1      41.262  25.513  28.152  1.00  0.00     0.031 C 
ATOM     18  C   UNL A   1      45.887  24.066  26.779  1.00  0.00     0.029 A 
ATOM     19  N   UNL A   1      45.628  26.188  27.432  1.00  0.00    -0.354 N 
ATOM     20  C   UNL A   1      41.737  27.722  28.531  1.00  0.00     0.074 A 
ATOM     21  C   UNL A   1      40.732  26.680  28.499  1.00  0.00     0.031 C 
ATOM     22  C   UNL A   1      47.088  24.656  26.704  1.00  0.00     0.029 A 
ATOM     23  C   UNL A   1      46.947  26.063  27.061  1.00  0.00     0.049 A 
ATOM     24  H   UNL A   1      45.244  27.020  27.791  1.00  0.00     0.167 HD
ATOM     25  C   UNL A   1      41.501  29.005  28.895  1.00  0.00     0.034 A 
ATOM     26  C   UNL A   1      47.926  26.984  26.979  1.00  0.00     0.034 A 
ATOM     27  C   UNL A   1      42.511  30.029  28.948  1.00  0.00     0.049 A 
ATOM     28  C   UNL A   1      47.621  28.405  27.363  1.00  0.00     0.074 A 
ATOM     29  C   UNL A   1      42.371  31.351  29.337  1.00  0.00     0.029 A 
ATOM     30  N   UNL A   1      43.842  29.855  28.605  1.00  0.00    -0.354 N 
ATOM     31  N   UNL A   1      46.502  28.917  27.814  1.00  0.00    -0.248 NA
ATOM     32  C   UNL A   1      48.722  29.372  27.249  1.00  0.00     0.031 C 
ATOM     33  C   UNL A   1      43.611  31.981  29.204  1.00  0.00     0.029 A 
ATOM     34  C   UNL A   1      44.533  31.045  28.767  1.00  0.00     0.049 A 
ATOM     35  H   UNL A   1      44.239  29.010  28.291  1.00  0.00     0.167 HD
ATOM     36  C   UNL A   1      46.772  30.256  28.068  1.00  0.00     0.074 A 
ATOM     37  C   UNL A   1      48.171  30.467  27.753  1.00  0.00     0.031 C 
ATOM     38  C   UNL A   1      45.935  31.231  28.500  1.00  0.00     0.034 A 
BRANCH  25  39
ATOM     39  C   UNL A   1      40.106  29.389  29.314  1.00  0.00     0.023 A 
ATOM     40  C   UNL A   1      39.144  29.682  28.327  1.00  0.00     0.012 A 
ATOM     41  C   UNL A   1      39.711  29.313  30.665  1.00  0.00     0.148 A 
ATOM     42  C   UNL A   1      37.811  29.899  28.678  1.00  0.00     0.002 A 
ATOM     43  C   UNL A   1      38.374  29.488  31.002  1.00  0.00     0.091 A 
ATOM     44  F   UNL A   1      40.645  29.044  31.588  1.00  0.00    -0.205 F 
ATOM     45  C   UNL A   1      37.425  29.788  30.011  1.00  0.00     0.022 A 
BRANCH  43  46
ATOM     46  S   UNL A   1      37.752  29.282  32.675  1.00  0.00     0.127 S 
ATOM     47  O   UNL A   1      38.705  30.083  33.444  1.00  0.00    -0.237 OA
ATOM     48  O   UNL A   1      36.412  29.859  32.575  1.00  0.00    -0.237 OA
ATOM     49  O   UNL A   1      37.789  27.852  32.948  1.00  0.00    -0.744 OA
ENDBRANCH  43  46
ENDBRANCH  25  39
BRANCH  26  50
ATOM     50  C   UNL A   1      49.295  26.588  26.541  1.00  0.00     0.023 A 
ATOM     51  C   UNL A   1      50.059  25.732  27.356  1.00  0.00     0.012 A 
ATOM     52  C   UNL A   1      49.838  27.040  25.321  1.00  0.00     0.148 A 
ATOM     53  C   UNL A   1      51.353  25.365  26.987  1.00  0.00     0.002 A 
ATOM     54  C   UNL A   1      51.103  26.619  24.930  1.00  0.00     0.091 A 
ATOM     55  F   UNL A   1      49.103  27.867  24.565  1.00  0.00    -0.205 F 
ATOM     56  C   UNL A   1      51.870  25.800  25.770  1.00  0.00     0.022 A 
BRANCH  54  57
ATOM     57  S   UNL A   1      51.791  27.013  23.318  1.00  0.00     0.127 S 
ATOM     58  O   UNL A   1      50.648  26.777  22.439  1.00  0.00    -0.237 OA
ATOM     59  O   UNL A   1      52.163  28.417  23.483  1.00  0.00    -0.237 OA
ATOM     60  O   UNL A   1      52.921  26.110  23.144  1.00  0.00    -0.744 OA
ENDBRANCH  54  57
ENDBRANCH  26  50
BRANCH  38  61
ATOM     61  C   UNL A   1      46.510  32.611  28.691  1.00  0.00     0.023 A 
ATOM     62  C   UNL A   1      47.006  32.994  29.954  1.00  0.00     0.012 A 
ATOM     63  C   UNL A   1      46.618  33.505  27.607  1.00  0.00     0.148 A 
ATOM     64  C   UNL A   1      47.559  34.259  30.145  1.00  0.00     0.002 A 
ATOM     65  C   UNL A   1      47.223  34.742  27.792  1.00  0.00     0.091 A 
ATOM     66  F   UNL A   1      46.126  33.131  26.418  1.00  0.00    -0.205 F 
ATOM     67  C   UNL A   1      47.680  35.128  29.063  1.00  0.00     0.022 A 
BRANCH  65  68
ATOM     68  S   UNL A   1      47.518  35.881  26.434  1.00  0.00     0.127 S 
ATOM     69  O   UNL A   1      48.299  35.053  25.517  1.00  0.00    -0.237 OA
ATOM     70  O   UNL A   1      46.160  36.180  25.979  1.00  0.00    -0.237 OA
ATOM     71  O   UNL A   1      48.225  37.016  27.010  1.00  0.00    -0.744 OA
ENDBRANCH  65  68
ENDBRANCH  38  61
ENDBRANCH  12  13
ENDBRANCH   5   7
ENDBRANCH   2   3
ENDBRANCH   1   2
BRANCH   1  72
ATOM     72  C   UNL A   1      36.864  20.927  25.060  1.00  0.00     0.002 C 
BRANCH  72  73
ATOM     73  C   UNL A   1      37.008  22.393  24.639  1.00  0.00     0.002 C 
BRANCH  73  74
ATOM     74  C   UNL A   1      36.526  22.712  23.213  1.00  0.00     0.021 C 
BRANCH  74  75
ATOM     75  C   UNL A   1      35.353  23.693  23.148  1.00  0.00     0.116 C 
BRANCH  75  76
ATOM     76  N   UNL A   1      34.217  23.043  22.529  1.00  0.00    -0.354 N 
ATOM     77  C   UNL A   1      32.905  23.401  22.591  1.00  0.00     0.249 C 
ATOM     78  H   UNL A   1      34.419  22.241  21.995  1.00  0.00     0.163 HD
ATOM     79  O   UNL A   1      32.081  22.487  22.534  1.00  0.00    -0.272 OA
BRANCH  77  80
ATOM     80  C   UNL A   1      32.507  24.894  22.655  1.00  0.00     0.211 C 
ATOM     81  C   UNL A   1      31.022  25.127  22.951  1.00  0.00     0.085 C 
ATOM     82  O   UNL A   1      33.250  25.525  23.716  1.00  0.00    -0.357 OA
ATOM     83  C   UNL A   1      30.975  25.927  24.255  1.00  0.00     0.123 C 
ATOM     84  C   UNL A   1      32.383  25.677  24.857  1.00  0.00     0.186 C 
BRANCH  83  85
ATOM     85  C   UNL A   1      30.613  27.400  23.977  1.00  0.00    -0.013 A 
ATOM     86  C   UNL A   1      29.566  27.678  23.066  1.00  0.00     0.010 A 
ATOM     87  C   UNL A   1      31.216  28.496  24.619  1.00  0.00     0.010 A 
ATOM     88  C   UNL A   1      29.113  28.980  22.847  1.00  0.00     0.039 A 
ATOM     89  C   UNL A   1      30.750  29.801  24.413  1.00  0.00     0.039 A 
ATOM     90  C   UNL A   1      29.699  30.030  23.536  1.00  0.00     0.123 A 
ATOM     91  F   UNL A   1      29.245  31.277  23.359  1.00  0.00    -0.207 F 
ENDBRANCH  83  85
BRANCH  83  92
ATOM     92  O   UNL A   1      29.911  25.466  25.098  1.00  0.00    -0.382 OA
ATOM     93  H   UNL A   1      29.961  24.501  25.183  1.00  0.00     0.212 HD
ENDBRANCH  83  92
BRANCH  84  94
ATOM     94  C   UNL A   1      32.606  24.529  25.844  1.00  0.00    -0.016 A 
ATOM     95  C   UNL A   1      31.574  23.747  26.393  1.00  0.00     0.009 A 
ATOM     96  C   UNL A   1      33.931  24.196  26.189  1.00  0.00     0.009 A 
ATOM     97  C   UNL A   1      31.854  22.668  27.237  1.00  0.00     0.039 A 
ATOM     98  C   UNL A   1      34.212  23.131  27.047  1.00  0.00     0.039 A 
ATOM     99  C   UNL A   1      33.170  22.371  27.557  1.00  0.00     0.123 A 
ATOM    100  F   UNL A   1      33.438  21.336  28.364  1.00  0.00    -0.207 F 
ENDBRANCH  84  94
ENDBRANCH  77  80
ENDBRANCH  75  76
ENDBRANCH  74  75
ENDBRANCH  73  74
ENDBRANCH  72  73
ENDBRANCH   1  72
TORSDOF 19
ENDMDL
