MODEL 1
REMARK VINA RESULT:     -12.5      0.000      0.000
REMARK SMILES Cc1ccnc(C(=O)c2[nH]c3ccc(C(C)(C)C)cc3c2CC(=O)NCCCCCCNC(=O)c2ccc(-c3c4nc(c(-c5cccc(S(=O)(=O)[O-])c5F)c5ccc([nH]5)c(-c5cccc(S(=O)(=O)[O-])c5F)c5nc(c(-c6cccc(S(=O)(=O)[O-])c6F)c6ccc3[nH]6)C=C5)C=C4)cc2)c1
REMARK SMILES IDX 28 1 27 2 26 3 25 4 23 5 24 6 22 8 21 9 9 10 10 11 11 12
REMARK SMILES IDX 20 14 12 15 19 16 13 17 14 18 7 19 8 20 6 21 1 22 2 23 3 24
REMARK SMILES IDX 98 25 4 26 5 27 15 28 16 29 17 30 18 31 29 32 30 33 31 34
REMARK SMILES IDX 32 35 33 36 34 38 35 39 36 40 97 41 37 42 96 43 38 44 39 45
REMARK SMILES IDX 40 46 90 47 41 48 95 49 89 50 91 51 42 52 94 53 88 54 87 55
REMARK SMILES IDX 43 57 75 58 55 59 74 60 56 61 59 62 73 63 92 64 57 65 58 66
REMARK SMILES IDX 72 68 93 69 60 70 44 71 45 72 53 73 46 74 48 75 54 76 47 77
REMARK SMILES IDX 49 78 50 79 51 80 52 81 76 82 77 83 85 84 78 85 80 86 86 87
REMARK SMILES IDX 79 88 81 89 82 90 83 91 84 92 61 93 62 94 70 95 63 96 65 97
REMARK SMILES IDX 71 98 64 99 66 100 67 101 68 102 69 103
REMARK H PARENT 25 7 10 13 32 37 91 56 59 67
REMARK Flexibility Score: inf
ROOT
ATOM      1  C   UNL A   1      31.429  26.934  27.100  1.00  0.00     0.002 C 
ENDROOT
BRANCH   1   2
ATOM      2  C   UNL A   1      32.455  26.281  26.165  1.00  0.00     0.021 C 
BRANCH   2   3
ATOM      3  C   UNL A   1      32.352  24.759  26.075  1.00  0.00     0.116 C 
BRANCH   3   4
ATOM      4  N   UNL A   1      33.553  24.098  26.544  1.00  0.00    -0.356 N 
ATOM      5  C   UNL A   1      34.708  23.813  25.874  1.00  0.00     0.224 C 
ATOM      6  O   UNL A   1      35.644  23.327  26.516  1.00  0.00    -0.275 OA
ATOM      7  H   UNL A   1      33.533  23.811  27.486  1.00  0.00     0.163 HD
BRANCH   5   8
ATOM      8  C   UNL A   1      34.892  24.213  24.417  1.00  0.00     0.138 C 
BRANCH   8   9
ATOM      9  C   UNL A   1      33.853  23.698  23.463  1.00  0.00    -0.002 A 
ATOM     10  C   UNL A   1      33.116  24.425  22.532  1.00  0.00     0.093 A 
ATOM     11  N   UNL A   1      32.354  23.526  21.822  1.00  0.00    -0.352 N 
ATOM     12  C   UNL A   1      32.464  22.267  22.353  1.00  0.00     0.046 A 
ATOM     13  H   UNL A   1      31.804  23.756  21.038  1.00  0.00     0.167 HD
ATOM     14  C   UNL A   1      33.387  22.341  23.389  1.00  0.00     0.004 A 
ATOM     15  C   UNL A   1      31.841  21.072  21.986  1.00  0.00     0.027 A 
ATOM     16  C   UNL A   1      33.696  21.155  24.094  1.00  0.00     0.015 A 
ATOM     17  C   UNL A   1      32.179  19.912  22.698  1.00  0.00     0.006 A 
ATOM     18  C   UNL A   1      33.104  19.919  23.752  1.00  0.00    -0.042 A 
BRANCH  10  19
ATOM     19  C   UNL A   1      33.155  25.848  22.239  1.00  0.00     0.227 C 
ATOM     20  O   UNL A   1      34.113  26.349  21.659  1.00  0.00    -0.285 OA
BRANCH  19  21
ATOM     21  C   UNL A   1      31.974  26.700  22.648  1.00  0.00     0.113 A 
ATOM     22  C   UNL A   1      28.428  26.453  23.982  1.00  0.00     0.044 C 
ATOM     23  C   UNL A   1      29.731  26.999  23.478  1.00  0.00    -0.047 A 
ATOM     24  C   UNL A   1      29.896  28.374  23.311  1.00  0.00     0.023 A 
ATOM     25  C   UNL A   1      30.796  26.151  23.158  1.00  0.00     0.036 A 
ATOM     26  C   UNL A   1      31.103  28.840  22.818  1.00  0.00     0.112 A 
ATOM     27  N   UNL A   1      32.131  28.040  22.473  1.00  0.00    -0.253 NA
ENDBRANCH  19  21
ENDBRANCH  10  19
BRANCH  18  28
ATOM     28  C   UNL A   1      33.521  18.640  24.505  1.00  0.00    -0.013 C 
ATOM     29  C   UNL A   1      35.054  18.646  24.696  1.00  0.00     0.016 C 
ATOM     30  C   UNL A   1      32.839  18.589  25.890  1.00  0.00     0.016 C 
ATOM     31  C   UNL A   1      33.151  17.334  23.771  1.00  0.00     0.016 C 
ENDBRANCH  18  28
ENDBRANCH   8   9
ENDBRANCH   5   8
ENDBRANCH   3   4
ENDBRANCH   2   3
ENDBRANCH   1   2
BRANCH   1  32
ATOM     32  C   UNL A   1      31.683  28.407  27.442  1.00  0.00     0.002 C 
BRANCH  32  33
ATOM     33  C   UNL A   1      31.802  29.356  26.245  1.00  0.00     0.021 C 
BRANCH  33  34
ATOM     34  C   UNL A   1      33.119  30.123  26.149  1.00  0.00     0.116 C 
BRANCH  34  35
ATOM     35  N   UNL A   1      32.985  31.506  26.576  1.00  0.00    -0.352 N 
ATOM     36  C   UNL A   1      33.710  32.208  27.510  1.00  0.00     0.251 C 
ATOM     37  H   UNL A   1      32.271  32.017  26.130  1.00  0.00     0.163 HD
ATOM     38  O   UNL A   1      33.337  33.326  27.856  1.00  0.00    -0.269 OA
BRANCH  36  39
ATOM     39  C   UNL A   1      34.926  31.619  28.115  1.00  0.00     0.039 A 
ATOM     40  C   UNL A   1      36.085  32.397  28.192  1.00  0.00     0.014 A 
ATOM     41  C   UNL A   1      34.941  30.298  28.572  1.00  0.00     0.014 A 
ATOM     42  C   UNL A   1      37.242  31.872  28.774  1.00  0.00     0.010 A 
ATOM     43  C   UNL A   1      36.081  29.790  29.194  1.00  0.00     0.010 A 
ATOM     44  C   UNL A   1      37.242  30.571  29.300  1.00  0.00    -0.014 A 
BRANCH  44  45
ATOM     45  C   UNL A   1      38.442  30.009  29.972  1.00  0.00     0.031 A 
ATOM     46  C   UNL A   1      38.842  30.492  31.339  1.00  0.00     0.074 A 
ATOM     47  C   UNL A   1      39.224  29.132  29.313  1.00  0.00     0.049 A 
ATOM     48  N   UNL A   1      39.898  30.185  32.046  1.00  0.00    -0.248 NA
ATOM     49  C   UNL A   1      37.948  31.467  31.989  1.00  0.00     0.031 C 
ATOM     50  C   UNL A   1      38.984  28.640  27.955  1.00  0.00     0.029 A 
ATOM     51  N   UNL A   1      40.396  28.522  29.685  1.00  0.00    -0.354 N 
ATOM     52  C   UNL A   1      39.817  30.949  33.203  1.00  0.00     0.074 A 
ATOM     53  C   UNL A   1      38.617  31.750  33.098  1.00  0.00     0.031 C 
ATOM     54  C   UNL A   1      39.983  27.814  27.604  1.00  0.00     0.029 A 
ATOM     55  C   UNL A   1      40.941  27.729  28.703  1.00  0.00     0.049 A 
ATOM     56  H   UNL A   1      40.809  28.642  30.571  1.00  0.00     0.167 HD
ATOM     57  C   UNL A   1      40.651  30.962  34.271  1.00  0.00     0.034 A 
ATOM     58  C   UNL A   1      42.083  27.013  28.688  1.00  0.00     0.034 A 
ATOM     59  C   UNL A   1      41.811  30.123  34.404  1.00  0.00     0.049 A 
ATOM     60  C   UNL A   1      42.951  26.990  29.917  1.00  0.00     0.074 A 
ATOM     61  C   UNL A   1      42.678  30.016  35.477  1.00  0.00     0.029 A 
ATOM     62  N   UNL A   1      42.260  29.237  33.437  1.00  0.00    -0.354 N 
ATOM     63  N   UNL A   1      42.778  27.610  31.058  1.00  0.00    -0.248 NA
ATOM     64  C   UNL A   1      44.150  26.139  29.871  1.00  0.00     0.031 C 
ATOM     65  C   UNL A   1      43.648  29.058  35.162  1.00  0.00     0.029 A 
ATOM     66  C   UNL A   1      43.386  28.572  33.891  1.00  0.00     0.049 A 
ATOM     67  H   UNL A   1      41.840  29.101  32.557  1.00  0.00     0.167 HD
ATOM     68  C   UNL A   1      43.827  27.202  31.876  1.00  0.00     0.074 A 
ATOM     69  C   UNL A   1      44.618  26.264  31.106  1.00  0.00     0.031 C 
ATOM     70  C   UNL A   1      44.120  27.588  33.141  1.00  0.00     0.034 A 
BRANCH  57  71
ATOM     71  C   UNL A   1      40.292  31.858  35.425  1.00  0.00     0.023 A 
ATOM     72  C   UNL A   1      40.993  33.069  35.591  1.00  0.00     0.012 A 
ATOM     73  C   UNL A   1      39.231  31.544  36.296  1.00  0.00     0.148 A 
ATOM     74  C   UNL A   1      40.659  33.946  36.621  1.00  0.00     0.002 A 
ATOM     75  C   UNL A   1      38.883  32.440  37.301  1.00  0.00     0.091 A 
ATOM     76  F   UNL A   1      38.594  30.377  36.136  1.00  0.00    -0.205 F 
ATOM     77  C   UNL A   1      39.598  33.638  37.468  1.00  0.00     0.022 A 
BRANCH  75  78
ATOM     78  S   UNL A   1      37.492  32.157  38.404  1.00  0.00     0.127 S 
ATOM     79  O   UNL A   1      38.049  32.567  39.692  1.00  0.00    -0.237 OA
ATOM     80  O   UNL A   1      36.476  33.063  37.864  1.00  0.00    -0.237 OA
ATOM     81  O   UNL A   1      37.167  30.744  38.280  1.00  0.00    -0.744 OA
ENDBRANCH  75  78
ENDBRANCH  57  71
BRANCH  58  82
ATOM     82  C   UNL A   1      42.425  26.190  27.495  1.00  0.00     0.023 A 
ATOM     83  C   UNL A   1      43.197  26.763  26.466  1.00  0.00     0.012 A 
ATOM     84  C   UNL A   1      42.028  24.844  27.387  1.00  0.00     0.148 A 
ATOM     85  C   UNL A   1      43.546  26.017  25.339  1.00  0.00     0.002 A 
ATOM     86  C   UNL A   1      42.421  24.092  26.284  1.00  0.00     0.091 A 
ATOM     87  F   UNL A   1      41.276  24.316  28.363  1.00  0.00    -0.205 F 
ATOM     88  C   UNL A   1      43.169  24.679  25.253  1.00  0.00     0.022 A 
BRANCH  86  89
ATOM     89  S   UNL A   1      42.074  22.332  26.188  1.00  0.00     0.127 S 
ATOM     90  O   UNL A   1      42.794  21.945  24.979  1.00  0.00    -0.237 OA
ATOM     91  O   UNL A   1      42.648  21.824  27.435  1.00  0.00    -0.237 OA
ATOM     92  O   UNL A   1      40.619  22.246  26.130  1.00  0.00    -0.744 OA
ENDBRANCH  86  89
ENDBRANCH  58  82
BRANCH  70  93
ATOM     93  C   UNL A   1      45.335  26.985  33.790  1.00  0.00     0.023 A 
ATOM     94  C   UNL A   1      46.567  27.663  33.711  1.00  0.00     0.012 A 
ATOM     95  C   UNL A   1      45.243  25.801  34.545  1.00  0.00     0.148 A 
ATOM     96  C   UNL A   1      47.694  27.161  34.360  1.00  0.00     0.002 A 
ATOM     97  C   UNL A   1      46.363  25.324  35.218  1.00  0.00     0.091 A 
ATOM     98  F   UNL A   1      44.068  25.156  34.588  1.00  0.00    -0.205 F 
ATOM     99  C   UNL A   1      47.590  25.999  35.122  1.00  0.00     0.022 A 
BRANCH  97 100
ATOM    100  S   UNL A   1      46.284  23.880  36.284  1.00  0.00     0.127 S 
ATOM    101  O   UNL A   1      45.263  24.277  37.251  1.00  0.00    -0.237 OA
ATOM    102  O   UNL A   1      45.871  22.823  35.360  1.00  0.00    -0.237 OA
ATOM    103  O   UNL A   1      47.632  23.714  36.816  1.00  0.00    -0.744 OA
ENDBRANCH  97 100
ENDBRANCH  70  93
ENDBRANCH  44  45
ENDBRANCH  36  39
ENDBRANCH  34  35
ENDBRANCH  33  34
ENDBRANCH  32  33
ENDBRANCH   1  32
TORSDOF 20
ENDMDL
MODEL 2
REMARK VINA RESULT:     -12.5      1.921      2.819
REMARK SMILES Cc1ccnc(C(=O)c2[nH]c3ccc(C(C)(C)C)cc3c2CC(=O)NCCCCCCNC(=O)c2ccc(-c3c4nc(c(-c5cccc(S(=O)(=O)[O-])c5F)c5ccc([nH]5)c(-c5cccc(S(=O)(=O)[O-])c5F)c5nc(c(-c6cccc(S(=O)(=O)[O-])c6F)c6ccc3[nH]6)C=C5)C=C4)cc2)c1
REMARK SMILES IDX 28 1 27 2 26 3 25 4 23 5 24 6 22 8 21 9 9 10 10 11 11 12
REMARK SMILES IDX 20 14 12 15 19 16 13 17 14 18 7 19 8 20 6 21 1 22 2 23 3 24
REMARK SMILES IDX 98 25 4 26 5 27 15 28 16 29 17 30 18 31 29 32 30 33 31 34
REMARK SMILES IDX 32 35 33 36 34 38 35 39 36 40 97 41 37 42 96 43 38 44 39 45
REMARK SMILES IDX 40 46 90 47 41 48 95 49 89 50 91 51 42 52 94 53 88 54 87 55
REMARK SMILES IDX 43 57 75 58 55 59 74 60 56 61 59 62 73 63 92 64 57 65 58 66
REMARK SMILES IDX 72 68 93 69 60 70 44 71 45 72 53 73 46 74 48 75 54 76 47 77
REMARK SMILES IDX 49 78 50 79 51 80 52 81 76 82 77 83 85 84 78 85 80 86 86 87
REMARK SMILES IDX 79 88 81 89 82 90 83 91 84 92 61 93 62 94 70 95 63 96 65 97
REMARK SMILES IDX 71 98 64 99 66 100 67 101 68 102 69 103
REMARK H PARENT 25 7 10 13 32 37 91 56 59 67
REMARK Flexibility Score: inf
ROOT
ATOM      1  C   UNL A   1      31.041  27.072  26.880  1.00  0.00     0.002 C 
ENDROOT
BRANCH   1   2
ATOM      2  C   UNL A   1      30.492  26.355  25.640  1.00  0.00     0.021 C 
BRANCH   2   3
ATOM      3  C   UNL A   1      30.350  24.841  25.796  1.00  0.00     0.116 C 
BRANCH   3   4
ATOM      4  N   UNL A   1      30.495  24.143  24.535  1.00  0.00    -0.356 N 
ATOM      5  C   UNL A   1      31.138  22.970  24.258  1.00  0.00     0.224 C 
ATOM      6  O   UNL A   1      31.042  22.515  23.115  1.00  0.00    -0.275 OA
ATOM      7  H   UNL A   1      30.068  24.579  23.762  1.00  0.00     0.163 HD
BRANCH   5   8
ATOM      8  C   UNL A   1      31.829  22.173  25.355  1.00  0.00     0.138 C 
BRANCH   8   9
ATOM      9  C   UNL A   1      33.321  22.054  25.233  1.00  0.00    -0.002 A 
ATOM     10  C   UNL A   1      34.263  23.079  25.261  1.00  0.00     0.093 A 
ATOM     11  N   UNL A   1      35.507  22.493  25.204  1.00  0.00    -0.352 N 
ATOM     12  C   UNL A   1      35.400  21.141  24.998  1.00  0.00     0.046 A 
ATOM     13  H   UNL A   1      36.359  22.978  25.299  1.00  0.00     0.167 HD
ATOM     14  C   UNL A   1      34.045  20.835  25.001  1.00  0.00     0.004 A 
ATOM     15  C   UNL A   1      36.390  20.170  24.835  1.00  0.00     0.027 A 
ATOM     16  C   UNL A   1      33.666  19.484  24.826  1.00  0.00     0.015 A 
ATOM     17  C   UNL A   1      35.981  18.838  24.675  1.00  0.00     0.006 A 
ATOM     18  C   UNL A   1      34.629  18.462  24.671  1.00  0.00    -0.042 A 
BRANCH  10  19
ATOM     19  C   UNL A   1      34.059  24.510  25.412  1.00  0.00     0.227 C 
ATOM     20  O   UNL A   1      34.099  25.042  26.516  1.00  0.00    -0.285 OA
BRANCH  19  21
ATOM     21  C   UNL A   1      33.814  25.338  24.169  1.00  0.00     0.113 A 
ATOM     22  C   UNL A   1      33.536  28.932  22.979  1.00  0.00     0.044 C 
ATOM     23  C   UNL A   1      33.567  27.433  23.004  1.00  0.00    -0.047 A 
ATOM     24  C   UNL A   1      33.312  26.708  21.839  1.00  0.00     0.023 A 
ATOM     25  C   UNL A   1      33.842  26.734  24.183  1.00  0.00     0.036 A 
ATOM     26  C   UNL A   1      33.323  25.325  21.906  1.00  0.00     0.112 A 
ATOM     27  N   UNL A   1      33.553  24.631  23.037  1.00  0.00    -0.253 NA
ENDBRANCH  19  21
ENDBRANCH  10  19
BRANCH  18  28
ATOM     28  C   UNL A   1      34.171  16.995  24.550  1.00  0.00    -0.013 C 
ATOM     29  C   UNL A   1      34.041  16.631  23.054  1.00  0.00     0.016 C 
ATOM     30  C   UNL A   1      35.203  16.056  25.212  1.00  0.00     0.016 C 
ATOM     31  C   UNL A   1      32.808  16.710  25.216  1.00  0.00     0.016 C 
ENDBRANCH  18  28
ENDBRANCH   8   9
ENDBRANCH   5   8
ENDBRANCH   3   4
ENDBRANCH   2   3
ENDBRANCH   1   2
BRANCH   1  32
ATOM     32  C   UNL A   1      31.761  28.399  26.616  1.00  0.00     0.002 C 
BRANCH  32  33
ATOM     33  C   UNL A   1      33.160  28.530  27.230  1.00  0.00     0.021 C 
BRANCH  33  34
ATOM     34  C   UNL A   1      34.047  29.608  26.610  1.00  0.00     0.116 C 
BRANCH  34  35
ATOM     35  N   UNL A   1      33.815  30.918  27.196  1.00  0.00    -0.352 N 
ATOM     36  C   UNL A   1      34.517  31.574  28.178  1.00  0.00     0.251 C 
ATOM     37  H   UNL A   1      33.041  31.409  26.836  1.00  0.00     0.163 HD
ATOM     38  O   UNL A   1      34.067  32.610  28.661  1.00  0.00    -0.269 OA
BRANCH  36  39
ATOM     39  C   UNL A   1      35.804  31.032  28.671  1.00  0.00     0.039 A 
ATOM     40  C   UNL A   1      35.785  29.951  29.558  1.00  0.00     0.014 A 
ATOM     41  C   UNL A   1      37.022  31.605  28.294  1.00  0.00     0.014 A 
ATOM     42  C   UNL A   1      36.986  29.409  30.025  1.00  0.00     0.010 A 
ATOM     43  C   UNL A   1      38.221  31.035  28.723  1.00  0.00     0.010 A 
ATOM     44  C   UNL A   1      38.214  29.933  29.594  1.00  0.00    -0.014 A 
BRANCH  44  45
ATOM     45  C   UNL A   1      39.504  29.341  30.032  1.00  0.00     0.031 A 
ATOM     46  C   UNL A   1      40.291  29.976  31.145  1.00  0.00     0.074 A 
ATOM     47  C   UNL A   1      40.013  28.286  29.366  1.00  0.00     0.049 A 
ATOM     48  N   UNL A   1      41.471  29.656  31.607  1.00  0.00    -0.248 NA
ATOM     49  C   UNL A   1      39.680  31.138  31.813  1.00  0.00     0.031 C 
ATOM     50  C   UNL A   1      39.381  27.625  28.222  1.00  0.00     0.029 A 
ATOM     51  N   UNL A   1      41.192  27.605  29.534  1.00  0.00    -0.354 N 
ATOM     52  C   UNL A   1      41.762  30.592  32.591  1.00  0.00     0.074 A 
ATOM     53  C   UNL A   1      40.642  31.505  32.650  1.00  0.00     0.031 C 
ATOM     54  C   UNL A   1      40.184  26.641  27.784  1.00  0.00     0.029 A 
ATOM     55  C   UNL A   1      41.392  26.611  28.604  1.00  0.00     0.049 A 
ATOM     56  H   UNL A   1      41.835  27.808  30.251  1.00  0.00     0.167 HD
ATOM     57  C   UNL A   1      42.850  30.668  33.396  1.00  0.00     0.034 A 
ATOM     58  C   UNL A   1      42.431  25.769  28.431  1.00  0.00     0.034 A 
ATOM     59  C   UNL A   1      43.936  29.726  33.381  1.00  0.00     0.049 A 
ATOM     60  C   UNL A   1      43.592  25.831  29.386  1.00  0.00     0.074 A 
ATOM     61  C   UNL A   1      45.049  29.682  34.203  1.00  0.00     0.029 A 
ATOM     62  N   UNL A   1      44.042  28.656  32.506  1.00  0.00    -0.354 N 
ATOM     63  N   UNL A   1      43.779  26.634  30.405  1.00  0.00    -0.248 NA
ATOM     64  C   UNL A   1      44.668  24.845  29.194  1.00  0.00     0.031 C 
ATOM     65  C   UNL A   1      45.824  28.578  33.830  1.00  0.00     0.029 A 
ATOM     66  C   UNL A   1      45.194  27.939  32.775  1.00  0.00     0.049 A 
ATOM     67  H   UNL A   1      43.392  28.438  31.799  1.00  0.00     0.167 HD
ATOM     68  C   UNL A   1      44.974  26.233  30.992  1.00  0.00     0.074 A 
ATOM     69  C   UNL A   1      45.457  25.101  30.228  1.00  0.00     0.031 C 
ATOM     70  C   UNL A   1      45.624  26.770  32.052  1.00  0.00     0.034 A 
BRANCH  57  71
ATOM     71  C   UNL A   1      42.882  31.766  34.423  1.00  0.00     0.023 A 
ATOM     72  C   UNL A   1      43.514  32.984  34.100  1.00  0.00     0.012 A 
ATOM     73  C   UNL A   1      42.238  31.627  35.668  1.00  0.00     0.148 A 
ATOM     74  C   UNL A   1      43.524  34.040  35.009  1.00  0.00     0.002 A 
ATOM     75  C   UNL A   1      42.226  32.697  36.556  1.00  0.00     0.091 A 
ATOM     76  F   UNL A   1      41.665  30.453  35.965  1.00  0.00    -0.205 F 
ATOM     77  C   UNL A   1      42.872  33.901  36.231  1.00  0.00     0.022 A 
BRANCH  75  78
ATOM     78  S   UNL A   1      41.359  32.632  38.129  1.00  0.00     0.127 S 
ATOM     79  O   UNL A   1      42.105  31.590  38.834  1.00  0.00    -0.237 OA
ATOM     80  O   UNL A   1      41.561  33.984  38.653  1.00  0.00    -0.237 OA
ATOM     81  O   UNL A   1      39.977  32.310  37.810  1.00  0.00    -0.744 OA
ENDBRANCH  75  78
ENDBRANCH  57  71
BRANCH  58  82
ATOM     82  C   UNL A   1      42.378  24.739  27.358  1.00  0.00     0.023 A 
ATOM     83  C   UNL A   1      43.198  24.888  26.223  1.00  0.00     0.012 A 
ATOM     84  C   UNL A   1      41.557  23.601  27.465  1.00  0.00     0.148 A 
ATOM     85  C   UNL A   1      43.183  23.935  25.204  1.00  0.00     0.002 A 
ATOM     86  C   UNL A   1      41.582  22.631  26.468  1.00  0.00     0.091 A 
ATOM     87  F   UNL A   1      40.764  23.481  28.540  1.00  0.00    -0.205 F 
ATOM     88  C   UNL A   1      42.384  22.802  25.331  1.00  0.00     0.022 A 
BRANCH  86  89
ATOM     89  S   UNL A   1      40.674  21.091  26.646  1.00  0.00     0.127 S 
ATOM     90  O   UNL A   1      39.333  21.478  26.218  1.00  0.00    -0.237 OA
ATOM     91  O   UNL A   1      41.379  20.196  25.727  1.00  0.00    -0.237 OA
ATOM     92  O   UNL A   1      40.826  20.733  28.052  1.00  0.00    -0.744 OA
ENDBRANCH  86  89
ENDBRANCH  58  82
BRANCH  70  93
ATOM     93  C   UNL A   1      46.920  26.133  32.473  1.00  0.00     0.023 A 
ATOM     94  C   UNL A   1      48.128  26.595  31.916  1.00  0.00     0.012 A 
ATOM     95  C   UNL A   1      46.951  25.143  33.473  1.00  0.00     0.148 A 
ATOM     96  C   UNL A   1      49.348  26.067  32.336  1.00  0.00     0.002 A 
ATOM     97  C   UNL A   1      48.174  24.645  33.912  1.00  0.00     0.091 A 
ATOM     98  F   UNL A   1      45.789  24.697  33.973  1.00  0.00    -0.205 F 
ATOM     99  C   UNL A   1      49.372  25.102  33.341  1.00  0.00     0.022 A 
BRANCH  97 100
ATOM    100  S   UNL A   1      48.287  23.462  35.258  1.00  0.00     0.127 S 
ATOM    101  O   UNL A   1      49.732  23.270  35.369  1.00  0.00    -0.237 OA
ATOM    102  O   UNL A   1      47.681  24.189  36.375  1.00  0.00    -0.237 OA
ATOM    103  O   UNL A   1      47.524  22.299  34.820  1.00  0.00    -0.744 OA
ENDBRANCH  97 100
ENDBRANCH  70  93
ENDBRANCH  44  45
ENDBRANCH  36  39
ENDBRANCH  34  35
ENDBRANCH  33  34
ENDBRANCH  32  33
ENDBRANCH   1  32
TORSDOF 20
ENDMDL
MODEL 3
REMARK VINA RESULT:     -12.4      2.069      7.624
REMARK SMILES Cc1ccnc(C(=O)c2[nH]c3ccc(C(C)(C)C)cc3c2CC(=O)NCCCCCCNC(=O)c2ccc(-c3c4nc(c(-c5cccc(S(=O)(=O)[O-])c5F)c5ccc([nH]5)c(-c5cccc(S(=O)(=O)[O-])c5F)c5nc(c(-c6cccc(S(=O)(=O)[O-])c6F)c6ccc3[nH]6)C=C5)C=C4)cc2)c1
REMARK SMILES IDX 28 1 27 2 26 3 25 4 23 5 24 6 22 8 21 9 9 10 10 11 11 12
REMARK SMILES IDX 20 14 12 15 19 16 13 17 14 18 7 19 8 20 6 21 1 22 2 23 3 24
REMARK SMILES IDX 98 25 4 26 5 27 15 28 16 29 17 30 18 31 29 32 30 33 31 34
REMARK SMILES IDX 32 35 33 36 34 38 35 39 36 40 97 41 37 42 96 43 38 44 39 45
REMARK SMILES IDX 40 46 90 47 41 48 95 49 89 50 91 51 42 52 94 53 88 54 87 55
REMARK SMILES IDX 43 57 75 58 55 59 74 60 56 61 59 62 73 63 92 64 57 65 58 66
REMARK SMILES IDX 72 68 93 69 60 70 44 71 45 72 53 73 46 74 48 75 54 76 47 77
REMARK SMILES IDX 49 78 50 79 51 80 52 81 76 82 77 83 85 84 78 85 80 86 86 87
REMARK SMILES IDX 79 88 81 89 82 90 83 91 84 92 61 93 62 94 70 95 63 96 65 97
REMARK SMILES IDX 71 98 64 99 66 100 67 101 68 102 69 103
REMARK H PARENT 25 7 10 13 32 37 91 56 59 67
REMARK Flexibility Score: inf
ROOT
ATOM      1  C   UNL A   1      32.053  29.119  26.885  1.00  0.00     0.002 C 
ENDROOT
BRANCH   1   2
ATOM      2  C   UNL A   1      31.844  27.750  26.226  1.00  0.00     0.021 C 
BRANCH   2   3
ATOM      3  C   UNL A   1      33.131  27.064  25.768  1.00  0.00     0.116 C 
BRANCH   3   4
ATOM      4  N   UNL A   1      33.351  25.801  26.443  1.00  0.00    -0.356 N 
ATOM      5  C   UNL A   1      33.909  24.648  25.971  1.00  0.00     0.224 C 
ATOM      6  O   UNL A   1      34.084  23.722  26.769  1.00  0.00    -0.275 OA
ATOM      7  H   UNL A   1      33.054  25.770  27.382  1.00  0.00     0.163 HD
BRANCH   5   8
ATOM      8  C   UNL A   1      34.431  24.551  24.545  1.00  0.00     0.138 C 
BRANCH   8   9
ATOM      9  C   UNL A   1      33.492  23.939  23.546  1.00  0.00    -0.002 A 
ATOM     10  C   UNL A   1      32.717  24.594  22.593  1.00  0.00     0.093 A 
ATOM     11  N   UNL A   1      32.085  23.627  21.845  1.00  0.00    -0.352 N 
ATOM     12  C   UNL A   1      32.311  22.380  22.370  1.00  0.00     0.046 A 
ATOM     13  H   UNL A   1      31.543  23.805  21.042  1.00  0.00     0.167 HD
ATOM     14  C   UNL A   1      33.180  22.540  23.442  1.00  0.00     0.004 A 
ATOM     15  C   UNL A   1      31.837  21.129  21.968  1.00  0.00     0.027 A 
ATOM     16  C   UNL A   1      33.590  21.386  24.148  1.00  0.00     0.015 A 
ATOM     17  C   UNL A   1      32.272  20.003  22.682  1.00  0.00     0.006 A 
ATOM     18  C   UNL A   1      33.149  20.097  23.772  1.00  0.00    -0.042 A 
BRANCH  10  19
ATOM     19  C   UNL A   1      32.611  26.016  22.314  1.00  0.00     0.227 C 
ATOM     20  O   UNL A   1      33.534  26.628  21.787  1.00  0.00    -0.285 OA
BRANCH  19  21
ATOM     21  C   UNL A   1      31.324  26.727  22.672  1.00  0.00     0.113 A 
ATOM     22  C   UNL A   1      29.630  30.119  22.484  1.00  0.00     0.044 C 
ATOM     23  C   UNL A   1      29.899  28.669  22.755  1.00  0.00    -0.047 A 
ATOM     24  C   UNL A   1      28.950  27.893  23.421  1.00  0.00     0.023 A 
ATOM     25  C   UNL A   1      31.098  28.068  22.357  1.00  0.00     0.036 A 
ATOM     26  C   UNL A   1      29.244  26.564  23.677  1.00  0.00     0.112 A 
ATOM     27  N   UNL A   1      30.404  25.973  23.332  1.00  0.00    -0.253 NA
ENDBRANCH  19  21
ENDBRANCH  10  19
BRANCH  18  28
ATOM     28  C   UNL A   1      33.675  18.862  24.530  1.00  0.00    -0.013 C 
ATOM     29  C   UNL A   1      33.758  17.669  23.552  1.00  0.00     0.016 C 
ATOM     30  C   UNL A   1      35.080  19.145  25.104  1.00  0.00     0.016 C 
ATOM     31  C   UNL A   1      32.782  18.429  25.713  1.00  0.00     0.016 C 
ENDBRANCH  18  28
ENDBRANCH   8   9
ENDBRANCH   5   8
ENDBRANCH   3   4
ENDBRANCH   2   3
ENDBRANCH   1   2
BRANCH   1  32
ATOM     32  C   UNL A   1      31.749  30.335  26.003  1.00  0.00     0.002 C 
BRANCH  32  33
ATOM     33  C   UNL A   1      31.561  31.663  26.744  1.00  0.00     0.021 C 
BRANCH  33  34
ATOM     34  C   UNL A   1      32.841  32.456  26.998  1.00  0.00     0.116 C 
BRANCH  34  35
ATOM     35  N   UNL A   1      32.576  33.764  27.576  1.00  0.00    -0.352 N 
ATOM     36  C   UNL A   1      33.158  34.376  28.659  1.00  0.00     0.251 C 
ATOM     37  H   UNL A   1      31.876  34.289  27.124  1.00  0.00     0.163 HD
ATOM     38  O   UNL A   1      32.681  35.420  29.099  1.00  0.00    -0.269 OA
BRANCH  36  39
ATOM     39  C   UNL A   1      34.346  33.780  29.311  1.00  0.00     0.039 A 
ATOM     40  C   UNL A   1      35.616  34.243  28.952  1.00  0.00     0.014 A 
ATOM     41  C   UNL A   1      34.218  32.746  30.243  1.00  0.00     0.014 A 
ATOM     42  C   UNL A   1      36.754  33.709  29.565  1.00  0.00     0.010 A 
ATOM     43  C   UNL A   1      35.350  32.246  30.888  1.00  0.00     0.010 A 
ATOM     44  C   UNL A   1      36.628  32.722  30.554  1.00  0.00    -0.014 A 
BRANCH  44  45
ATOM     45  C   UNL A   1      37.817  32.178  31.258  1.00  0.00     0.031 A 
ATOM     46  C   UNL A   1      38.613  31.057  30.648  1.00  0.00     0.074 A 
ATOM     47  C   UNL A   1      38.125  32.629  32.490  1.00  0.00     0.049 A 
ATOM     48  N   UNL A   1      39.625  30.397  31.149  1.00  0.00    -0.248 NA
ATOM     49  C   UNL A   1      38.205  30.603  29.308  1.00  0.00     0.031 C 
ATOM     50  C   UNL A   1      37.387  33.662  33.220  1.00  0.00     0.029 A 
ATOM     51  N   UNL A   1      39.120  32.254  33.358  1.00  0.00    -0.354 N 
ATOM     52  C   UNL A   1      39.952  29.430  30.206  1.00  0.00     0.074 A 
ATOM     53  C   UNL A   1      39.020  29.576  29.110  1.00  0.00     0.031 C 
ATOM     54  C   UNL A   1      37.948  33.830  34.429  1.00  0.00     0.029 A 
ATOM     55  C   UNL A   1      39.073  32.909  34.566  1.00  0.00     0.049 A 
ATOM     56  H   UNL A   1      39.803  31.580  33.137  1.00  0.00     0.167 HD
ATOM     57  C   UNL A   1      40.957  28.522  30.237  1.00  0.00     0.034 A 
ATOM     58  C   UNL A   1      39.848  32.783  35.662  1.00  0.00     0.034 A 
ATOM     59  C   UNL A   1      41.921  28.415  31.298  1.00  0.00     0.049 A 
ATOM     60  C   UNL A   1      41.001  31.816  35.638  1.00  0.00     0.074 A 
ATOM     61  C   UNL A   1      43.014  27.571  31.387  1.00  0.00     0.029 A 
ATOM     62  N   UNL A   1      41.915  29.184  32.451  1.00  0.00    -0.354 N 
ATOM     63  N   UNL A   1      41.381  31.011  34.676  1.00  0.00    -0.248 NA
ATOM     64  C   UNL A   1      41.856  31.767  36.834  1.00  0.00     0.031 C 
ATOM     65  C   UNL A   1      43.675  27.836  32.591  1.00  0.00     0.029 A 
ATOM     66  C   UNL A   1      42.990  28.842  33.252  1.00  0.00     0.049 A 
ATOM     67  H   UNL A   1      41.245  29.872  32.668  1.00  0.00     0.167 HD
ATOM     68  C   UNL A   1      42.533  30.384  35.137  1.00  0.00     0.074 A 
ATOM     69  C   UNL A   1      42.802  30.918  36.456  1.00  0.00     0.031 C 
ATOM     70  C   UNL A   1      43.286  29.435  34.531  1.00  0.00     0.034 A 
BRANCH  57  71
ATOM     71  C   UNL A   1      41.117  27.619  29.044  1.00  0.00     0.023 A 
ATOM     72  C   UNL A   1      40.362  26.431  28.982  1.00  0.00     0.012 A 
ATOM     73  C   UNL A   1      41.951  27.969  27.964  1.00  0.00     0.148 A 
ATOM     74  C   UNL A   1      40.450  25.592  27.872  1.00  0.00     0.002 A 
ATOM     75  C   UNL A   1      42.008  27.144  26.847  1.00  0.00     0.091 A 
ATOM     76  F   UNL A   1      42.678  29.091  28.054  1.00  0.00    -0.205 F 
ATOM     77  C   UNL A   1      41.263  25.953  26.802  1.00  0.00     0.022 A 
BRANCH  75  78
ATOM     78  S   UNL A   1      42.980  27.556  25.394  1.00  0.00     0.127 S 
ATOM     79  O   UNL A   1      43.056  26.264  24.712  1.00  0.00    -0.237 OA
ATOM     80  O   UNL A   1      42.137  28.548  24.724  1.00  0.00    -0.237 OA
ATOM     81  O   UNL A   1      44.243  28.078  25.894  1.00  0.00    -0.744 OA
ENDBRANCH  75  78
ENDBRANCH  57  71
BRANCH  58  82
ATOM     82  C   UNL A   1      39.609  33.658  36.843  1.00  0.00     0.023 A 
ATOM     83  C   UNL A   1      40.000  35.009  36.785  1.00  0.00     0.012 A 
ATOM     84  C   UNL A   1      38.968  33.178  38.000  1.00  0.00     0.148 A 
ATOM     85  C   UNL A   1      39.780  35.860  37.869  1.00  0.00     0.002 A 
ATOM     86  C   UNL A   1      38.707  34.044  39.058  1.00  0.00     0.091 A 
ATOM     87  F   UNL A   1      38.618  31.885  38.051  1.00  0.00    -0.205 F 
ATOM     88  C   UNL A   1      39.124  35.382  39.000  1.00  0.00     0.022 A 
BRANCH  86  89
ATOM     89  S   UNL A   1      37.749  33.512  40.481  1.00  0.00     0.127 S 
ATOM     90  O   UNL A   1      36.503  33.071  39.861  1.00  0.00    -0.237 OA
ATOM     91  O   UNL A   1      38.573  32.437  41.037  1.00  0.00    -0.237 OA
ATOM     92  O   UNL A   1      37.666  34.693  41.332  1.00  0.00    -0.744 OA
ENDBRANCH  86  89
ENDBRANCH  58  82
BRANCH  70  93
ATOM     93  C   UNL A   1      44.489  28.920  35.272  1.00  0.00     0.023 A 
ATOM     94  C   UNL A   1      45.738  29.542  35.076  1.00  0.00     0.012 A 
ATOM     95  C   UNL A   1      44.371  27.885  36.218  1.00  0.00     0.148 A 
ATOM     96  C   UNL A   1      46.855  29.128  35.799  1.00  0.00     0.002 A 
ATOM     97  C   UNL A   1      45.482  27.500  36.961  1.00  0.00     0.091 A 
ATOM     98  F   UNL A   1      43.180  27.288  36.372  1.00  0.00    -0.205 F 
ATOM     99  C   UNL A   1      46.726  28.116  36.749  1.00  0.00     0.022 A 
BRANCH  97 100
ATOM    100  S   UNL A   1      45.373  26.262  38.258  1.00  0.00     0.127 S 
ATOM    101  O   UNL A   1      44.490  26.916  39.222  1.00  0.00    -0.237 OA
ATOM    102  O   UNL A   1      44.775  25.122  37.561  1.00  0.00    -0.237 OA
ATOM    103  O   UNL A   1      46.744  26.039  38.701  1.00  0.00    -0.744 OA
ENDBRANCH  97 100
ENDBRANCH  70  93
ENDBRANCH  44  45
ENDBRANCH  36  39
ENDBRANCH  34  35
ENDBRANCH  33  34
ENDBRANCH  32  33
ENDBRANCH   1  32
TORSDOF 20
ENDMDL
