MODEL 1
REMARK VINA RESULT:     -11.1      0.000      0.000
REMARK SMILES CC(C)(C)N(CC(=O)NCCCCCCNC(=O)c1ccc(-c2c3nc(c(-c4cccc(S(=O)(=O)[O-])c4F)c4ccc([nH]4)c(-c4cccc(S(=O)(=O)[O-])c4F)c4nc(c(-c5cccc(S(=O)(=O)[O-])c5F)c5ccc2[nH]5)C=C4)C=C3)cc1)C(=O)c1cc2ccccc2o1
REMARK SMILES IDX 12 1 11 2 10 3 9 4 7 5 8 6 6 8 5 9 2 10 1 11 3 12 4 13 82 14
REMARK SMILES IDX 83 15 84 16 85 17 92 18 86 19 91 20 87 21 90 22 88 23 89 24
REMARK SMILES IDX 13 25 14 26 15 27 16 28 17 29 18 31 19 32 20 33 81 34 21 35
REMARK SMILES IDX 80 36 22 37 23 38 24 39 74 40 25 41 79 42 73 43 75 44 26 45
REMARK SMILES IDX 78 46 72 47 71 48 27 50 59 51 39 52 58 53 40 54 43 55 57 56
REMARK SMILES IDX 76 57 41 58 42 59 56 61 77 62 44 63 28 64 29 65 37 66 30 67
REMARK SMILES IDX 32 68 38 69 31 70 33 71 34 72 35 73 36 74 60 75 61 76 69 77
REMARK SMILES IDX 62 78 64 79 70 80 63 81 65 82 66 83 67 84 68 85 45 86 46 87
REMARK SMILES IDX 54 88 47 89 49 90 55 91 48 92 50 93 51 94 52 95 53 96
REMARK H PARENT 9 7 16 30 75 49 43 60
REMARK Flexibility Score: inf
ROOT
ATOM      1  C   UNL A   1      33.392  29.691  26.043  1.00  0.00     0.002 C 
ENDROOT
BRANCH   1   2
ATOM      2  C   UNL A   1      33.847  28.948  24.785  1.00  0.00     0.021 C 
BRANCH   2   3
ATOM      3  C   UNL A   1      32.781  28.790  23.702  1.00  0.00     0.116 C 
BRANCH   3   4
ATOM      4  N   UNL A   1      33.236  27.941  22.614  1.00  0.00    -0.355 N 
ATOM      5  C   UNL A   1      32.798  26.715  22.206  1.00  0.00     0.239 C 
ATOM      6  O   UNL A   1      33.284  26.262  21.163  1.00  0.00    -0.273 OA
ATOM      7  H   UNL A   1      33.981  28.310  22.086  1.00  0.00     0.163 HD
BRANCH   5   8
ATOM      8  C   UNL A   1      31.618  25.984  22.892  1.00  0.00     0.220 C 
BRANCH   8   9
ATOM      9  N   UNL A   1      31.997  24.922  23.827  1.00  0.00    -0.322 N 
BRANCH   9  10
ATOM     10  C   UNL A   1      32.087  25.167  25.310  1.00  0.00     0.035 C 
ATOM     11  C   UNL A   1      31.608  23.972  26.162  1.00  0.00     0.034 C 
ATOM     12  C   UNL A   1      31.242  26.384  25.762  1.00  0.00     0.034 C 
ATOM     13  C   UNL A   1      33.561  25.445  25.676  1.00  0.00     0.034 C 
ENDBRANCH   9  10
BRANCH   9  14
ATOM     14  C   UNL A   1      31.889  23.593  23.402  1.00  0.00     0.290 C 
ATOM     15  O   UNL A   1      30.792  23.077  23.194  1.00  0.00    -0.265 OA
BRANCH  14  16
ATOM     16  C   UNL A   1      33.085  22.835  23.100  1.00  0.00     0.192 A 
ATOM     17  C   UNL A   1      34.301  23.301  22.624  1.00  0.00     0.065 A 
ATOM     18  O   UNL A   1      33.300  21.753  23.916  1.00  0.00    -0.451 OA
ATOM     19  C   UNL A   1      35.265  22.789  23.540  1.00  0.00     0.021 A 
ATOM     20  C   UNL A   1      34.598  21.846  24.312  1.00  0.00     0.135 A 
ATOM     21  C   UNL A   1      36.582  23.131  23.890  1.00  0.00     0.012 A 
ATOM     22  C   UNL A   1      35.141  21.205  25.419  1.00  0.00     0.048 A 
ATOM     23  C   UNL A   1      37.127  22.568  25.053  1.00  0.00     0.001 A 
ATOM     24  C   UNL A   1      36.417  21.626  25.805  1.00  0.00     0.004 A 
ENDBRANCH  14  16
ENDBRANCH   9  14
ENDBRANCH   8   9
ENDBRANCH   5   8
ENDBRANCH   3   4
ENDBRANCH   2   3
ENDBRANCH   1   2
BRANCH   1  25
ATOM     25  C   UNL A   1      31.930  30.144  26.053  1.00  0.00     0.002 C 
BRANCH  25  26
ATOM     26  C   UNL A   1      31.674  31.558  26.584  1.00  0.00     0.021 C 
BRANCH  26  27
ATOM     27  C   UNL A   1      32.878  32.242  27.229  1.00  0.00     0.116 C 
BRANCH  27  28
ATOM     28  N   UNL A   1      32.616  33.638  27.544  1.00  0.00    -0.352 N 
ATOM     29  C   UNL A   1      33.177  34.437  28.513  1.00  0.00     0.251 C 
ATOM     30  H   UNL A   1      31.936  34.074  26.981  1.00  0.00     0.163 HD
ATOM     31  O   UNL A   1      32.706  35.539  28.747  1.00  0.00    -0.269 OA
BRANCH  29  32
ATOM     32  C   UNL A   1      34.348  33.952  29.280  1.00  0.00     0.039 A 
ATOM     33  C   UNL A   1      34.139  33.094  30.364  1.00  0.00     0.014 A 
ATOM     34  C   UNL A   1      35.643  34.361  28.949  1.00  0.00     0.014 A 
ATOM     35  C   UNL A   1      35.233  32.600  31.082  1.00  0.00     0.010 A 
ATOM     36  C   UNL A   1      36.734  33.826  29.630  1.00  0.00     0.010 A 
ATOM     37  C   UNL A   1      36.540  32.944  30.704  1.00  0.00    -0.014 A 
BRANCH  37  38
ATOM     38  C   UNL A   1      37.728  32.411  31.419  1.00  0.00     0.031 A 
ATOM     39  C   UNL A   1      38.507  31.269  30.823  1.00  0.00     0.074 A 
ATOM     40  C   UNL A   1      38.041  32.878  32.644  1.00  0.00     0.049 A 
ATOM     41  N   UNL A   1      39.472  30.563  31.351  1.00  0.00    -0.248 NA
ATOM     42  C   UNL A   1      38.131  30.849  29.461  1.00  0.00     0.031 C 
ATOM     43  C   UNL A   1      37.327  33.942  33.354  1.00  0.00     0.029 A 
ATOM     44  N   UNL A   1      39.017  32.487  33.529  1.00  0.00    -0.354 N 
ATOM     45  C   UNL A   1      39.790  29.591  30.409  1.00  0.00     0.074 A 
ATOM     46  C   UNL A   1      38.903  29.786  29.284  1.00  0.00     0.031 C 
ATOM     47  C   UNL A   1      37.874  34.104  34.569  1.00  0.00     0.029 A 
ATOM     48  C   UNL A   1      38.961  33.143  34.737  1.00  0.00     0.049 A 
ATOM     49  H   UNL A   1      39.692  31.803  33.318  1.00  0.00     0.167 HD
ATOM     50  C   UNL A   1      40.754  28.642  30.463  1.00  0.00     0.034 A 
ATOM     51  C   UNL A   1      39.692  32.978  35.857  1.00  0.00     0.034 A 
ATOM     52  C   UNL A   1      41.672  28.486  31.559  1.00  0.00     0.049 A 
ATOM     53  C   UNL A   1      40.796  31.953  35.866  1.00  0.00     0.074 A 
ATOM     54  C   UNL A   1      42.712  27.584  31.688  1.00  0.00     0.029 A 
ATOM     55  N   UNL A   1      41.668  29.263  32.706  1.00  0.00    -0.354 N 
ATOM     56  N   UNL A   1      41.159  31.126  34.916  1.00  0.00    -0.248 NA
ATOM     57  C   UNL A   1      41.617  31.865  37.082  1.00  0.00     0.031 C 
ATOM     58  C   UNL A   1      43.346  27.821  32.912  1.00  0.00     0.029 A 
ATOM     59  C   UNL A   1      42.702  28.874  33.541  1.00  0.00     0.049 A 
ATOM     60  H   UNL A   1      41.027  29.985  32.899  1.00  0.00     0.167 HD
ATOM     61  C   UNL A   1      42.273  30.452  35.403  1.00  0.00     0.074 A 
ATOM     62  C   UNL A   1      42.536  30.978  36.726  1.00  0.00     0.031 C 
ATOM     63  C   UNL A   1      43.001  29.471  34.816  1.00  0.00     0.034 A 
BRANCH  50  64
ATOM     64  C   UNL A   1      40.919  27.742  29.268  1.00  0.00     0.023 A 
ATOM     65  C   UNL A   1      40.105  26.597  29.156  1.00  0.00     0.012 A 
ATOM     66  C   UNL A   1      41.813  28.060  28.228  1.00  0.00     0.148 A 
ATOM     67  C   UNL A   1      40.195  25.766  28.041  1.00  0.00     0.002 A 
ATOM     68  C   UNL A   1      41.870  27.249  27.100  1.00  0.00     0.091 A 
ATOM     69  F   UNL A   1      42.590  29.144  28.361  1.00  0.00    -0.205 F 
ATOM     70  C   UNL A   1      41.069  26.098  27.008  1.00  0.00     0.022 A 
BRANCH  68  71
ATOM     71  S   UNL A   1      42.908  27.626  25.683  1.00  0.00     0.127 S 
ATOM     72  O   UNL A   1      42.319  26.775  24.651  1.00  0.00    -0.237 OA
ATOM     73  O   UNL A   1      42.672  29.059  25.500  1.00  0.00    -0.237 OA
ATOM     74  O   UNL A   1      44.267  27.281  26.076  1.00  0.00    -0.744 OA
ENDBRANCH  68  71
ENDBRANCH  50  64
BRANCH  51  75
ATOM     75  C   UNL A   1      39.453  33.849  37.043  1.00  0.00     0.023 A 
ATOM     76  C   UNL A   1      39.854  35.198  36.996  1.00  0.00     0.012 A 
ATOM     77  C   UNL A   1      38.820  33.363  38.203  1.00  0.00     0.148 A 
ATOM     78  C   UNL A   1      39.664  36.037  38.095  1.00  0.00     0.002 A 
ATOM     79  C   UNL A   1      38.585  34.219  39.275  1.00  0.00     0.091 A 
ATOM     80  F   UNL A   1      38.459  32.072  38.242  1.00  0.00    -0.205 F 
ATOM     81  C   UNL A   1      39.021  35.552  39.231  1.00  0.00     0.022 A 
BRANCH  79  82
ATOM     82  S   UNL A   1      37.643  33.691  40.711  1.00  0.00     0.127 S 
ATOM     83  O   UNL A   1      36.416  33.188  40.101  1.00  0.00    -0.237 OA
ATOM     84  O   UNL A   1      38.507  32.663  41.293  1.00  0.00    -0.237 OA
ATOM     85  O   UNL A   1      37.510  34.886  41.535  1.00  0.00    -0.744 OA
ENDBRANCH  79  82
ENDBRANCH  51  75
BRANCH  63  86
ATOM     86  C   UNL A   1      44.190  28.933  35.563  1.00  0.00     0.023 A 
ATOM     87  C   UNL A   1      45.443  29.561  35.424  1.00  0.00     0.012 A 
ATOM     88  C   UNL A   1      44.043  27.872  36.478  1.00  0.00     0.148 A 
ATOM     89  C   UNL A   1      46.537  29.128  36.171  1.00  0.00     0.002 A 
ATOM     90  C   UNL A   1      45.127  27.472  37.249  1.00  0.00     0.091 A 
ATOM     91  F   UNL A   1      42.845  27.276  36.578  1.00  0.00    -0.205 F 
ATOM     92  C   UNL A   1      46.377  28.095  37.092  1.00  0.00     0.022 A 
BRANCH  90  93
ATOM     93  S   UNL A   1      44.988  26.211  38.521  1.00  0.00     0.127 S 
ATOM     94  O   UNL A   1      46.356  26.155  39.035  1.00  0.00    -0.237 OA
ATOM     95  O   UNL A   1      44.016  26.800  39.441  1.00  0.00    -0.237 OA
ATOM     96  O   UNL A   1      44.524  25.009  37.842  1.00  0.00    -0.744 OA
ENDBRANCH  90  93
ENDBRANCH  63  86
ENDBRANCH  37  38
ENDBRANCH  29  32
ENDBRANCH  27  28
ENDBRANCH  26  27
ENDBRANCH  25  26
ENDBRANCH   1  25
TORSDOF 20
ENDMDL
MODEL 2
REMARK VINA RESULT:     -11.1      1.545      2.295
REMARK SMILES CC(C)(C)N(CC(=O)NCCCCCCNC(=O)c1ccc(-c2c3nc(c(-c4cccc(S(=O)(=O)[O-])c4F)c4ccc([nH]4)c(-c4cccc(S(=O)(=O)[O-])c4F)c4nc(c(-c5cccc(S(=O)(=O)[O-])c5F)c5ccc2[nH]5)C=C4)C=C3)cc1)C(=O)c1cc2ccccc2o1
REMARK SMILES IDX 12 1 11 2 10 3 9 4 7 5 8 6 6 8 5 9 2 10 1 11 3 12 4 13 82 14
REMARK SMILES IDX 83 15 84 16 85 17 92 18 86 19 91 20 87 21 90 22 88 23 89 24
REMARK SMILES IDX 13 25 14 26 15 27 16 28 17 29 18 31 19 32 20 33 81 34 21 35
REMARK SMILES IDX 80 36 22 37 23 38 24 39 74 40 25 41 79 42 73 43 75 44 26 45
REMARK SMILES IDX 78 46 72 47 71 48 27 50 59 51 39 52 58 53 40 54 43 55 57 56
REMARK SMILES IDX 76 57 41 58 42 59 56 61 77 62 44 63 28 64 29 65 37 66 30 67
REMARK SMILES IDX 32 68 38 69 31 70 33 71 34 72 35 73 36 74 60 75 61 76 69 77
REMARK SMILES IDX 62 78 64 79 70 80 63 81 65 82 66 83 67 84 68 85 45 86 46 87
REMARK SMILES IDX 54 88 47 89 49 90 55 91 48 92 50 93 51 94 52 95 53 96
REMARK H PARENT 9 7 16 30 75 49 43 60
REMARK Flexibility Score: inf
ROOT
ATOM      1  C   UNL A   1      31.248  28.986  25.153  1.00  0.00     0.002 C 
ENDROOT
BRANCH   1   2
ATOM      2  C   UNL A   1      31.188  27.458  25.083  1.00  0.00     0.021 C 
BRANCH   2   3
ATOM      3  C   UNL A   1      32.241  26.728  25.916  1.00  0.00     0.116 C 
BRANCH   3   4
ATOM      4  N   UNL A   1      31.657  25.661  26.712  1.00  0.00    -0.355 N 
ATOM      5  C   UNL A   1      31.335  24.379  26.372  1.00  0.00     0.239 C 
ATOM      6  O   UNL A   1      30.960  23.633  27.283  1.00  0.00    -0.273 OA
ATOM      7  H   UNL A   1      31.462  25.902  27.647  1.00  0.00     0.163 HD
BRANCH   5   8
ATOM      8  C   UNL A   1      31.593  23.806  24.958  1.00  0.00     0.220 C 
BRANCH   8   9
ATOM      9  N   UNL A   1      32.843  23.056  24.804  1.00  0.00    -0.322 N 
BRANCH   9  10
ATOM     10  C   UNL A   1      34.126  23.730  24.399  1.00  0.00     0.035 C 
ATOM     11  C   UNL A   1      34.901  24.343  25.585  1.00  0.00     0.034 C 
ATOM     12  C   UNL A   1      33.898  24.885  23.392  1.00  0.00     0.034 C 
ATOM     13  C   UNL A   1      35.043  22.685  23.729  1.00  0.00     0.034 C 
ENDBRANCH   9  10
BRANCH   9  14
ATOM     14  C   UNL A   1      32.942  21.799  25.413  1.00  0.00     0.290 C 
ATOM     15  O   UNL A   1      33.517  21.657  26.491  1.00  0.00    -0.265 OA
BRANCH  14  16
ATOM     16  C   UNL A   1      32.272  20.660  24.823  1.00  0.00     0.192 A 
ATOM     17  C   UNL A   1      32.362  20.188  23.523  1.00  0.00     0.065 A 
ATOM     18  O   UNL A   1      32.076  19.603  25.677  1.00  0.00    -0.451 OA
ATOM     19  C   UNL A   1      32.696  18.810  23.662  1.00  0.00     0.021 A 
ATOM     20  C   UNL A   1      32.507  18.504  25.004  1.00  0.00     0.135 A 
ATOM     21  C   UNL A   1      33.276  17.839  22.829  1.00  0.00     0.012 A 
ATOM     22  C   UNL A   1      32.852  17.293  25.595  1.00  0.00     0.048 A 
ATOM     23  C   UNL A   1      33.715  16.641  23.412  1.00  0.00     0.001 A 
ATOM     24  C   UNL A   1      33.510  16.376  24.769  1.00  0.00     0.004 A 
ENDBRANCH  14  16
ENDBRANCH   9  14
ENDBRANCH   8   9
ENDBRANCH   5   8
ENDBRANCH   3   4
ENDBRANCH   2   3
ENDBRANCH   1   2
BRANCH   1  25
ATOM     25  C   UNL A   1      32.094  29.565  26.290  1.00  0.00     0.002 C 
BRANCH  25  26
ATOM     26  C   UNL A   1      31.863  31.047  26.604  1.00  0.00     0.021 C 
BRANCH  26  27
ATOM     27  C   UNL A   1      33.053  31.776  27.224  1.00  0.00     0.116 C 
BRANCH  27  28
ATOM     28  N   UNL A   1      32.754  33.169  27.517  1.00  0.00    -0.352 N 
ATOM     29  C   UNL A   1      33.305  34.003  28.463  1.00  0.00     0.251 C 
ATOM     30  H   UNL A   1      32.054  33.575  26.956  1.00  0.00     0.163 HD
ATOM     31  O   UNL A   1      32.803  35.094  28.683  1.00  0.00    -0.269 OA
BRANCH  29  32
ATOM     32  C   UNL A   1      34.499  33.567  29.222  1.00  0.00     0.039 A 
ATOM     33  C   UNL A   1      34.334  32.699  30.306  1.00  0.00     0.014 A 
ATOM     34  C   UNL A   1      35.773  34.032  28.884  1.00  0.00     0.014 A 
ATOM     35  C   UNL A   1      35.452  32.252  31.017  1.00  0.00     0.010 A 
ATOM     36  C   UNL A   1      36.890  33.543  29.557  1.00  0.00     0.010 A 
ATOM     37  C   UNL A   1      36.741  32.652  30.632  1.00  0.00    -0.014 A 
BRANCH  37  38
ATOM     38  C   UNL A   1      37.955  32.169  31.338  1.00  0.00     0.031 A 
ATOM     39  C   UNL A   1      38.776  31.058  30.738  1.00  0.00     0.074 A 
ATOM     40  C   UNL A   1      38.258  32.650  32.560  1.00  0.00     0.049 A 
ATOM     41  N   UNL A   1      39.772  30.393  31.260  1.00  0.00    -0.248 NA
ATOM     42  C   UNL A   1      38.407  30.621  29.380  1.00  0.00     0.031 C 
ATOM     43  C   UNL A   1      37.506  33.685  33.274  1.00  0.00     0.029 A 
ATOM     44  N   UNL A   1      39.255  32.301  33.438  1.00  0.00    -0.354 N 
ATOM     45  C   UNL A   1      40.123  29.433  30.317  1.00  0.00     0.074 A 
ATOM     46  C   UNL A   1      39.220  29.590  29.198  1.00  0.00     0.031 C 
ATOM     47  C   UNL A   1      38.056  33.872  34.485  1.00  0.00     0.029 A 
ATOM     48  C   UNL A   1      39.182  32.957  34.646  1.00  0.00     0.049 A 
ATOM     49  H   UNL A   1      39.956  31.644  33.224  1.00  0.00     0.167 HD
ATOM     50  C   UNL A   1      41.125  28.524  30.366  1.00  0.00     0.034 A 
ATOM     51  C   UNL A   1      39.927  32.823  35.761  1.00  0.00     0.034 A 
ATOM     52  C   UNL A   1      42.057  28.408  31.454  1.00  0.00     0.049 A 
ATOM     53  C   UNL A   1      41.072  31.844  35.763  1.00  0.00     0.074 A 
ATOM     54  C   UNL A   1      43.134  27.549  31.577  1.00  0.00     0.029 A 
ATOM     55  N   UNL A   1      42.030  29.186  32.601  1.00  0.00    -0.354 N 
ATOM     56  N   UNL A   1      41.462  31.031  34.811  1.00  0.00    -0.248 NA
ATOM     57  C   UNL A   1      41.905  31.792  36.973  1.00  0.00     0.031 C 
ATOM     58  C   UNL A   1      43.766  27.814  32.796  1.00  0.00     0.029 A 
ATOM     59  C   UNL A   1      43.085  28.842  33.428  1.00  0.00     0.049 A 
ATOM     60  H   UNL A   1      41.362  29.882  32.797  1.00  0.00     0.167 HD
ATOM     61  C   UNL A   1      42.606  30.404  35.291  1.00  0.00     0.074 A 
ATOM     62  C   UNL A   1      42.857  30.942  36.612  1.00  0.00     0.031 C 
ATOM     63  C   UNL A   1      43.369  29.452  34.700  1.00  0.00     0.034 A 
BRANCH  50  64
ATOM     64  C   UNL A   1      41.318  27.630  29.171  1.00  0.00     0.023 A 
ATOM     65  C   UNL A   1      40.567  26.440  29.078  1.00  0.00     0.012 A 
ATOM     66  C   UNL A   1      42.173  27.993  28.112  1.00  0.00     0.148 A 
ATOM     67  C   UNL A   1      40.683  25.611  27.964  1.00  0.00     0.002 A 
ATOM     68  C   UNL A   1      42.254  27.181  26.986  1.00  0.00     0.091 A 
ATOM     69  F   UNL A   1      42.890  29.120  28.227  1.00  0.00    -0.205 F 
ATOM     70  C   UNL A   1      41.517  25.987  26.914  1.00  0.00     0.022 A 
BRANCH  68  71
ATOM     71  S   UNL A   1      43.243  27.610  25.548  1.00  0.00     0.127 S 
ATOM     72  O   UNL A   1      44.257  28.482  26.137  1.00  0.00    -0.237 OA
ATOM     73  O   UNL A   1      43.739  26.303  25.114  1.00  0.00    -0.237 OA
ATOM     74  O   UNL A   1      42.332  28.254  24.612  1.00  0.00    -0.744 OA
ENDBRANCH  68  71
ENDBRANCH  50  64
BRANCH  51  75
ATOM     75  C   UNL A   1      39.662  33.686  36.947  1.00  0.00     0.023 A 
ATOM     76  C   UNL A   1      40.080  35.031  36.926  1.00  0.00     0.012 A 
ATOM     77  C   UNL A   1      38.987  33.197  38.082  1.00  0.00     0.148 A 
ATOM     78  C   UNL A   1      39.866  35.861  38.027  1.00  0.00     0.002 A 
ATOM     79  C   UNL A   1      38.729  34.045  39.155  1.00  0.00     0.091 A 
ATOM     80  F   UNL A   1      38.610  31.910  38.097  1.00  0.00    -0.205 F 
ATOM     81  C   UNL A   1      39.182  35.373  39.137  1.00  0.00     0.022 A 
BRANCH  79  82
ATOM     82  S   UNL A   1      37.737  33.515  40.556  1.00  0.00     0.127 S 
ATOM     83  O   UNL A   1      38.594  32.504  41.168  1.00  0.00    -0.237 OA
ATOM     84  O   UNL A   1      37.595  34.751  41.327  1.00  0.00    -0.237 OA
ATOM     85  O   UNL A   1      36.489  33.035  39.974  1.00  0.00    -0.744 OA
ENDBRANCH  79  82
ENDBRANCH  51  75
BRANCH  63  86
ATOM     86  C   UNL A   1      44.584  28.964  35.439  1.00  0.00     0.023 A 
ATOM     87  C   UNL A   1      45.831  29.581  35.214  1.00  0.00     0.012 A 
ATOM     88  C   UNL A   1      44.471  27.968  36.428  1.00  0.00     0.148 A 
ATOM     89  C   UNL A   1      46.951  29.198  35.950  1.00  0.00     0.002 A 
ATOM     90  C   UNL A   1      45.583  27.619  37.185  1.00  0.00     0.091 A 
ATOM     91  F   UNL A   1      43.279  27.380  36.610  1.00  0.00    -0.205 F 
ATOM     92  C   UNL A   1      46.826  28.229  36.942  1.00  0.00     0.022 A 
BRANCH  90  93
ATOM     93  S   UNL A   1      45.491  26.446  38.542  1.00  0.00     0.127 S 
ATOM     94  O   UNL A   1      46.859  26.480  39.058  1.00  0.00    -0.237 OA
ATOM     95  O   UNL A   1      44.493  27.059  39.419  1.00  0.00    -0.237 OA
ATOM     96  O   UNL A   1      45.075  25.182  37.950  1.00  0.00    -0.744 OA
ENDBRANCH  90  93
ENDBRANCH  63  86
ENDBRANCH  37  38
ENDBRANCH  29  32
ENDBRANCH  27  28
ENDBRANCH  26  27
ENDBRANCH  25  26
ENDBRANCH   1  25
TORSDOF 20
ENDMDL
MODEL 3
REMARK VINA RESULT:     -11.0      3.609      8.755
REMARK SMILES CC(C)(C)N(CC(=O)NCCCCCCNC(=O)c1ccc(-c2c3nc(c(-c4cccc(S(=O)(=O)[O-])c4F)c4ccc([nH]4)c(-c4cccc(S(=O)(=O)[O-])c4F)c4nc(c(-c5cccc(S(=O)(=O)[O-])c5F)c5ccc2[nH]5)C=C4)C=C3)cc1)C(=O)c1cc2ccccc2o1
REMARK SMILES IDX 12 1 11 2 10 3 9 4 7 5 8 6 6 8 5 9 2 10 1 11 3 12 4 13 82 14
REMARK SMILES IDX 83 15 84 16 85 17 92 18 86 19 91 20 87 21 90 22 88 23 89 24
REMARK SMILES IDX 13 25 14 26 15 27 16 28 17 29 18 31 19 32 20 33 81 34 21 35
REMARK SMILES IDX 80 36 22 37 23 38 24 39 74 40 25 41 79 42 73 43 75 44 26 45
REMARK SMILES IDX 78 46 72 47 71 48 27 50 59 51 39 52 58 53 40 54 43 55 57 56
REMARK SMILES IDX 76 57 41 58 42 59 56 61 77 62 44 63 28 64 29 65 37 66 30 67
REMARK SMILES IDX 32 68 38 69 31 70 33 71 34 72 35 73 36 74 60 75 61 76 69 77
REMARK SMILES IDX 62 78 64 79 70 80 63 81 65 82 66 83 67 84 68 85 45 86 46 87
REMARK SMILES IDX 54 88 47 89 49 90 55 91 48 92 50 93 51 94 52 95 53 96
REMARK H PARENT 9 7 16 30 75 49 43 60
REMARK Flexibility Score: inf
ROOT
ATOM      1  C   UNL A   1      31.924  27.093  23.203  1.00  0.00     0.002 C 
ENDROOT
BRANCH   1   2
ATOM      2  C   UNL A   1      33.135  26.417  22.558  1.00  0.00     0.021 C 
BRANCH   2   3
ATOM      3  C   UNL A   1      33.035  24.897  22.421  1.00  0.00     0.116 C 
BRANCH   3   4
ATOM      4  N   UNL A   1      31.996  24.345  23.274  1.00  0.00    -0.355 N 
ATOM      5  C   UNL A   1      32.070  23.822  24.532  1.00  0.00     0.239 C 
ATOM      6  O   UNL A   1      31.002  23.531  25.083  1.00  0.00    -0.273 OA
ATOM      7  H   UNL A   1      31.093  24.348  22.879  1.00  0.00     0.163 HD
BRANCH   5   8
ATOM      8  C   UNL A   1      33.396  23.757  25.327  1.00  0.00     0.220 C 
BRANCH   8   9
ATOM      9  N   UNL A   1      34.093  22.469  25.278  1.00  0.00    -0.322 N 
BRANCH   9  10
ATOM     10  C   UNL A   1      35.537  22.365  24.865  1.00  0.00     0.035 C 
ATOM     11  C   UNL A   1      35.790  22.782  23.400  1.00  0.00     0.034 C 
ATOM     12  C   UNL A   1      36.091  20.925  25.003  1.00  0.00     0.034 C 
ATOM     13  C   UNL A   1      36.377  23.290  25.770  1.00  0.00     0.034 C 
ENDBRANCH   9  10
BRANCH   9  14
ATOM     14  C   UNL A   1      33.550  21.392  25.990  1.00  0.00     0.290 C 
ATOM     15  O   UNL A   1      33.693  21.296  27.208  1.00  0.00    -0.265 OA
BRANCH  14  16
ATOM     16  C   UNL A   1      32.717  20.426  25.307  1.00  0.00     0.192 A 
ATOM     17  C   UNL A   1      32.709  20.097  23.960  1.00  0.00     0.065 A 
ATOM     18  O   UNL A   1      32.402  19.314  26.047  1.00  0.00    -0.451 OA
ATOM     19  C   UNL A   1      32.857  18.681  23.934  1.00  0.00     0.021 A 
ATOM     20  C   UNL A   1      32.663  18.251  25.240  1.00  0.00     0.135 A 
ATOM     21  C   UNL A   1      33.278  17.743  22.976  1.00  0.00     0.012 A 
ATOM     22  C   UNL A   1      32.856  16.946  25.680  1.00  0.00     0.048 A 
ATOM     23  C   UNL A   1      33.567  16.440  23.405  1.00  0.00     0.001 A 
ATOM     24  C   UNL A   1      33.363  16.051  24.733  1.00  0.00     0.004 A 
ENDBRANCH  14  16
ENDBRANCH   9  14
ENDBRANCH   8   9
ENDBRANCH   5   8
ENDBRANCH   3   4
ENDBRANCH   2   3
ENDBRANCH   1   2
BRANCH   1  25
ATOM     25  C   UNL A   1      32.196  27.825  24.520  1.00  0.00     0.002 C 
BRANCH  25  26
ATOM     26  C   UNL A   1      33.643  28.273  24.747  1.00  0.00     0.021 C 
BRANCH  26  27
ATOM     27  C   UNL A   1      34.027  28.530  26.203  1.00  0.00     0.116 C 
BRANCH  27  28
ATOM     28  N   UNL A   1      33.793  29.909  26.600  1.00  0.00    -0.352 N 
ATOM     29  C   UNL A   1      34.501  30.701  27.475  1.00  0.00     0.251 C 
ATOM     30  H   UNL A   1      33.013  30.340  26.180  1.00  0.00     0.163 HD
ATOM     31  O   UNL A   1      34.053  31.783  27.821  1.00  0.00    -0.269 OA
BRANCH  29  32
ATOM     32  C   UNL A   1      35.801  30.231  28.006  1.00  0.00     0.039 A 
ATOM     33  C   UNL A   1      35.846  29.661  29.282  1.00  0.00     0.014 A 
ATOM     34  C   UNL A   1      36.975  30.374  27.261  1.00  0.00     0.014 A 
ATOM     35  C   UNL A   1      37.058  29.183  29.790  1.00  0.00     0.010 A 
ATOM     36  C   UNL A   1      38.171  29.849  27.744  1.00  0.00     0.010 A 
ATOM     37  C   UNL A   1      38.225  29.251  29.014  1.00  0.00    -0.014 A 
BRANCH  37  38
ATOM     38  C   UNL A   1      39.524  28.722  29.502  1.00  0.00     0.031 A 
ATOM     39  C   UNL A   1      40.266  29.452  30.590  1.00  0.00     0.074 A 
ATOM     40  C   UNL A   1      40.085  27.654  28.900  1.00  0.00     0.049 A 
ATOM     41  N   UNL A   1      41.473  29.247  31.047  1.00  0.00    -0.248 NA
ATOM     42  C   UNL A   1      39.565  30.579  31.229  1.00  0.00     0.031 C 
ATOM     43  C   UNL A   1      39.492  26.897  27.794  1.00  0.00     0.029 A 
ATOM     44  N   UNL A   1      41.299  27.047  29.103  1.00  0.00    -0.354 N 
ATOM     45  C   UNL A   1      41.694  30.241  31.995  1.00  0.00     0.074 A 
ATOM     46  C   UNL A   1      40.503  31.061  32.033  1.00  0.00     0.031 C 
ATOM     47  C   UNL A   1      40.351  25.941  27.406  1.00  0.00     0.029 A 
ATOM     48  C   UNL A   1      41.565  26.031  28.214  1.00  0.00     0.049 A 
ATOM     49  H   UNL A   1      41.922  27.313  29.817  1.00  0.00     0.167 HD
ATOM     50  C   UNL A   1      42.778  30.435  32.782  1.00  0.00     0.034 A 
ATOM     51  C   UNL A   1      42.666  25.269  28.057  1.00  0.00     0.034 A 
ATOM     52  C   UNL A   1      43.937  29.585  32.782  1.00  0.00     0.049 A 
ATOM     53  C   UNL A   1      43.833  25.470  28.988  1.00  0.00     0.074 A 
ATOM     54  C   UNL A   1      45.068  29.672  33.574  1.00  0.00     0.029 A 
ATOM     55  N   UNL A   1      44.107  28.483  31.959  1.00  0.00    -0.354 N 
ATOM     56  N   UNL A   1      43.971  26.340  29.959  1.00  0.00    -0.248 NA
ATOM     57  C   UNL A   1      44.978  24.562  28.830  1.00  0.00     0.031 C 
ATOM     58  C   UNL A   1      45.919  28.615  33.237  1.00  0.00     0.029 A 
ATOM     59  C   UNL A   1      45.315  27.868  32.239  1.00  0.00     0.049 A 
ATOM     60  H   UNL A   1      43.463  28.180  31.279  1.00  0.00     0.167 HD
ATOM     61  C   UNL A   1      45.195  26.056  30.554  1.00  0.00     0.074 A 
ATOM     62  C   UNL A   1      45.754  24.925  29.843  1.00  0.00     0.031 C 
ATOM     63  C   UNL A   1      45.812  26.689  31.581  1.00  0.00     0.034 A 
BRANCH  50  64
ATOM     64  C   UNL A   1      42.732  31.570  33.770  1.00  0.00     0.023 A 
ATOM     65  C   UNL A   1      43.223  32.833  33.384  1.00  0.00     0.012 A 
ATOM     66  C   UNL A   1      42.142  31.414  35.039  1.00  0.00     0.148 A 
ATOM     67  C   UNL A   1      43.153  33.919  34.254  1.00  0.00     0.002 A 
ATOM     68  C   UNL A   1      42.040  32.512  35.887  1.00  0.00     0.091 A 
ATOM     69  F   UNL A   1      41.696  30.201  35.393  1.00  0.00    -0.205 F 
ATOM     70  C   UNL A   1      42.552  33.762  35.500  1.00  0.00     0.022 A 
BRANCH  68  71
ATOM     71  S   UNL A   1      41.219  32.433  37.484  1.00  0.00     0.127 S 
ATOM     72  O   UNL A   1      39.922  31.867  37.120  1.00  0.00    -0.237 OA
ATOM     73  O   UNL A   1      42.091  31.528  38.234  1.00  0.00    -0.237 OA
ATOM     74  O   UNL A   1      41.186  33.799  37.987  1.00  0.00    -0.744 OA
ENDBRANCH  68  71
ENDBRANCH  50  64
BRANCH  51  75
ATOM     75  C   UNL A   1      42.693  24.197  27.023  1.00  0.00     0.023 A 
ATOM     76  C   UNL A   1      43.479  24.377  25.867  1.00  0.00     0.012 A 
ATOM     77  C   UNL A   1      41.969  22.999  27.177  1.00  0.00     0.148 A 
ATOM     78  C   UNL A   1      43.512  23.402  24.868  1.00  0.00     0.002 A 
ATOM     79  C   UNL A   1      42.049  22.009  26.203  1.00  0.00     0.091 A 
ATOM     80  F   UNL A   1      41.211  22.848  28.273  1.00  0.00    -0.205 F 
ATOM     81  C   UNL A   1      42.806  22.215  25.040  1.00  0.00     0.022 A 
BRANCH  79  82
ATOM     82  S   UNL A   1      41.271  20.405  26.426  1.00  0.00     0.127 S 
ATOM     83  O   UNL A   1      41.533  20.135  27.837  1.00  0.00    -0.237 OA
ATOM     84  O   UNL A   1      39.872  20.685  26.102  1.00  0.00    -0.237 OA
ATOM     85  O   UNL A   1      41.935  19.528  25.468  1.00  0.00    -0.744 OA
ENDBRANCH  79  82
ENDBRANCH  51  75
BRANCH  63  86
ATOM     86  C   UNL A   1      47.135  26.148  32.049  1.00  0.00     0.023 A 
ATOM     87  C   UNL A   1      48.328  26.650  31.495  1.00  0.00     0.012 A 
ATOM     88  C   UNL A   1      47.196  25.219  33.106  1.00  0.00     0.148 A 
ATOM     89  C   UNL A   1      49.565  26.220  31.974  1.00  0.00     0.002 A 
ATOM     90  C   UNL A   1      48.432  24.825  33.605  1.00  0.00     0.091 A 
ATOM     91  F   UNL A   1      46.047  24.739  33.603  1.00  0.00    -0.205 F 
ATOM     92  C   UNL A   1      49.618  25.320  33.036  1.00  0.00     0.022 A 
BRANCH  90  93
ATOM     93  S   UNL A   1      48.591  23.739  35.027  1.00  0.00     0.127 S 
ATOM     94  O   UNL A   1      50.043  23.665  35.185  1.00  0.00    -0.237 OA
ATOM     95  O   UNL A   1      47.902  24.492  36.075  1.00  0.00    -0.237 OA
ATOM     96  O   UNL A   1      47.937  22.492  34.653  1.00  0.00    -0.744 OA
ENDBRANCH  90  93
ENDBRANCH  63  86
ENDBRANCH  37  38
ENDBRANCH  29  32
ENDBRANCH  27  28
ENDBRANCH  26  27
ENDBRANCH  25  26
ENDBRANCH   1  25
TORSDOF 20
ENDMDL
