MODEL 1
REMARK VINA RESULT:     -12.7      0.000      0.000
REMARK SMILES Cc1ccccc1NC(=S)NN1C(=O)CS[C@H]1c1ccccc1C(=O)NCCCCCCNC(=O)c1ccc(-c2c3nc(c(-c4cccc(S(=O)(=O)[O-])c4F)c4ccc([nH]4)c(-c4cccc(S(=O)(=O)[O-])c4F)c4nc(c(-c5cccc(S(=O)(=O)[O-])c5F)c5ccc2[nH]5)C=C4)C=C3)cc1
REMARK SMILES IDX 28 1 27 2 26 3 24 4 25 5 23 7 18 8 19 9 20 10 22 11 21 12
REMARK SMILES IDX 17 13 12 14 13 15 14 16 15 17 16 18 11 19 9 21 10 22 8 23
REMARK SMILES IDX 7 25 1 26 2 27 3 28 4 29 6 30 5 31 29 32 30 33 31 34 32 35
REMARK SMILES IDX 33 36 34 37 35 39 36 40 37 41 98 42 38 43 97 44 39 45 40 46
REMARK SMILES IDX 41 47 91 48 42 49 96 50 90 51 92 52 43 53 95 54 89 55 88 56
REMARK SMILES IDX 44 58 76 59 56 60 75 61 57 62 60 63 74 64 93 65 58 66 59 67
REMARK SMILES IDX 73 69 94 70 61 71 45 72 46 73 54 74 47 75 49 76 55 77 48 78
REMARK SMILES IDX 50 79 51 80 52 81 53 82 77 83 78 84 86 85 79 86 81 87 87 88
REMARK SMILES IDX 80 89 82 90 83 91 84 92 85 93 62 94 63 95 71 96 64 97 66 98
REMARK SMILES IDX 72 99 65 100 67 101 68 102 69 103 70 104
REMARK H PARENT 26 6 11 20 8 24 33 38 92 57 60 68
REMARK Flexibility Score: inf
ROOT
ATOM      1  C   UNL A   1      38.607  22.278  25.760  1.00  0.00     0.021 C 
ENDROOT
BRANCH   1   2
ATOM      2  C   UNL A   1      37.732  23.585  25.901  1.00  0.00     0.116 C 
BRANCH   2   3
ATOM      3  N   UNL A   1      36.258  23.639  25.553  1.00  0.00    -0.352 N 
ATOM      4  C   UNL A   1      35.297  22.802  26.192  1.00  0.00     0.251 C 
ATOM      5  O   UNL A   1      35.044  23.029  27.380  1.00  0.00    -0.269 OA
ATOM      6  H   UNL A   1      35.955  24.271  24.861  1.00  0.00     0.163 HD
BRANCH   4   7
ATOM      7  C   UNL A   1      34.358  21.785  25.459  1.00  0.00     0.046 A 
ATOM      8  C   UNL A   1      32.993  21.903  25.113  1.00  0.00    -0.001 A 
ATOM      9  C   UNL A   1      32.262  20.781  24.604  1.00  0.00     0.007 A 
ATOM     10  C   UNL A   1      32.864  19.568  24.341  1.00  0.00     0.000 A 
ATOM     11  C   UNL A   1      34.955  20.555  25.087  1.00  0.00     0.014 A 
ATOM     12  C   UNL A   1      34.226  19.469  24.548  1.00  0.00     0.001 A 
BRANCH   8  13
ATOM     13  C   UNL A   1      32.162  23.040  25.545  1.00  0.00     0.197 C 
ATOM     14  N   UNL A   1      32.416  24.358  25.051  1.00  0.00    -0.236 N 
ATOM     15  C   UNL A   1      31.806  25.027  26.166  1.00  0.00     0.252 C 
ATOM     16  O   UNL A   1      32.406  25.315  27.203  1.00  0.00    -0.272 OA
ATOM     17  C   UNL A   1      30.327  24.697  26.231  1.00  0.00     0.174 C 
ATOM     18  S   UNL A   1      30.327  22.992  25.574  1.00  0.00    -0.120 SA
BRANCH  14  19
ATOM     19  N   UNL A   1      31.992  24.582  23.511  1.00  0.00    -0.270 N 
ATOM     20  H   UNL A   1      31.856  23.775  22.964  1.00  0.00     0.191 HD
BRANCH  19  21
ATOM     21  C   UNL A   1      31.797  25.820  22.875  1.00  0.00     0.189 C 
ATOM     22  S   UNL A   1      31.896  25.870  21.193  1.00  0.00    -0.039 S 
BRANCH  21  23
ATOM     23  N   UNL A   1      31.437  27.011  23.495  1.00  0.00    -0.331 N 
ATOM     24  H   UNL A   1      32.026  27.276  24.238  1.00  0.00     0.169 HD
BRANCH  23  25
ATOM     25  C   UNL A   1      30.373  27.906  23.247  1.00  0.00     0.043 A 
ATOM     26  C   UNL A   1      28.026  26.355  24.128  1.00  0.00     0.046 C 
ATOM     27  C   UNL A   1      28.614  27.614  23.573  1.00  0.00    -0.028 A 
ATOM     28  C   UNL A   1      27.372  28.734  22.857  1.00  0.00     0.005 A 
ATOM     29  C   UNL A   1      27.884  30.166  21.894  1.00  0.00     0.000 A 
ATOM     30  C   UNL A   1      30.829  29.362  22.353  1.00  0.00     0.026 A 
ATOM     31  C   UNL A   1      29.624  30.436  21.590  1.00  0.00     0.002 A 
ENDBRANCH  23  25
ENDBRANCH  21  23
ENDBRANCH  19  21
ENDBRANCH  14  19
ENDBRANCH   8  13
ENDBRANCH   4   7
ENDBRANCH   2   3
ENDBRANCH   1   2
BRANCH   1  32
ATOM     32  C   UNL A   1      39.962  21.949  26.879  1.00  0.00     0.002 C 
BRANCH  32  33
ATOM     33  C   UNL A   1      41.226  20.298  27.554  1.00  0.00     0.002 C 
BRANCH  33  34
ATOM     34  C   UNL A   1      42.290  19.072  26.853  1.00  0.00     0.021 C 
BRANCH  34  35
ATOM     35  C   UNL A   1      43.204  19.160  25.622  1.00  0.00     0.116 C 
BRANCH  35  36
ATOM     36  N   UNL A   1      44.391  19.998  25.620  1.00  0.00    -0.352 N 
ATOM     37  C   UNL A   1      44.411  21.125  24.774  1.00  0.00     0.251 C 
ATOM     38  H   UNL A   1      45.161  19.786  26.196  1.00  0.00     0.163 HD
ATOM     39  O   UNL A   1      44.833  21.135  23.628  1.00  0.00    -0.269 OA
BRANCH  37  40
ATOM     40  C   UNL A   1      43.762  22.313  25.388  1.00  0.00     0.039 A 
ATOM     41  C   UNL A   1      43.472  23.445  24.635  1.00  0.00     0.014 A 
ATOM     42  C   UNL A   1      43.871  22.385  26.774  1.00  0.00     0.014 A 
ATOM     43  C   UNL A   1      43.589  24.684  25.247  1.00  0.00     0.010 A 
ATOM     44  C   UNL A   1      44.192  23.584  27.336  1.00  0.00     0.010 A 
ATOM     45  C   UNL A   1      44.076  24.731  26.551  1.00  0.00    -0.014 A 
BRANCH  45  46
ATOM     46  C   UNL A   1      44.087  25.928  27.351  1.00  0.00     0.031 A 
ATOM     47  C   UNL A   1      42.772  26.596  27.368  1.00  0.00     0.074 A 
ATOM     48  C   UNL A   1      45.160  26.172  28.130  1.00  0.00     0.049 A 
ATOM     49  N   UNL A   1      42.593  27.858  27.473  1.00  0.00    -0.248 NA
ATOM     50  C   UNL A   1      41.516  25.869  27.109  1.00  0.00     0.031 C 
ATOM     51  C   UNL A   1      45.267  27.023  29.304  1.00  0.00     0.029 A 
ATOM     52  N   UNL A   1      46.476  25.748  27.902  1.00  0.00    -0.354 N 
ATOM     53  C   UNL A   1      41.242  28.025  27.717  1.00  0.00     0.074 A 
ATOM     54  C   UNL A   1      40.606  26.834  27.238  1.00  0.00     0.031 C 
ATOM     55  C   UNL A   1      46.568  27.293  29.531  1.00  0.00     0.029 A 
ATOM     56  C   UNL A   1      47.330  26.737  28.424  1.00  0.00     0.049 A 
ATOM     57  H   UNL A   1      46.752  24.914  27.460  1.00  0.00     0.167 HD
ATOM     58  C   UNL A   1      40.860  29.013  28.568  1.00  0.00     0.034 A 
ATOM     59  C   UNL A   1      48.106  27.473  27.571  1.00  0.00     0.034 A 
ATOM     60  C   UNL A   1      42.070  29.708  29.043  1.00  0.00     0.049 A 
ATOM     61  C   UNL A   1      47.617  28.892  27.425  1.00  0.00     0.074 A 
ATOM     62  C   UNL A   1      42.847  29.552  30.180  1.00  0.00     0.029 A 
ATOM     63  N   UNL A   1      42.866  30.369  28.116  1.00  0.00    -0.354 N 
ATOM     64  N   UNL A   1      46.450  29.308  27.835  1.00  0.00    -0.248 NA
ATOM     65  C   UNL A   1      48.425  29.966  26.862  1.00  0.00     0.031 C 
ATOM     66  C   UNL A   1      44.134  30.102  29.910  1.00  0.00     0.029 A 
ATOM     67  C   UNL A   1      44.137  30.597  28.615  1.00  0.00     0.049 A 
ATOM     68  H   UNL A   1      42.565  30.641  27.219  1.00  0.00     0.167 HD
ATOM     69  C   UNL A   1      46.300  30.640  27.561  1.00  0.00     0.074 A 
ATOM     70  C   UNL A   1      47.595  31.014  27.009  1.00  0.00     0.031 C 
ATOM     71  C   UNL A   1      45.120  31.301  27.793  1.00  0.00     0.034 A 
BRANCH  58  72
ATOM     72  C   UNL A   1      39.506  29.143  29.247  1.00  0.00     0.023 A 
ATOM     73  C   UNL A   1      39.251  28.234  30.298  1.00  0.00     0.012 A 
ATOM     74  C   UNL A   1      38.464  30.063  28.961  1.00  0.00     0.148 A 
ATOM     75  C   UNL A   1      38.039  28.190  30.988  1.00  0.00     0.002 A 
ATOM     76  C   UNL A   1      37.235  30.001  29.630  1.00  0.00     0.091 A 
ATOM     77  F   UNL A   1      38.663  31.050  28.083  1.00  0.00    -0.205 F 
ATOM     78  C   UNL A   1      37.022  29.064  30.646  1.00  0.00     0.022 A 
BRANCH  76  79
ATOM     79  S   UNL A   1      35.835  31.074  29.243  1.00  0.00     0.127 S 
ATOM     80  O   UNL A   1      34.875  30.130  28.663  1.00  0.00    -0.237 OA
ATOM     81  O   UNL A   1      35.457  31.586  30.559  1.00  0.00    -0.237 OA
ATOM     82  O   UNL A   1      36.331  32.070  28.302  1.00  0.00    -0.744 OA
ENDBRANCH  76  79
ENDBRANCH  58  72
BRANCH  59  83
ATOM     83  C   UNL A   1      48.711  26.626  26.498  1.00  0.00     0.023 A 
ATOM     84  C   UNL A   1      48.153  26.808  25.210  1.00  0.00     0.012 A 
ATOM     85  C   UNL A   1      50.023  26.137  26.614  1.00  0.00     0.148 A 
ATOM     86  C   UNL A   1      48.956  26.731  24.078  1.00  0.00     0.002 A 
ATOM     87  C   UNL A   1      50.822  26.087  25.475  1.00  0.00     0.091 A 
ATOM     88  F   UNL A   1      50.484  25.813  27.828  1.00  0.00    -0.205 F 
ATOM     89  C   UNL A   1      50.306  26.447  24.218  1.00  0.00     0.022 A 
BRANCH  87  90
ATOM     90  S   UNL A   1      52.580  25.745  25.530  1.00  0.00     0.127 S 
ATOM     91  O   UNL A   1      53.015  26.203  24.215  1.00  0.00    -0.237 OA
ATOM     92  O   UNL A   1      53.003  26.603  26.639  1.00  0.00    -0.237 OA
ATOM     93  O   UNL A   1      52.698  24.314  25.768  1.00  0.00    -0.744 OA
ENDBRANCH  87  90
ENDBRANCH  59  83
BRANCH  71  94
ATOM     94  C   UNL A   1      44.764  32.691  27.279  1.00  0.00     0.023 A 
ATOM     95  C   UNL A   1      44.573  32.967  25.914  1.00  0.00     0.012 A 
ATOM     96  C   UNL A   1      44.496  33.768  28.171  1.00  0.00     0.148 A 
ATOM     97  C   UNL A   1      44.231  34.240  25.449  1.00  0.00     0.002 A 
ATOM     98  C   UNL A   1      44.008  34.985  27.715  1.00  0.00     0.091 A 
ATOM     99  F   UNL A   1      44.747  33.647  29.480  1.00  0.00    -0.205 F 
ATOM    100  C   UNL A   1      43.921  35.244  26.350  1.00  0.00     0.022 A 
BRANCH  98 101
ATOM    101  S   UNL A   1      43.354  36.226  28.839  1.00  0.00     0.127 S 
ATOM    102  O   UNL A   1      44.568  36.941  29.226  1.00  0.00    -0.237 OA
ATOM    103  O   UNL A   1      42.454  36.979  27.963  1.00  0.00    -0.237 OA
ATOM    104  O   UNL A   1      42.682  35.489  29.899  1.00  0.00    -0.744 OA
ENDBRANCH  98 101
ENDBRANCH  71  94
ENDBRANCH  45  46
ENDBRANCH  37  40
ENDBRANCH  35  36
ENDBRANCH  34  35
ENDBRANCH  33  34
ENDBRANCH  32  33
ENDBRANCH   1  32
TORSDOF 21
ENDMDL
MODEL 2
REMARK VINA RESULT:     -12.6      5.314     10.886
REMARK SMILES Cc1ccccc1NC(=S)NN1C(=O)CS[C@H]1c1ccccc1C(=O)NCCCCCCNC(=O)c1ccc(-c2c3nc(c(-c4cccc(S(=O)(=O)[O-])c4F)c4ccc([nH]4)c(-c4cccc(S(=O)(=O)[O-])c4F)c4nc(c(-c5cccc(S(=O)(=O)[O-])c5F)c5ccc2[nH]5)C=C4)C=C3)cc1
REMARK SMILES IDX 28 1 27 2 26 3 24 4 25 5 23 7 18 8 19 9 20 10 22 11 21 12
REMARK SMILES IDX 17 13 12 14 13 15 14 16 15 17 16 18 11 19 9 21 10 22 8 23
REMARK SMILES IDX 7 25 1 26 2 27 3 28 4 29 6 30 5 31 29 32 30 33 31 34 32 35
REMARK SMILES IDX 33 36 34 37 35 39 36 40 37 41 98 42 38 43 97 44 39 45 40 46
REMARK SMILES IDX 41 47 91 48 42 49 96 50 90 51 92 52 43 53 95 54 89 55 88 56
REMARK SMILES IDX 44 58 76 59 56 60 75 61 57 62 60 63 74 64 93 65 58 66 59 67
REMARK SMILES IDX 73 69 94 70 61 71 45 72 46 73 54 74 47 75 49 76 55 77 48 78
REMARK SMILES IDX 50 79 51 80 52 81 53 82 77 83 78 84 86 85 79 86 81 87 87 88
REMARK SMILES IDX 80 89 82 90 83 91 84 92 85 93 62 94 63 95 71 96 64 97 66 98
REMARK SMILES IDX 72 99 65 100 67 101 68 102 69 103 70 104
REMARK H PARENT 26 6 11 20 8 24 33 38 92 57 60 68
REMARK Flexibility Score: inf
ROOT
ATOM      1  C   UNL A   1      43.196  30.277  27.777  1.00  0.00     0.021 C 
ENDROOT
BRANCH   1   2
ATOM      2  C   UNL A   1      43.437  30.896  29.210  1.00  0.00     0.116 C 
BRANCH   2   3
ATOM      3  N   UNL A   1      42.312  31.222  30.172  1.00  0.00    -0.352 N 
ATOM      4  C   UNL A   1      41.918  30.327  31.209  1.00  0.00     0.251 C 
ATOM      5  O   UNL A   1      42.701  30.165  32.150  1.00  0.00    -0.269 OA
ATOM      6  H   UNL A   1      41.839  32.080  30.076  1.00  0.00     0.163 HD
BRANCH   4   7
ATOM      7  C   UNL A   1      40.482  29.726  31.382  1.00  0.00     0.046 A 
ATOM      8  C   UNL A   1      39.344  30.273  32.017  1.00  0.00    -0.001 A 
ATOM      9  C   UNL A   1      38.168  29.484  32.229  1.00  0.00     0.007 A 
ATOM     10  C   UNL A   1      38.050  28.194  31.752  1.00  0.00     0.000 A 
ATOM     11  C   UNL A   1      40.284  28.437  30.829  1.00  0.00     0.014 A 
ATOM     12  C   UNL A   1      39.100  27.684  31.015  1.00  0.00     0.001 A 
BRANCH   8  13
ATOM     13  C   UNL A   1      39.391  31.532  32.779  1.00  0.00     0.197 C 
ATOM     14  N   UNL A   1      39.580  32.783  32.109  1.00  0.00    -0.236 N 
ATOM     15  C   UNL A   1      40.119  33.456  33.259  1.00  0.00     0.252 C 
ATOM     16  O   UNL A   1      41.314  33.451  33.557  1.00  0.00    -0.272 OA
ATOM     17  C   UNL A   1      39.079  33.530  34.360  1.00  0.00     0.174 C 
ATOM     18  S   UNL A   1      38.162  31.974  34.069  1.00  0.00    -0.120 SA
BRANCH  14  19
ATOM     19  N   UNL A   1      38.297  33.290  31.275  1.00  0.00    -0.270 N 
ATOM     20  H   UNL A   1      37.415  33.163  31.693  1.00  0.00     0.191 HD
BRANCH  19  21
ATOM     21  C   UNL A   1      38.317  33.895  30.007  1.00  0.00     0.189 C 
ATOM     22  S   UNL A   1      39.686  34.777  29.573  1.00  0.00    -0.039 S 
BRANCH  21  23
ATOM     23  N   UNL A   1      37.344  33.764  29.022  1.00  0.00    -0.331 N 
ATOM     24  H   UNL A   1      37.058  34.615  28.618  1.00  0.00     0.169 HD
BRANCH  23  25
ATOM     25  C   UNL A   1      36.694  32.623  28.501  1.00  0.00     0.043 A 
ATOM     26  C   UNL A   1      33.955  33.611  28.045  1.00  0.00     0.046 C 
ATOM     27  C   UNL A   1      34.965  32.509  27.972  1.00  0.00    -0.028 A 
ATOM     28  C   UNL A   1      34.224  30.874  27.673  1.00  0.00     0.005 A 
ATOM     29  C   UNL A   1      35.220  29.383  27.825  1.00  0.00     0.000 A 
ATOM     30  C   UNL A   1      37.648  31.136  28.570  1.00  0.00     0.026 A 
ATOM     31  C   UNL A   1      36.926  29.520  28.342  1.00  0.00     0.002 A 
ENDBRANCH  23  25
ENDBRANCH  21  23
ENDBRANCH  19  21
ENDBRANCH  14  19
ENDBRANCH   8  13
ENDBRANCH   4   7
ENDBRANCH   2   3
ENDBRANCH   1   2
BRANCH   1  32
ATOM     32  C   UNL A   1      42.536  28.627  27.581  1.00  0.00     0.002 C 
BRANCH  32  33
ATOM     33  C   UNL A   1      40.667  27.610  27.080  1.00  0.00     0.002 C 
BRANCH  33  34
ATOM     34  C   UNL A   1      39.608  26.371  27.765  1.00  0.00     0.021 C 
BRANCH  34  35
ATOM     35  C   UNL A   1      39.285  24.964  27.243  1.00  0.00     0.116 C 
BRANCH  35  36
ATOM     36  N   UNL A   1      39.606  23.778  28.020  1.00  0.00    -0.352 N 
ATOM     37  C   UNL A   1      40.376  22.768  27.408  1.00  0.00     0.251 C 
ATOM     38  H   UNL A   1      39.295  23.682  28.949  1.00  0.00     0.163 HD
ATOM     39  O   UNL A   1      39.922  21.814  26.795  1.00  0.00    -0.269 OA
BRANCH  37  40
ATOM     40  C   UNL A   1      41.836  23.031  27.494  1.00  0.00     0.039 A 
ATOM     41  C   UNL A   1      42.573  22.640  28.607  1.00  0.00     0.014 A 
ATOM     42  C   UNL A   1      42.298  24.034  26.647  1.00  0.00     0.014 A 
ATOM     43  C   UNL A   1      43.614  23.458  29.020  1.00  0.00     0.010 A 
ATOM     44  C   UNL A   1      43.172  24.953  27.148  1.00  0.00     0.010 A 
ATOM     45  C   UNL A   1      43.804  24.668  28.357  1.00  0.00    -0.014 A 
BRANCH  45  46
ATOM     46  C   UNL A   1      44.943  25.522  28.578  1.00  0.00     0.031 A 
ATOM     47  C   UNL A   1      46.035  25.250  27.625  1.00  0.00     0.074 A 
ATOM     48  C   UNL A   1      44.811  26.563  29.425  1.00  0.00     0.049 A 
ATOM     49  N   UNL A   1      47.281  25.390  27.879  1.00  0.00    -0.248 NA
ATOM     50  C   UNL A   1      45.795  24.633  26.308  1.00  0.00     0.031 C 
ATOM     51  C   UNL A   1      45.602  27.779  29.514  1.00  0.00     0.029 A 
ATOM     52  N   UNL A   1      43.941  26.648  30.519  1.00  0.00    -0.354 N 
ATOM     53  C   UNL A   1      47.924  25.293  26.658  1.00  0.00     0.074 A 
ATOM     54  C   UNL A   1      47.023  24.590  25.794  1.00  0.00     0.031 C 
ATOM     55  C   UNL A   1      45.399  28.347  30.719  1.00  0.00     0.029 A 
ATOM     56  C   UNL A   1      44.576  27.435  31.498  1.00  0.00     0.049 A 
ATOM     57  H   UNL A   1      43.050  26.236  30.591  1.00  0.00     0.167 HD
ATOM     58  C   UNL A   1      49.008  26.084  26.439  1.00  0.00     0.034 A 
ATOM     59  C   UNL A   1      44.962  26.857  32.677  1.00  0.00     0.034 A 
ATOM     60  C   UNL A   1      49.240  26.895  27.647  1.00  0.00     0.049 A 
ATOM     61  C   UNL A   1      46.458  26.687  32.772  1.00  0.00     0.074 A 
ATOM     62  C   UNL A   1      48.851  28.180  27.994  1.00  0.00     0.029 A 
ATOM     63  N   UNL A   1      49.547  26.247  28.837  1.00  0.00    -0.354 N 
ATOM     64  N   UNL A   1      47.273  26.814  31.762  1.00  0.00    -0.248 NA
ATOM     65  C   UNL A   1      47.157  26.420  34.022  1.00  0.00     0.031 C 
ATOM     66  C   UNL A   1      48.899  28.282  29.416  1.00  0.00     0.029 A 
ATOM     67  C   UNL A   1      49.323  27.067  29.930  1.00  0.00     0.049 A 
ATOM     68  H   UNL A   1      49.883  25.323  28.895  1.00  0.00     0.167 HD
ATOM     69  C   UNL A   1      48.563  26.601  32.165  1.00  0.00     0.074 A 
ATOM     70  C   UNL A   1      48.436  26.422  33.605  1.00  0.00     0.031 C 
ATOM     71  C   UNL A   1      49.607  26.570  31.276  1.00  0.00     0.034 A 
BRANCH  58  72
ATOM     72  C   UNL A   1      49.630  26.404  25.090  1.00  0.00     0.023 A 
ATOM     73  C   UNL A   1      51.036  26.289  25.015  1.00  0.00     0.012 A 
ATOM     74  C   UNL A   1      48.979  26.803  23.894  1.00  0.00     0.148 A 
ATOM     75  C   UNL A   1      51.764  26.594  23.863  1.00  0.00     0.002 A 
ATOM     76  C   UNL A   1      49.709  27.141  22.746  1.00  0.00     0.091 A 
ATOM     77  F   UNL A   1      47.645  26.805  23.825  1.00  0.00    -0.205 F 
ATOM     78  C   UNL A   1      51.103  27.036  22.731  1.00  0.00     0.022 A 
BRANCH  76  79
ATOM     79  S   UNL A   1      48.948  27.754  21.228  1.00  0.00     0.127 S 
ATOM     80  O   UNL A   1      47.903  28.643  21.744  1.00  0.00    -0.237 OA
ATOM     81  O   UNL A   1      50.060  28.446  20.576  1.00  0.00    -0.237 OA
ATOM     82  O   UNL A   1      48.439  26.585  20.523  1.00  0.00    -0.744 OA
ENDBRANCH  76  79
ENDBRANCH  58  72
BRANCH  59  83
ATOM     83  C   UNL A   1      43.925  25.919  33.204  1.00  0.00     0.023 A 
ATOM     84  C   UNL A   1      44.239  24.546  33.066  1.00  0.00     0.012 A 
ATOM     85  C   UNL A   1      43.029  26.320  34.209  1.00  0.00     0.148 A 
ATOM     86  C   UNL A   1      43.858  23.635  34.044  1.00  0.00     0.002 A 
ATOM     87  C   UNL A   1      42.674  25.402  35.194  1.00  0.00     0.091 A 
ATOM     88  F   UNL A   1      42.611  27.591  34.229  1.00  0.00    -0.205 F 
ATOM     89  C   UNL A   1      43.143  24.078  35.146  1.00  0.00     0.022 A 
BRANCH  87  90
ATOM     90  S   UNL A   1      41.765  25.858  36.670  1.00  0.00     0.127 S 
ATOM     91  O   UNL A   1      40.884  24.707  36.845  1.00  0.00    -0.237 OA
ATOM     92  O   UNL A   1      42.845  25.947  37.655  1.00  0.00    -0.237 OA
ATOM     93  O   UNL A   1      41.102  27.114  36.355  1.00  0.00    -0.744 OA
ENDBRANCH  87  90
ENDBRANCH  59  83
BRANCH  71  94
ATOM     94  C   UNL A   1      51.017  26.076  31.577  1.00  0.00     0.023 A 
ATOM     95  C   UNL A   1      52.137  26.925  31.556  1.00  0.00     0.012 A 
ATOM     96  C   UNL A   1      51.262  24.741  32.007  1.00  0.00     0.148 A 
ATOM     97  C   UNL A   1      53.426  26.472  31.848  1.00  0.00     0.002 A 
ATOM     98  C   UNL A   1      52.517  24.337  32.444  1.00  0.00     0.091 A 
ATOM     99  F   UNL A   1      50.291  23.822  31.964  1.00  0.00    -0.205 F 
ATOM    100  C   UNL A   1      53.614  25.184  32.319  1.00  0.00     0.022 A 
BRANCH  98 101
ATOM    101  S   UNL A   1      52.767  22.774  33.295  1.00  0.00     0.127 S 
ATOM    102  O   UNL A   1      52.065  23.009  34.555  1.00  0.00    -0.237 OA
ATOM    103  O   UNL A   1      52.103  21.832  32.392  1.00  0.00    -0.237 OA
ATOM    104  O   UNL A   1      54.209  22.598  33.391  1.00  0.00    -0.744 OA
ENDBRANCH  98 101
ENDBRANCH  71  94
ENDBRANCH  45  46
ENDBRANCH  37  40
ENDBRANCH  35  36
ENDBRANCH  34  35
ENDBRANCH  33  34
ENDBRANCH  32  33
ENDBRANCH   1  32
TORSDOF 21
ENDMDL
MODEL 3
REMARK VINA RESULT:     -12.3      1.438      2.294
REMARK SMILES Cc1ccccc1NC(=S)NN1C(=O)CS[C@H]1c1ccccc1C(=O)NCCCCCCNC(=O)c1ccc(-c2c3nc(c(-c4cccc(S(=O)(=O)[O-])c4F)c4ccc([nH]4)c(-c4cccc(S(=O)(=O)[O-])c4F)c4nc(c(-c5cccc(S(=O)(=O)[O-])c5F)c5ccc2[nH]5)C=C4)C=C3)cc1
REMARK SMILES IDX 28 1 27 2 26 3 24 4 25 5 23 7 18 8 19 9 20 10 22 11 21 12
REMARK SMILES IDX 17 13 12 14 13 15 14 16 15 17 16 18 11 19 9 21 10 22 8 23
REMARK SMILES IDX 7 25 1 26 2 27 3 28 4 29 6 30 5 31 29 32 30 33 31 34 32 35
REMARK SMILES IDX 33 36 34 37 35 39 36 40 37 41 98 42 38 43 97 44 39 45 40 46
REMARK SMILES IDX 41 47 91 48 42 49 96 50 90 51 92 52 43 53 95 54 89 55 88 56
REMARK SMILES IDX 44 58 76 59 56 60 75 61 57 62 60 63 74 64 93 65 58 66 59 67
REMARK SMILES IDX 73 69 94 70 61 71 45 72 46 73 54 74 47 75 49 76 55 77 48 78
REMARK SMILES IDX 50 79 51 80 52 81 53 82 77 83 78 84 86 85 79 86 81 87 87 88
REMARK SMILES IDX 80 89 82 90 83 91 84 92 85 93 62 94 63 95 71 96 64 97 66 98
REMARK SMILES IDX 72 99 65 100 67 101 68 102 69 103 70 104
REMARK H PARENT 26 6 11 20 8 24 33 38 92 57 60 68
REMARK Flexibility Score: inf
ROOT
ATOM      1  C   UNL A   1      38.050  22.161  25.852  1.00  0.00     0.021 C 
ENDROOT
BRANCH   1   2
ATOM      2  C   UNL A   1      37.408  23.450  25.203  1.00  0.00     0.116 C 
BRANCH   2   3
ATOM      3  N   UNL A   1      36.003  23.480  24.635  1.00  0.00    -0.352 N 
ATOM      4  C   UNL A   1      34.914  22.816  25.270  1.00  0.00     0.251 C 
ATOM      5  O   UNL A   1      34.510  23.279  26.341  1.00  0.00    -0.269 OA
ATOM      6  H   UNL A   1      35.840  23.974  23.799  1.00  0.00     0.163 HD
BRANCH   4   7
ATOM      7  C   UNL A   1      34.028  21.706  24.609  1.00  0.00     0.046 A 
ATOM      8  C   UNL A   1      32.964  21.828  23.688  1.00  0.00    -0.001 A 
ATOM      9  C   UNL A   1      32.156  20.697  23.341  1.00  0.00     0.007 A 
ATOM     10  C   UNL A   1      32.425  19.428  23.811  1.00  0.00     0.000 A 
ATOM     11  C   UNL A   1      34.325  20.374  24.992  1.00  0.00     0.014 A 
ATOM     12  C   UNL A   1      33.539  19.261  24.609  1.00  0.00     0.001 A 
BRANCH   8  13
ATOM     13  C   UNL A   1      32.410  23.132  23.286  1.00  0.00     0.197 C 
ATOM     14  N   UNL A   1      31.689  23.937  24.223  1.00  0.00    -0.236 N 
ATOM     15  C   UNL A   1      30.949  24.656  23.223  1.00  0.00     0.252 C 
ATOM     16  O   UNL A   1      29.878  24.268  22.754  1.00  0.00    -0.272 OA
ATOM     17  C   UNL A   1      31.891  25.466  22.353  1.00  0.00     0.174 C 
ATOM     18  S   UNL A   1      33.371  24.393  22.361  1.00  0.00    -0.120 SA
BRANCH  14  19
ATOM     19  N   UNL A   1      32.613  24.632  25.349  1.00  0.00    -0.270 N 
ATOM     20  H   UNL A   1      33.373  24.107  25.687  1.00  0.00     0.191 HD
BRANCH  19  21
ATOM     21  C   UNL A   1      32.435  25.916  25.891  1.00  0.00     0.189 C 
ATOM     22  S   UNL A   1      31.043  26.207  26.795  1.00  0.00    -0.039 S 
BRANCH  21  23
ATOM     23  N   UNL A   1      33.348  26.963  25.833  1.00  0.00    -0.331 N 
ATOM     24  H   UNL A   1      34.160  26.765  25.311  1.00  0.00     0.169 HD
BRANCH  23  25
ATOM     25  C   UNL A   1      33.316  28.259  26.394  1.00  0.00     0.043 A 
ATOM     26  C   UNL A   1      31.103  29.530  24.920  1.00  0.00     0.046 C 
ATOM     27  C   UNL A   1      32.171  29.596  25.966  1.00  0.00    -0.028 A 
ATOM     28  C   UNL A   1      32.517  31.290  26.534  1.00  0.00     0.005 A 
ATOM     29  C   UNL A   1      33.945  31.625  27.577  1.00  0.00     0.000 A 
ATOM     30  C   UNL A   1      34.667  28.626  27.475  1.00  0.00     0.026 A 
ATOM     31  C   UNL A   1      35.058  30.290  27.991  1.00  0.00     0.002 A 
ENDBRANCH  23  25
ENDBRANCH  21  23
ENDBRANCH  19  21
ENDBRANCH  14  19
ENDBRANCH   8  13
ENDBRANCH   4   7
ENDBRANCH   2   3
ENDBRANCH   1   2
BRANCH   1  32
ATOM     32  C   UNL A   1      39.630  22.236  26.686  1.00  0.00     0.002 C 
BRANCH  32  33
ATOM     33  C   UNL A   1      41.153  20.915  27.531  1.00  0.00     0.002 C 
BRANCH  33  34
ATOM     34  C   UNL A   1      42.161  19.557  27.017  1.00  0.00     0.021 C 
BRANCH  34  35
ATOM     35  C   UNL A   1      43.141  19.458  25.838  1.00  0.00     0.116 C 
BRANCH  35  36
ATOM     36  N   UNL A   1      44.327  20.295  25.768  1.00  0.00    -0.352 N 
ATOM     37  C   UNL A   1      44.300  21.422  24.923  1.00  0.00     0.251 C 
ATOM     38  H   UNL A   1      45.128  20.081  26.299  1.00  0.00     0.163 HD
ATOM     39  O   UNL A   1      44.655  21.431  23.754  1.00  0.00    -0.269 OA
BRANCH  37  40
ATOM     40  C   UNL A   1      43.688  22.610  25.574  1.00  0.00     0.039 A 
ATOM     41  C   UNL A   1      43.362  23.745  24.839  1.00  0.00     0.014 A 
ATOM     42  C   UNL A   1      43.872  22.679  26.951  1.00  0.00     0.014 A 
ATOM     43  C   UNL A   1      43.517  24.982  25.447  1.00  0.00     0.010 A 
ATOM     44  C   UNL A   1      44.227  23.876  27.498  1.00  0.00     0.010 A 
ATOM     45  C   UNL A   1      44.074  25.024  26.724  1.00  0.00    -0.014 A 
BRANCH  45  46
ATOM     46  C   UNL A   1      44.132  26.220  27.524  1.00  0.00     0.031 A 
ATOM     47  C   UNL A   1      42.827  26.904  27.595  1.00  0.00     0.074 A 
ATOM     48  C   UNL A   1      45.238  26.448  28.260  1.00  0.00     0.049 A 
ATOM     49  N   UNL A   1      42.668  28.168  27.710  1.00  0.00    -0.248 NA
ATOM     50  C   UNL A   1      41.553  26.193  27.386  1.00  0.00     0.031 C 
ATOM     51  C   UNL A   1      45.403  27.296  29.430  1.00  0.00     0.029 A 
ATOM     52  N   UNL A   1      46.538  26.009  27.979  1.00  0.00    -0.354 N 
ATOM     53  C   UNL A   1      41.330  28.351  28.008  1.00  0.00     0.074 A 
ATOM     54  C   UNL A   1      40.661  27.169  27.552  1.00  0.00     0.031 C 
ATOM     55  C   UNL A   1      46.715  27.549  29.605  1.00  0.00     0.029 A 
ATOM     56  C   UNL A   1      47.425  26.986  28.468  1.00  0.00     0.049 A 
ATOM     57  H   UNL A   1      46.786  25.172  27.524  1.00  0.00     0.167 HD
ATOM     58  C   UNL A   1      40.995  29.342  28.875  1.00  0.00     0.034 A 
ATOM     59  C   UNL A   1      48.175  27.713  27.585  1.00  0.00     0.034 A 
ATOM     60  C   UNL A   1      42.232  30.020  29.302  1.00  0.00     0.049 A 
ATOM     61  C   UNL A   1      47.698  29.139  27.461  1.00  0.00     0.074 A 
ATOM     62  C   UNL A   1      43.051  29.853  30.407  1.00  0.00     0.029 A 
ATOM     63  N   UNL A   1      42.998  30.673  28.346  1.00  0.00    -0.354 N 
ATOM     64  N   UNL A   1      46.554  29.569  27.918  1.00  0.00    -0.248 NA
ATOM     65  C   UNL A   1      48.496  30.204  26.868  1.00  0.00     0.031 C 
ATOM     66  C   UNL A   1      44.334  30.387  30.086  1.00  0.00     0.029 A 
ATOM     67  C   UNL A   1      44.291  30.885  28.793  1.00  0.00     0.049 A 
ATOM     68  H   UNL A   1      42.664  30.951  27.462  1.00  0.00     0.167 HD
ATOM     69  C   UNL A   1      46.410  30.903  27.653  1.00  0.00     0.074 A 
ATOM     70  C   UNL A   1      47.686  31.262  27.050  1.00  0.00     0.031 C 
ATOM     71  C   UNL A   1      45.249  31.578  27.933  1.00  0.00     0.034 A 
BRANCH  58  72
ATOM     72  C   UNL A   1      39.671  29.487  29.608  1.00  0.00     0.023 A 
ATOM     73  C   UNL A   1      39.033  28.282  29.977  1.00  0.00     0.012 A 
ATOM     74  C   UNL A   1      38.995  30.681  29.972  1.00  0.00     0.148 A 
ATOM     75  C   UNL A   1      37.789  28.243  30.610  1.00  0.00     0.002 A 
ATOM     76  C   UNL A   1      37.732  30.645  30.579  1.00  0.00     0.091 A 
ATOM     77  F   UNL A   1      39.582  31.866  29.793  1.00  0.00    -0.205 F 
ATOM     78  C   UNL A   1      37.129  29.424  30.900  1.00  0.00     0.022 A 
BRANCH  76  79
ATOM     79  S   UNL A   1      36.774  32.123  30.972  1.00  0.00     0.127 S 
ATOM     80  O   UNL A   1      35.500  31.555  31.420  1.00  0.00    -0.237 OA
ATOM     81  O   UNL A   1      37.567  32.739  32.036  1.00  0.00    -0.237 OA
ATOM     82  O   UNL A   1      36.680  32.891  29.737  1.00  0.00    -0.744 OA
ENDBRANCH  76  79
ENDBRANCH  58  72
BRANCH  59  83
ATOM     83  C   UNL A   1      48.726  26.862  26.487  1.00  0.00     0.023 A 
ATOM     84  C   UNL A   1      48.138  27.073  25.217  1.00  0.00     0.012 A 
ATOM     85  C   UNL A   1      50.026  26.335  26.561  1.00  0.00     0.148 A 
ATOM     86  C   UNL A   1      48.906  26.986  24.062  1.00  0.00     0.002 A 
ATOM     87  C   UNL A   1      50.791  26.275  25.400  1.00  0.00     0.091 A 
ATOM     88  F   UNL A   1      50.512  25.985  27.758  1.00  0.00    -0.205 F 
ATOM     89  C   UNL A   1      50.251  26.662  24.161  1.00  0.00     0.022 A 
BRANCH  87  90
ATOM     90  S   UNL A   1      52.540  25.883  25.402  1.00  0.00     0.127 S 
ATOM     91  O   UNL A   1      53.033  26.727  26.486  1.00  0.00    -0.237 OA
ATOM     92  O   UNL A   1      52.512  24.453  25.714  1.00  0.00    -0.237 OA
ATOM     93  O   UNL A   1      53.024  26.222  24.072  1.00  0.00    -0.744 OA
ENDBRANCH  87  90
ENDBRANCH  59  83
BRANCH  71  94
ATOM     94  C   UNL A   1      44.890  32.974  27.436  1.00  0.00     0.023 A 
ATOM     95  C   UNL A   1      44.544  33.235  26.100  1.00  0.00     0.012 A 
ATOM     96  C   UNL A   1      44.778  34.076  28.331  1.00  0.00     0.148 A 
ATOM     97  C   UNL A   1      44.201  34.513  25.652  1.00  0.00     0.002 A 
ATOM     98  C   UNL A   1      44.288  35.305  27.911  1.00  0.00     0.091 A 
ATOM     99  F   UNL A   1      45.182  33.966  29.602  1.00  0.00    -0.205 F 
ATOM    100  C   UNL A   1      44.045  35.545  26.562  1.00  0.00     0.022 A 
BRANCH  98 101
ATOM    101  S   UNL A   1      43.829  36.592  29.079  1.00  0.00     0.127 S 
ATOM    102  O   UNL A   1      43.091  37.518  28.222  1.00  0.00    -0.237 OA
ATOM    103  O   UNL A   1      43.001  35.850  30.032  1.00  0.00    -0.237 OA
ATOM    104  O   UNL A   1      45.078  37.093  29.633  1.00  0.00    -0.744 OA
ENDBRANCH  98 101
ENDBRANCH  71  94
ENDBRANCH  45  46
ENDBRANCH  37  40
ENDBRANCH  35  36
ENDBRANCH  34  35
ENDBRANCH  33  34
ENDBRANCH  32  33
ENDBRANCH   1  32
TORSDOF 21
ENDMDL
