MODEL 1
REMARK VINA RESULT:     -11.6      0.000      0.000
REMARK SMILES O=C(CC[N@@H+]1CCC[C@@]2(CCC(=O)N(CCc3ccccc3)C2)C1)NCCCCCCNC(=O)c1ccc(-c2c3nc(c(-c4cccc(S(=O)(=O)[O-])c4F)c4ccc([nH]4)c(-c4cccc(S(=O)(=O)[O-])c4F)c4nc(c(-c5cccc(S(=O)(=O)[O-])c5F)c5ccc2[nH]5)C=C4)C=C3)cc1
REMARK SMILES IDX 27 1 26 2 25 3 1 4 2 5 3 7 4 8 5 9 6 10 24 11 7 13 9 14 8 15
REMARK SMILES IDX 10 16 23 17 11 18 14 19 12 20 13 21 15 22 16 23 17 24 18 25
REMARK SMILES IDX 22 26 19 27 21 28 20 29 28 30 29 31 30 32 31 33 32 34 33 35
REMARK SMILES IDX 34 37 35 38 36 39 97 40 37 41 96 42 38 43 39 44 40 45 90 46
REMARK SMILES IDX 41 47 95 48 89 49 91 50 42 51 94 52 88 53 87 54 43 56 75 57
REMARK SMILES IDX 55 58 74 59 56 60 59 61 73 62 92 63 57 64 58 65 72 67 93 68
REMARK SMILES IDX 60 69 44 70 45 71 53 72 46 73 48 74 54 75 47 76 49 77 50 78
REMARK SMILES IDX 51 79 52 80 76 81 77 82 85 83 78 84 80 85 86 86 79 87 81 88
REMARK SMILES IDX 82 89 83 90 84 91 61 92 62 93 70 94 63 95 65 96 71 97 64 98
REMARK SMILES IDX 66 99 67 100 68 101 69 102
REMARK H PARENT 25 6 5 12 32 36 91 55 59 66
REMARK Flexibility Score: inf
ROOT
ATOM      1  C   UNL A   1      36.074  23.277  26.131  1.00  0.00     0.021 C 
ENDROOT
BRANCH   1   2
ATOM      2  C   UNL A   1      35.000  22.195  26.300  1.00  0.00     0.116 C 
BRANCH   2   3
ATOM      3  N   UNL A   1      33.672  22.646  25.915  1.00  0.00    -0.356 N 
ATOM      4  O   UNL A   1      32.785  22.543  28.020  1.00  0.00    -0.275 OA
ATOM      5  C   UNL A   1      32.647  22.762  26.818  1.00  0.00     0.225 C 
ATOM      6  H   UNL A   1      33.504  22.879  24.973  1.00  0.00     0.163 HD
BRANCH   5   7
ATOM      7  C   UNL A   1      31.270  23.040  26.248  1.00  0.00     0.161 C 
BRANCH   7   8
ATOM      8  C   UNL A   1      31.120  23.215  24.733  1.00  0.00     0.272 C 
BRANCH   8   9
ATOM      9  N   UNL A   1      31.293  24.553  24.118  1.00  0.00    -0.334 N 
ATOM     10  C   UNL A   1      32.490  24.541  23.245  1.00  0.00     0.262 C 
ATOM     11  C   UNL A   1      31.387  25.661  25.074  1.00  0.00     0.271 C 
ATOM     12  H   UNL A   1      30.443  24.728  23.583  1.00  0.00     0.348 HD
ATOM     13  C   UNL A   1      32.766  25.874  22.534  1.00  0.00     0.062 C 
ATOM     14  C   UNL A   1      31.434  27.031  24.344  1.00  0.00     0.038 C 
ATOM     15  C   UNL A   1      32.715  27.066  23.492  1.00  0.00     0.020 C 
ATOM     16  C   UNL A   1      30.179  27.212  23.475  1.00  0.00     0.024 C 
ATOM     17  C   UNL A   1      31.436  28.127  25.422  1.00  0.00     0.132 C 
ATOM     18  C   UNL A   1      30.035  28.618  22.929  1.00  0.00     0.101 C 
ATOM     19  N   UNL A   1      31.127  29.473  24.966  1.00  0.00    -0.342 N 
ATOM     20  C   UNL A   1      30.191  29.702  23.969  1.00  0.00     0.222 C 
ATOM     21  O   UNL A   1      29.600  30.772  23.845  1.00  0.00    -0.275 OA
BRANCH  19  22
ATOM     22  C   UNL A   1      31.559  30.609  25.793  1.00  0.00     0.124 C 
BRANCH  22  23
ATOM     23  C   UNL A   1      32.685  30.334  26.808  1.00  0.00     0.057 C 
BRANCH  23  24
ATOM     24  C   UNL A   1      33.507  31.479  27.366  1.00  0.00    -0.046 A 
ATOM     25  C   UNL A   1      34.866  31.235  27.630  1.00  0.00     0.004 A 
ATOM     26  C   UNL A   1      33.002  32.747  27.671  1.00  0.00     0.004 A 
ATOM     27  C   UNL A   1      35.699  32.237  28.134  1.00  0.00     0.000 A 
ATOM     28  C   UNL A   1      33.840  33.762  28.144  1.00  0.00     0.000 A 
ATOM     29  C   UNL A   1      35.189  33.508  28.372  1.00  0.00     0.000 A 
ENDBRANCH  23  24
ENDBRANCH  22  23
ENDBRANCH  19  22
ENDBRANCH   8   9
ENDBRANCH   7   8
ENDBRANCH   5   7
ENDBRANCH   2   3
ENDBRANCH   1   2
BRANCH   1  30
ATOM     30  C   UNL A   1      37.406  22.801  25.544  1.00  0.00     0.002 C 
BRANCH  30  31
ATOM     31  C   UNL A   1      37.313  21.610  24.583  1.00  0.00     0.002 C 
BRANCH  31  32
ATOM     32  C   UNL A   1      38.010  20.335  25.022  1.00  0.00     0.021 C 
BRANCH  32  33
ATOM     33  C   UNL A   1      39.304  20.575  25.789  1.00  0.00     0.116 C 
BRANCH  33  34
ATOM     34  N   UNL A   1      40.188  19.413  25.863  1.00  0.00    -0.352 N 
ATOM     35  C   UNL A   1      41.541  19.373  26.124  1.00  0.00     0.251 C 
ATOM     36  H   UNL A   1      39.759  18.541  25.704  1.00  0.00     0.163 HD
ATOM     37  O   UNL A   1      42.161  18.318  26.098  1.00  0.00    -0.269 OA
BRANCH  35  38
ATOM     38  C   UNL A   1      42.261  20.633  26.400  1.00  0.00     0.039 A 
ATOM     39  C   UNL A   1      42.706  21.402  25.321  1.00  0.00     0.014 A 
ATOM     40  C   UNL A   1      42.444  21.079  27.709  1.00  0.00     0.014 A 
ATOM     41  C   UNL A   1      43.257  22.662  25.557  1.00  0.00     0.010 A 
ATOM     42  C   UNL A   1      42.891  22.372  27.934  1.00  0.00     0.010 A 
ATOM     43  C   UNL A   1      43.312  23.175  26.863  1.00  0.00    -0.014 A 
BRANCH  43  44
ATOM     44  C   UNL A   1      43.821  24.540  27.143  1.00  0.00     0.031 A 
ATOM     45  C   UNL A   1      42.884  25.582  27.692  1.00  0.00     0.074 A 
ATOM     46  C   UNL A   1      45.086  24.866  26.811  1.00  0.00     0.049 A 
ATOM     47  N   UNL A   1      43.094  26.855  27.897  1.00  0.00    -0.248 NA
ATOM     48  C   UNL A   1      41.513  25.144  28.013  1.00  0.00     0.031 C 
ATOM     49  C   UNL A   1      46.059  23.969  26.182  1.00  0.00     0.029 A 
ATOM     50  N   UNL A   1      45.763  26.053  26.933  1.00  0.00    -0.354 N 
ATOM     51  C   UNL A   1      41.878  27.375  28.324  1.00  0.00     0.074 A 
ATOM     52  C   UNL A   1      40.921  26.293  28.302  1.00  0.00     0.031 C 
ATOM     53  C   UNL A   1      47.208  24.636  25.978  1.00  0.00     0.029 A 
ATOM     54  C   UNL A   1      47.049  26.009  26.444  1.00  0.00     0.049 A 
ATOM     55  H   UNL A   1      45.367  26.860  27.334  1.00  0.00     0.167 HD
ATOM     56  C   UNL A   1      41.592  28.630  28.744  1.00  0.00     0.034 A 
ATOM     57  C   UNL A   1      47.992  26.969  26.383  1.00  0.00     0.034 A 
ATOM     58  C   UNL A   1      42.567  29.681  28.836  1.00  0.00     0.049 A 
ATOM     59  C   UNL A   1      47.679  28.325  26.961  1.00  0.00     0.074 A 
ATOM     60  C   UNL A   1      42.400  30.974  29.299  1.00  0.00     0.029 A 
ATOM     61  N   UNL A   1      43.900  29.549  28.482  1.00  0.00    -0.354 N 
ATOM     62  N   UNL A   1      46.557  28.759  27.483  1.00  0.00    -0.248 NA
ATOM     63  C   UNL A   1      48.773  29.306  26.989  1.00  0.00     0.031 C 
ATOM     64  C   UNL A   1      43.640  31.620  29.239  1.00  0.00     0.029 A 
ATOM     65  C   UNL A   1      44.577  30.727  28.744  1.00  0.00     0.049 A 
ATOM     66  H   UNL A   1      44.306  28.737  28.101  1.00  0.00     0.167 HD
ATOM     67  C   UNL A   1      46.822  30.045  27.939  1.00  0.00     0.074 A 
ATOM     68  C   UNL A   1      48.217  30.311  27.651  1.00  0.00     0.031 C 
ATOM     69  C   UNL A   1      45.984  30.936  28.524  1.00  0.00     0.034 A 
BRANCH  56  70
ATOM     70  C   UNL A   1      40.191  28.900  29.225  1.00  0.00     0.023 A 
ATOM     71  C   UNL A   1      39.192  29.215  28.279  1.00  0.00     0.012 A 
ATOM     72  C   UNL A   1      39.847  28.808  30.587  1.00  0.00     0.148 A 
ATOM     73  C   UNL A   1      37.883  29.470  28.682  1.00  0.00     0.002 A 
ATOM     74  C   UNL A   1      38.528  29.020  30.977  1.00  0.00     0.091 A 
ATOM     75  F   UNL A   1      40.813  28.528  31.473  1.00  0.00    -0.205 F 
ATOM     76  C   UNL A   1      37.550  29.363  30.029  1.00  0.00     0.022 A 
BRANCH  74  77
ATOM     77  S   UNL A   1      37.976  28.835  32.677  1.00  0.00     0.127 S 
ATOM     78  O   UNL A   1      36.606  29.340  32.599  1.00  0.00    -0.237 OA
ATOM     79  O   UNL A   1      38.083  27.390  32.880  1.00  0.00    -0.237 OA
ATOM     80  O   UNL A   1      38.889  29.631  33.485  1.00  0.00    -0.744 OA
ENDBRANCH  74  77
ENDBRANCH  56  70
BRANCH  57  81
ATOM     81  C   UNL A   1      49.349  26.658  25.851  1.00  0.00     0.023 A 
ATOM     82  C   UNL A   1      50.235  25.889  26.632  1.00  0.00     0.012 A 
ATOM     83  C   UNL A   1      49.764  27.098  24.580  1.00  0.00     0.148 A 
ATOM     84  C   UNL A   1      51.522  25.600  26.177  1.00  0.00     0.002 A 
ATOM     85  C   UNL A   1      51.030  26.762  24.110  1.00  0.00     0.091 A 
ATOM     86  F   UNL A   1      48.917  27.839  23.852  1.00  0.00    -0.205 F 
ATOM     87  C   UNL A   1      51.917  26.028  24.913  1.00  0.00     0.022 A 
BRANCH  85  88
ATOM     88  S   UNL A   1      51.559  27.166  22.440  1.00  0.00     0.127 S 
ATOM     89  O   UNL A   1      51.714  28.615  22.517  1.00  0.00    -0.237 OA
ATOM     90  O   UNL A   1      52.812  26.419  22.320  1.00  0.00    -0.237 OA
ATOM     91  O   UNL A   1      50.491  26.677  21.576  1.00  0.00    -0.744 OA
ENDBRANCH  85  88
ENDBRANCH  57  81
BRANCH  69  92
ATOM     92  C   UNL A   1      46.558  32.261  28.944  1.00  0.00     0.023 A 
ATOM     93  C   UNL A   1      47.116  32.404  30.229  1.00  0.00     0.012 A 
ATOM     94  C   UNL A   1      46.616  33.337  28.038  1.00  0.00     0.148 A 
ATOM     95  C   UNL A   1      47.696  33.611  30.617  1.00  0.00     0.002 A 
ATOM     96  C   UNL A   1      47.234  34.522  28.416  1.00  0.00     0.091 A 
ATOM     97  F   UNL A   1      46.058  33.187  26.827  1.00  0.00    -0.205 F 
ATOM     98  C   UNL A   1      47.766  34.664  29.708  1.00  0.00     0.022 A 
BRANCH  96  99
ATOM     99  S   UNL A   1      47.445  35.891  27.272  1.00  0.00     0.127 S 
ATOM    100  O   UNL A   1      46.064  36.320  27.060  1.00  0.00    -0.237 OA
ATOM    101  O   UNL A   1      48.263  36.826  28.047  1.00  0.00    -0.237 OA
ATOM    102  O   UNL A   1      48.119  35.330  26.108  1.00  0.00    -0.744 OA
ENDBRANCH  96  99
ENDBRANCH  69  92
ENDBRANCH  43  44
ENDBRANCH  35  38
ENDBRANCH  33  34
ENDBRANCH  32  33
ENDBRANCH  31  32
ENDBRANCH  30  31
ENDBRANCH   1  30
TORSDOF 21
ENDMDL
MODEL 2
REMARK VINA RESULT:     -11.1      5.207      9.377
REMARK SMILES O=C(CC[N@@H+]1CCC[C@@]2(CCC(=O)N(CCc3ccccc3)C2)C1)NCCCCCCNC(=O)c1ccc(-c2c3nc(c(-c4cccc(S(=O)(=O)[O-])c4F)c4ccc([nH]4)c(-c4cccc(S(=O)(=O)[O-])c4F)c4nc(c(-c5cccc(S(=O)(=O)[O-])c5F)c5ccc2[nH]5)C=C4)C=C3)cc1
REMARK SMILES IDX 27 1 26 2 25 3 1 4 2 5 3 7 4 8 5 9 6 10 24 11 7 13 9 14 8 15
REMARK SMILES IDX 10 16 23 17 11 18 14 19 12 20 13 21 15 22 16 23 17 24 18 25
REMARK SMILES IDX 22 26 19 27 21 28 20 29 28 30 29 31 30 32 31 33 32 34 33 35
REMARK SMILES IDX 34 37 35 38 36 39 97 40 37 41 96 42 38 43 39 44 40 45 90 46
REMARK SMILES IDX 41 47 95 48 89 49 91 50 42 51 94 52 88 53 87 54 43 56 75 57
REMARK SMILES IDX 55 58 74 59 56 60 59 61 73 62 92 63 57 64 58 65 72 67 93 68
REMARK SMILES IDX 60 69 44 70 45 71 53 72 46 73 48 74 54 75 47 76 49 77 50 78
REMARK SMILES IDX 51 79 52 80 76 81 77 82 85 83 78 84 80 85 86 86 79 87 81 88
REMARK SMILES IDX 82 89 83 90 84 91 61 92 62 93 70 94 63 95 65 96 71 97 64 98
REMARK SMILES IDX 66 99 67 100 68 101 69 102
REMARK H PARENT 25 6 5 12 32 36 91 55 59 66
REMARK Flexibility Score: inf
ROOT
ATOM      1  C   UNL A   1      29.491  25.952  25.723  1.00  0.00     0.021 C 
ENDROOT
BRANCH   1   2
ATOM      2  C   UNL A   1      29.132  26.170  24.248  1.00  0.00     0.116 C 
BRANCH   2   3
ATOM      3  N   UNL A   1      30.299  26.369  23.403  1.00  0.00    -0.356 N 
ATOM      4  O   UNL A   1      30.098  28.645  23.283  1.00  0.00    -0.275 OA
ATOM      5  C   UNL A   1      30.679  27.610  22.960  1.00  0.00     0.225 C 
ATOM      6  H   UNL A   1      30.835  25.587  23.141  1.00  0.00     0.163 HD
BRANCH   5   7
ATOM      7  C   UNL A   1      31.784  27.650  21.921  1.00  0.00     0.161 C 
BRANCH   7   8
ATOM      8  C   UNL A   1      33.208  27.278  22.346  1.00  0.00     0.272 C 
BRANCH   8   9
ATOM      9  N   UNL A   1      33.636  25.857  22.349  1.00  0.00    -0.334 N 
ATOM     10  C   UNL A   1      32.943  25.135  21.256  1.00  0.00     0.262 C 
ATOM     11  C   UNL A   1      33.427  25.155  23.619  1.00  0.00     0.271 C 
ATOM     12  H   UNL A   1      34.646  25.867  22.207  1.00  0.00     0.348 HD
ATOM     13  C   UNL A   1      33.317  23.650  21.145  1.00  0.00     0.062 C 
ATOM     14  C   UNL A   1      34.020  23.720  23.572  1.00  0.00     0.038 C 
ATOM     15  C   UNL A   1      33.255  22.930  22.494  1.00  0.00     0.020 C 
ATOM     16  C   UNL A   1      35.524  23.778  23.262  1.00  0.00     0.024 C 
ATOM     17  C   UNL A   1      33.839  23.102  24.968  1.00  0.00     0.132 C 
ATOM     18  C   UNL A   1      36.217  22.443  23.443  1.00  0.00     0.101 C 
ATOM     19  N   UNL A   1      34.625  21.911  25.246  1.00  0.00    -0.342 N 
ATOM     20  C   UNL A   1      35.913  21.764  24.757  1.00  0.00     0.222 C 
ATOM     21  O   UNL A   1      36.743  21.024  25.280  1.00  0.00    -0.275 OA
BRANCH  19  22
ATOM     22  C   UNL A   1      34.180  21.014  26.322  1.00  0.00     0.124 C 
BRANCH  22  23
ATOM     23  C   UNL A   1      33.069  20.006  25.964  1.00  0.00     0.057 C 
BRANCH  23  24
ATOM     24  C   UNL A   1      33.282  18.999  24.852  1.00  0.00    -0.046 A 
ATOM     25  C   UNL A   1      32.352  18.991  23.797  1.00  0.00     0.004 A 
ATOM     26  C   UNL A   1      34.314  18.055  24.818  1.00  0.00     0.004 A 
ATOM     27  C   UNL A   1      32.479  18.104  22.725  1.00  0.00     0.000 A 
ATOM     28  C   UNL A   1      34.462  17.188  23.730  1.00  0.00     0.000 A 
ATOM     29  C   UNL A   1      33.547  17.215  22.682  1.00  0.00     0.000 A 
ENDBRANCH  23  24
ENDBRANCH  22  23
ENDBRANCH  19  22
ENDBRANCH   8   9
ENDBRANCH   7   8
ENDBRANCH   5   7
ENDBRANCH   2   3
ENDBRANCH   1   2
BRANCH   1  30
ATOM     30  C   UNL A   1      30.911  25.444  25.990  1.00  0.00     0.002 C 
BRANCH  30  31
ATOM     31  C   UNL A   1      31.858  26.454  26.647  1.00  0.00     0.002 C 
BRANCH  31  32
ATOM     32  C   UNL A   1      31.525  27.921  26.444  1.00  0.00     0.021 C 
BRANCH  32  33
ATOM     33  C   UNL A   1      32.175  28.846  27.464  1.00  0.00     0.116 C 
BRANCH  33  34
ATOM     34  N   UNL A   1      32.098  30.267  27.129  1.00  0.00    -0.352 N 
ATOM     35  C   UNL A   1      33.074  31.234  27.241  1.00  0.00     0.251 C 
ATOM     36  H   UNL A   1      31.232  30.575  26.777  1.00  0.00     0.163 HD
ATOM     37  O   UNL A   1      32.841  32.404  26.970  1.00  0.00    -0.269 OA
BRANCH  35  38
ATOM     38  C   UNL A   1      34.413  30.855  27.737  1.00  0.00     0.039 A 
ATOM     39  C   UNL A   1      35.285  31.864  28.155  1.00  0.00     0.014 A 
ATOM     40  C   UNL A   1      34.782  29.514  27.841  1.00  0.00     0.014 A 
ATOM     41  C   UNL A   1      36.494  31.519  28.760  1.00  0.00     0.010 A 
ATOM     42  C   UNL A   1      35.932  29.174  28.538  1.00  0.00     0.010 A 
ATOM     43  C   UNL A   1      36.805  30.171  28.996  1.00  0.00    -0.014 A 
BRANCH  43  44
ATOM     44  C   UNL A   1      38.045  29.770  29.705  1.00  0.00     0.031 A 
ATOM     45  C   UNL A   1      38.333  30.331  31.072  1.00  0.00     0.074 A 
ATOM     46  C   UNL A   1      38.952  28.991  29.082  1.00  0.00     0.049 A 
ATOM     47  N   UNL A   1      39.404  30.202  31.809  1.00  0.00    -0.248 NA
ATOM     48  C   UNL A   1      37.294  31.187  31.674  1.00  0.00     0.031 C 
ATOM     49  C   UNL A   1      38.831  28.467  27.719  1.00  0.00     0.029 A 
ATOM     50  N   UNL A   1      40.171  28.525  29.507  1.00  0.00    -0.354 N 
ATOM     51  C   UNL A   1      39.188  30.991  32.932  1.00  0.00     0.074 A 
ATOM     52  C   UNL A   1      37.906  31.636  32.758  1.00  0.00     0.031 C 
ATOM     53  C   UNL A   1      39.927  27.749  27.422  1.00  0.00     0.029 A 
ATOM     54  C   UNL A   1      40.836  27.776  28.563  1.00  0.00     0.049 A 
ATOM     55  H   UNL A   1      40.535  28.710  30.402  1.00  0.00     0.167 HD
ATOM     56  C   UNL A   1      39.964  31.132  34.032  1.00  0.00     0.034 A 
ATOM     57  C   UNL A   1      42.041  27.176  28.618  1.00  0.00     0.034 A 
ATOM     58  C   UNL A   1      41.200  30.429  34.231  1.00  0.00     0.049 A 
ATOM     59  C   UNL A   1      42.831  27.258  29.897  1.00  0.00     0.074 A 
ATOM     60  C   UNL A   1      42.040  30.453  35.330  1.00  0.00     0.029 A 
ATOM     61  N   UNL A   1      41.760  29.551  33.317  1.00  0.00    -0.354 N 
ATOM     62  N   UNL A   1      42.546  27.906  31.002  1.00  0.00    -0.248 NA
ATOM     63  C   UNL A   1      44.081  26.487  29.960  1.00  0.00     0.031 C 
ATOM     64  C   UNL A   1      43.101  29.576  35.086  1.00  0.00     0.029 A 
ATOM     65  C   UNL A   1      42.919  29.003  33.837  1.00  0.00     0.049 A 
ATOM     66  H   UNL A   1      41.388  29.347  32.428  1.00  0.00     0.167 HD
ATOM     67  C   UNL A   1      43.556  27.588  31.902  1.00  0.00     0.074 A 
ATOM     68  C   UNL A   1      44.448  26.672  31.221  1.00  0.00     0.031 C 
ATOM     69  C   UNL A   1      43.742  28.029  33.170  1.00  0.00     0.034 A 
BRANCH  56  70
ATOM     70  C   UNL A   1      39.444  32.008  35.142  1.00  0.00     0.023 A 
ATOM     71  C   UNL A   1      38.486  31.484  36.036  1.00  0.00     0.012 A 
ATOM     72  C   UNL A   1      39.919  33.320  35.330  1.00  0.00     0.148 A 
ATOM     73  C   UNL A   1      37.982  32.261  37.076  1.00  0.00     0.002 A 
ATOM     74  C   UNL A   1      39.443  34.075  36.397  1.00  0.00     0.091 A 
ATOM     75  F   UNL A   1      40.813  33.808  34.458  1.00  0.00    -0.205 F 
ATOM     76  C   UNL A   1      38.467  33.552  37.263  1.00  0.00     0.022 A 
BRANCH  74  77
ATOM     77  S   UNL A   1      40.055  35.722  36.772  1.00  0.00     0.127 S 
ATOM     78  O   UNL A   1      39.569  36.486  35.625  1.00  0.00    -0.237 OA
ATOM     79  O   UNL A   1      39.380  36.021  38.035  1.00  0.00    -0.237 OA
ATOM     80  O   UNL A   1      41.503  35.600  36.873  1.00  0.00    -0.744 OA
ENDBRANCH  74  77
ENDBRANCH  56  70
BRANCH  57  81
ATOM     81  C   UNL A   1      42.527  26.360  27.468  1.00  0.00     0.023 A 
ATOM     82  C   UNL A   1      43.377  26.954  26.514  1.00  0.00     0.012 A 
ATOM     83  C   UNL A   1      42.172  25.007  27.318  1.00  0.00     0.148 A 
ATOM     84  C   UNL A   1      43.830  26.229  25.411  1.00  0.00     0.002 A 
ATOM     85  C   UNL A   1      42.669  24.275  26.245  1.00  0.00     0.091 A 
ATOM     86  F   UNL A   1      41.352  24.457  28.225  1.00  0.00    -0.205 F 
ATOM     87  C   UNL A   1      43.484  24.888  25.280  1.00  0.00     0.022 A 
BRANCH  85  88
ATOM     88  S   UNL A   1      42.373  22.509  26.083  1.00  0.00     0.127 S 
ATOM     89  O   UNL A   1      40.915  22.453  26.032  1.00  0.00    -0.237 OA
ATOM     90  O   UNL A   1      43.045  22.193  24.822  1.00  0.00    -0.237 OA
ATOM     91  O   UNL A   1      42.999  21.912  27.256  1.00  0.00    -0.744 OA
ENDBRANCH  85  88
ENDBRANCH  57  81
BRANCH  69  92
ATOM     92  C   UNL A   1      44.924  27.489  33.928  1.00  0.00     0.023 A 
ATOM     93  C   UNL A   1      46.150  28.181  33.895  1.00  0.00     0.012 A 
ATOM     94  C   UNL A   1      44.795  26.341  34.734  1.00  0.00     0.148 A 
ATOM     95  C   UNL A   1      47.241  27.720  34.631  1.00  0.00     0.002 A 
ATOM     96  C   UNL A   1      45.873  25.913  35.498  1.00  0.00     0.091 A 
ATOM     97  F   UNL A   1      43.626  25.683  34.733  1.00  0.00    -0.205 F 
ATOM     98  C   UNL A   1      47.100  26.595  35.440  1.00  0.00     0.022 A 
BRANCH  96  99
ATOM     99  S   UNL A   1      45.742  24.527  36.634  1.00  0.00     0.127 S 
ATOM    100  O   UNL A   1      45.755  25.201  37.931  1.00  0.00    -0.237 OA
ATOM    101  O   UNL A   1      44.453  23.938  36.265  1.00  0.00    -0.237 OA
ATOM    102  O   UNL A   1      46.891  23.677  36.351  1.00  0.00    -0.744 OA
ENDBRANCH  96  99
ENDBRANCH  69  92
ENDBRANCH  43  44
ENDBRANCH  35  38
ENDBRANCH  33  34
ENDBRANCH  32  33
ENDBRANCH  31  32
ENDBRANCH  30  31
ENDBRANCH   1  30
TORSDOF 21
ENDMDL
MODEL 3
REMARK VINA RESULT:     -11.1      5.729     10.272
REMARK SMILES O=C(CC[N@@H+]1CCC[C@@]2(CCC(=O)N(CCc3ccccc3)C2)C1)NCCCCCCNC(=O)c1ccc(-c2c3nc(c(-c4cccc(S(=O)(=O)[O-])c4F)c4ccc([nH]4)c(-c4cccc(S(=O)(=O)[O-])c4F)c4nc(c(-c5cccc(S(=O)(=O)[O-])c5F)c5ccc2[nH]5)C=C4)C=C3)cc1
REMARK SMILES IDX 27 1 26 2 25 3 1 4 2 5 3 7 4 8 5 9 6 10 24 11 7 13 9 14 8 15
REMARK SMILES IDX 10 16 23 17 11 18 14 19 12 20 13 21 15 22 16 23 17 24 18 25
REMARK SMILES IDX 22 26 19 27 21 28 20 29 28 30 29 31 30 32 31 33 32 34 33 35
REMARK SMILES IDX 34 37 35 38 36 39 97 40 37 41 96 42 38 43 39 44 40 45 90 46
REMARK SMILES IDX 41 47 95 48 89 49 91 50 42 51 94 52 88 53 87 54 43 56 75 57
REMARK SMILES IDX 55 58 74 59 56 60 59 61 73 62 92 63 57 64 58 65 72 67 93 68
REMARK SMILES IDX 60 69 44 70 45 71 53 72 46 73 48 74 54 75 47 76 49 77 50 78
REMARK SMILES IDX 51 79 52 80 76 81 77 82 85 83 78 84 80 85 86 86 79 87 81 88
REMARK SMILES IDX 82 89 83 90 84 91 61 92 62 93 70 94 63 95 65 96 71 97 64 98
REMARK SMILES IDX 66 99 67 100 68 101 69 102
REMARK H PARENT 25 6 5 12 32 36 91 55 59 66
REMARK Flexibility Score: inf
ROOT
ATOM      1  C   UNL A   1      33.882  28.976  26.105  1.00  0.00     0.021 C 
ENDROOT
BRANCH   1   2
ATOM      2  C   UNL A   1      32.392  29.261  25.881  1.00  0.00     0.116 C 
BRANCH   2   3
ATOM      3  N   UNL A   1      31.596  28.052  25.741  1.00  0.00    -0.356 N 
ATOM      4  O   UNL A   1      31.209  28.300  23.501  1.00  0.00    -0.275 OA
ATOM      5  C   UNL A   1      31.038  27.676  24.547  1.00  0.00     0.225 C 
ATOM      6  H   UNL A   1      31.455  27.482  26.532  1.00  0.00     0.163 HD
BRANCH   5   7
ATOM      7  C   UNL A   1      30.065  26.513  24.589  1.00  0.00     0.161 C 
BRANCH   7   8
ATOM      8  C   UNL A   1      30.433  25.217  23.860  1.00  0.00     0.272 C 
BRANCH   8   9
ATOM      9  N   UNL A   1      31.046  24.092  24.608  1.00  0.00    -0.334 N 
ATOM     10  C   UNL A   1      30.887  24.326  26.063  1.00  0.00     0.262 C 
ATOM     11  C   UNL A   1      32.458  23.844  24.297  1.00  0.00     0.271 C 
ATOM     12  H   UNL A   1      30.551  23.253  24.309  1.00  0.00     0.348 HD
ATOM     13  C   UNL A   1      31.470  23.215  26.948  1.00  0.00     0.062 C 
ATOM     14  C   UNL A   1      32.979  22.574  25.024  1.00  0.00     0.038 C 
ATOM     15  C   UNL A   1      32.894  22.831  26.539  1.00  0.00     0.020 C 
ATOM     16  C   UNL A   1      32.143  21.350  24.617  1.00  0.00     0.024 C 
ATOM     17  C   UNL A   1      34.428  22.343  24.565  1.00  0.00     0.132 C 
ATOM     18  C   UNL A   1      32.742  20.041  25.090  1.00  0.00     0.101 C 
ATOM     19  N   UNL A   1      34.985  21.030  24.845  1.00  0.00    -0.342 N 
ATOM     20  C   UNL A   1      34.210  19.884  24.771  1.00  0.00     0.222 C 
ATOM     21  O   UNL A   1      34.688  18.767  24.581  1.00  0.00    -0.275 OA
BRANCH  19  22
ATOM     22  C   UNL A   1      36.447  20.882  24.878  1.00  0.00     0.124 C 
BRANCH  22  23
ATOM     23  C   UNL A   1      37.274  22.177  24.752  1.00  0.00     0.057 C 
BRANCH  23  24
ATOM     24  C   UNL A   1      38.359  22.493  25.763  1.00  0.00    -0.046 A 
ATOM     25  C   UNL A   1      38.376  23.786  26.315  1.00  0.00     0.004 A 
ATOM     26  C   UNL A   1      39.363  21.603  26.157  1.00  0.00     0.004 A 
ATOM     27  C   UNL A   1      39.333  24.158  27.262  1.00  0.00     0.000 A 
ATOM     28  C   UNL A   1      40.302  21.962  27.129  1.00  0.00     0.000 A 
ATOM     29  C   UNL A   1      40.285  23.238  27.684  1.00  0.00     0.000 A 
ENDBRANCH  23  24
ENDBRANCH  22  23
ENDBRANCH  19  22
ENDBRANCH   8   9
ENDBRANCH   7   8
ENDBRANCH   5   7
ENDBRANCH   2   3
ENDBRANCH   1   2
BRANCH   1  30
ATOM     30  C   UNL A   1      34.453  29.453  27.444  1.00  0.00     0.002 C 
BRANCH  30  31
ATOM     31  C   UNL A   1      34.748  30.953  27.536  1.00  0.00     0.002 C 
BRANCH  31  32
ATOM     32  C   UNL A   1      33.566  31.855  27.839  1.00  0.00     0.021 C 
BRANCH  32  33
ATOM     33  C   UNL A   1      33.852  33.336  27.625  1.00  0.00     0.116 C 
BRANCH  33  34
ATOM     34  N   UNL A   1      33.255  34.219  28.626  1.00  0.00    -0.352 N 
ATOM     35  C   UNL A   1      33.662  34.456  29.922  1.00  0.00     0.251 C 
ATOM     36  H   UNL A   1      32.452  34.710  28.336  1.00  0.00     0.163 HD
ATOM     37  O   UNL A   1      33.021  35.187  30.664  1.00  0.00    -0.269 OA
BRANCH  35  38
ATOM     38  C   UNL A   1      34.873  33.781  30.433  1.00  0.00     0.039 A 
ATOM     39  C   UNL A   1      36.124  34.331  30.139  1.00  0.00     0.014 A 
ATOM     40  C   UNL A   1      34.771  32.648  31.240  1.00  0.00     0.014 A 
ATOM     41  C   UNL A   1      37.266  33.792  30.731  1.00  0.00     0.010 A 
ATOM     42  C   UNL A   1      35.893  32.183  31.910  1.00  0.00     0.010 A 
ATOM     43  C   UNL A   1      37.154  32.743  31.656  1.00  0.00    -0.014 A 
BRANCH  43  44
ATOM     44  C   UNL A   1      38.338  32.196  32.363  1.00  0.00     0.031 A 
ATOM     45  C   UNL A   1      38.670  32.689  33.746  1.00  0.00     0.074 A 
ATOM     46  C   UNL A   1      39.164  31.342  31.726  1.00  0.00     0.049 A 
ATOM     47  N   UNL A   1      39.715  32.430  34.486  1.00  0.00    -0.248 NA
ATOM     48  C   UNL A   1      37.722  33.635  34.362  1.00  0.00     0.031 C 
ATOM     49  C   UNL A   1      39.001  30.867  30.349  1.00  0.00     0.029 A 
ATOM     50  N   UNL A   1      40.323  30.739  32.147  1.00  0.00    -0.354 N 
ATOM     51  C   UNL A   1      39.573  33.210  35.627  1.00  0.00     0.074 A 
ATOM     52  C   UNL A   1      38.368  33.991  35.462  1.00  0.00     0.031 C 
ATOM     53  C   UNL A   1      40.018  30.045  30.041  1.00  0.00     0.029 A 
ATOM     54  C   UNL A   1      40.914  29.947  31.189  1.00  0.00     0.049 A 
ATOM     55  H   UNL A   1      40.696  30.862  33.049  1.00  0.00     0.167 HD
ATOM     56  C   UNL A   1      40.349  33.241  36.736  1.00  0.00     0.034 A 
ATOM     57  C   UNL A   1      42.049  29.222  31.236  1.00  0.00     0.034 A 
ATOM     58  C   UNL A   1      41.503  32.406  36.925  1.00  0.00     0.049 A 
ATOM     59  C   UNL A   1      42.831  29.189  32.523  1.00  0.00     0.074 A 
ATOM     60  C   UNL A   1      42.330  32.315  38.030  1.00  0.00     0.029 A 
ATOM     61  N   UNL A   1      41.976  31.497  35.992  1.00  0.00    -0.354 N 
ATOM     62  N   UNL A   1      42.605  29.836  33.641  1.00  0.00    -0.248 NA
ATOM     63  C   UNL A   1      43.992  28.290  32.573  1.00  0.00     0.031 C 
ATOM     64  C   UNL A   1      43.295  31.337  37.770  1.00  0.00     0.029 A 
ATOM     65  C   UNL A   1      43.065  30.817  36.506  1.00  0.00     0.049 A 
ATOM     66  H   UNL A   1      41.593  31.356  35.096  1.00  0.00     0.167 HD
ATOM     67  C   UNL A   1      43.568  29.392  34.539  1.00  0.00     0.074 A 
ATOM     68  C   UNL A   1      44.365  28.404  33.841  1.00  0.00     0.031 C 
ATOM     69  C   UNL A   1      43.788  29.779  35.820  1.00  0.00     0.034 A 
BRANCH  56  70
ATOM     70  C   UNL A   1      39.914  34.139  37.864  1.00  0.00     0.023 A 
ATOM     71  C   UNL A   1      40.223  35.514  37.800  1.00  0.00     0.012 A 
ATOM     72  C   UNL A   1      39.176  33.646  38.957  1.00  0.00     0.148 A 
ATOM     73  C   UNL A   1      39.837  36.379  38.823  1.00  0.00     0.002 A 
ATOM     74  C   UNL A   1      38.757  34.524  39.952  1.00  0.00     0.091 A 
ATOM     75  F   UNL A   1      38.912  32.334  39.011  1.00  0.00    -0.205 F 
ATOM     76  C   UNL A   1      39.097  35.886  39.893  1.00  0.00     0.022 A 
BRANCH  74  77
ATOM     77  S   UNL A   1      37.735  34.007  41.337  1.00  0.00     0.127 S 
ATOM     78  O   UNL A   1      38.691  33.250  42.143  1.00  0.00    -0.237 OA
ATOM     79  O   UNL A   1      37.329  35.288  41.915  1.00  0.00    -0.237 OA
ATOM     80  O   UNL A   1      36.646  33.227  40.764  1.00  0.00    -0.744 OA
ENDBRANCH  74  77
ENDBRANCH  56  70
BRANCH  57  81
ATOM     81  C   UNL A   1      42.457  28.389  30.069  1.00  0.00     0.023 A 
ATOM     82  C   UNL A   1      41.877  27.117  29.895  1.00  0.00     0.012 A 
ATOM     83  C   UNL A   1      43.397  28.846  29.126  1.00  0.00     0.148 A 
ATOM     84  C   UNL A   1      42.254  26.299  28.830  1.00  0.00     0.002 A 
ATOM     85  C   UNL A   1      43.730  28.047  28.037  1.00  0.00     0.091 A 
ATOM     86  F   UNL A   1      43.951  30.053  29.310  1.00  0.00    -0.205 F 
ATOM     87  C   UNL A   1      43.173  26.766  27.896  1.00  0.00     0.022 A 
BRANCH  85  88
ATOM     88  S   UNL A   1      44.807  28.636  26.724  1.00  0.00     0.127 S 
ATOM     89  O   UNL A   1      44.163  29.890  26.347  1.00  0.00    -0.237 OA
ATOM     90  O   UNL A   1      46.089  28.785  27.415  1.00  0.00    -0.237 OA
ATOM     91  O   UNL A   1      44.793  27.578  25.721  1.00  0.00    -0.744 OA
ENDBRANCH  85  88
ENDBRANCH  57  81
BRANCH  69  92
ATOM     92  C   UNL A   1      44.899  29.099  36.572  1.00  0.00     0.023 A 
ATOM     93  C   UNL A   1      46.203  29.626  36.518  1.00  0.00     0.012 A 
ATOM     94  C   UNL A   1      44.633  27.985  37.392  1.00  0.00     0.148 A 
ATOM     95  C   UNL A   1      47.235  29.036  37.248  1.00  0.00     0.002 A 
ATOM     96  C   UNL A   1      45.656  27.429  38.149  1.00  0.00     0.091 A 
ATOM     97  F   UNL A   1      43.389  27.483  37.410  1.00  0.00    -0.205 F 
ATOM     98  C   UNL A   1      46.960  27.947  38.071  1.00  0.00     0.022 A 
BRANCH  96  99
ATOM     99  S   UNL A   1      45.361  26.083  39.302  1.00  0.00     0.127 S 
ATOM    100  O   UNL A   1      45.101  24.965  38.397  1.00  0.00    -0.237 OA
ATOM    101  O   UNL A   1      46.634  26.001  40.023  1.00  0.00    -0.237 OA
ATOM    102  O   UNL A   1      44.236  26.509  40.123  1.00  0.00    -0.744 OA
ENDBRANCH  96  99
ENDBRANCH  69  92
ENDBRANCH  43  44
ENDBRANCH  35  38
ENDBRANCH  33  34
ENDBRANCH  32  33
ENDBRANCH  31  32
ENDBRANCH  30  31
ENDBRANCH   1  30
TORSDOF 21
ENDMDL
