MODEL 1
REMARK VINA RESULT:     -12.4      0.000      0.000
REMARK SMILES C[N@@H+]1CC[C@H]2CN(C(=O)c3csc(-c4ccncc4)n3)C[C@@]2(C(=O)NCCCCCCNC(=O)c2ccc(-c3c4nc(c(-c5cccc(S(=O)(=O)[O-])c5F)c5ccc([nH]5)c(-c5cccc(S(=O)(=O)[O-])c5F)c5nc(c(-c6cccc(S(=O)(=O)[O-])c6F)c6ccc3[nH]6)C=C5)C=C4)cc2)C1
REMARK SMILES IDX 28 1 27 2 26 3 25 4 23 5 24 6 22 8 1 9 2 10 3 11 98 12 4 14
REMARK SMILES IDX 5 15 21 16 6 17 7 18 8 19 9 20 10 21 11 22 20 23 12 24 13 25
REMARK SMILES IDX 14 26 15 27 19 28 16 29 18 30 17 31 29 32 30 33 31 34 32 35
REMARK SMILES IDX 33 36 34 38 35 39 36 40 97 41 37 42 96 43 38 44 39 45 40 46
REMARK SMILES IDX 90 47 41 48 95 49 89 50 91 51 42 52 94 53 88 54 87 55 43 57
REMARK SMILES IDX 75 58 55 59 74 60 56 61 59 62 73 63 92 64 57 65 58 66 72 68
REMARK SMILES IDX 93 69 60 70 44 71 45 72 53 73 46 74 48 75 54 76 47 77 49 78
REMARK SMILES IDX 50 79 51 80 52 81 76 82 77 83 85 84 78 85 80 86 86 87 79 88
REMARK SMILES IDX 81 89 82 90 83 91 84 92 61 93 62 94 70 95 63 96 65 97 71 98
REMARK SMILES IDX 64 99 66 100 67 101 68 102 69 103
REMARK H PARENT 25 7 2 13 32 37 91 56 59 67
REMARK Flexibility Score: inf
ROOT
ATOM      1  C   UNL A   1      36.452  22.617  23.349  1.00  0.00     0.002 C 
ENDROOT
BRANCH   1   2
ATOM      2  C   UNL A   1      34.934  22.683  23.508  1.00  0.00     0.021 C 
BRANCH   2   3
ATOM      3  C   UNL A   1      34.248  23.872  22.830  1.00  0.00     0.116 C 
BRANCH   3   4
ATOM      4  N   UNL A   1      34.361  25.210  23.452  1.00  0.00    -0.355 N 
ATOM      5  C   UNL A   1      33.508  26.030  24.187  1.00  0.00     0.234 C 
ATOM      6  O   UNL A   1      34.027  26.902  24.888  1.00  0.00    -0.274 OA
ATOM      7  H   UNL A   1      35.247  25.617  23.314  1.00  0.00     0.163 HD
BRANCH   5   8
ATOM      8  C   UNL A   1      31.980  25.966  23.983  1.00  0.00     0.120 C 
ATOM      9  C   UNL A   1      32.788  28.915  22.377  1.00  0.00     0.332 C 
ATOM     10  N   UNL A   1      31.593  28.078  22.478  1.00  0.00    -0.336 N 
ATOM     11  C   UNL A   1      30.693  28.652  23.477  1.00  0.00     0.262 C 
ATOM     12  C   UNL A   1      31.818  26.605  22.565  1.00  0.00     0.281 C 
ATOM     13  H   UNL A   1      31.119  28.106  21.576  1.00  0.00     0.347 HD
ATOM     14  C   UNL A   1      29.969  27.591  24.259  1.00  0.00     0.068 C 
ATOM     15  C   UNL A   1      30.981  26.682  24.970  1.00  0.00     0.037 C 
ATOM     16  C   UNL A   1      31.639  24.489  24.248  1.00  0.00     0.143 C 
ATOM     17  C   UNL A   1      30.136  25.604  25.664  1.00  0.00     0.125 C 
ATOM     18  N   UNL A   1      30.867  24.407  25.465  1.00  0.00    -0.336 N 
BRANCH  18  19
ATOM     19  C   UNL A   1      30.780  23.339  26.350  1.00  0.00     0.273 C 
ATOM     20  O   UNL A   1      29.901  23.292  27.209  1.00  0.00    -0.267 OA
BRANCH  19  21
ATOM     21  C   UNL A   1      31.807  22.286  26.255  1.00  0.00     0.139 A 
ATOM     22  C   UNL A   1      33.013  22.324  26.928  1.00  0.00     0.101 A 
ATOM     23  N   UNL A   1      31.679  21.197  25.377  1.00  0.00    -0.231 NA
ATOM     24  S   UNL A   1      33.983  20.978  26.497  1.00  0.00    -0.122 S 
ATOM     25  C   UNL A   1      32.778  20.469  25.380  1.00  0.00     0.124 A 
BRANCH  25  26
ATOM     26  C   UNL A   1      33.044  19.337  24.486  1.00  0.00     0.013 A 
ATOM     27  C   UNL A   1      32.252  19.151  23.349  1.00  0.00     0.031 A 
ATOM     28  C   UNL A   1      34.080  18.432  24.732  1.00  0.00     0.031 A 
ATOM     29  C   UNL A   1      32.526  18.077  22.516  1.00  0.00     0.111 A 
ATOM     30  C   UNL A   1      34.269  17.384  23.842  1.00  0.00     0.111 A 
ATOM     31  N   UNL A   1      33.504  17.177  22.750  1.00  0.00    -0.265 NA
ENDBRANCH  25  26
ENDBRANCH  19  21
ENDBRANCH  18  19
ENDBRANCH   5   8
ENDBRANCH   3   4
ENDBRANCH   2   3
ENDBRANCH   1   2
BRANCH   1  32
ATOM     32  C   UNL A   1      37.242  22.315  24.628  1.00  0.00     0.002 C 
BRANCH  32  33
ATOM     33  C   UNL A   1      37.891  20.927  24.715  1.00  0.00     0.021 C 
BRANCH  33  34
ATOM     34  C   UNL A   1      38.240  20.466  26.123  1.00  0.00     0.116 C 
BRANCH  34  35
ATOM     35  N   UNL A   1      39.313  19.488  26.119  1.00  0.00    -0.352 N 
ATOM     36  C   UNL A   1      40.673  19.690  26.127  1.00  0.00     0.251 C 
ATOM     37  H   UNL A   1      39.027  18.547  26.109  1.00  0.00     0.163 HD
ATOM     38  O   UNL A   1      41.430  18.759  25.885  1.00  0.00    -0.269 OA
BRANCH  36  39
ATOM     39  C   UNL A   1      41.214  21.036  26.420  1.00  0.00     0.039 A 
ATOM     40  C   UNL A   1      41.769  21.786  25.380  1.00  0.00     0.014 A 
ATOM     41  C   UNL A   1      41.190  21.549  27.720  1.00  0.00     0.014 A 
ATOM     42  C   UNL A   1      42.260  23.068  25.638  1.00  0.00     0.010 A 
ATOM     43  C   UNL A   1      41.601  22.857  27.958  1.00  0.00     0.010 A 
ATOM     44  C   UNL A   1      42.160  23.623  26.923  1.00  0.00    -0.014 A 
BRANCH  44  45
ATOM     45  C   UNL A   1      42.655  24.994  27.211  1.00  0.00     0.031 A 
ATOM     46  C   UNL A   1      41.752  26.000  27.876  1.00  0.00     0.074 A 
ATOM     47  C   UNL A   1      43.890  25.356  26.813  1.00  0.00     0.049 A 
ATOM     48  N   UNL A   1      41.987  27.252  28.169  1.00  0.00    -0.248 NA
ATOM     49  C   UNL A   1      40.395  25.548  28.232  1.00  0.00     0.031 C 
ATOM     50  C   UNL A   1      44.834  24.498  26.094  1.00  0.00     0.029 A 
ATOM     51  N   UNL A   1      44.557  26.550  26.937  1.00  0.00    -0.354 N 
ATOM     52  C   UNL A   1      40.805  27.745  28.708  1.00  0.00     0.074 A 
ATOM     53  C   UNL A   1      39.839  26.670  28.663  1.00  0.00     0.031 C 
ATOM     54  C   UNL A   1      45.959  25.190  25.848  1.00  0.00     0.029 A 
ATOM     55  C   UNL A   1      45.806  26.547  26.362  1.00  0.00     0.049 A 
ATOM     56  H   UNL A   1      44.176  27.334  27.394  1.00  0.00     0.167 HD
ATOM     57  C   UNL A   1      40.551  28.973  29.222  1.00  0.00     0.034 A 
ATOM     58  C   UNL A   1      46.722  27.530  26.252  1.00  0.00     0.034 A 
ATOM     59  C   UNL A   1      41.525  30.027  29.301  1.00  0.00     0.049 A 
ATOM     60  C   UNL A   1      46.428  28.874  26.861  1.00  0.00     0.074 A 
ATOM     61  C   UNL A   1      41.393  31.277  29.879  1.00  0.00     0.029 A 
ATOM     62  N   UNL A   1      42.806  29.961  28.777  1.00  0.00    -0.354 N 
ATOM     63  N   UNL A   1      45.356  29.274  27.501  1.00  0.00    -0.248 NA
ATOM     64  C   UNL A   1      47.484  29.892  26.765  1.00  0.00     0.031 C 
ATOM     65  C   UNL A   1      42.586  31.979  29.674  1.00  0.00     0.029 A 
ATOM     66  C   UNL A   1      43.473  31.152  29.006  1.00  0.00     0.049 A 
ATOM     67  H   UNL A   1      43.186  29.182  28.309  1.00  0.00     0.167 HD
ATOM     68  C   UNL A   1      45.624  30.571  27.921  1.00  0.00     0.074 A 
ATOM     69  C   UNL A   1      46.967  30.884  27.477  1.00  0.00     0.031 C 
ATOM     70  C   UNL A   1      44.828  31.432  28.603  1.00  0.00     0.034 A 
BRANCH  57  71
ATOM     71  C   UNL A   1      39.173  29.228  29.779  1.00  0.00     0.023 A 
ATOM     72  C   UNL A   1      38.870  28.843  31.101  1.00  0.00     0.012 A 
ATOM     73  C   UNL A   1      38.196  29.894  29.014  1.00  0.00     0.148 A 
ATOM     74  C   UNL A   1      37.605  29.078  31.639  1.00  0.00     0.002 A 
ATOM     75  C   UNL A   1      36.954  30.171  29.573  1.00  0.00     0.091 A 
ATOM     76  F   UNL A   1      38.495  30.235  27.752  1.00  0.00    -0.205 F 
ATOM     77  C   UNL A   1      36.652  29.752  30.879  1.00  0.00     0.022 A 
BRANCH  75  78
ATOM     78  S   UNL A   1      35.687  31.106  28.708  1.00  0.00     0.127 S 
ATOM     79  O   UNL A   1      34.884  31.612  29.821  1.00  0.00    -0.237 OA
ATOM     80  O   UNL A   1      36.477  32.122  28.014  1.00  0.00    -0.237 OA
ATOM     81  O   UNL A   1      35.013  30.156  27.835  1.00  0.00    -0.744 OA
ENDBRANCH  75  78
ENDBRANCH  57  71
BRANCH  58  82
ATOM     82  C   UNL A   1      48.027  27.262  25.585  1.00  0.00     0.023 A 
ATOM     83  C   UNL A   1      49.115  26.792  26.347  1.00  0.00     0.012 A 
ATOM     84  C   UNL A   1      48.190  27.452  24.200  1.00  0.00     0.148 A 
ATOM     85  C   UNL A   1      50.351  26.550  25.749  1.00  0.00     0.002 A 
ATOM     86  C   UNL A   1      49.408  27.155  23.600  1.00  0.00     0.091 A 
ATOM     87  F   UNL A   1      47.146  27.908  23.494  1.00  0.00    -0.205 F 
ATOM     88  C   UNL A   1      50.496  26.723  24.374  1.00  0.00     0.022 A 
BRANCH  86  89
ATOM     89  S   UNL A   1      49.644  27.219  21.821  1.00  0.00     0.127 S 
ATOM     90  O   UNL A   1      49.432  28.637  21.542  1.00  0.00    -0.237 OA
ATOM     91  O   UNL A   1      51.027  26.762  21.685  1.00  0.00    -0.237 OA
ATOM     92  O   UNL A   1      48.653  26.309  21.259  1.00  0.00    -0.744 OA
ENDBRANCH  86  89
ENDBRANCH  58  82
BRANCH  70  93
ATOM     93  C   UNL A   1      45.398  32.778  28.962  1.00  0.00     0.023 A 
ATOM     94  C   UNL A   1      46.091  32.953  30.176  1.00  0.00     0.012 A 
ATOM     95  C   UNL A   1      45.306  33.856  28.058  1.00  0.00     0.148 A 
ATOM     96  C   UNL A   1      46.650  34.189  30.502  1.00  0.00     0.002 A 
ATOM     97  C   UNL A   1      45.911  35.067  28.364  1.00  0.00     0.091 A 
ATOM     98  F   UNL A   1      44.627  33.675  26.916  1.00  0.00    -0.205 F 
ATOM     99  C   UNL A   1      46.571  35.241  29.592  1.00  0.00     0.022 A 
BRANCH  97 100
ATOM    100  S   UNL A   1      45.947  36.444  27.211  1.00  0.00     0.127 S 
ATOM    101  O   UNL A   1      44.559  36.898  27.244  1.00  0.00    -0.237 OA
ATOM    102  O   UNL A   1      46.902  37.353  27.846  1.00  0.00    -0.237 OA
ATOM    103  O   UNL A   1      46.394  35.891  25.939  1.00  0.00    -0.744 OA
ENDBRANCH  97 100
ENDBRANCH  70  93
ENDBRANCH  44  45
ENDBRANCH  36  39
ENDBRANCH  34  35
ENDBRANCH  33  34
ENDBRANCH  32  33
ENDBRANCH   1  32
TORSDOF 19
ENDMDL
MODEL 2
REMARK VINA RESULT:     -11.6      2.086      7.270
REMARK SMILES C[N@@H+]1CC[C@H]2CN(C(=O)c3csc(-c4ccncc4)n3)C[C@@]2(C(=O)NCCCCCCNC(=O)c2ccc(-c3c4nc(c(-c5cccc(S(=O)(=O)[O-])c5F)c5ccc([nH]5)c(-c5cccc(S(=O)(=O)[O-])c5F)c5nc(c(-c6cccc(S(=O)(=O)[O-])c6F)c6ccc3[nH]6)C=C5)C=C4)cc2)C1
REMARK SMILES IDX 28 1 27 2 26 3 25 4 23 5 24 6 22 8 1 9 2 10 3 11 98 12 4 14
REMARK SMILES IDX 5 15 21 16 6 17 7 18 8 19 9 20 10 21 11 22 20 23 12 24 13 25
REMARK SMILES IDX 14 26 15 27 19 28 16 29 18 30 17 31 29 32 30 33 31 34 32 35
REMARK SMILES IDX 33 36 34 38 35 39 36 40 97 41 37 42 96 43 38 44 39 45 40 46
REMARK SMILES IDX 90 47 41 48 95 49 89 50 91 51 42 52 94 53 88 54 87 55 43 57
REMARK SMILES IDX 75 58 55 59 74 60 56 61 59 62 73 63 92 64 57 65 58 66 72 68
REMARK SMILES IDX 93 69 60 70 44 71 45 72 53 73 46 74 48 75 54 76 47 77 49 78
REMARK SMILES IDX 50 79 51 80 52 81 76 82 77 83 85 84 78 85 80 86 86 87 79 88
REMARK SMILES IDX 81 89 82 90 83 91 84 92 61 93 62 94 70 95 63 96 65 97 71 98
REMARK SMILES IDX 64 99 66 100 67 101 68 102 69 103
REMARK H PARENT 25 7 2 13 32 37 91 56 59 67
REMARK Flexibility Score: inf
ROOT
ATOM      1  C   UNL A   1      36.788  22.557  25.328  1.00  0.00     0.002 C 
ENDROOT
BRANCH   1   2
ATOM      2  C   UNL A   1      36.111  23.248  24.146  1.00  0.00     0.021 C 
BRANCH   2   3
ATOM      3  C   UNL A   1      34.763  23.908  24.447  1.00  0.00     0.116 C 
BRANCH   3   4
ATOM      4  N   UNL A   1      34.699  25.382  24.556  1.00  0.00    -0.355 N 
ATOM      5  C   UNL A   1      33.674  26.315  24.702  1.00  0.00     0.234 C 
ATOM      6  O   UNL A   1      33.978  27.422  25.154  1.00  0.00    -0.274 OA
ATOM      7  H   UNL A   1      35.588  25.803  24.516  1.00  0.00     0.163 HD
BRANCH   5   8
ATOM      8  C   UNL A   1      32.262  26.033  24.145  1.00  0.00     0.120 C 
ATOM      9  C   UNL A   1      33.065  29.002  22.574  1.00  0.00     0.332 C 
ATOM     10  N   UNL A   1      31.995  28.012  22.447  1.00  0.00    -0.336 N 
ATOM     11  C   UNL A   1      30.814  28.494  23.161  1.00  0.00     0.262 C 
ATOM     12  C   UNL A   1      32.374  26.589  22.688  1.00  0.00     0.281 C 
ATOM     13  H   UNL A   1      31.757  27.940  21.458  1.00  0.00     0.347 HD
ATOM     14  C   UNL A   1      30.059  27.373  23.821  1.00  0.00     0.068 C 
ATOM     15  C   UNL A   1      30.971  26.640  24.814  1.00  0.00     0.037 C 
ATOM     16  C   UNL A   1      32.055  24.534  24.425  1.00  0.00     0.143 C 
ATOM     17  C   UNL A   1      30.124  25.484  25.362  1.00  0.00     0.125 C 
ATOM     18  N   UNL A   1      31.025  24.392  25.426  1.00  0.00    -0.336 N 
BRANCH  18  19
ATOM     19  C   UNL A   1      30.858  23.357  26.339  1.00  0.00     0.273 C 
ATOM     20  O   UNL A   1      29.981  23.400  27.199  1.00  0.00    -0.267 OA
BRANCH  19  21
ATOM     21  C   UNL A   1      31.799  22.225  26.269  1.00  0.00     0.139 A 
ATOM     22  C   UNL A   1      32.934  22.119  27.050  1.00  0.00     0.101 A 
ATOM     23  N   UNL A   1      31.668  21.204  25.313  1.00  0.00    -0.231 NA
ATOM     24  S   UNL A   1      33.827  20.719  26.622  1.00  0.00    -0.122 S 
ATOM     25  C   UNL A   1      32.698  20.382  25.370  1.00  0.00     0.124 A 
BRANCH  25  26
ATOM     26  C   UNL A   1      32.956  19.285  24.432  1.00  0.00     0.013 A 
ATOM     27  C   UNL A   1      32.159  19.147  23.291  1.00  0.00     0.031 A 
ATOM     28  C   UNL A   1      33.988  18.366  24.639  1.00  0.00     0.031 A 
ATOM     29  C   UNL A   1      32.425  18.105  22.416  1.00  0.00     0.111 A 
ATOM     30  C   UNL A   1      34.168  17.352  23.709  1.00  0.00     0.111 A 
ATOM     31  N   UNL A   1      33.399  17.192  22.612  1.00  0.00    -0.265 NA
ENDBRANCH  25  26
ENDBRANCH  19  21
ENDBRANCH  18  19
ENDBRANCH   5   8
ENDBRANCH   3   4
ENDBRANCH   2   3
ENDBRANCH   1   2
BRANCH   1  32
ATOM     32  C   UNL A   1      37.455  21.211  25.018  1.00  0.00     0.002 C 
BRANCH  32  33
ATOM     33  C   UNL A   1      38.956  21.111  25.319  1.00  0.00     0.021 C 
BRANCH  33  34
ATOM     34  C   UNL A   1      39.326  20.158  26.447  1.00  0.00     0.116 C 
BRANCH  34  35
ATOM     35  N   UNL A   1      40.540  19.418  26.152  1.00  0.00    -0.352 N 
ATOM     36  C   UNL A   1      41.825  19.883  26.001  1.00  0.00     0.251 C 
ATOM     37  H   UNL A   1      40.427  18.446  26.044  1.00  0.00     0.163 HD
ATOM     38  O   UNL A   1      42.685  19.155  25.523  1.00  0.00    -0.269 OA
BRANCH  36  39
ATOM     39  C   UNL A   1      42.159  21.265  26.409  1.00  0.00     0.039 A 
ATOM     40  C   UNL A   1      42.369  22.232  25.423  1.00  0.00     0.014 A 
ATOM     41  C   UNL A   1      42.282  21.602  27.760  1.00  0.00     0.014 A 
ATOM     42  C   UNL A   1      42.660  23.547  25.795  1.00  0.00     0.010 A 
ATOM     43  C   UNL A   1      42.487  22.929  28.129  1.00  0.00     0.010 A 
ATOM     44  C   UNL A   1      42.699  23.911  27.150  1.00  0.00    -0.014 A 
BRANCH  44  45
ATOM     45  C   UNL A   1      42.983  25.310  27.565  1.00  0.00     0.031 A 
ATOM     46  C   UNL A   1      44.398  25.827  27.558  1.00  0.00     0.074 A 
ATOM     47  C   UNL A   1      41.982  26.091  28.013  1.00  0.00     0.049 A 
ATOM     48  N   UNL A   1      44.849  26.998  27.924  1.00  0.00    -0.248 NA
ATOM     49  C   UNL A   1      45.448  24.897  27.108  1.00  0.00     0.031 C 
ATOM     50  C   UNL A   1      40.581  25.683  28.139  1.00  0.00     0.029 A 
ATOM     51  N   UNL A   1      41.991  27.386  28.468  1.00  0.00    -0.354 N 
ATOM     52  C   UNL A   1      46.230  26.934  27.784  1.00  0.00     0.074 A 
ATOM     53  C   UNL A   1      46.549  25.596  27.339  1.00  0.00     0.031 C 
ATOM     54  C   UNL A   1      39.866  26.709  28.630  1.00  0.00     0.029 A 
ATOM     55  C   UNL A   1      40.760  27.835  28.884  1.00  0.00     0.049 A 
ATOM     56  H   UNL A   1      42.805  27.941  28.495  1.00  0.00     0.167 HD
ATOM     57  C   UNL A   1      47.151  27.909  27.978  1.00  0.00     0.034 A 
ATOM     58  C   UNL A   1      40.392  29.016  29.417  1.00  0.00     0.034 A 
ATOM     59  C   UNL A   1      46.828  29.250  28.382  1.00  0.00     0.049 A 
ATOM     60  C   UNL A   1      41.428  30.093  29.592  1.00  0.00     0.074 A 
ATOM     61  C   UNL A   1      47.676  30.333  28.525  1.00  0.00     0.029 A 
ATOM     62  N   UNL A   1      45.557  29.690  28.720  1.00  0.00    -0.354 N 
ATOM     63  N   UNL A   1      42.709  30.061  29.310  1.00  0.00    -0.248 NA
ATOM     64  C   UNL A   1      40.964  31.383  30.122  1.00  0.00     0.031 C 
ATOM     65  C   UNL A   1      46.923  31.420  28.982  1.00  0.00     0.029 A 
ATOM     66  C   UNL A   1      45.599  31.024  29.083  1.00  0.00     0.049 A 
ATOM     67  H   UNL A   1      44.745  29.134  28.704  1.00  0.00     0.167 HD
ATOM     68  C   UNL A   1      43.193  31.333  29.588  1.00  0.00     0.074 A 
ATOM     69  C   UNL A   1      42.064  32.119  30.044  1.00  0.00     0.031 C 
ATOM     70  C   UNL A   1      44.459  31.808  29.486  1.00  0.00     0.034 A 
BRANCH  57  71
ATOM     71  C   UNL A   1      48.597  27.570  27.714  1.00  0.00     0.023 A 
ATOM     72  C   UNL A   1      49.107  27.652  26.401  1.00  0.00     0.012 A 
ATOM     73  C   UNL A   1      49.462  27.222  28.770  1.00  0.00     0.148 A 
ATOM     74  C   UNL A   1      50.442  27.353  26.138  1.00  0.00     0.002 A 
ATOM     75  C   UNL A   1      50.804  26.975  28.506  1.00  0.00     0.091 A 
ATOM     76  F   UNL A   1      48.955  27.130  30.007  1.00  0.00    -0.205 F 
ATOM     77  C   UNL A   1      51.293  27.026  27.191  1.00  0.00     0.022 A 
BRANCH  75  78
ATOM     78  S   UNL A   1      51.998  26.626  29.802  1.00  0.00     0.127 S 
ATOM     79  O   UNL A   1      51.399  25.459  30.448  1.00  0.00    -0.237 OA
ATOM     80  O   UNL A   1      53.210  26.343  29.033  1.00  0.00    -0.237 OA
ATOM     81  O   UNL A   1      52.065  27.827  30.621  1.00  0.00    -0.744 OA
ENDBRANCH  75  78
ENDBRANCH  57  71
BRANCH  58  82
ATOM     82  C   UNL A   1      38.967  29.263  29.774  1.00  0.00     0.023 A 
ATOM     83  C   UNL A   1      38.508  28.945  31.068  1.00  0.00     0.012 A 
ATOM     84  C   UNL A   1      38.070  29.826  28.846  1.00  0.00     0.148 A 
ATOM     85  C   UNL A   1      37.174  29.151  31.420  1.00  0.00     0.002 A 
ATOM     86  C   UNL A   1      36.757  30.080  29.221  1.00  0.00     0.091 A 
ATOM     87  F   UNL A   1      38.524  30.112  27.618  1.00  0.00    -0.205 F 
ATOM     88  C   UNL A   1      36.300  29.727  30.501  1.00  0.00     0.022 A 
BRANCH  86  89
ATOM     89  S   UNL A   1      35.600  30.941  28.149  1.00  0.00     0.127 S 
ATOM     90  O   UNL A   1      35.287  29.912  27.161  1.00  0.00    -0.237 OA
ATOM     91  O   UNL A   1      34.514  31.260  29.075  1.00  0.00    -0.237 OA
ATOM     92  O   UNL A   1      36.321  32.103  27.646  1.00  0.00    -0.744 OA
ENDBRANCH  86  89
ENDBRANCH  58  82
BRANCH  70  93
ATOM     93  C   UNL A   1      44.693  33.257  29.822  1.00  0.00     0.023 A 
ATOM     94  C   UNL A   1      45.085  33.628  31.124  1.00  0.00     0.012 A 
ATOM     95  C   UNL A   1      44.591  34.246  28.823  1.00  0.00     0.148 A 
ATOM     96  C   UNL A   1      45.334  34.965  31.435  1.00  0.00     0.002 A 
ATOM     97  C   UNL A   1      44.893  35.567  29.126  1.00  0.00     0.091 A 
ATOM     98  F   UNL A   1      44.199  33.876  27.595  1.00  0.00    -0.205 F 
ATOM     99  C   UNL A   1      45.250  35.931  30.435  1.00  0.00     0.022 A 
BRANCH  97 100
ATOM    100  S   UNL A   1      44.911  36.861  27.881  1.00  0.00     0.127 S 
ATOM    101  O   UNL A   1      45.933  36.373  26.958  1.00  0.00    -0.237 OA
ATOM    102  O   UNL A   1      43.544  36.808  27.361  1.00  0.00    -0.237 OA
ATOM    103  O   UNL A   1      45.242  38.093  28.585  1.00  0.00    -0.744 OA
ENDBRANCH  97 100
ENDBRANCH  70  93
ENDBRANCH  44  45
ENDBRANCH  36  39
ENDBRANCH  34  35
ENDBRANCH  33  34
ENDBRANCH  32  33
ENDBRANCH   1  32
TORSDOF 19
ENDMDL
MODEL 3
REMARK VINA RESULT:     -11.4      1.829      7.363
REMARK SMILES C[N@@H+]1CC[C@H]2CN(C(=O)c3csc(-c4ccncc4)n3)C[C@@]2(C(=O)NCCCCCCNC(=O)c2ccc(-c3c4nc(c(-c5cccc(S(=O)(=O)[O-])c5F)c5ccc([nH]5)c(-c5cccc(S(=O)(=O)[O-])c5F)c5nc(c(-c6cccc(S(=O)(=O)[O-])c6F)c6ccc3[nH]6)C=C5)C=C4)cc2)C1
REMARK SMILES IDX 28 1 27 2 26 3 25 4 23 5 24 6 22 8 1 9 2 10 3 11 98 12 4 14
REMARK SMILES IDX 5 15 21 16 6 17 7 18 8 19 9 20 10 21 11 22 20 23 12 24 13 25
REMARK SMILES IDX 14 26 15 27 19 28 16 29 18 30 17 31 29 32 30 33 31 34 32 35
REMARK SMILES IDX 33 36 34 38 35 39 36 40 97 41 37 42 96 43 38 44 39 45 40 46
REMARK SMILES IDX 90 47 41 48 95 49 89 50 91 51 42 52 94 53 88 54 87 55 43 57
REMARK SMILES IDX 75 58 55 59 74 60 56 61 59 62 73 63 92 64 57 65 58 66 72 68
REMARK SMILES IDX 93 69 60 70 44 71 45 72 53 73 46 74 48 75 54 76 47 77 49 78
REMARK SMILES IDX 50 79 51 80 52 81 76 82 77 83 85 84 78 85 80 86 86 87 79 88
REMARK SMILES IDX 81 89 82 90 83 91 84 92 61 93 62 94 70 95 63 96 65 97 71 98
REMARK SMILES IDX 64 99 66 100 67 101 68 102 69 103
REMARK H PARENT 25 7 2 13 32 37 91 56 59 67
REMARK Flexibility Score: inf
ROOT
ATOM      1  C   UNL A   1      36.768  22.774  25.598  1.00  0.00     0.002 C 
ENDROOT
BRANCH   1   2
ATOM      2  C   UNL A   1      36.154  23.570  24.448  1.00  0.00     0.021 C 
BRANCH   2   3
ATOM      3  C   UNL A   1      34.758  24.141  24.709  1.00  0.00     0.116 C 
BRANCH   3   4
ATOM      4  N   UNL A   1      34.591  25.609  24.790  1.00  0.00    -0.355 N 
ATOM      5  C   UNL A   1      33.502  26.475  24.860  1.00  0.00     0.234 C 
ATOM      6  O   UNL A   1      33.705  27.605  25.310  1.00  0.00    -0.274 OA
ATOM      7  H   UNL A   1      35.452  26.087  24.795  1.00  0.00     0.163 HD
BRANCH   5   8
ATOM      8  C   UNL A   1      32.147  26.093  24.226  1.00  0.00     0.120 C 
ATOM      9  C   UNL A   1      32.834  29.101  22.674  1.00  0.00     0.332 C 
ATOM     10  N   UNL A   1      31.843  28.039  22.496  1.00  0.00    -0.336 N 
ATOM     11  C   UNL A   1      30.593  28.443  23.137  1.00  0.00     0.262 C 
ATOM     12  C   UNL A   1      32.304  26.646  22.773  1.00  0.00     0.281 C 
ATOM     13  H   UNL A   1      31.668  27.945  21.496  1.00  0.00     0.347 HD
ATOM     14  C   UNL A   1      29.880  27.277  23.764  1.00  0.00     0.068 C 
ATOM     15  C   UNL A   1      30.781  26.615  24.815  1.00  0.00     0.037 C 
ATOM     16  C   UNL A   1      32.026  24.585  24.509  1.00  0.00     0.143 C 
ATOM     17  C   UNL A   1      29.984  25.406  25.325  1.00  0.00     0.125 C 
ATOM     18  N   UNL A   1      30.953  24.379  25.451  1.00  0.00    -0.336 N 
BRANCH  18  19
ATOM     19  C   UNL A   1      30.804  23.340  26.363  1.00  0.00     0.273 C 
ATOM     20  O   UNL A   1      29.935  23.373  27.233  1.00  0.00    -0.267 OA
BRANCH  19  21
ATOM     21  C   UNL A   1      31.755  22.217  26.281  1.00  0.00     0.139 A 
ATOM     22  C   UNL A   1      32.914  22.134  27.028  1.00  0.00     0.101 A 
ATOM     23  N   UNL A   1      31.606  21.181  25.345  1.00  0.00    -0.231 NA
ATOM     24  S   UNL A   1      33.809  20.738  26.594  1.00  0.00    -0.122 S 
ATOM     25  C   UNL A   1      32.646  20.371  25.382  1.00  0.00     0.124 A 
BRANCH  25  26
ATOM     26  C   UNL A   1      32.887  19.262  24.453  1.00  0.00     0.013 A 
ATOM     27  C   UNL A   1      33.783  18.247  24.802  1.00  0.00     0.031 A 
ATOM     28  C   UNL A   1      32.237  19.181  23.219  1.00  0.00     0.031 A 
ATOM     29  C   UNL A   1      33.989  17.206  23.910  1.00  0.00     0.111 A 
ATOM     30  C   UNL A   1      32.518  18.104  22.391  1.00  0.00     0.111 A 
ATOM     31  N   UNL A   1      33.392  17.124  22.702  1.00  0.00    -0.265 NA
ENDBRANCH  25  26
ENDBRANCH  19  21
ENDBRANCH  18  19
ENDBRANCH   5   8
ENDBRANCH   3   4
ENDBRANCH   2   3
ENDBRANCH   1   2
BRANCH   1  32
ATOM     32  C   UNL A   1      37.418  21.440  25.211  1.00  0.00     0.002 C 
BRANCH  32  33
ATOM     33  C   UNL A   1      38.930  21.326  25.446  1.00  0.00     0.021 C 
BRANCH  33  34
ATOM     34  C   UNL A   1      39.344  20.307  26.498  1.00  0.00     0.116 C 
BRANCH  34  35
ATOM     35  N   UNL A   1      40.554  19.600  26.117  1.00  0.00    -0.352 N 
ATOM     36  C   UNL A   1      41.820  20.094  25.911  1.00  0.00     0.251 C 
ATOM     37  H   UNL A   1      40.453  18.630  25.988  1.00  0.00     0.163 HD
ATOM     38  O   UNL A   1      42.666  19.396  25.367  1.00  0.00    -0.269 OA
BRANCH  36  39
ATOM     39  C   UNL A   1      42.151  21.470  26.340  1.00  0.00     0.039 A 
ATOM     40  C   UNL A   1      42.337  22.458  25.370  1.00  0.00     0.014 A 
ATOM     41  C   UNL A   1      42.294  21.782  27.694  1.00  0.00     0.014 A 
ATOM     42  C   UNL A   1      42.624  23.767  25.762  1.00  0.00     0.010 A 
ATOM     43  C   UNL A   1      42.496  23.103  28.086  1.00  0.00     0.010 A 
ATOM     44  C   UNL A   1      42.684  24.106  27.123  1.00  0.00    -0.014 A 
BRANCH  44  45
ATOM     45  C   UNL A   1      42.965  25.498  27.559  1.00  0.00     0.031 A 
ATOM     46  C   UNL A   1      44.379  26.018  27.562  1.00  0.00     0.074 A 
ATOM     47  C   UNL A   1      41.962  26.271  28.019  1.00  0.00     0.049 A 
ATOM     48  N   UNL A   1      44.827  27.184  27.947  1.00  0.00    -0.248 NA
ATOM     49  C   UNL A   1      45.432  25.097  27.100  1.00  0.00     0.031 C 
ATOM     50  C   UNL A   1      40.561  25.858  28.137  1.00  0.00     0.029 A 
ATOM     51  N   UNL A   1      41.968  27.558  28.494  1.00  0.00    -0.354 N 
ATOM     52  C   UNL A   1      46.209  27.126  27.808  1.00  0.00     0.074 A 
ATOM     53  C   UNL A   1      46.530  25.795  27.343  1.00  0.00     0.031 C 
ATOM     54  C   UNL A   1      39.844  26.874  28.643  1.00  0.00     0.029 A 
ATOM     55  C   UNL A   1      40.735  27.998  28.915  1.00  0.00     0.049 A 
ATOM     56  H   UNL A   1      42.780  28.114  28.531  1.00  0.00     0.167 HD
ATOM     57  C   UNL A   1      47.127  28.099  28.018  1.00  0.00     0.034 A 
ATOM     58  C   UNL A   1      40.365  29.170  29.467  1.00  0.00     0.034 A 
ATOM     59  C   UNL A   1      46.801  29.433  28.443  1.00  0.00     0.049 A 
ATOM     60  C   UNL A   1      41.398  30.246  29.659  1.00  0.00     0.074 A 
ATOM     61  C   UNL A   1      47.647  30.516  28.603  1.00  0.00     0.029 A 
ATOM     62  N   UNL A   1      45.529  29.865  28.786  1.00  0.00    -0.354 N 
ATOM     63  N   UNL A   1      42.679  30.221  29.378  1.00  0.00    -0.248 NA
ATOM     64  C   UNL A   1      40.931  31.527  30.209  1.00  0.00     0.031 C 
ATOM     65  C   UNL A   1      46.891  31.593  29.076  1.00  0.00     0.029 A 
ATOM     66  C   UNL A   1      45.568  31.194  29.169  1.00  0.00     0.049 A 
ATOM     67  H   UNL A   1      44.718  29.308  28.761  1.00  0.00     0.167 HD
ATOM     68  C   UNL A   1      43.161  31.490  29.677  1.00  0.00     0.074 A 
ATOM     69  C   UNL A   1      42.030  32.266  30.143  1.00  0.00     0.031 C 
ATOM     70  C   UNL A   1      44.426  31.969  29.583  1.00  0.00     0.034 A 
BRANCH  57  71
ATOM     71  C   UNL A   1      48.574  27.767  27.751  1.00  0.00     0.023 A 
ATOM     72  C   UNL A   1      49.383  27.275  28.796  1.00  0.00     0.012 A 
ATOM     73  C   UNL A   1      49.118  27.893  26.458  1.00  0.00     0.148 A 
ATOM     74  C   UNL A   1      50.720  26.952  28.568  1.00  0.00     0.002 A 
ATOM     75  C   UNL A   1      50.437  27.522  26.227  1.00  0.00     0.091 A 
ATOM     76  F   UNL A   1      48.340  28.383  25.482  1.00  0.00    -0.205 F 
ATOM     77  C   UNL A   1      51.244  27.065  27.282  1.00  0.00     0.022 A 
BRANCH  75  78
ATOM     78  S   UNL A   1      51.182  27.552  24.593  1.00  0.00     0.127 S 
ATOM     79  O   UNL A   1      50.249  26.722  23.830  1.00  0.00    -0.237 OA
ATOM     80  O   UNL A   1      51.141  28.976  24.263  1.00  0.00    -0.237 OA
ATOM     81  O   UNL A   1      52.520  27.001  24.750  1.00  0.00    -0.744 OA
ENDBRANCH  75  78
ENDBRANCH  57  71
BRANCH  58  82
ATOM     82  C   UNL A   1      38.938  29.408  29.826  1.00  0.00     0.023 A 
ATOM     83  C   UNL A   1      38.488  29.106  31.126  1.00  0.00     0.012 A 
ATOM     84  C   UNL A   1      38.032  29.948  28.893  1.00  0.00     0.148 A 
ATOM     85  C   UNL A   1      37.153  29.304  31.481  1.00  0.00     0.002 A 
ATOM     86  C   UNL A   1      36.718  30.196  29.270  1.00  0.00     0.091 A 
ATOM     87  F   UNL A   1      38.478  30.220  27.659  1.00  0.00    -0.205 F 
ATOM     88  C   UNL A   1      36.270  29.857  30.556  1.00  0.00     0.022 A 
BRANCH  86  89
ATOM     89  S   UNL A   1      35.549  31.028  28.190  1.00  0.00     0.127 S 
ATOM     90  O   UNL A   1      35.205  29.967  27.247  1.00  0.00    -0.237 OA
ATOM     91  O   UNL A   1      34.485  31.395  29.125  1.00  0.00    -0.237 OA
ATOM     92  O   UNL A   1      36.271  32.163  27.628  1.00  0.00    -0.744 OA
ENDBRANCH  86  89
ENDBRANCH  58  82
BRANCH  70  93
ATOM     93  C   UNL A   1      44.656  33.413  29.942  1.00  0.00     0.023 A 
ATOM     94  C   UNL A   1      44.551  34.414  28.956  1.00  0.00     0.012 A 
ATOM     95  C   UNL A   1      44.909  33.784  31.278  1.00  0.00     0.148 A 
ATOM     96  C   UNL A   1      44.731  35.757  29.286  1.00  0.00     0.002 A 
ATOM     97  C   UNL A   1      45.033  35.126  31.610  1.00  0.00     0.091 A 
ATOM     98  F   UNL A   1      45.023  32.816  32.199  1.00  0.00    -0.205 F 
ATOM     99  C   UNL A   1      44.960  36.114  30.614  1.00  0.00     0.022 A 
BRANCH  97 100
ATOM    100  S   UNL A   1      45.227  35.685  33.306  1.00  0.00     0.127 S 
ATOM    101  O   UNL A   1      45.275  37.136  33.138  1.00  0.00    -0.237 OA
ATOM    102  O   UNL A   1      44.006  35.184  33.938  1.00  0.00    -0.237 OA
ATOM    103  O   UNL A   1      46.455  35.072  33.794  1.00  0.00    -0.744 OA
ENDBRANCH  97 100
ENDBRANCH  70  93
ENDBRANCH  44  45
ENDBRANCH  36  39
ENDBRANCH  34  35
ENDBRANCH  33  34
ENDBRANCH  32  33
ENDBRANCH   1  32
TORSDOF 19
ENDMDL
