MODEL 1
REMARK VINA RESULT:      -9.9      0.000      0.000
REMARK SMILES C=C(C)C(=O)OCC[C@@H](C(C)=O)C(=O)NCCCCCCNC(=O)c1ccc(-c2c3nc(c(-c4cccc(S(=O)(=O)[O-])c4F)c4ccc([nH]4)c(-c4cccc(S(=O)(=O)[O-])c4F)c4nc(c(-c5cccc(S(=O)(=O)[O-])c5F)c5ccc2[nH]5)C=C4)C=C3)cc1
REMARK SMILES IDX 17 1 16 2 15 3 13 4 14 5 9 7 8 8 7 9 6 10 4 11 5 12 2 13
REMARK SMILES IDX 1 14 3 15 10 16 11 17 12 18 18 19 19 20 20 21 21 22 22 23
REMARK SMILES IDX 23 24 24 26 25 27 26 28 87 29 27 30 86 31 28 32 29 33 30 34
REMARK SMILES IDX 80 35 31 36 85 37 79 38 81 39 32 40 84 41 78 42 77 43 33 45
REMARK SMILES IDX 65 46 45 47 64 48 46 49 49 50 63 51 82 52 47 53 48 54 62 56
REMARK SMILES IDX 83 57 50 58 34 59 35 60 43 61 36 62 38 63 44 64 37 65 39 66
REMARK SMILES IDX 40 67 41 68 42 69 66 70 67 71 75 72 68 73 70 74 76 75 69 76
REMARK SMILES IDX 71 77 72 78 73 79 74 80 51 81 52 82 60 83 53 84 55 85 61 86
REMARK SMILES IDX 54 87 56 88 57 89 58 90 59 91
REMARK H PARENT 15 6 22 25 81 44 49 55
REMARK Flexibility Score: inf
ROOT
ATOM      1  C   UNL A   1      36.275  23.264  25.646  1.00  0.00     0.021 C 
ENDROOT
BRANCH   1   2
ATOM      2  C   UNL A   1      35.023  23.987  25.173  1.00  0.00     0.116 C 
BRANCH   2   3
ATOM      3  N   UNL A   1      34.810  23.777  23.751  1.00  0.00    -0.355 N 
ATOM      4  C   UNL A   1      33.695  23.360  23.094  1.00  0.00     0.230 C 
ATOM      5  O   UNL A   1      33.748  23.248  21.867  1.00  0.00    -0.274 OA
ATOM      6  H   UNL A   1      35.587  23.965  23.179  1.00  0.00     0.163 HD
BRANCH   4   7
ATOM      7  C   UNL A   1      32.427  23.030  23.855  1.00  0.00     0.148 C 
BRANCH   7   8
ATOM      8  C   UNL A   1      32.775  22.096  25.033  1.00  0.00     0.063 C 
BRANCH   8   9
ATOM      9  C   UNL A   1      32.172  20.694  24.959  1.00  0.00     0.234 C 
BRANCH   9  10
ATOM     10  O   UNL A   1      33.044  19.802  24.254  1.00  0.00    -0.462 OA
BRANCH  10  11
ATOM     11  C   UNL A   1      32.890  18.483  24.513  1.00  0.00     0.333 C 
ATOM     12  O   UNL A   1      31.895  17.938  24.966  1.00  0.00    -0.247 OA
BRANCH  11  13
ATOM     13  C   UNL A   1      34.107  17.762  24.068  1.00  0.00     0.027 C 
ATOM     14  C   UNL A   1      35.286  18.191  24.544  1.00  0.00     0.020 C 
ATOM     15  C   UNL A   1      33.947  16.630  23.107  1.00  0.00     0.051 C 
ENDBRANCH  11  13
ENDBRANCH  10  11
ENDBRANCH   9  10
ENDBRANCH   8   9
ENDBRANCH   7   8
BRANCH   7  16
ATOM     16  C   UNL A   1      31.656  24.285  24.250  1.00  0.00     0.142 C 
ATOM     17  C   UNL A   1      31.300  25.276  23.166  1.00  0.00     0.088 C 
ATOM     18  O   UNL A   1      31.312  24.500  25.414  1.00  0.00    -0.299 OA
ENDBRANCH   7  16
ENDBRANCH   4   7
ENDBRANCH   2   3
ENDBRANCH   1   2
BRANCH   1  19
ATOM     19  C   UNL A   1      36.248  21.759  25.372  1.00  0.00     0.002 C 
BRANCH  19  20
ATOM     20  C   UNL A   1      37.321  21.272  24.393  1.00  0.00     0.002 C 
BRANCH  20  21
ATOM     21  C   UNL A   1      38.082  20.021  24.842  1.00  0.00     0.021 C 
BRANCH  21  22
ATOM     22  C   UNL A   1      38.954  20.224  26.074  1.00  0.00     0.116 C 
BRANCH  22  23
ATOM     23  N   UNL A   1      40.051  19.272  26.122  1.00  0.00    -0.352 N 
ATOM     24  C   UNL A   1      41.399  19.511  26.187  1.00  0.00     0.251 C 
ATOM     25  H   UNL A   1      39.790  18.322  26.103  1.00  0.00     0.163 HD
ATOM     26  O   UNL A   1      42.195  18.593  26.014  1.00  0.00    -0.269 OA
BRANCH  24  27
ATOM     27  C   UNL A   1      41.883  20.881  26.453  1.00  0.00     0.039 A 
ATOM     28  C   UNL A   1      42.071  21.747  25.375  1.00  0.00     0.014 A 
ATOM     29  C   UNL A   1      42.153  21.307  27.757  1.00  0.00     0.014 A 
ATOM     30  C   UNL A   1      42.493  23.056  25.610  1.00  0.00     0.010 A 
ATOM     31  C   UNL A   1      42.495  22.635  27.995  1.00  0.00     0.010 A 
ATOM     32  C   UNL A   1      42.685  23.518  26.924  1.00  0.00    -0.014 A 
BRANCH  32  33
ATOM     33  C   UNL A   1      43.073  24.928  27.180  1.00  0.00     0.031 A 
ATOM     34  C   UNL A   1      42.102  25.887  27.813  1.00  0.00     0.074 A 
ATOM     35  C   UNL A   1      44.288  25.357  26.787  1.00  0.00     0.049 A 
ATOM     36  N   UNL A   1      42.279  27.142  28.134  1.00  0.00    -0.248 NA
ATOM     37  C   UNL A   1      40.749  25.382  28.099  1.00  0.00     0.031 C 
ATOM     38  C   UNL A   1      45.279  24.548  26.074  1.00  0.00     0.029 A 
ATOM     39  N   UNL A   1      44.889  26.584  26.914  1.00  0.00    -0.354 N 
ATOM     40  C   UNL A   1      41.057  27.586  28.627  1.00  0.00     0.074 A 
ATOM     41  C   UNL A   1      40.135  26.475  28.526  1.00  0.00     0.031 C 
ATOM     42  C   UNL A   1      46.371  25.294  25.844  1.00  0.00     0.029 A 
ATOM     43  C   UNL A   1      46.149  26.638  26.367  1.00  0.00     0.049 A 
ATOM     44  H   UNL A   1      44.459  27.351  27.356  1.00  0.00     0.167 HD
ATOM     45  C   UNL A   1      40.739  28.796  29.145  1.00  0.00     0.034 A 
ATOM     46  C   UNL A   1      47.029  27.655  26.296  1.00  0.00     0.034 A 
ATOM     47  C   UNL A   1      41.671  29.882  29.274  1.00  0.00     0.049 A 
ATOM     48  C   UNL A   1      46.675  28.972  26.931  1.00  0.00     0.074 A 
ATOM     49  C   UNL A   1      41.479  31.115  29.873  1.00  0.00     0.029 A 
ATOM     50  N   UNL A   1      42.970  29.874  28.785  1.00  0.00    -0.354 N 
ATOM     51  N   UNL A   1      45.572  29.317  27.551  1.00  0.00    -0.248 NA
ATOM     52  C   UNL A   1      47.700  30.024  26.896  1.00  0.00     0.031 C 
ATOM     53  C   UNL A   1      42.650  31.864  29.716  1.00  0.00     0.029 A 
ATOM     54  C   UNL A   1      43.586  31.084  29.056  1.00  0.00     0.049 A 
ATOM     55  H   UNL A   1      43.390  29.119  28.315  1.00  0.00     0.167 HD
ATOM     56  C   UNL A   1      45.784  30.611  28.014  1.00  0.00     0.074 A 
ATOM     57  C   UNL A   1      47.128  30.979  27.616  1.00  0.00     0.031 C 
ATOM     58  C   UNL A   1      44.939  31.422  28.697  1.00  0.00     0.034 A 
BRANCH  45  59
ATOM     59  C   UNL A   1      39.333  28.992  29.653  1.00  0.00     0.023 A 
ATOM     60  C   UNL A   1      39.000  28.590  30.963  1.00  0.00     0.012 A 
ATOM     61  C   UNL A   1      38.356  29.621  28.857  1.00  0.00     0.148 A 
ATOM     62  C   UNL A   1      37.709  28.770  31.457  1.00  0.00     0.002 A 
ATOM     63  C   UNL A   1      37.085  29.843  29.374  1.00  0.00     0.091 A 
ATOM     64  F   UNL A   1      38.683  29.980  27.607  1.00  0.00    -0.205 F 
ATOM     65  C   UNL A   1      36.756  29.406  30.668  1.00  0.00     0.022 A 
BRANCH  63  66
ATOM     66  S   UNL A   1      35.812  30.729  28.467  1.00  0.00     0.127 S 
ATOM     67  O   UNL A   1      36.581  31.821  27.872  1.00  0.00    -0.237 OA
ATOM     68  O   UNL A   1      35.353  29.717  27.515  1.00  0.00    -0.237 OA
ATOM     69  O   UNL A   1      34.819  31.127  29.455  1.00  0.00    -0.744 OA
ENDBRANCH  63  66
ENDBRANCH  45  59
BRANCH  46  70
ATOM     70  C   UNL A   1      48.360  27.438  25.662  1.00  0.00     0.023 A 
ATOM     71  C   UNL A   1      49.448  27.022  26.454  1.00  0.00     0.012 A 
ATOM     72  C   UNL A   1      48.540  27.595  24.274  1.00  0.00     0.148 A 
ATOM     73  C   UNL A   1      50.700  26.797  25.881  1.00  0.00     0.002 A 
ATOM     74  C   UNL A   1      49.774  27.313  23.701  1.00  0.00     0.091 A 
ATOM     75  F   UNL A   1      47.493  27.997  23.541  1.00  0.00    -0.205 F 
ATOM     76  C   UNL A   1      50.860  26.931  24.504  1.00  0.00     0.022 A 
BRANCH  74  77
ATOM     77  S   UNL A   1      50.036  27.325  21.925  1.00  0.00     0.127 S 
ATOM     78  O   UNL A   1      51.408  26.834  21.822  1.00  0.00    -0.237 OA
ATOM     79  O   UNL A   1      49.010  26.389  21.464  1.00  0.00    -0.237 OA
ATOM     80  O   UNL A   1      49.824  28.704  21.504  1.00  0.00    -0.744 OA
ENDBRANCH  74  77
ENDBRANCH  46  70
BRANCH  58  81
ATOM     81  C   UNL A   1      45.451  32.780  29.104  1.00  0.00     0.023 A 
ATOM     82  C   UNL A   1      46.097  32.948  30.345  1.00  0.00     0.012 A 
ATOM     83  C   UNL A   1      45.351  33.872  28.221  1.00  0.00     0.148 A 
ATOM     84  C   UNL A   1      46.605  34.194  30.714  1.00  0.00     0.002 A 
ATOM     85  C   UNL A   1      45.906  35.096  28.573  1.00  0.00     0.091 A 
ATOM     86  F   UNL A   1      44.716  33.696  27.053  1.00  0.00    -0.205 F 
ATOM     87  C   UNL A   1      46.521  35.263  29.825  1.00  0.00     0.022 A 
BRANCH  85  88
ATOM     88  S   UNL A   1      45.934  36.498  27.451  1.00  0.00     0.127 S 
ATOM     89  O   UNL A   1      46.319  35.863  26.191  1.00  0.00    -0.237 OA
ATOM     90  O   UNL A   1      44.548  36.963  27.501  1.00  0.00    -0.237 OA
ATOM     91  O   UNL A   1      46.905  37.434  28.002  1.00  0.00    -0.744 OA
ENDBRANCH  85  88
ENDBRANCH  58  81
ENDBRANCH  32  33
ENDBRANCH  24  27
ENDBRANCH  22  23
ENDBRANCH  21  22
ENDBRANCH  20  21
ENDBRANCH  19  20
ENDBRANCH   1  19
TORSDOF 22
ENDMDL
MODEL 2
REMARK VINA RESULT:      -9.8      2.100      3.611
REMARK SMILES C=C(C)C(=O)OCC[C@@H](C(C)=O)C(=O)NCCCCCCNC(=O)c1ccc(-c2c3nc(c(-c4cccc(S(=O)(=O)[O-])c4F)c4ccc([nH]4)c(-c4cccc(S(=O)(=O)[O-])c4F)c4nc(c(-c5cccc(S(=O)(=O)[O-])c5F)c5ccc2[nH]5)C=C4)C=C3)cc1
REMARK SMILES IDX 17 1 16 2 15 3 13 4 14 5 9 7 8 8 7 9 6 10 4 11 5 12 2 13
REMARK SMILES IDX 1 14 3 15 10 16 11 17 12 18 18 19 19 20 20 21 21 22 22 23
REMARK SMILES IDX 23 24 24 26 25 27 26 28 87 29 27 30 86 31 28 32 29 33 30 34
REMARK SMILES IDX 80 35 31 36 85 37 79 38 81 39 32 40 84 41 78 42 77 43 33 45
REMARK SMILES IDX 65 46 45 47 64 48 46 49 49 50 63 51 82 52 47 53 48 54 62 56
REMARK SMILES IDX 83 57 50 58 34 59 35 60 43 61 36 62 38 63 44 64 37 65 39 66
REMARK SMILES IDX 40 67 41 68 42 69 66 70 67 71 75 72 68 73 70 74 76 75 69 76
REMARK SMILES IDX 71 77 72 78 73 79 74 80 51 81 52 82 60 83 53 84 55 85 61 86
REMARK SMILES IDX 54 87 56 88 57 89 58 90 59 91
REMARK H PARENT 15 6 22 25 81 44 49 55
REMARK Flexibility Score: inf
ROOT
ATOM      1  C   UNL A   1      36.224  23.313  25.896  1.00  0.00     0.021 C 
ENDROOT
BRANCH   1   2
ATOM      2  C   UNL A   1      35.089  24.191  25.390  1.00  0.00     0.116 C 
BRANCH   2   3
ATOM      3  N   UNL A   1      34.814  23.926  23.989  1.00  0.00    -0.355 N 
ATOM      4  C   UNL A   1      34.029  24.611  23.114  1.00  0.00     0.230 C 
ATOM      5  O   UNL A   1      33.940  24.191  21.958  1.00  0.00    -0.274 OA
ATOM      6  H   UNL A   1      35.261  23.132  23.617  1.00  0.00     0.163 HD
BRANCH   4   7
ATOM      7  C   UNL A   1      33.278  25.849  23.557  1.00  0.00     0.148 C 
BRANCH   7   8
ATOM      8  C   UNL A   1      33.560  26.993  22.560  1.00  0.00     0.063 C 
BRANCH   8   9
ATOM      9  C   UNL A   1      33.512  28.403  23.147  1.00  0.00     0.234 C 
BRANCH   9  10
ATOM     10  O   UNL A   1      33.630  28.363  24.575  1.00  0.00    -0.462 OA
BRANCH  10  11
ATOM     11  C   UNL A   1      32.622  28.930  25.276  1.00  0.00     0.333 C 
ATOM     12  O   UNL A   1      31.582  29.383  24.824  1.00  0.00    -0.247 OA
BRANCH  11  13
ATOM     13  C   UNL A   1      32.932  28.835  26.723  1.00  0.00     0.027 C 
ATOM     14  C   UNL A   1      34.171  29.177  27.112  1.00  0.00     0.020 C 
ATOM     15  C   UNL A   1      31.864  28.347  27.646  1.00  0.00     0.051 C 
ENDBRANCH  11  13
ENDBRANCH  10  11
ENDBRANCH   9  10
ENDBRANCH   8   9
ENDBRANCH   7   8
BRANCH   7  16
ATOM     16  C   UNL A   1      31.799  25.566  23.792  1.00  0.00     0.142 C 
ATOM     17  C   UNL A   1      31.281  25.603  25.211  1.00  0.00     0.088 C 
ATOM     18  O   UNL A   1      31.025  25.324  22.863  1.00  0.00    -0.299 OA
ENDBRANCH   7  16
ENDBRANCH   4   7
ENDBRANCH   2   3
ENDBRANCH   1   2
BRANCH   1  19
ATOM     19  C   UNL A   1      36.142  21.868  25.399  1.00  0.00     0.002 C 
BRANCH  19  20
ATOM     20  C   UNL A   1      37.312  21.436  24.507  1.00  0.00     0.002 C 
BRANCH  20  21
ATOM     21  C   UNL A   1      38.063  20.192  24.990  1.00  0.00     0.021 C 
BRANCH  21  22
ATOM     22  C   UNL A   1      39.166  20.475  26.002  1.00  0.00     0.116 C 
BRANCH  22  23
ATOM     23  N   UNL A   1      40.173  19.427  26.009  1.00  0.00    -0.352 N 
ATOM     24  C   UNL A   1      41.538  19.542  26.073  1.00  0.00     0.251 C 
ATOM     25  H   UNL A   1      39.828  18.506  25.961  1.00  0.00     0.163 HD
ATOM     26  O   UNL A   1      42.247  18.563  25.864  1.00  0.00    -0.269 OA
BRANCH  24  27
ATOM     27  C   UNL A   1      42.144  20.854  26.380  1.00  0.00     0.039 A 
ATOM     28  C   UNL A   1      42.439  21.720  25.327  1.00  0.00     0.014 A 
ATOM     29  C   UNL A   1      42.422  21.225  27.699  1.00  0.00     0.014 A 
ATOM     30  C   UNL A   1      42.979  22.977  25.601  1.00  0.00     0.010 A 
ATOM     31  C   UNL A   1      42.885  22.508  27.975  1.00  0.00     0.010 A 
ATOM     32  C   UNL A   1      43.183  23.391  26.928  1.00  0.00    -0.014 A 
BRANCH  32  33
ATOM     33  C   UNL A   1      43.698  24.751  27.226  1.00  0.00     0.031 A 
ATOM     34  C   UNL A   1      42.774  25.828  27.726  1.00  0.00     0.074 A 
ATOM     35  C   UNL A   1      44.994  25.030  26.986  1.00  0.00     0.049 A 
ATOM     36  N   UNL A   1      43.055  27.060  28.061  1.00  0.00    -0.248 NA
ATOM     37  C   UNL A   1      41.347  25.488  27.842  1.00  0.00     0.031 C 
ATOM     38  C   UNL A   1      45.965  24.099  26.409  1.00  0.00     0.029 A 
ATOM     39  N   UNL A   1      45.714  26.181  27.183  1.00  0.00    -0.354 N 
ATOM     40  C   UNL A   1      41.842  27.651  28.394  1.00  0.00     0.074 A 
ATOM     41  C   UNL A   1      40.816  26.653  28.183  1.00  0.00     0.031 C 
ATOM     42  C   UNL A   1      47.157  24.709  26.315  1.00  0.00     0.029 A 
ATOM     43  C   UNL A   1      47.030  26.079  26.799  1.00  0.00     0.049 A 
ATOM     44  H   UNL A   1      45.325  27.002  27.563  1.00  0.00     0.167 HD
ATOM     45  C   UNL A   1      41.605  28.900  28.862  1.00  0.00     0.034 A 
ATOM     46  C   UNL A   1      48.025  26.987  26.835  1.00  0.00     0.034 A 
ATOM     47  C   UNL A   1      42.635  29.874  29.102  1.00  0.00     0.049 A 
ATOM     48  C   UNL A   1      47.750  28.347  27.414  1.00  0.00     0.074 A 
ATOM     49  C   UNL A   1      42.514  31.132  29.667  1.00  0.00     0.029 A 
ATOM     50  N   UNL A   1      43.974  29.707  28.782  1.00  0.00    -0.354 N 
ATOM     51  N   UNL A   1      46.627  28.829  27.889  1.00  0.00    -0.248 NA
ATOM     52  C   UNL A   1      48.888  29.273  27.504  1.00  0.00     0.031 C 
ATOM     53  C   UNL A   1      43.775  31.738  29.656  1.00  0.00     0.029 A 
ATOM     54  C   UNL A   1      44.688  30.842  29.123  1.00  0.00     0.049 A 
ATOM     55  H   UNL A   1      44.359  28.899  28.372  1.00  0.00     0.167 HD
ATOM     56  C   UNL A   1      46.929  30.099  28.368  1.00  0.00     0.074 A 
ATOM     57  C   UNL A   1      48.345  30.302  28.142  1.00  0.00     0.031 C 
ATOM     58  C   UNL A   1      46.106  31.015  28.936  1.00  0.00     0.034 A 
BRANCH  45  59
ATOM     59  C   UNL A   1      40.179  29.267  29.188  1.00  0.00     0.023 A 
ATOM     60  C   UNL A   1      39.294  29.621  28.149  1.00  0.00     0.012 A 
ATOM     61  C   UNL A   1      39.701  29.211  30.511  1.00  0.00     0.148 A 
ATOM     62  C   UNL A   1      37.969  29.956  28.425  1.00  0.00     0.002 A 
ATOM     63  C   UNL A   1      38.366  29.497  30.773  1.00  0.00     0.091 A 
ATOM     64  F   UNL A   1      40.560  28.893  31.490  1.00  0.00    -0.205 F 
ATOM     65  C   UNL A   1      37.503  29.884  29.734  1.00  0.00     0.022 A 
BRANCH  63  66
ATOM     66  S   UNL A   1      37.648  29.352  32.414  1.00  0.00     0.127 S 
ATOM     67  O   UNL A   1      38.469  30.291  33.178  1.00  0.00    -0.237 OA
ATOM     68  O   UNL A   1      36.271  29.791  32.187  1.00  0.00    -0.237 OA
ATOM     69  O   UNL A   1      37.785  27.951  32.789  1.00  0.00    -0.744 OA
ENDBRANCH  63  66
ENDBRANCH  45  59
BRANCH  46  70
ATOM     70  C   UNL A   1      49.390  26.606  26.375  1.00  0.00     0.023 A 
ATOM     71  C   UNL A   1      50.155  25.704  27.141  1.00  0.00     0.012 A 
ATOM     72  C   UNL A   1      49.912  27.093  25.162  1.00  0.00     0.148 A 
ATOM     73  C   UNL A   1      51.430  25.319  26.722  1.00  0.00     0.002 A 
ATOM     74  C   UNL A   1      51.158  26.661  24.723  1.00  0.00     0.091 A 
ATOM     75  F   UNL A   1      49.170  27.954  24.453  1.00  0.00    -0.205 F 
ATOM     76  C   UNL A   1      51.926  25.789  25.509  1.00  0.00     0.022 A 
BRANCH  74  77
ATOM     77  S   UNL A   1      51.817  27.103  23.112  1.00  0.00     0.127 S 
ATOM     78  O   UNL A   1      52.791  26.038  22.884  1.00  0.00    -0.237 OA
ATOM     79  O   UNL A   1      50.623  27.037  22.269  1.00  0.00    -0.237 OA
ATOM     80  O   UNL A   1      52.370  28.442  23.266  1.00  0.00    -0.744 OA
ENDBRANCH  74  77
ENDBRANCH  46  70
BRANCH  58  81
ATOM     81  C   UNL A   1      46.718  32.312  29.398  1.00  0.00     0.023 A 
ATOM     82  C   UNL A   1      47.279  32.409  30.687  1.00  0.00     0.012 A 
ATOM     83  C   UNL A   1      46.798  33.413  28.523  1.00  0.00     0.148 A 
ATOM     84  C   UNL A   1      47.878  33.595  31.110  1.00  0.00     0.002 A 
ATOM     85  C   UNL A   1      47.444  34.573  28.933  1.00  0.00     0.091 A 
ATOM     86  F   UNL A   1      46.242  33.307  27.308  1.00  0.00    -0.205 F 
ATOM     87  C   UNL A   1      47.972  34.671  30.230  1.00  0.00     0.022 A 
BRANCH  85  88
ATOM     88  S   UNL A   1      47.700  35.970  27.833  1.00  0.00     0.127 S 
ATOM     89  O   UNL A   1      46.331  36.440  27.625  1.00  0.00    -0.237 OA
ATOM     90  O   UNL A   1      48.532  36.857  28.646  1.00  0.00    -0.237 OA
ATOM     91  O   UNL A   1      48.364  35.435  26.652  1.00  0.00    -0.744 OA
ENDBRANCH  85  88
ENDBRANCH  58  81
ENDBRANCH  32  33
ENDBRANCH  24  27
ENDBRANCH  22  23
ENDBRANCH  21  22
ENDBRANCH  20  21
ENDBRANCH  19  20
ENDBRANCH   1  19
TORSDOF 22
ENDMDL
MODEL 3
REMARK VINA RESULT:      -9.7      1.435      3.004
REMARK SMILES C=C(C)C(=O)OCC[C@@H](C(C)=O)C(=O)NCCCCCCNC(=O)c1ccc(-c2c3nc(c(-c4cccc(S(=O)(=O)[O-])c4F)c4ccc([nH]4)c(-c4cccc(S(=O)(=O)[O-])c4F)c4nc(c(-c5cccc(S(=O)(=O)[O-])c5F)c5ccc2[nH]5)C=C4)C=C3)cc1
REMARK SMILES IDX 17 1 16 2 15 3 13 4 14 5 9 7 8 8 7 9 6 10 4 11 5 12 2 13
REMARK SMILES IDX 1 14 3 15 10 16 11 17 12 18 18 19 19 20 20 21 21 22 22 23
REMARK SMILES IDX 23 24 24 26 25 27 26 28 87 29 27 30 86 31 28 32 29 33 30 34
REMARK SMILES IDX 80 35 31 36 85 37 79 38 81 39 32 40 84 41 78 42 77 43 33 45
REMARK SMILES IDX 65 46 45 47 64 48 46 49 49 50 63 51 82 52 47 53 48 54 62 56
REMARK SMILES IDX 83 57 50 58 34 59 35 60 43 61 36 62 38 63 44 64 37 65 39 66
REMARK SMILES IDX 40 67 41 68 42 69 66 70 67 71 75 72 68 73 70 74 76 75 69 76
REMARK SMILES IDX 71 77 72 78 73 79 74 80 51 81 52 82 60 83 53 84 55 85 61 86
REMARK SMILES IDX 54 87 56 88 57 89 58 90 59 91
REMARK H PARENT 15 6 22 25 81 44 49 55
REMARK Flexibility Score: inf
ROOT
ATOM      1  C   UNL A   1      36.695  22.896  25.875  1.00  0.00     0.021 C 
ENDROOT
BRANCH   1   2
ATOM      2  C   UNL A   1      35.816  24.096  25.562  1.00  0.00     0.116 C 
BRANCH   2   3
ATOM      3  N   UNL A   1      34.688  23.710  24.732  1.00  0.00    -0.355 N 
ATOM      4  C   UNL A   1      33.384  24.088  24.810  1.00  0.00     0.230 C 
ATOM      5  O   UNL A   1      32.591  23.622  23.988  1.00  0.00    -0.274 OA
ATOM      6  H   UNL A   1      34.899  23.082  24.004  1.00  0.00     0.163 HD
BRANCH   4   7
ATOM      7  C   UNL A   1      32.921  25.048  25.887  1.00  0.00     0.148 C 
BRANCH   7   8
ATOM      8  C   UNL A   1      33.122  26.495  25.392  1.00  0.00     0.063 C 
BRANCH   8   9
ATOM      9  C   UNL A   1      33.276  26.657  23.880  1.00  0.00     0.234 C 
BRANCH   9  10
ATOM     10  O   UNL A   1      32.347  27.625  23.376  1.00  0.00    -0.462 OA
BRANCH  10  11
ATOM     11  C   UNL A   1      31.352  27.149  22.593  1.00  0.00     0.333 C 
ATOM     12  O   UNL A   1      31.409  26.191  21.838  1.00  0.00    -0.247 OA
BRANCH  11  13
ATOM     13  C   UNL A   1      30.118  27.927  22.862  1.00  0.00     0.027 C 
ATOM     14  C   UNL A   1      29.126  27.302  23.515  1.00  0.00     0.020 C 
ATOM     15  C   UNL A   1      30.048  29.336  22.372  1.00  0.00     0.051 C 
ENDBRANCH  11  13
ENDBRANCH  10  11
ENDBRANCH   9  10
ENDBRANCH   8   9
ENDBRANCH   7   8
BRANCH   7  16
ATOM     16  C   UNL A   1      31.507  24.733  26.361  1.00  0.00     0.142 C 
ATOM     17  C   UNL A   1      31.210  23.330  26.838  1.00  0.00     0.088 C 
ATOM     18  O   UNL A   1      30.618  25.587  26.377  1.00  0.00    -0.299 OA
ENDBRANCH   7  16
ENDBRANCH   4   7
ENDBRANCH   2   3
ENDBRANCH   1   2
BRANCH   1  19
ATOM     19  C   UNL A   1      36.269  21.622  25.143  1.00  0.00     0.002 C 
BRANCH  19  20
ATOM     20  C   UNL A   1      37.381  20.957  24.324  1.00  0.00     0.002 C 
BRANCH  20  21
ATOM     21  C   UNL A   1      38.058  19.766  25.008  1.00  0.00     0.021 C 
BRANCH  21  22
ATOM     22  C   UNL A   1      39.060  20.148  26.090  1.00  0.00     0.116 C 
BRANCH  22  23
ATOM     23  N   UNL A   1      40.162  19.203  26.163  1.00  0.00    -0.352 N 
ATOM     24  C   UNL A   1      41.509  19.450  26.224  1.00  0.00     0.251 C 
ATOM     25  H   UNL A   1      39.905  18.252  26.170  1.00  0.00     0.163 HD
ATOM     26  O   UNL A   1      42.309  18.531  26.076  1.00  0.00    -0.269 OA
BRANCH  24  27
ATOM     27  C   UNL A   1      41.986  20.829  26.452  1.00  0.00     0.039 A 
ATOM     28  C   UNL A   1      42.109  21.687  25.359  1.00  0.00     0.014 A 
ATOM     29  C   UNL A   1      42.313  21.272  27.738  1.00  0.00     0.014 A 
ATOM     30  C   UNL A   1      42.525  23.003  25.561  1.00  0.00     0.010 A 
ATOM     31  C   UNL A   1      42.648  22.606  27.947  1.00  0.00     0.010 A 
ATOM     32  C   UNL A   1      42.773  23.481  26.859  1.00  0.00    -0.014 A 
BRANCH  32  33
ATOM     33  C   UNL A   1      43.154  24.898  27.084  1.00  0.00     0.031 A 
ATOM     34  C   UNL A   1      42.206  25.848  27.764  1.00  0.00     0.074 A 
ATOM     35  C   UNL A   1      44.338  25.343  26.618  1.00  0.00     0.049 A 
ATOM     36  N   UNL A   1      42.382  27.108  28.065  1.00  0.00    -0.248 NA
ATOM     37  C   UNL A   1      40.879  25.325  28.130  1.00  0.00     0.031 C 
ATOM     38  C   UNL A   1      45.299  24.542  25.857  1.00  0.00     0.029 A 
ATOM     39  N   UNL A   1      44.927  26.579  26.703  1.00  0.00    -0.354 N 
ATOM     40  C   UNL A   1      41.183  27.538  28.624  1.00  0.00     0.074 A 
ATOM     41  C   UNL A   1      40.274  26.413  28.583  1.00  0.00     0.031 C 
ATOM     42  C   UNL A   1      46.365  25.302  25.560  1.00  0.00     0.029 A 
ATOM     43  C   UNL A   1      46.153  26.647  26.085  1.00  0.00     0.049 A 
ATOM     44  H   UNL A   1      44.511  27.343  27.163  1.00  0.00     0.167 HD
ATOM     45  C   UNL A   1      40.877  28.747  29.151  1.00  0.00     0.034 A 
ATOM     46  C   UNL A   1      47.012  27.677  25.957  1.00  0.00     0.034 A 
ATOM     47  C   UNL A   1      41.799  29.848  29.219  1.00  0.00     0.049 A 
ATOM     48  C   UNL A   1      46.674  28.993  26.602  1.00  0.00     0.074 A 
ATOM     49  C   UNL A   1      41.621  31.082  29.819  1.00  0.00     0.029 A 
ATOM     50  N   UNL A   1      43.067  29.855  28.658  1.00  0.00    -0.354 N 
ATOM     51  N   UNL A   1      45.604  29.326  27.282  1.00  0.00    -0.248 NA
ATOM     52  C   UNL A   1      47.680  30.059  26.501  1.00  0.00     0.031 C 
ATOM     53  C   UNL A   1      42.770  31.847  29.591  1.00  0.00     0.029 A 
ATOM     54  C   UNL A   1      43.679  31.076  28.885  1.00  0.00     0.049 A 
ATOM     55  H   UNL A   1      43.472  29.103  28.169  1.00  0.00     0.167 HD
ATOM     56  C   UNL A   1      45.822  30.627  27.722  1.00  0.00     0.074 A 
ATOM     57  C   UNL A   1      47.135  31.012  27.247  1.00  0.00     0.031 C 
ATOM     58  C   UNL A   1      45.005  31.431  28.447  1.00  0.00     0.034 A 
BRANCH  45  59
ATOM     59  C   UNL A   1      39.499  28.927  29.736  1.00  0.00     0.023 A 
ATOM     60  C   UNL A   1      39.240  28.504  31.057  1.00  0.00     0.012 A 
ATOM     61  C   UNL A   1      38.477  29.560  29.003  1.00  0.00     0.148 A 
ATOM     62  C   UNL A   1      37.976  28.668  31.622  1.00  0.00     0.002 A 
ATOM     63  C   UNL A   1      37.234  29.766  29.591  1.00  0.00     0.091 A 
ATOM     64  F   UNL A   1      38.733  29.938  27.742  1.00  0.00    -0.205 F 
ATOM     65  C   UNL A   1      36.978  29.308  30.894  1.00  0.00     0.022 A 
BRANCH  63  66
ATOM     66  S   UNL A   1      35.908  30.655  28.766  1.00  0.00     0.127 S 
ATOM     67  O   UNL A   1      35.189  31.231  29.903  1.00  0.00    -0.237 OA
ATOM     68  O   UNL A   1      36.646  31.625  27.956  1.00  0.00    -0.237 OA
ATOM     69  O   UNL A   1      35.173  29.659  28.000  1.00  0.00    -0.744 OA
ENDBRANCH  63  66
ENDBRANCH  45  59
BRANCH  46  70
ATOM     70  C   UNL A   1      48.308  27.474  25.250  1.00  0.00     0.023 A 
ATOM     71  C   UNL A   1      49.441  27.065  25.980  1.00  0.00     0.012 A 
ATOM     72  C   UNL A   1      48.410  27.638  23.855  1.00  0.00     0.148 A 
ATOM     73  C   UNL A   1      50.662  26.853  25.337  1.00  0.00     0.002 A 
ATOM     74  C   UNL A   1      49.613  27.370  23.214  1.00  0.00     0.091 A 
ATOM     75  F   UNL A   1      47.321  28.034  23.183  1.00  0.00    -0.205 F 
ATOM     76  C   UNL A   1      50.745  26.995  23.954  1.00  0.00     0.022 A 
BRANCH  74  77
ATOM     77  S   UNL A   1      49.777  27.392  21.426  1.00  0.00     0.127 S 
ATOM     78  O   UNL A   1      48.696  26.498  21.016  1.00  0.00    -0.237 OA
ATOM     79  O   UNL A   1      49.556  28.805  21.121  1.00  0.00    -0.237 OA
ATOM     80  O   UNL A   1      51.127  26.921  21.148  1.00  0.00    -0.744 OA
ENDBRANCH  74  77
ENDBRANCH  46  70
BRANCH  58  81
ATOM     81  C   UNL A   1      45.518  32.799  28.815  1.00  0.00     0.023 A 
ATOM     82  C   UNL A   1      46.243  32.984  30.009  1.00  0.00     0.012 A 
ATOM     83  C   UNL A   1      45.341  33.886  27.937  1.00  0.00     0.148 A 
ATOM     84  C   UNL A   1      46.751  34.240  30.340  1.00  0.00     0.002 A 
ATOM     85  C   UNL A   1      45.896  35.121  28.248  1.00  0.00     0.091 A 
ATOM     86  F   UNL A   1      44.633  33.694  26.814  1.00  0.00    -0.205 F 
ATOM     87  C   UNL A   1      46.589  35.304  29.455  1.00  0.00     0.022 A 
BRANCH  85  88
ATOM     88  S   UNL A   1      45.824  36.518  27.121  1.00  0.00     0.127 S 
ATOM     89  O   UNL A   1      46.433  35.959  25.915  1.00  0.00    -0.237 OA
ATOM     90  O   UNL A   1      44.386  36.763  27.021  1.00  0.00    -0.237 OA
ATOM     91  O   UNL A   1      46.575  37.589  27.762  1.00  0.00    -0.744 OA
ENDBRANCH  85  88
ENDBRANCH  58  81
ENDBRANCH  32  33
ENDBRANCH  24  27
ENDBRANCH  22  23
ENDBRANCH  21  22
ENDBRANCH  20  21
ENDBRANCH  19  20
ENDBRANCH   1  19
TORSDOF 22
ENDMDL
