MODEL 1
REMARK VINA RESULT:     -11.7      0.000      0.000
REMARK SMILES O=C(NCCCCCCNC(=O)c1sccc1S(=O)(=O)Nc1ccc(Cn2cncn2)cc1)c1ccc(-c2c3nc(c(-c4cccc(S(=O)(=O)[O-])c4F)c4ccc([nH]4)c(-c4cccc(S(=O)(=O)[O-])c4F)c4nc(c(-c5cccc(S(=O)(=O)[O-])c5F)c5ccc2[nH]5)C=C4)C=C3)cc1
REMARK SMILES IDX 7 1 6 2 5 3 4 4 3 5 1 6 2 7 34 9 35 10 96 11 36 12 95 13
REMARK SMILES IDX 37 14 38 15 39 16 89 17 40 18 94 19 88 20 90 21 41 22 93 23
REMARK SMILES IDX 87 24 86 25 42 27 74 28 54 29 73 30 55 31 58 32 72 33 91 34
REMARK SMILES IDX 56 35 57 36 71 38 92 39 59 40 43 41 44 42 52 43 45 44 47 45
REMARK SMILES IDX 53 46 46 47 48 48 49 49 50 50 51 51 75 52 76 53 84 54 77 55
REMARK SMILES IDX 79 56 85 57 78 58 80 59 81 60 82 61 83 62 60 63 61 64 69 65
REMARK SMILES IDX 62 66 64 67 70 68 63 69 65 70 66 71 67 72 68 73 8 74 9 75
REMARK SMILES IDX 10 76 11 77 12 79 13 80 14 81 17 82 15 83 16 84 18 85 19 86
REMARK SMILES IDX 20 87 21 88 22 90 23 91 33 92 24 93 32 94 25 95 26 96 27 97
REMARK SMILES IDX 28 98 31 99 29 100 30 101
REMARK H PARENT 3 8 90 26 58 37 10 78 21 89
REMARK Flexibility Score: inf
ROOT
ATOM      1  C   UNL A   1      33.342  26.942  26.484  1.00  0.00     0.002 C 
ENDROOT
BRANCH   1   2
ATOM      2  C   UNL A   1      33.748  28.396  26.215  1.00  0.00     0.002 C 
BRANCH   2   3
ATOM      3  C   UNL A   1      33.230  29.438  27.213  1.00  0.00     0.021 C 
BRANCH   3   4
ATOM      4  C   UNL A   1      33.874  30.819  27.098  1.00  0.00     0.116 C 
BRANCH   4   5
ATOM      5  N   UNL A   1      33.900  31.557  28.341  1.00  0.00    -0.352 N 
ATOM      6  O   UNL A   1      34.506  32.573  30.194  1.00  0.00    -0.269 OA
ATOM      7  C   UNL A   1      34.828  31.758  29.325  1.00  0.00     0.251 C 
ATOM      8  H   UNL A   1      33.051  32.022  28.521  1.00  0.00     0.163 HD
BRANCH   7   9
ATOM      9  C   UNL A   1      36.135  31.052  29.440  1.00  0.00     0.039 A 
ATOM     10  C   UNL A   1      36.313  29.676  29.593  1.00  0.00     0.014 A 
ATOM     11  C   UNL A   1      37.281  31.871  29.392  1.00  0.00     0.014 A 
ATOM     12  C   UNL A   1      37.592  29.139  29.730  1.00  0.00     0.010 A 
ATOM     13  C   UNL A   1      38.563  31.340  29.525  1.00  0.00     0.010 A 
ATOM     14  C   UNL A   1      38.717  29.970  29.706  1.00  0.00    -0.014 A 
BRANCH  14  15
ATOM     15  C   UNL A   1      40.032  29.335  29.653  1.00  0.00     0.031 A 
ATOM     16  C   UNL A   1      40.666  29.151  30.989  1.00  0.00     0.074 A 
ATOM     17  C   UNL A   1      40.610  28.822  28.549  1.00  0.00     0.049 A 
ATOM     18  N   UNL A   1      41.724  29.735  31.452  1.00  0.00    -0.248 NA
ATOM     19  C   UNL A   1      39.961  28.321  31.974  1.00  0.00     0.031 C 
ATOM     20  C   UNL A   1      40.002  28.627  27.233  1.00  0.00     0.029 A 
ATOM     21  N   UNL A   1      41.843  28.247  28.412  1.00  0.00    -0.354 N 
ATOM     22  C   UNL A   1      41.949  29.166  32.707  1.00  0.00     0.074 A 
ATOM     23  C   UNL A   1      40.744  28.457  33.045  1.00  0.00     0.031 C 
ATOM     24  C   UNL A   1      40.772  27.780  26.511  1.00  0.00     0.029 A 
ATOM     25  C   UNL A   1      41.983  27.482  27.257  1.00  0.00     0.049 A 
ATOM     26  H   UNL A   1      42.566  28.363  29.069  1.00  0.00     0.167 HD
ATOM     27  C   UNL A   1      43.197  29.125  33.253  1.00  0.00     0.034 A 
ATOM     28  C   UNL A   1      42.987  26.617  26.969  1.00  0.00     0.034 A 
ATOM     29  C   UNL A   1      44.088  30.046  32.589  1.00  0.00     0.049 A 
ATOM     30  C   UNL A   1      44.142  26.964  27.825  1.00  0.00     0.074 A 
ATOM     31  C   UNL A   1      44.106  31.404  32.345  1.00  0.00     0.029 A 
ATOM     32  N   UNL A   1      45.023  29.498  31.748  1.00  0.00    -0.354 N 
ATOM     33  N   UNL A   1      44.858  28.041  27.678  1.00  0.00    -0.248 NA
ATOM     34  C   UNL A   1      44.298  26.272  29.093  1.00  0.00     0.031 C 
ATOM     35  C   UNL A   1      44.708  31.540  31.060  1.00  0.00     0.029 A 
ATOM     36  C   UNL A   1      45.070  30.265  30.620  1.00  0.00     0.049 A 
ATOM     37  H   UNL A   1      45.564  28.696  31.926  1.00  0.00     0.167 HD
ATOM     38  C   UNL A   1      45.182  28.412  28.974  1.00  0.00     0.074 A 
ATOM     39  C   UNL A   1      44.931  27.222  29.783  1.00  0.00     0.031 C 
ATOM     40  C   UNL A   1      45.334  29.727  29.306  1.00  0.00     0.034 A 
BRANCH  27  41
ATOM     41  C   UNL A   1      43.751  27.990  34.100  1.00  0.00     0.023 A 
ATOM     42  C   UNL A   1      44.460  28.356  35.271  1.00  0.00     0.012 A 
ATOM     43  C   UNL A   1      43.890  26.650  33.673  1.00  0.00     0.148 A 
ATOM     44  C   UNL A   1      45.345  27.480  35.907  1.00  0.00     0.002 A 
ATOM     45  C   UNL A   1      44.714  25.758  34.353  1.00  0.00     0.091 A 
ATOM     46  F   UNL A   1      43.327  26.242  32.535  1.00  0.00    -0.205 F 
ATOM     47  C   UNL A   1      45.477  26.180  35.445  1.00  0.00     0.022 A 
BRANCH  45  48
ATOM     48  S   UNL A   1      44.882  24.045  33.835  1.00  0.00     0.127 S 
ATOM     49  O   UNL A   1      45.327  24.201  32.454  1.00  0.00    -0.237 OA
ATOM     50  O   UNL A   1      45.901  23.553  34.765  1.00  0.00    -0.237 OA
ATOM     51  O   UNL A   1      43.567  23.445  34.022  1.00  0.00    -0.744 OA
ENDBRANCH  45  48
ENDBRANCH  27  41
BRANCH  28  52
ATOM     52  C   UNL A   1      42.998  25.379  26.155  1.00  0.00     0.023 A 
ATOM     53  C   UNL A   1      44.019  25.183  25.200  1.00  0.00     0.012 A 
ATOM     54  C   UNL A   1      42.203  24.270  26.516  1.00  0.00     0.148 A 
ATOM     55  C   UNL A   1      44.268  23.917  24.658  1.00  0.00     0.002 A 
ATOM     56  C   UNL A   1      42.451  23.015  25.970  1.00  0.00     0.091 A 
ATOM     57  F   UNL A   1      41.271  24.428  27.465  1.00  0.00    -0.205 F 
ATOM     58  C   UNL A   1      43.492  22.830  25.050  1.00  0.00     0.022 A 
BRANCH  56  59
ATOM     59  S   UNL A   1      41.511  21.560  26.453  1.00  0.00     0.127 S 
ATOM     60  O   UNL A   1      40.160  21.913  26.014  1.00  0.00    -0.237 OA
ATOM     61  O   UNL A   1      42.154  20.510  25.668  1.00  0.00    -0.237 OA
ATOM     62  O   UNL A   1      41.661  21.453  27.898  1.00  0.00    -0.744 OA
ENDBRANCH  56  59
ENDBRANCH  28  52
BRANCH  40  63
ATOM     63  C   UNL A   1      45.526  30.730  28.200  1.00  0.00     0.023 A 
ATOM     64  C   UNL A   1      44.450  31.342  27.528  1.00  0.00     0.012 A 
ATOM     65  C   UNL A   1      46.833  31.178  27.947  1.00  0.00     0.148 A 
ATOM     66  C   UNL A   1      44.678  32.363  26.602  1.00  0.00     0.002 A 
ATOM     67  C   UNL A   1      47.051  32.230  27.068  1.00  0.00     0.091 A 
ATOM     68  F   UNL A   1      47.848  30.579  28.590  1.00  0.00    -0.205 F 
ATOM     69  C   UNL A   1      45.978  32.818  26.383  1.00  0.00     0.022 A 
BRANCH  67  70
ATOM     70  S   UNL A   1      48.685  32.940  26.863  1.00  0.00     0.127 S 
ATOM     71  O   UNL A   1      49.456  31.800  26.373  1.00  0.00    -0.237 OA
ATOM     72  O   UNL A   1      48.452  33.993  25.873  1.00  0.00    -0.237 OA
ATOM     73  O   UNL A   1      49.065  33.442  28.179  1.00  0.00    -0.744 OA
ENDBRANCH  67  70
ENDBRANCH  40  63
ENDBRANCH  14  15
ENDBRANCH   7   9
ENDBRANCH   4   5
ENDBRANCH   3   4
ENDBRANCH   2   3
ENDBRANCH   1   2
BRANCH   1  74
ATOM     74  C   UNL A   1      33.876  25.905  25.485  1.00  0.00     0.021 C 
BRANCH  74  75
ATOM     75  C   UNL A   1      34.111  24.520  26.081  1.00  0.00     0.116 C 
BRANCH  75  76
ATOM     76  N   UNL A   1      35.276  23.902  25.485  1.00  0.00    -0.351 N 
ATOM     77  C   UNL A   1      35.366  22.823  24.654  1.00  0.00     0.262 C 
ATOM     78  H   UNL A   1      36.135  24.326  25.714  1.00  0.00     0.163 HD
ATOM     79  O   UNL A   1      36.497  22.361  24.476  1.00  0.00    -0.268 OA
BRANCH  77  80
ATOM     80  C   UNL A   1      34.171  22.227  24.102  1.00  0.00     0.112 A 
ATOM     81  S   UNL A   1      33.756  20.694  24.795  1.00  0.00    -0.137 S 
ATOM     82  C   UNL A   1      33.285  22.570  23.094  1.00  0.00     0.111 A 
ATOM     83  C   UNL A   1      32.350  20.553  23.854  1.00  0.00     0.067 A 
ATOM     84  C   UNL A   1      32.206  21.617  23.000  1.00  0.00     0.035 A 
BRANCH  82  85
ATOM     85  S   UNL A   1      33.284  23.903  21.979  1.00  0.00     0.263 S 
ATOM     86  O   UNL A   1      34.413  24.692  22.428  1.00  0.00    -0.201 OA
ATOM     87  O   UNL A   1      33.314  23.224  20.701  1.00  0.00    -0.201 OA
BRANCH  85  88
ATOM     88  N   UNL A   1      31.965  24.896  21.911  1.00  0.00    -0.280 N 
ATOM     89  H   UNL A   1      31.290  24.684  21.226  1.00  0.00     0.180 HD
BRANCH  88  90
ATOM     90  C   UNL A   1      31.704  26.012  22.727  1.00  0.00     0.049 A 
ATOM     91  C   UNL A   1      32.509  27.127  22.484  1.00  0.00     0.027 A 
ATOM     92  C   UNL A   1      30.632  26.107  23.605  1.00  0.00     0.027 A 
ATOM     93  C   UNL A   1      32.111  28.383  22.921  1.00  0.00     0.008 A 
ATOM     94  C   UNL A   1      30.250  27.367  24.077  1.00  0.00     0.008 A 
ATOM     95  C   UNL A   1      30.936  28.522  23.668  1.00  0.00    -0.026 A 
BRANCH  95  96
ATOM     96  C   UNL A   1      30.356  29.891  23.928  1.00  0.00     0.181 C 
BRANCH  96  97
ATOM     97  N   UNL A   1      29.233  30.181  23.064  1.00  0.00    -0.249 N 
ATOM     98  C   UNL A   1      28.058  30.782  23.401  1.00  0.00     0.220 A 
ATOM     99  N   UNL A   1      29.287  29.935  21.740  1.00  0.00    -0.160 NA
ATOM    100  N   UNL A   1      27.305  30.902  22.333  1.00  0.00    -0.224 NA
ATOM    101  C   UNL A   1      28.085  30.365  21.349  1.00  0.00     0.246 A 
ENDBRANCH  96  97
ENDBRANCH  95  96
ENDBRANCH  88  90
ENDBRANCH  85  88
ENDBRANCH  82  85
ENDBRANCH  77  80
ENDBRANCH  75  76
ENDBRANCH  74  75
ENDBRANCH   1  74
TORSDOF 21
ENDMDL
MODEL 2
REMARK VINA RESULT:     -11.0      1.885      4.427
REMARK SMILES O=C(NCCCCCCNC(=O)c1sccc1S(=O)(=O)Nc1ccc(Cn2cncn2)cc1)c1ccc(-c2c3nc(c(-c4cccc(S(=O)(=O)[O-])c4F)c4ccc([nH]4)c(-c4cccc(S(=O)(=O)[O-])c4F)c4nc(c(-c5cccc(S(=O)(=O)[O-])c5F)c5ccc2[nH]5)C=C4)C=C3)cc1
REMARK SMILES IDX 7 1 6 2 5 3 4 4 3 5 1 6 2 7 34 9 35 10 96 11 36 12 95 13
REMARK SMILES IDX 37 14 38 15 39 16 89 17 40 18 94 19 88 20 90 21 41 22 93 23
REMARK SMILES IDX 87 24 86 25 42 27 74 28 54 29 73 30 55 31 58 32 72 33 91 34
REMARK SMILES IDX 56 35 57 36 71 38 92 39 59 40 43 41 44 42 52 43 45 44 47 45
REMARK SMILES IDX 53 46 46 47 48 48 49 49 50 50 51 51 75 52 76 53 84 54 77 55
REMARK SMILES IDX 79 56 85 57 78 58 80 59 81 60 82 61 83 62 60 63 61 64 69 65
REMARK SMILES IDX 62 66 64 67 70 68 63 69 65 70 66 71 67 72 68 73 8 74 9 75
REMARK SMILES IDX 10 76 11 77 12 79 13 80 14 81 17 82 15 83 16 84 18 85 19 86
REMARK SMILES IDX 20 87 21 88 22 90 23 91 33 92 24 93 32 94 25 95 26 96 27 97
REMARK SMILES IDX 28 98 31 99 29 100 30 101
REMARK H PARENT 3 8 90 26 58 37 10 78 21 89
REMARK Flexibility Score: inf
ROOT
ATOM      1  C   UNL A   1      34.659  29.610  27.544  1.00  0.00     0.002 C 
ENDROOT
BRANCH   1   2
ATOM      2  C   UNL A   1      34.187  31.066  27.636  1.00  0.00     0.002 C 
BRANCH   2   3
ATOM      3  C   UNL A   1      35.287  32.130  27.713  1.00  0.00     0.021 C 
BRANCH   3   4
ATOM      4  C   UNL A   1      34.967  33.327  28.607  1.00  0.00     0.116 C 
BRANCH   4   5
ATOM      5  N   UNL A   1      34.525  32.963  29.934  1.00  0.00    -0.352 N 
ATOM      6  O   UNL A   1      34.406  32.248  32.010  1.00  0.00    -0.269 OA
ATOM      7  C   UNL A   1      35.054  32.230  30.960  1.00  0.00     0.251 C 
ATOM      8  H   UNL A   1      33.637  33.327  30.150  1.00  0.00     0.163 HD
BRANCH   7   9
ATOM      9  C   UNL A   1      36.291  31.402  30.885  1.00  0.00     0.039 A 
ATOM     10  C   UNL A   1      36.342  30.018  30.714  1.00  0.00     0.014 A 
ATOM     11  C   UNL A   1      37.507  32.104  31.005  1.00  0.00     0.014 A 
ATOM     12  C   UNL A   1      37.567  29.351  30.699  1.00  0.00     0.010 A 
ATOM     13  C   UNL A   1      38.735  31.444  30.988  1.00  0.00     0.010 A 
ATOM     14  C   UNL A   1      38.763  30.061  30.846  1.00  0.00    -0.014 A 
BRANCH  14  15
ATOM     15  C   UNL A   1      40.015  29.340  30.623  1.00  0.00     0.031 A 
ATOM     16  C   UNL A   1      40.772  29.048  31.873  1.00  0.00     0.074 A 
ATOM     17  C   UNL A   1      40.432  28.843  29.441  1.00  0.00     0.049 A 
ATOM     18  N   UNL A   1      41.913  29.533  32.240  1.00  0.00    -0.248 NA
ATOM     19  C   UNL A   1      40.116  28.220  32.894  1.00  0.00     0.031 C 
ATOM     20  C   UNL A   1      39.675  28.756  28.193  1.00  0.00     0.029 A 
ATOM     21  N   UNL A   1      41.598  28.192  29.146  1.00  0.00    -0.354 N 
ATOM     22  C   UNL A   1      42.227  28.890  33.438  1.00  0.00     0.074 A 
ATOM     23  C   UNL A   1      41.016  28.249  33.877  1.00  0.00     0.031 C 
ATOM     24  C   UNL A   1      40.299  27.894  27.356  1.00  0.00     0.029 A 
ATOM     25  C   UNL A   1      41.557  27.477  27.953  1.00  0.00     0.049 A 
ATOM     26  H   UNL A   1      42.393  28.226  29.725  1.00  0.00     0.167 HD
ATOM     27  C   UNL A   1      43.519  28.736  33.842  1.00  0.00     0.034 A 
ATOM     28  C   UNL A   1      42.459  26.560  27.521  1.00  0.00     0.034 A 
ATOM     29  C   UNL A   1      44.400  29.624  33.124  1.00  0.00     0.049 A 
ATOM     30  C   UNL A   1      43.720  26.784  28.259  1.00  0.00     0.074 A 
ATOM     31  C   UNL A   1      44.493  30.988  32.936  1.00  0.00     0.029 A 
ATOM     32  N   UNL A   1      45.198  29.056  32.164  1.00  0.00    -0.354 N 
ATOM     33  N   UNL A   1      44.494  27.815  28.079  1.00  0.00    -0.248 NA
ATOM     34  C   UNL A   1      43.959  26.021  29.472  1.00  0.00     0.031 C 
ATOM     35  C   UNL A   1      44.963  31.146  31.600  1.00  0.00     0.029 A 
ATOM     36  C   UNL A   1      45.181  29.872  31.070  1.00  0.00     0.049 A 
ATOM     37  H   UNL A   1      45.694  28.210  32.247  1.00  0.00     0.167 HD
ATOM     38  C   UNL A   1      44.980  28.098  29.347  1.00  0.00     0.074 A 
ATOM     39  C   UNL A   1      44.730  26.890  30.128  1.00  0.00     0.031 C 
ATOM     40  C   UNL A   1      45.264  29.382  29.714  1.00  0.00     0.034 A 
BRANCH  27  41
ATOM     41  C   UNL A   1      44.074  27.525  34.576  1.00  0.00     0.023 A 
ATOM     42  C   UNL A   1      45.005  27.780  35.615  1.00  0.00     0.012 A 
ATOM     43  C   UNL A   1      43.990  26.189  34.122  1.00  0.00     0.148 A 
ATOM     44  C   UNL A   1      45.879  26.795  36.086  1.00  0.00     0.002 A 
ATOM     45  C   UNL A   1      44.809  25.195  34.648  1.00  0.00     0.091 A 
ATOM     46  F   UNL A   1      43.204  25.876  33.091  1.00  0.00    -0.205 F 
ATOM     47  C   UNL A   1      45.785  25.502  35.599  1.00  0.00     0.022 A 
BRANCH  45  48
ATOM     48  S   UNL A   1      44.696  23.488  34.095  1.00  0.00     0.127 S 
ATOM     49  O   UNL A   1      45.729  22.850  34.907  1.00  0.00    -0.237 OA
ATOM     50  O   UNL A   1      43.320  23.149  34.461  1.00  0.00    -0.237 OA
ATOM     51  O   UNL A   1      44.939  23.521  32.659  1.00  0.00    -0.744 OA
ENDBRANCH  45  48
ENDBRANCH  27  41
BRANCH  28  52
ATOM     52  C   UNL A   1      42.292  25.366  26.660  1.00  0.00     0.023 A 
ATOM     53  C   UNL A   1      43.215  25.122  25.620  1.00  0.00     0.012 A 
ATOM     54  C   UNL A   1      41.424  24.319  27.038  1.00  0.00     0.148 A 
ATOM     55  C   UNL A   1      43.302  23.865  25.011  1.00  0.00     0.002 A 
ATOM     56  C   UNL A   1      41.511  23.072  26.425  1.00  0.00     0.091 A 
ATOM     57  F   UNL A   1      40.585  24.516  28.063  1.00  0.00    -0.205 F 
ATOM     58  C   UNL A   1      42.458  22.837  25.420  1.00  0.00     0.022 A 
BRANCH  56  59
ATOM     59  S   UNL A   1      40.476  21.688  26.922  1.00  0.00     0.127 S 
ATOM     60  O   UNL A   1      41.016  20.599  26.107  1.00  0.00    -0.237 OA
ATOM     61  O   UNL A   1      40.768  21.590  28.349  1.00  0.00    -0.237 OA
ATOM     62  O   UNL A   1      39.112  22.071  26.580  1.00  0.00    -0.744 OA
ENDBRANCH  56  59
ENDBRANCH  28  52
BRANCH  40  63
ATOM     63  C   UNL A   1      45.411  30.422  28.636  1.00  0.00     0.023 A 
ATOM     64  C   UNL A   1      44.312  31.107  28.079  1.00  0.00     0.012 A 
ATOM     65  C   UNL A   1      46.712  30.826  28.294  1.00  0.00     0.148 A 
ATOM     66  C   UNL A   1      44.511  32.156  27.178  1.00  0.00     0.002 A 
ATOM     67  C   UNL A   1      46.905  31.905  27.442  1.00  0.00     0.091 A 
ATOM     68  F   UNL A   1      47.748  30.159  28.827  1.00  0.00    -0.205 F 
ATOM     69  C   UNL A   1      45.807  32.566  26.871  1.00  0.00     0.022 A 
BRANCH  67  70
ATOM     70  S   UNL A   1      48.548  32.555  27.132  1.00  0.00     0.127 S 
ATOM     71  O   UNL A   1      49.185  31.451  26.419  1.00  0.00    -0.237 OA
ATOM     72  O   UNL A   1      48.271  33.736  26.311  1.00  0.00    -0.237 OA
ATOM     73  O   UNL A   1      49.103  32.866  28.444  1.00  0.00    -0.744 OA
ENDBRANCH  67  70
ENDBRANCH  40  63
ENDBRANCH  14  15
ENDBRANCH   7   9
ENDBRANCH   4   5
ENDBRANCH   3   4
ENDBRANCH   2   3
ENDBRANCH   1   2
BRANCH   1  74
ATOM     74  C   UNL A   1      33.579  28.581  27.176  1.00  0.00     0.021 C 
BRANCH  74  75
ATOM     75  C   UNL A   1      33.869  27.793  25.902  1.00  0.00     0.116 C 
BRANCH  75  76
ATOM     76  N   UNL A   1      34.022  28.688  24.776  1.00  0.00    -0.351 N 
ATOM     77  C   UNL A   1      33.338  28.736  23.595  1.00  0.00     0.262 C 
ATOM     78  H   UNL A   1      34.729  29.367  24.877  1.00  0.00     0.163 HD
ATOM     79  O   UNL A   1      33.821  29.448  22.710  1.00  0.00    -0.268 OA
BRANCH  77  80
ATOM     80  C   UNL A   1      32.166  27.914  23.400  1.00  0.00     0.112 A 
ATOM     81  S   UNL A   1      30.690  28.641  23.946  1.00  0.00    -0.137 S 
ATOM     82  C   UNL A   1      31.939  26.636  22.918  1.00  0.00     0.111 A 
ATOM     83  C   UNL A   1      29.751  27.323  23.432  1.00  0.00     0.067 A 
ATOM     84  C   UNL A   1      30.529  26.329  22.893  1.00  0.00     0.035 A 
BRANCH  82  85
ATOM     85  S   UNL A   1      33.041  25.407  22.376  1.00  0.00     0.263 S 
ATOM     86  O   UNL A   1      33.239  25.752  20.983  1.00  0.00    -0.201 OA
ATOM     87  O   UNL A   1      34.120  25.529  23.333  1.00  0.00    -0.201 OA
BRANCH  85  88
ATOM     88  N   UNL A   1      32.579  23.822  22.446  1.00  0.00    -0.280 N 
ATOM     89  H   UNL A   1      32.040  23.487  21.693  1.00  0.00     0.180 HD
BRANCH  88  90
ATOM     90  C   UNL A   1      32.871  22.900  23.469  1.00  0.00     0.049 A 
ATOM     91  C   UNL A   1      31.775  22.489  24.229  1.00  0.00     0.027 A 
ATOM     92  C   UNL A   1      34.107  22.289  23.643  1.00  0.00     0.027 A 
ATOM     93  C   UNL A   1      31.846  21.324  24.980  1.00  0.00     0.008 A 
ATOM     94  C   UNL A   1      34.190  21.136  24.429  1.00  0.00     0.008 A 
ATOM     95  C   UNL A   1      33.041  20.598  25.033  1.00  0.00    -0.026 A 
BRANCH  95  96
ATOM     96  C   UNL A   1      33.064  19.210  25.625  1.00  0.00     0.181 C 
BRANCH  96  97
ATOM     97  N   UNL A   1      33.370  18.200  24.636  1.00  0.00    -0.249 N 
ATOM     98  C   UNL A   1      34.383  17.288  24.664  1.00  0.00     0.220 A 
ATOM     99  N   UNL A   1      32.579  18.008  23.563  1.00  0.00    -0.160 NA
ATOM    100  N   UNL A   1      34.309  16.517  23.605  1.00  0.00    -0.224 NA
ATOM    101  C   UNL A   1      33.206  16.996  22.958  1.00  0.00     0.246 A 
ENDBRANCH  96  97
ENDBRANCH  95  96
ENDBRANCH  88  90
ENDBRANCH  85  88
ENDBRANCH  82  85
ENDBRANCH  77  80
ENDBRANCH  75  76
ENDBRANCH  74  75
ENDBRANCH   1  74
TORSDOF 21
ENDMDL
MODEL 3
REMARK VINA RESULT:     -10.9      2.544      4.908
REMARK SMILES O=C(NCCCCCCNC(=O)c1sccc1S(=O)(=O)Nc1ccc(Cn2cncn2)cc1)c1ccc(-c2c3nc(c(-c4cccc(S(=O)(=O)[O-])c4F)c4ccc([nH]4)c(-c4cccc(S(=O)(=O)[O-])c4F)c4nc(c(-c5cccc(S(=O)(=O)[O-])c5F)c5ccc2[nH]5)C=C4)C=C3)cc1
REMARK SMILES IDX 7 1 6 2 5 3 4 4 3 5 1 6 2 7 34 9 35 10 96 11 36 12 95 13
REMARK SMILES IDX 37 14 38 15 39 16 89 17 40 18 94 19 88 20 90 21 41 22 93 23
REMARK SMILES IDX 87 24 86 25 42 27 74 28 54 29 73 30 55 31 58 32 72 33 91 34
REMARK SMILES IDX 56 35 57 36 71 38 92 39 59 40 43 41 44 42 52 43 45 44 47 45
REMARK SMILES IDX 53 46 46 47 48 48 49 49 50 50 51 51 75 52 76 53 84 54 77 55
REMARK SMILES IDX 79 56 85 57 78 58 80 59 81 60 82 61 83 62 60 63 61 64 69 65
REMARK SMILES IDX 62 66 64 67 70 68 63 69 65 70 66 71 67 72 68 73 8 74 9 75
REMARK SMILES IDX 10 76 11 77 12 79 13 80 14 81 17 82 15 83 16 84 18 85 19 86
REMARK SMILES IDX 20 87 21 88 22 90 23 91 33 92 24 93 32 94 25 95 26 96 27 97
REMARK SMILES IDX 28 98 31 99 29 100 30 101
REMARK H PARENT 3 8 90 26 58 37 10 78 21 89
REMARK Flexibility Score: inf
ROOT
ATOM      1  C   UNL A   1      34.644  29.585  27.643  1.00  0.00     0.002 C 
ENDROOT
BRANCH   1   2
ATOM      2  C   UNL A   1      34.639  31.118  27.668  1.00  0.00     0.002 C 
BRANCH   2   3
ATOM      3  C   UNL A   1      36.010  31.798  27.741  1.00  0.00     0.021 C 
BRANCH   3   4
ATOM      4  C   UNL A   1      35.994  33.229  28.275  1.00  0.00     0.116 C 
BRANCH   4   5
ATOM      5  N   UNL A   1      35.789  33.317  29.703  1.00  0.00    -0.352 N 
ATOM      6  O   UNL A   1      36.011  33.225  31.889  1.00  0.00    -0.269 OA
ATOM      7  C   UNL A   1      36.431  32.817  30.803  1.00  0.00     0.251 C 
ATOM      8  H   UNL A   1      35.005  33.863  29.940  1.00  0.00     0.163 HD
BRANCH   7   9
ATOM      9  C   UNL A   1      37.532  31.813  30.781  1.00  0.00     0.039 A 
ATOM     10  C   UNL A   1      37.378  30.426  30.774  1.00  0.00     0.014 A 
ATOM     11  C   UNL A   1      38.841  32.338  30.771  1.00  0.00     0.014 A 
ATOM     12  C   UNL A   1      38.494  29.590  30.793  1.00  0.00     0.010 A 
ATOM     13  C   UNL A   1      39.960  31.508  30.786  1.00  0.00     0.010 A 
ATOM     14  C   UNL A   1      39.784  30.129  30.809  1.00  0.00    -0.014 A 
BRANCH  14  15
ATOM     15  C   UNL A   1      40.908  29.211  30.627  1.00  0.00     0.031 A 
ATOM     16  C   UNL A   1      41.539  28.773  31.904  1.00  0.00     0.074 A 
ATOM     17  C   UNL A   1      41.297  28.673  29.454  1.00  0.00     0.049 A 
ATOM     18  N   UNL A   1      42.725  29.052  32.339  1.00  0.00    -0.248 NA
ATOM     19  C   UNL A   1      40.702  28.049  32.869  1.00  0.00     0.031 C 
ATOM     20  C   UNL A   1      40.601  28.738  28.169  1.00  0.00     0.029 A 
ATOM     21  N   UNL A   1      42.351  27.841  29.198  1.00  0.00    -0.354 N 
ATOM     22  C   UNL A   1      42.864  28.343  33.533  1.00  0.00     0.074 A 
ATOM     23  C   UNL A   1      41.542  27.908  33.895  1.00  0.00     0.031 C 
ATOM     24  C   UNL A   1      41.115  27.798  27.341  1.00  0.00     0.029 A 
ATOM     25  C   UNL A   1      42.253  27.165  27.985  1.00  0.00     0.049 A 
ATOM     26  H   UNL A   1      43.110  27.729  29.815  1.00  0.00     0.167 HD
ATOM     27  C   UNL A   1      44.090  27.967  33.994  1.00  0.00     0.034 A 
ATOM     28  C   UNL A   1      43.010  26.117  27.573  1.00  0.00     0.034 A 
ATOM     29  C   UNL A   1      45.143  28.707  33.343  1.00  0.00     0.049 A 
ATOM     30  C   UNL A   1      44.251  26.112  28.376  1.00  0.00     0.074 A 
ATOM     31  C   UNL A   1      45.473  30.039  33.196  1.00  0.00     0.029 A 
ATOM     32  N   UNL A   1      45.884  28.030  32.407  1.00  0.00    -0.354 N 
ATOM     33  N   UNL A   1      45.195  27.001  28.261  1.00  0.00    -0.248 NA
ATOM     34  C   UNL A   1      44.295  25.298  29.578  1.00  0.00     0.031 C 
ATOM     35  C   UNL A   1      46.031  30.140  31.888  1.00  0.00     0.029 A 
ATOM     36  C   UNL A   1      46.060  28.857  31.336  1.00  0.00     0.049 A 
ATOM     37  H   UNL A   1      46.226  27.111  32.491  1.00  0.00     0.167 HD
ATOM     38  C   UNL A   1      45.655  27.175  29.558  1.00  0.00     0.074 A 
ATOM     39  C   UNL A   1      45.166  26.012  30.293  1.00  0.00     0.031 C 
ATOM     40  C   UNL A   1      46.130  28.385  29.972  1.00  0.00     0.034 A 
BRANCH  27  41
ATOM     41  C   UNL A   1      44.396  26.666  34.721  1.00  0.00     0.023 A 
ATOM     42  C   UNL A   1      43.944  25.471  34.106  1.00  0.00     0.012 A 
ATOM     43  C   UNL A   1      44.803  26.565  36.071  1.00  0.00     0.148 A 
ATOM     44  C   UNL A   1      43.793  24.280  34.824  1.00  0.00     0.002 A 
ATOM     45  C   UNL A   1      44.721  25.359  36.760  1.00  0.00     0.091 A 
ATOM     46  F   UNL A   1      45.160  27.654  36.751  1.00  0.00    -0.205 F 
ATOM     47  C   UNL A   1      44.177  24.224  36.154  1.00  0.00     0.022 A 
BRANCH  45  48
ATOM     48  S   UNL A   1      45.256  25.210  38.470  1.00  0.00     0.127 S 
ATOM     49  O   UNL A   1      44.363  26.152  39.137  1.00  0.00    -0.237 OA
ATOM     50  O   UNL A   1      44.987  23.797  38.743  1.00  0.00    -0.237 OA
ATOM     51  O   UNL A   1      46.671  25.557  38.472  1.00  0.00    -0.744 OA
ENDBRANCH  45  48
ENDBRANCH  27  41
BRANCH  28  52
ATOM     52  C   UNL A   1      42.690  24.984  26.673  1.00  0.00     0.023 A 
ATOM     53  C   UNL A   1      43.569  24.665  25.616  1.00  0.00     0.012 A 
ATOM     54  C   UNL A   1      41.702  24.040  27.024  1.00  0.00     0.148 A 
ATOM     55  C   UNL A   1      43.495  23.429  24.962  1.00  0.00     0.002 A 
ATOM     56  C   UNL A   1      41.629  22.815  26.367  1.00  0.00     0.091 A 
ATOM     57  F   UNL A   1      40.900  24.304  28.064  1.00  0.00    -0.205 F 
ATOM     58  C   UNL A   1      42.533  22.500  25.344  1.00  0.00     0.022 A 
BRANCH  56  59
ATOM     59  S   UNL A   1      40.432  21.554  26.827  1.00  0.00     0.127 S 
ATOM     60  O   UNL A   1      40.693  21.398  28.259  1.00  0.00    -0.237 OA
ATOM     61  O   UNL A   1      39.167  22.204  26.502  1.00  0.00    -0.237 OA
ATOM     62  O   UNL A   1      40.766  20.381  26.028  1.00  0.00    -0.744 OA
ENDBRANCH  56  59
ENDBRANCH  28  52
BRANCH  40  63
ATOM     63  C   UNL A   1      46.504  29.406  28.932  1.00  0.00     0.023 A 
ATOM     64  C   UNL A   1      47.786  29.470  28.349  1.00  0.00     0.012 A 
ATOM     65  C   UNL A   1      45.481  30.219  28.419  1.00  0.00     0.148 A 
ATOM     66  C   UNL A   1      48.045  30.348  27.294  1.00  0.00     0.002 A 
ATOM     67  C   UNL A   1      45.727  31.049  27.334  1.00  0.00     0.091 A 
ATOM     68  F   UNL A   1      44.267  30.153  28.989  1.00  0.00    -0.205 F 
ATOM     69  C   UNL A   1      47.012  31.127  26.775  1.00  0.00     0.022 A 
BRANCH  67  70
ATOM     70  S   UNL A   1      44.398  31.961  26.546  1.00  0.00     0.127 S 
ATOM     71  O   UNL A   1      45.061  32.511  25.367  1.00  0.00    -0.237 OA
ATOM     72  O   UNL A   1      43.418  30.910  26.264  1.00  0.00    -0.237 OA
ATOM     73  O   UNL A   1      43.950  32.936  27.533  1.00  0.00    -0.744 OA
ENDBRANCH  67  70
ENDBRANCH  40  63
ENDBRANCH  14  15
ENDBRANCH   7   9
ENDBRANCH   4   5
ENDBRANCH   3   4
ENDBRANCH   2   3
ENDBRANCH   1   2
BRANCH   1  74
ATOM     74  C   UNL A   1      33.431  28.924  26.971  1.00  0.00     0.021 C 
BRANCH  74  75
ATOM     75  C   UNL A   1      33.777  28.051  25.768  1.00  0.00     0.116 C 
BRANCH  75  76
ATOM     76  N   UNL A   1      33.585  28.786  24.536  1.00  0.00    -0.351 N 
ATOM     77  C   UNL A   1      32.828  28.479  23.442  1.00  0.00     0.262 C 
ATOM     78  H   UNL A   1      34.075  29.638  24.479  1.00  0.00     0.163 HD
ATOM     79  O   UNL A   1      33.022  29.163  22.433  1.00  0.00    -0.268 OA
BRANCH  77  80
ATOM     80  C   UNL A   1      31.925  27.352  23.475  1.00  0.00     0.112 A 
ATOM     81  S   UNL A   1      30.344  27.726  24.078  1.00  0.00    -0.137 S 
ATOM     82  C   UNL A   1      32.036  26.003  23.183  1.00  0.00     0.111 A 
ATOM     83  C   UNL A   1      29.782  26.142  23.833  1.00  0.00     0.067 A 
ATOM     84  C   UNL A   1      30.772  25.327  23.344  1.00  0.00     0.035 A 
BRANCH  82  85
ATOM     85  S   UNL A   1      33.402  25.051  22.685  1.00  0.00     0.263 S 
ATOM     86  O   UNL A   1      33.640  25.521  21.335  1.00  0.00    -0.201 OA
ATOM     87  O   UNL A   1      34.353  25.315  23.743  1.00  0.00    -0.201 OA
BRANCH  85  88
ATOM     88  N   UNL A   1      33.261  23.406  22.632  1.00  0.00    -0.280 N 
ATOM     89  H   UNL A   1      33.138  23.003  21.741  1.00  0.00     0.180 HD
BRANCH  88  90
ATOM     90  C   UNL A   1      33.296  22.518  23.724  1.00  0.00     0.049 A 
ATOM     91  C   UNL A   1      32.048  22.113  24.201  1.00  0.00     0.027 A 
ATOM     92  C   UNL A   1      34.454  21.930  24.218  1.00  0.00     0.027 A 
ATOM     93  C   UNL A   1      31.938  20.972  24.983  1.00  0.00     0.008 A 
ATOM     94  C   UNL A   1      34.347  20.801  25.036  1.00  0.00     0.008 A 
ATOM     95  C   UNL A   1      33.087  20.265  25.353  1.00  0.00    -0.026 A 
BRANCH  95  96
ATOM     96  C   UNL A   1      32.972  18.896  25.976  1.00  0.00     0.181 C 
BRANCH  96  97
ATOM     97  N   UNL A   1      33.147  17.837  25.006  1.00  0.00    -0.249 N 
ATOM     98  C   UNL A   1      33.364  17.964  23.667  1.00  0.00     0.220 A 
ATOM     99  N   UNL A   1      33.191  16.544  25.381  1.00  0.00    -0.160 NA
ATOM    100  N   UNL A   1      33.508  16.775  23.131  1.00  0.00    -0.224 NA
ATOM    101  C   UNL A   1      33.384  15.941  24.206  1.00  0.00     0.246 A 
ENDBRANCH  96  97
ENDBRANCH  95  96
ENDBRANCH  88  90
ENDBRANCH  85  88
ENDBRANCH  82  85
ENDBRANCH  77  80
ENDBRANCH  75  76
ENDBRANCH  74  75
ENDBRANCH   1  74
TORSDOF 21
ENDMDL
