MODEL 1
REMARK VINA RESULT:     -10.6      0.000      0.000
REMARK SMILES CCOC(=O)[C@H](C)NC(=O)N1CC[C@H](C(=O)NCCCCCCNC(=O)c2ccc(-c3c4nc(c(-c5cccc(S(=O)(=O)[O-])c5F)c5ccc([nH]5)c(-c5cccc(S(=O)(=O)[O-])c5F)c5nc(c(-c6cccc(S(=O)(=O)[O-])c6F)c6ccc3[nH]6)C=C5)C=C4)cc2)[C@@H]1C
REMARK SMILES IDX 19 1 18 2 17 3 15 4 16 5 14 7 11 8 12 9 90 10 13 11 91 12
REMARK SMILES IDX 9 13 8 14 10 16 6 17 7 18 4 19 5 20 3 21 2 22 1 23 20 24
REMARK SMILES IDX 21 25 22 26 23 27 24 28 25 29 26 31 27 32 28 33 89 34 29 35
REMARK SMILES IDX 88 36 30 37 31 38 32 39 82 40 33 41 87 42 81 43 83 44 34 45
REMARK SMILES IDX 86 46 80 47 79 48 35 50 67 51 47 52 66 53 48 54 51 55 65 56
REMARK SMILES IDX 84 57 49 58 50 59 64 61 85 62 52 63 36 64 37 65 45 66 38 67
REMARK SMILES IDX 40 68 46 69 39 70 41 71 42 72 43 73 44 74 68 75 69 76 77 77
REMARK SMILES IDX 70 78 72 79 78 80 71 81 73 82 74 83 75 84 76 85 53 86 54 87
REMARK SMILES IDX 62 88 55 89 57 90 63 91 56 92 58 93 59 94 60 95 61 96
REMARK H PARENT 17 6 8 15 24 30 83 49 51 60
REMARK Flexibility Score: inf
ROOT
ATOM      1  C   UNL A   1      32.261  29.454  24.599  1.00  0.00     0.021 C 
ENDROOT
BRANCH   1   2
ATOM      2  C   UNL A   1      31.690  28.772  23.362  1.00  0.00     0.116 C 
BRANCH   2   3
ATOM      3  N   UNL A   1      32.551  27.701  22.892  1.00  0.00    -0.356 N 
ATOM      4  C   UNL A   1      32.446  26.353  23.074  1.00  0.00     0.225 C 
ATOM      5  O   UNL A   1      33.339  25.658  22.599  1.00  0.00    -0.275 OA
ATOM      6  H   UNL A   1      33.328  27.992  22.361  1.00  0.00     0.163 HD
BRANCH   4   7
ATOM      7  C   UNL A   1      31.270  25.821  23.886  1.00  0.00     0.102 C 
ATOM      8  N   UNL A   1      30.971  23.940  25.326  1.00  0.00    -0.321 N 
ATOM      9  C   UNL A   1      30.975  23.427  23.980  1.00  0.00     0.122 C 
ATOM     10  C   UNL A   1      31.510  25.311  25.334  1.00  0.00     0.096 C 
ATOM     11  C   UNL A   1      30.587  24.637  23.169  1.00  0.00     0.037 C 
ATOM     12  C   UNL A   1      32.940  25.317  25.869  1.00  0.00     0.032 C 
BRANCH   8  13
ATOM     13  C   UNL A   1      30.816  23.074  26.359  1.00  0.00     0.318 C 
ATOM     14  N   UNL A   1      31.495  21.915  26.381  1.00  0.00    -0.325 N 
ATOM     15  H   UNL A   1      31.076  21.207  26.922  1.00  0.00     0.166 HD
ATOM     16  O   UNL A   1      30.095  23.324  27.326  1.00  0.00    -0.249 OA
BRANCH  14  17
ATOM     17  C   UNL A   1      32.752  21.525  25.741  1.00  0.00     0.190 C 
ATOM     18  C   UNL A   1      33.866  21.461  26.780  1.00  0.00     0.043 C 
BRANCH  17  19
ATOM     19  C   UNL A   1      32.608  20.191  24.992  1.00  0.00     0.328 C 
ATOM     20  O   UNL A   1      32.172  20.081  23.852  1.00  0.00    -0.250 OA
BRANCH  19  21
ATOM     21  O   UNL A   1      32.931  19.138  25.798  1.00  0.00    -0.464 OA
BRANCH  21  22
ATOM     22  C   UNL A   1      32.706  17.824  25.274  1.00  0.00     0.229 C 
ATOM     23  C   UNL A   1      33.988  17.196  24.756  1.00  0.00     0.049 C 
ENDBRANCH  21  22
ENDBRANCH  19  21
ENDBRANCH  17  19
ENDBRANCH  14  17
ENDBRANCH   8  13
ENDBRANCH   4   7
ENDBRANCH   2   3
ENDBRANCH   1   2
BRANCH   1  24
ATOM     24  C   UNL A   1      31.773  28.877  25.931  1.00  0.00     0.002 C 
BRANCH  24  25
ATOM     25  C   UNL A   1      31.768  29.857  27.108  1.00  0.00     0.002 C 
BRANCH  25  26
ATOM     26  C   UNL A   1      31.656  31.333  26.727  1.00  0.00     0.021 C 
BRANCH  26  27
ATOM     27  C   UNL A   1      32.927  32.146  26.938  1.00  0.00     0.116 C 
BRANCH  27  28
ATOM     28  N   UNL A   1      32.650  33.481  27.445  1.00  0.00    -0.352 N 
ATOM     29  C   UNL A   1      33.242  34.145  28.489  1.00  0.00     0.251 C 
ATOM     30  H   UNL A   1      31.941  33.976  26.975  1.00  0.00     0.163 HD
ATOM     31  O   UNL A   1      32.770  35.205  28.893  1.00  0.00    -0.269 OA
BRANCH  29  32
ATOM     32  C   UNL A   1      34.437  33.567  29.139  1.00  0.00     0.039 A 
ATOM     33  C   UNL A   1      34.265  32.715  30.232  1.00  0.00     0.014 A 
ATOM     34  C   UNL A   1      35.720  33.853  28.664  1.00  0.00     0.014 A 
ATOM     35  C   UNL A   1      35.379  32.109  30.815  1.00  0.00     0.010 A 
ATOM     36  C   UNL A   1      36.819  33.186  29.195  1.00  0.00     0.010 A 
ATOM     37  C   UNL A   1      36.663  32.314  30.283  1.00  0.00    -0.014 A 
BRANCH  37  38
ATOM     38  C   UNL A   1      37.847  31.620  30.848  1.00  0.00     0.031 A 
ATOM     39  C   UNL A   1      38.391  32.018  32.194  1.00  0.00     0.074 A 
ATOM     40  C   UNL A   1      38.477  30.678  30.118  1.00  0.00     0.049 A 
ATOM     41  N   UNL A   1      39.433  31.550  32.832  1.00  0.00    -0.248 NA
ATOM     42  C   UNL A   1      37.690  33.100  32.906  1.00  0.00     0.031 C 
ATOM     43  C   UNL A   1      38.095  30.260  28.767  1.00  0.00     0.029 A 
ATOM     44  N   UNL A   1      39.587  29.921  30.398  1.00  0.00    -0.354 N 
ATOM     45  C   UNL A   1      39.532  32.298  33.999  1.00  0.00     0.074 A 
ATOM     46  C   UNL A   1      38.467  33.276  33.964  1.00  0.00     0.031 C 
ATOM     47  C   UNL A   1      38.948  29.315  28.341  1.00  0.00     0.029 A 
ATOM     48  C   UNL A   1      39.957  29.085  29.369  1.00  0.00     0.049 A 
ATOM     49  H   UNL A   1      40.071  29.970  31.253  1.00  0.00     0.167 HD
ATOM     50  C   UNL A   1      40.411  32.166  35.020  1.00  0.00     0.034 A 
ATOM     51  C   UNL A   1      40.999  28.238  29.262  1.00  0.00     0.034 A 
ATOM     52  C   UNL A   1      41.447  31.169  35.067  1.00  0.00     0.049 A 
ATOM     53  C   UNL A   1      41.944  28.090  30.423  1.00  0.00     0.074 A 
ATOM     54  C   UNL A   1      42.333  30.898  36.094  1.00  0.00     0.029 A 
ATOM     55  N   UNL A   1      41.747  30.291  34.038  1.00  0.00    -0.354 N 
ATOM     56  N   UNL A   1      41.926  28.698  31.585  1.00  0.00    -0.248 NA
ATOM     57  C   UNL A   1      43.033  27.113  30.274  1.00  0.00     0.031 C 
ATOM     58  C   UNL A   1      43.192  29.879  35.672  1.00  0.00     0.029 A 
ATOM     59  C   UNL A   1      42.815  29.487  34.398  1.00  0.00     0.049 A 
ATOM     60  H   UNL A   1      41.271  30.246  33.176  1.00  0.00     0.167 HD
ATOM     61  C   UNL A   1      42.973  28.151  32.317  1.00  0.00     0.074 A 
ATOM     62  C   UNL A   1      43.592  27.148  31.476  1.00  0.00     0.031 C 
ATOM     63  C   UNL A   1      43.392  28.459  33.569  1.00  0.00     0.034 A 
BRANCH  50  64
ATOM     64  C   UNL A   1      40.265  33.098  36.197  1.00  0.00     0.023 A 
ATOM     65  C   UNL A   1      40.886  34.363  36.168  1.00  0.00     0.012 A 
ATOM     66  C   UNL A   1      39.467  32.746  37.303  1.00  0.00     0.148 A 
ATOM     67  C   UNL A   1      40.747  35.248  37.237  1.00  0.00     0.002 A 
ATOM     68  C   UNL A   1      39.291  33.653  38.341  1.00  0.00     0.091 A 
ATOM     69  F   UNL A   1      38.899  31.532  37.322  1.00  0.00    -0.205 F 
ATOM     70  C   UNL A   1      39.942  34.899  38.316  1.00  0.00     0.022 A 
BRANCH  68  71
ATOM     71  S   UNL A   1      38.210  33.332  39.739  1.00  0.00     0.127 S 
ATOM     72  O   UNL A   1      36.933  33.081  39.072  1.00  0.00    -0.237 OA
ATOM     73  O   UNL A   1      38.828  32.148  40.337  1.00  0.00    -0.237 OA
ATOM     74  O   UNL A   1      38.256  34.528  40.567  1.00  0.00    -0.744 OA
ENDBRANCH  68  71
ENDBRANCH  50  64
BRANCH  51  75
ATOM     75  C   UNL A   1      41.172  27.422  28.027  1.00  0.00     0.023 A 
ATOM     76  C   UNL A   1      41.728  28.013  26.875  1.00  0.00     0.012 A 
ATOM     77  C   UNL A   1      40.807  26.062  27.993  1.00  0.00     0.148 A 
ATOM     78  C   UNL A   1      41.882  27.274  25.701  1.00  0.00     0.002 A 
ATOM     79  C   UNL A   1      41.017  25.318  26.839  1.00  0.00     0.091 A 
ATOM     80  F   UNL A   1      40.272  25.522  29.097  1.00  0.00    -0.205 F 
ATOM     81  C   UNL A   1      41.536  25.926  25.685  1.00  0.00     0.022 A 
BRANCH  79  82
ATOM     82  S   UNL A   1      40.725  23.547  26.768  1.00  0.00     0.127 S 
ATOM     83  O   UNL A   1      41.685  23.125  25.753  1.00  0.00    -0.237 OA
ATOM     84  O   UNL A   1      41.049  23.135  28.135  1.00  0.00    -0.237 OA
ATOM     85  O   UNL A   1      39.320  23.393  26.413  1.00  0.00    -0.744 OA
ENDBRANCH  79  82
ENDBRANCH  51  75
BRANCH  63  86
ATOM     86  C   UNL A   1      44.550  27.676  34.133  1.00  0.00     0.023 A 
ATOM     87  C   UNL A   1      45.866  28.155  33.985  1.00  0.00     0.012 A 
ATOM     88  C   UNL A   1      44.322  26.496  34.869  1.00  0.00     0.148 A 
ATOM     89  C   UNL A   1      46.941  27.452  34.529  1.00  0.00     0.002 A 
ATOM     90  C   UNL A   1      45.392  25.830  35.455  1.00  0.00     0.091 A 
ATOM     91  F   UNL A   1      43.064  26.046  34.984  1.00  0.00    -0.205 F 
ATOM     92  C   UNL A   1      46.704  26.299  35.273  1.00  0.00     0.022 A 
BRANCH  90  93
ATOM     93  S   UNL A   1      45.173  24.395  36.511  1.00  0.00     0.127 S 
ATOM     94  O   UNL A   1      46.556  24.052  36.838  1.00  0.00    -0.237 OA
ATOM     95  O   UNL A   1      44.401  24.947  37.625  1.00  0.00    -0.237 OA
ATOM     96  O   UNL A   1      44.459  23.410  35.711  1.00  0.00    -0.744 OA
ENDBRANCH  90  93
ENDBRANCH  63  86
ENDBRANCH  37  38
ENDBRANCH  29  32
ENDBRANCH  27  28
ENDBRANCH  26  27
ENDBRANCH  25  26
ENDBRANCH  24  25
ENDBRANCH   1  24
TORSDOF 21
ENDMDL
MODEL 2
REMARK VINA RESULT:     -10.2      2.653      3.473
REMARK SMILES CCOC(=O)[C@H](C)NC(=O)N1CC[C@H](C(=O)NCCCCCCNC(=O)c2ccc(-c3c4nc(c(-c5cccc(S(=O)(=O)[O-])c5F)c5ccc([nH]5)c(-c5cccc(S(=O)(=O)[O-])c5F)c5nc(c(-c6cccc(S(=O)(=O)[O-])c6F)c6ccc3[nH]6)C=C5)C=C4)cc2)[C@@H]1C
REMARK SMILES IDX 19 1 18 2 17 3 15 4 16 5 14 7 11 8 12 9 90 10 13 11 91 12
REMARK SMILES IDX 9 13 8 14 10 16 6 17 7 18 4 19 5 20 3 21 2 22 1 23 20 24
REMARK SMILES IDX 21 25 22 26 23 27 24 28 25 29 26 31 27 32 28 33 89 34 29 35
REMARK SMILES IDX 88 36 30 37 31 38 32 39 82 40 33 41 87 42 81 43 83 44 34 45
REMARK SMILES IDX 86 46 80 47 79 48 35 50 67 51 47 52 66 53 48 54 51 55 65 56
REMARK SMILES IDX 84 57 49 58 50 59 64 61 85 62 52 63 36 64 37 65 45 66 38 67
REMARK SMILES IDX 40 68 46 69 39 70 41 71 42 72 43 73 44 74 68 75 69 76 77 77
REMARK SMILES IDX 70 78 72 79 78 80 71 81 73 82 74 83 75 84 76 85 53 86 54 87
REMARK SMILES IDX 62 88 55 89 57 90 63 91 56 92 58 93 59 94 60 95 61 96
REMARK H PARENT 17 6 8 15 24 30 83 49 51 60
REMARK Flexibility Score: inf
ROOT
ATOM      1  C   UNL A   1      33.026  29.507  24.951  1.00  0.00     0.021 C 
ENDROOT
BRANCH   1   2
ATOM      2  C   UNL A   1      32.118  28.849  23.919  1.00  0.00     0.116 C 
BRANCH   2   3
ATOM      3  N   UNL A   1      32.773  27.733  23.259  1.00  0.00    -0.356 N 
ATOM      4  C   UNL A   1      32.480  26.402  23.299  1.00  0.00     0.225 C 
ATOM      5  O   UNL A   1      33.222  25.651  22.673  1.00  0.00    -0.275 OA
ATOM      6  H   UNL A   1      33.545  27.975  22.697  1.00  0.00     0.163 HD
BRANCH   4   7
ATOM      7  C   UNL A   1      31.299  25.945  24.149  1.00  0.00     0.102 C 
ATOM      8  N   UNL A   1      30.902  24.050  25.547  1.00  0.00    -0.321 N 
ATOM      9  C   UNL A   1      30.804  23.582  24.188  1.00  0.00     0.122 C 
ATOM     10  C   UNL A   1      31.556  25.369  25.569  1.00  0.00     0.096 C 
ATOM     11  C   UNL A   1      30.487  24.846  23.430  1.00  0.00     0.037 C 
ATOM     12  C   UNL A   1      33.003  25.239  26.039  1.00  0.00     0.032 C 
BRANCH   8  13
ATOM     13  C   UNL A   1      30.718  23.168  26.561  1.00  0.00     0.318 C 
ATOM     14  N   UNL A   1      31.500  22.079  26.664  1.00  0.00    -0.325 N 
ATOM     15  H   UNL A   1      31.094  21.331  27.159  1.00  0.00     0.166 HD
ATOM     16  O   UNL A   1      29.874  23.342  27.441  1.00  0.00    -0.249 OA
BRANCH  14  17
ATOM     17  C   UNL A   1      32.851  21.815  26.168  1.00  0.00     0.190 C 
ATOM     18  C   UNL A   1      33.779  21.498  27.336  1.00  0.00     0.043 C 
BRANCH  17  19
ATOM     19  C   UNL A   1      32.855  20.685  25.127  1.00  0.00     0.328 C 
ATOM     20  O   UNL A   1      32.233  19.636  25.244  1.00  0.00    -0.250 OA
BRANCH  19  21
ATOM     21  O   UNL A   1      33.721  20.957  24.109  1.00  0.00    -0.464 OA
BRANCH  21  22
ATOM     22  C   UNL A   1      34.064  22.332  23.897  1.00  0.00     0.229 C 
ATOM     23  C   UNL A   1      35.560  22.565  24.012  1.00  0.00     0.049 C 
ENDBRANCH  21  22
ENDBRANCH  19  21
ENDBRANCH  17  19
ENDBRANCH  14  17
ENDBRANCH   8  13
ENDBRANCH   4   7
ENDBRANCH   2   3
ENDBRANCH   1   2
BRANCH   1  24
ATOM     24  C   UNL A   1      33.959  28.545  25.691  1.00  0.00     0.002 C 
BRANCH  24  25
ATOM     25  C   UNL A   1      34.674  29.133  26.912  1.00  0.00     0.002 C 
BRANCH  25  26
ATOM     26  C   UNL A   1      33.938  30.276  27.610  1.00  0.00     0.021 C 
BRANCH  26  27
ATOM     27  C   UNL A   1      34.737  31.566  27.740  1.00  0.00     0.116 C 
BRANCH  27  28
ATOM     28  N   UNL A   1      34.376  32.321  28.930  1.00  0.00    -0.352 N 
ATOM     29  C   UNL A   1      34.968  32.312  30.167  1.00  0.00     0.251 C 
ATOM     30  H   UNL A   1      33.602  32.921  28.835  1.00  0.00     0.163 HD
ATOM     31  O   UNL A   1      34.431  32.885  31.113  1.00  0.00    -0.269 OA
BRANCH  29  32
ATOM     32  C   UNL A   1      36.243  31.590  30.362  1.00  0.00     0.039 A 
ATOM     33  C   UNL A   1      37.426  32.172  29.904  1.00  0.00     0.014 A 
ATOM     34  C   UNL A   1      36.273  30.350  31.008  1.00  0.00     0.014 A 
ATOM     35  C   UNL A   1      38.645  31.535  30.139  1.00  0.00     0.010 A 
ATOM     36  C   UNL A   1      37.494  29.757  31.312  1.00  0.00     0.010 A 
ATOM     37  C   UNL A   1      38.693  30.337  30.872  1.00  0.00    -0.014 A 
BRANCH  37  38
ATOM     38  C   UNL A   1      39.988  29.686  31.192  1.00  0.00     0.031 A 
ATOM     39  C   UNL A   1      40.781  30.122  32.395  1.00  0.00     0.074 A 
ATOM     40  C   UNL A   1      40.486  28.749  30.360  1.00  0.00     0.049 A 
ATOM     41  N   UNL A   1      41.945  29.695  32.813  1.00  0.00    -0.248 NA
ATOM     42  C   UNL A   1      40.207  31.196  33.222  1.00  0.00     0.031 C 
ATOM     43  C   UNL A   1      39.850  28.297  29.120  1.00  0.00     0.029 A 
ATOM     44  N   UNL A   1      41.652  28.028  30.417  1.00  0.00    -0.354 N 
ATOM     45  C   UNL A   1      42.256  30.466  33.926  1.00  0.00     0.074 A 
ATOM     46  C   UNL A   1      41.177  31.413  34.098  1.00  0.00     0.031 C 
ATOM     47  C   UNL A   1      40.628  27.368  28.540  1.00  0.00     0.029 A 
ATOM     48  C   UNL A   1      41.832  27.185  29.344  1.00  0.00     0.049 A 
ATOM     49  H   UNL A   1      42.298  28.105  31.155  1.00  0.00     0.167 HD
ATOM     50  C   UNL A   1      43.328  30.376  34.749  1.00  0.00     0.034 A 
ATOM     51  C   UNL A   1      42.855  26.365  29.037  1.00  0.00     0.034 A 
ATOM     52  C   UNL A   1      44.383  29.410  34.595  1.00  0.00     0.049 A 
ATOM     53  C   UNL A   1      44.021  26.264  29.982  1.00  0.00     0.074 A 
ATOM     54  C   UNL A   1      45.466  29.181  35.423  1.00  0.00     0.029 A 
ATOM     55  N   UNL A   1      44.494  28.521  33.536  1.00  0.00    -0.354 N 
ATOM     56  N   UNL A   1      44.220  26.891  31.117  1.00  0.00    -0.248 NA
ATOM     57  C   UNL A   1      45.086  25.315  29.626  1.00  0.00     0.031 C 
ATOM     58  C   UNL A   1      46.253  28.179  34.846  1.00  0.00     0.029 A 
ATOM     59  C   UNL A   1      45.637  27.754  33.680  1.00  0.00     0.049 A 
ATOM     60  H   UNL A   1      43.855  28.448  32.790  1.00  0.00     0.167 HD
ATOM     61  C   UNL A   1      45.411  26.387  31.626  1.00  0.00     0.074 A 
ATOM     62  C   UNL A   1      45.876  25.387  30.688  1.00  0.00     0.031 C 
ATOM     63  C   UNL A   1      46.065  26.729  32.764  1.00  0.00     0.034 A 
BRANCH  50  64
ATOM     64  C   UNL A   1      43.396  31.324  35.920  1.00  0.00     0.023 A 
ATOM     65  C   UNL A   1      42.826  30.951  37.155  1.00  0.00     0.012 A 
ATOM     66  C   UNL A   1      44.072  32.555  35.815  1.00  0.00     0.148 A 
ATOM     67  C   UNL A   1      42.896  31.804  38.256  1.00  0.00     0.002 A 
ATOM     68  C   UNL A   1      44.181  33.377  36.930  1.00  0.00     0.091 A 
ATOM     69  F   UNL A   1      44.591  32.901  34.628  1.00  0.00    -0.205 F 
ATOM     70  C   UNL A   1      43.582  33.010  38.147  1.00  0.00     0.022 A 
BRANCH  68  71
ATOM     71  S   UNL A   1      45.113  34.913  36.916  1.00  0.00     0.127 S 
ATOM     72  O   UNL A   1      46.443  34.447  36.526  1.00  0.00    -0.237 OA
ATOM     73  O   UNL A   1      44.412  35.686  35.890  1.00  0.00    -0.237 OA
ATOM     74  O   UNL A   1      45.013  35.456  38.263  1.00  0.00    -0.744 OA
ENDBRANCH  68  71
ENDBRANCH  50  64
BRANCH  51  75
ATOM     75  C   UNL A   1      42.799  25.533  27.801  1.00  0.00     0.023 A 
ATOM     76  C   UNL A   1      43.347  26.030  26.602  1.00  0.00     0.012 A 
ATOM     77  C   UNL A   1      42.224  24.248  27.813  1.00  0.00     0.148 A 
ATOM     78  C   UNL A   1      43.289  25.277  25.429  1.00  0.00     0.002 A 
ATOM     79  C   UNL A   1      42.221  23.480  26.654  1.00  0.00     0.091 A 
ATOM     80  F   UNL A   1      41.700  23.798  28.962  1.00  0.00    -0.205 F 
ATOM     81  C   UNL A   1      42.735  24.000  25.457  1.00  0.00     0.022 A 
BRANCH  79  82
ATOM     82  S   UNL A   1      41.650  21.778  26.629  1.00  0.00     0.127 S 
ATOM     83  O   UNL A   1      40.203  21.946  26.711  1.00  0.00    -0.237 OA
ATOM     84  O   UNL A   1      42.146  21.313  25.333  1.00  0.00    -0.237 OA
ATOM     85  O   UNL A   1      42.278  21.135  27.776  1.00  0.00    -0.744 OA
ENDBRANCH  79  82
ENDBRANCH  51  75
BRANCH  63  86
ATOM     86  C   UNL A   1      47.337  25.988  33.089  1.00  0.00     0.023 A 
ATOM     87  C   UNL A   1      48.578  26.489  32.651  1.00  0.00     0.012 A 
ATOM     88  C   UNL A   1      47.303  24.828  33.889  1.00  0.00     0.148 A 
ATOM     89  C   UNL A   1      49.763  25.826  32.972  1.00  0.00     0.002 A 
ATOM     90  C   UNL A   1      48.490  24.204  34.251  1.00  0.00     0.091 A 
ATOM     91  F   UNL A   1      46.110  24.357  34.282  1.00  0.00    -0.205 F 
ATOM     92  C   UNL A   1      49.720  24.693  33.781  1.00  0.00     0.022 A 
BRANCH  90  93
ATOM     93  S   UNL A   1      48.539  22.800  35.369  1.00  0.00     0.127 S 
ATOM     94  O   UNL A   1      47.834  21.779  34.597  1.00  0.00    -0.237 OA
ATOM     95  O   UNL A   1      49.978  22.571  35.514  1.00  0.00    -0.237 OA
ATOM     96  O   UNL A   1      47.871  23.232  36.589  1.00  0.00    -0.744 OA
ENDBRANCH  90  93
ENDBRANCH  63  86
ENDBRANCH  37  38
ENDBRANCH  29  32
ENDBRANCH  27  28
ENDBRANCH  26  27
ENDBRANCH  25  26
ENDBRANCH  24  25
ENDBRANCH   1  24
TORSDOF 21
ENDMDL
MODEL 3
REMARK VINA RESULT:     -10.2      5.238     10.681
REMARK SMILES CCOC(=O)[C@H](C)NC(=O)N1CC[C@H](C(=O)NCCCCCCNC(=O)c2ccc(-c3c4nc(c(-c5cccc(S(=O)(=O)[O-])c5F)c5ccc([nH]5)c(-c5cccc(S(=O)(=O)[O-])c5F)c5nc(c(-c6cccc(S(=O)(=O)[O-])c6F)c6ccc3[nH]6)C=C5)C=C4)cc2)[C@@H]1C
REMARK SMILES IDX 19 1 18 2 17 3 15 4 16 5 14 7 11 8 12 9 90 10 13 11 91 12
REMARK SMILES IDX 9 13 8 14 10 16 6 17 7 18 4 19 5 20 3 21 2 22 1 23 20 24
REMARK SMILES IDX 21 25 22 26 23 27 24 28 25 29 26 31 27 32 28 33 89 34 29 35
REMARK SMILES IDX 88 36 30 37 31 38 32 39 82 40 33 41 87 42 81 43 83 44 34 45
REMARK SMILES IDX 86 46 80 47 79 48 35 50 67 51 47 52 66 53 48 54 51 55 65 56
REMARK SMILES IDX 84 57 49 58 50 59 64 61 85 62 52 63 36 64 37 65 45 66 38 67
REMARK SMILES IDX 40 68 46 69 39 70 41 71 42 72 43 73 44 74 68 75 69 76 77 77
REMARK SMILES IDX 70 78 72 79 78 80 71 81 73 82 74 83 75 84 76 85 53 86 54 87
REMARK SMILES IDX 62 88 55 89 57 90 63 91 56 92 58 93 59 94 60 95 61 96
REMARK H PARENT 17 6 8 15 24 30 83 49 51 60
REMARK Flexibility Score: inf
ROOT
ATOM      1  C   UNL A   1      34.248  22.286  24.470  1.00  0.00     0.021 C 
ENDROOT
BRANCH   1   2
ATOM      2  C   UNL A   1      33.761  23.178  25.604  1.00  0.00     0.116 C 
BRANCH   2   3
ATOM      3  N   UNL A   1      32.478  22.739  26.122  1.00  0.00    -0.356 N 
ATOM      4  C   UNL A   1      31.271  23.375  26.120  1.00  0.00     0.225 C 
ATOM      5  O   UNL A   1      30.336  22.795  26.664  1.00  0.00    -0.275 OA
ATOM      6  H   UNL A   1      32.478  21.846  26.538  1.00  0.00     0.163 HD
BRANCH   4   7
ATOM      7  C   UNL A   1      31.186  24.764  25.495  1.00  0.00     0.102 C 
ATOM      8  N   UNL A   1      32.216  25.791  23.601  1.00  0.00    -0.321 N 
ATOM      9  C   UNL A   1      33.225  25.720  24.626  1.00  0.00     0.122 C 
ATOM     10  C   UNL A   1      31.094  24.903  23.950  1.00  0.00     0.096 C 
ATOM     11  C   UNL A   1      32.404  25.627  25.887  1.00  0.00     0.037 C 
ATOM     12  C   UNL A   1      31.144  23.627  23.111  1.00  0.00     0.032 C 
BRANCH   8  13
ATOM     13  C   UNL A   1      32.534  26.338  22.401  1.00  0.00     0.318 C 
ATOM     14  N   UNL A   1      31.873  27.417  21.949  1.00  0.00    -0.325 N 
ATOM     15  H   UNL A   1      31.886  27.523  20.971  1.00  0.00     0.166 HD
ATOM     16  O   UNL A   1      33.455  25.907  21.705  1.00  0.00    -0.249 OA
BRANCH  14  17
ATOM     17  C   UNL A   1      31.138  28.462  22.663  1.00  0.00     0.190 C 
ATOM     18  C   UNL A   1      29.836  27.894  23.217  1.00  0.00     0.043 C 
BRANCH  17  19
ATOM     19  C   UNL A   1      31.994  29.088  23.776  1.00  0.00     0.328 C 
ATOM     20  O   UNL A   1      33.196  29.307  23.683  1.00  0.00    -0.250 OA
BRANCH  19  21
ATOM     21  O   UNL A   1      31.263  29.270  24.914  1.00  0.00    -0.464 OA
BRANCH  21  22
ATOM     22  C   UNL A   1      31.969  29.722  26.075  1.00  0.00     0.229 C 
ATOM     23  C   UNL A   1      31.706  28.833  27.277  1.00  0.00     0.049 C 
ENDBRANCH  21  22
ENDBRANCH  19  21
ENDBRANCH  17  19
ENDBRANCH  14  17
ENDBRANCH   8  13
ENDBRANCH   4   7
ENDBRANCH   2   3
ENDBRANCH   1   2
BRANCH   1  24
ATOM     24  C   UNL A   1      35.072  23.005  23.397  1.00  0.00     0.002 C 
BRANCH  24  25
ATOM     25  C   UNL A   1      36.586  22.780  23.473  1.00  0.00     0.002 C 
BRANCH  25  26
ATOM     26  C   UNL A   1      37.022  21.530  24.237  1.00  0.00     0.021 C 
BRANCH  26  27
ATOM     27  C   UNL A   1      37.586  21.794  25.627  1.00  0.00     0.116 C 
BRANCH  27  28
ATOM     28  N   UNL A   1      38.622  20.841  25.992  1.00  0.00    -0.352 N 
ATOM     29  C   UNL A   1      39.878  21.082  26.488  1.00  0.00     0.251 C 
ATOM     30  H   UNL A   1      38.390  19.893  25.868  1.00  0.00     0.163 HD
ATOM     31  O   UNL A   1      40.690  20.164  26.583  1.00  0.00    -0.269 OA
BRANCH  29  32
ATOM     32  C   UNL A   1      40.257  22.455  26.884  1.00  0.00     0.039 A 
ATOM     33  C   UNL A   1      41.120  22.632  27.967  1.00  0.00     0.014 A 
ATOM     34  C   UNL A   1      39.773  23.562  26.181  1.00  0.00     0.014 A 
ATOM     35  C   UNL A   1      41.539  23.917  28.312  1.00  0.00     0.010 A 
ATOM     36  C   UNL A   1      40.255  24.834  26.475  1.00  0.00     0.010 A 
ATOM     37  C   UNL A   1      41.136  25.027  27.550  1.00  0.00    -0.014 A 
BRANCH  37  38
ATOM     38  C   UNL A   1      41.631  26.391  27.861  1.00  0.00     0.031 A 
ATOM     39  C   UNL A   1      43.041  26.785  27.511  1.00  0.00     0.074 A 
ATOM     40  C   UNL A   1      40.835  27.253  28.524  1.00  0.00     0.049 A 
ATOM     41  N   UNL A   1      43.660  27.916  27.734  1.00  0.00    -0.248 NA
ATOM     42  C   UNL A   1      43.875  25.770  26.847  1.00  0.00     0.031 C 
ATOM     43  C   UNL A   1      39.477  26.963  28.989  1.00  0.00     0.029 A 
ATOM     44  N   UNL A   1      41.061  28.540  28.945  1.00  0.00    -0.354 N 
ATOM     45  C   UNL A   1      44.958  27.739  27.271  1.00  0.00     0.074 A 
ATOM     46  C   UNL A   1      45.050  26.379  26.788  1.00  0.00     0.031 C 
ATOM     47  C   UNL A   1      38.987  28.042  29.619  1.00  0.00     0.029 A 
ATOM     48  C   UNL A   1      40.005  29.087  29.637  1.00  0.00     0.049 A 
ATOM     49  H   UNL A   1      41.898  29.026  28.767  1.00  0.00     0.167 HD
ATOM     50  C   UNL A   1      45.972  28.634  27.225  1.00  0.00     0.034 A 
ATOM     51  C   UNL A   1      39.876  30.290  30.229  1.00  0.00     0.034 A 
ATOM     52  C   UNL A   1      45.866  29.996  27.675  1.00  0.00     0.049 A 
ATOM     53  C   UNL A   1      41.009  31.275  30.139  1.00  0.00     0.074 A 
ATOM     54  C   UNL A   1      46.810  31.004  27.593  1.00  0.00     0.029 A 
ATOM     55  N   UNL A   1      44.756  30.537  28.305  1.00  0.00    -0.354 N 
ATOM     56  N   UNL A   1      42.175  31.140  29.555  1.00  0.00    -0.248 NA
ATOM     57  C   UNL A   1      40.796  32.592  30.756  1.00  0.00     0.031 C 
ATOM     58  C   UNL A   1      46.283  32.145  28.206  1.00  0.00     0.029 A 
ATOM     59  C   UNL A   1      44.996  31.861  28.632  1.00  0.00     0.049 A 
ATOM     60  H   UNL A   1      43.920  30.051  28.494  1.00  0.00     0.167 HD
ATOM     61  C   UNL A   1      42.818  32.364  29.701  1.00  0.00     0.074 A 
ATOM     62  C   UNL A   1      41.903  33.235  30.409  1.00  0.00     0.031 C 
ATOM     63  C   UNL A   1      44.059  32.731  29.296  1.00  0.00     0.034 A 
BRANCH  50  64
ATOM     64  C   UNL A   1      47.281  28.181  26.628  1.00  0.00     0.023 A 
ATOM     65  C   UNL A   1      48.356  27.840  27.475  1.00  0.00     0.012 A 
ATOM     66  C   UNL A   1      47.427  28.036  25.234  1.00  0.00     0.148 A 
ATOM     67  C   UNL A   1      49.567  27.399  26.943  1.00  0.00     0.002 A 
ATOM     68  C   UNL A   1      48.621  27.548  24.715  1.00  0.00     0.091 A 
ATOM     69  F   UNL A   1      46.402  28.383  24.443  1.00  0.00    -0.205 F 
ATOM     70  C   UNL A   1      49.696  27.242  25.567  1.00  0.00     0.022 A 
BRANCH  68  71
ATOM     71  S   UNL A   1      48.860  27.233  22.963  1.00  0.00     0.127 S 
ATOM     72  O   UNL A   1      50.317  27.281  22.851  1.00  0.00    -0.237 OA
ATOM     73  O   UNL A   1      48.281  25.897  22.811  1.00  0.00    -0.237 OA
ATOM     74  O   UNL A   1      48.145  28.290  22.263  1.00  0.00    -0.744 OA
ENDBRANCH  68  71
ENDBRANCH  50  64
BRANCH  51  75
ATOM     75  C   UNL A   1      38.603  30.650  30.915  1.00  0.00     0.023 A 
ATOM     76  C   UNL A   1      38.428  30.324  32.275  1.00  0.00     0.012 A 
ATOM     77  C   UNL A   1      37.574  31.330  30.235  1.00  0.00     0.148 A 
ATOM     78  C   UNL A   1      37.237  30.634  32.932  1.00  0.00     0.002 A 
ATOM     79  C   UNL A   1      36.414  31.687  30.912  1.00  0.00     0.091 A 
ATOM     80  F   UNL A   1      37.757  31.624  28.940  1.00  0.00    -0.205 F 
ATOM     81  C   UNL A   1      36.235  31.323  32.255  1.00  0.00     0.022 A 
BRANCH  79  82
ATOM     82  S   UNL A   1      35.129  32.689  30.158  1.00  0.00     0.127 S 
ATOM     83  O   UNL A   1      34.660  31.818  29.084  1.00  0.00    -0.237 OA
ATOM     84  O   UNL A   1      34.191  32.862  31.268  1.00  0.00    -0.237 OA
ATOM     85  O   UNL A   1      35.787  33.919  29.733  1.00  0.00    -0.744 OA
ENDBRANCH  79  82
ENDBRANCH  51  75
BRANCH  63  86
ATOM     86  C   UNL A   1      44.492  34.149  29.564  1.00  0.00     0.023 A 
ATOM     87  C   UNL A   1      45.260  34.449  30.706  1.00  0.00     0.012 A 
ATOM     88  C   UNL A   1      44.193  35.174  28.644  1.00  0.00     0.148 A 
ATOM     89  C   UNL A   1      45.691  35.754  30.948  1.00  0.00     0.002 A 
ATOM     90  C   UNL A   1      44.672  36.460  28.862  1.00  0.00     0.091 A 
ATOM     91  F   UNL A   1      43.447  34.872  27.571  1.00  0.00    -0.205 F 
ATOM     92  C   UNL A   1      45.408  36.755  30.021  1.00  0.00     0.022 A 
BRANCH  90  93
ATOM     93  S   UNL A   1      44.443  37.788  27.676  1.00  0.00     0.127 S 
ATOM     94  O   UNL A   1      44.372  38.958  28.550  1.00  0.00    -0.237 OA
ATOM     95  O   UNL A   1      45.663  37.698  26.873  1.00  0.00    -0.237 OA
ATOM     96  O   UNL A   1      43.219  37.476  26.952  1.00  0.00    -0.744 OA
ENDBRANCH  90  93
ENDBRANCH  63  86
ENDBRANCH  37  38
ENDBRANCH  29  32
ENDBRANCH  27  28
ENDBRANCH  26  27
ENDBRANCH  25  26
ENDBRANCH  24  25
ENDBRANCH   1  24
TORSDOF 21
ENDMDL
