MODEL 1
REMARK VINA RESULT:     -11.6      0.000      0.000
REMARK SMILES O=C(CCc1cccnc1)Nc1cccc(F)c1C(=O)NCCCCCCNC(=O)c1ccc(-c2c3nc(c(-c4cccc(S(=O)(=O)[O-])c4F)c4ccc([nH]4)c(-c4cccc(S(=O)(=O)[O-])c4F)c4nc(c(-c5cccc(S(=O)(=O)[O-])c5F)c5ccc2[nH]5)C=C4)C=C3)cc1
REMARK SMILES IDX 24 1 23 2 22 3 21 4 19 5 20 6 18 8 12 9 13 10 14 11 16 12
REMARK SMILES IDX 15 13 17 14 11 15 1 16 2 17 3 19 4 20 5 21 6 22 10 23 7 24
REMARK SMILES IDX 9 25 8 26 25 27 26 28 27 29 28 30 29 31 30 33 31 34 32 35
REMARK SMILES IDX 93 36 33 37 92 38 34 39 35 40 36 41 86 42 37 43 91 44 85 45
REMARK SMILES IDX 87 46 38 47 90 48 84 49 83 50 39 52 71 53 51 54 70 55 52 56
REMARK SMILES IDX 55 57 69 58 88 59 53 60 54 61 68 63 89 64 56 65 40 66 41 67
REMARK SMILES IDX 49 68 42 69 44 70 50 71 43 72 45 73 46 74 47 75 48 76 72 77
REMARK SMILES IDX 73 78 81 79 74 80 76 81 82 82 75 83 77 84 78 85 79 86 80 87
REMARK SMILES IDX 57 88 58 89 66 90 59 91 61 92 67 93 60 94 62 95 63 96 64 97
REMARK SMILES IDX 65 98
REMARK H PARENT 21 7 11 18 28 32 87 51 55 62
REMARK Flexibility Score: inf
ROOT
ATOM      1  C   UNL A   1      37.048  21.797  25.045  1.00  0.00     0.002 C 
ENDROOT
BRANCH   1   2
ATOM      2  C   UNL A   1      35.943  22.785  24.655  1.00  0.00     0.021 C 
BRANCH   2   3
ATOM      3  C   UNL A   1      35.749  24.024  25.530  1.00  0.00     0.116 C 
BRANCH   3   4
ATOM      4  N   UNL A   1      34.405  24.189  26.055  1.00  0.00    -0.352 N 
ATOM      5  C   UNL A   1      33.323  24.905  25.592  1.00  0.00     0.256 C 
ATOM      6  O   UNL A   1      32.253  24.748  26.185  1.00  0.00    -0.269 OA
ATOM      7  H   UNL A   1      34.238  23.703  26.895  1.00  0.00     0.163 HD
BRANCH   5   8
ATOM      8  C   UNL A   1      33.372  25.901  24.487  1.00  0.00     0.099 A 
ATOM      9  C   UNL A   1      33.237  25.481  23.137  1.00  0.00     0.056 A 
ATOM     10  C   UNL A   1      33.223  26.449  22.117  1.00  0.00     0.027 A 
ATOM     11  C   UNL A   1      33.413  27.801  22.400  1.00  0.00     0.005 A 
ATOM     12  C   UNL A   1      33.668  27.247  24.728  1.00  0.00     0.138 A 
ATOM     13  C   UNL A   1      33.665  28.195  23.705  1.00  0.00     0.040 A 
ATOM     14  F   UNL A   1      34.035  27.674  25.943  1.00  0.00    -0.206 F 
BRANCH   9  15
ATOM     15  N   UNL A   1      33.118  24.098  22.807  1.00  0.00    -0.325 N 
ATOM     16  O   UNL A   1      30.876  23.760  23.285  1.00  0.00    -0.275 OA
ATOM     17  C   UNL A   1      31.983  23.325  22.960  1.00  0.00     0.224 C 
ATOM     18  H   UNL A   1      33.916  23.655  22.437  1.00  0.00     0.169 HD
BRANCH  17  19
ATOM     19  C   UNL A   1      32.146  21.820  22.795  1.00  0.00     0.105 C 
BRANCH  19  20
ATOM     20  C   UNL A   1      32.430  20.987  24.044  1.00  0.00     0.047 C 
BRANCH  20  21
ATOM     21  C   UNL A   1      32.826  19.555  23.799  1.00  0.00    -0.029 A 
ATOM     22  C   UNL A   1      33.645  18.888  24.713  1.00  0.00     0.007 A 
ATOM     23  C   UNL A   1      32.411  18.836  22.681  1.00  0.00     0.114 A 
ATOM     24  C   UNL A   1      33.936  17.539  24.530  1.00  0.00     0.020 A 
ATOM     25  N   UNL A   1      32.683  17.528  22.473  1.00  0.00    -0.264 NA
ATOM     26  C   UNL A   1      33.422  16.905  23.414  1.00  0.00     0.111 A 
ENDBRANCH  20  21
ENDBRANCH  19  20
ENDBRANCH  17  19
ENDBRANCH   9  15
ENDBRANCH   5   8
ENDBRANCH   3   4
ENDBRANCH   2   3
ENDBRANCH   1   2
BRANCH   1  27
ATOM     27  C   UNL A   1      36.852  20.328  24.667  1.00  0.00     0.002 C 
BRANCH  27  28
ATOM     28  C   UNL A   1      38.040  19.388  24.885  1.00  0.00     0.021 C 
BRANCH  28  29
ATOM     29  C   UNL A   1      38.959  19.709  26.059  1.00  0.00     0.116 C 
BRANCH  29  30
ATOM     30  N   UNL A   1      40.195  18.947  26.045  1.00  0.00    -0.352 N 
ATOM     31  C   UNL A   1      41.495  19.383  26.158  1.00  0.00     0.251 C 
ATOM     32  H   UNL A   1      40.088  17.974  25.940  1.00  0.00     0.163 HD
ATOM     33  O   UNL A   1      42.416  18.584  25.997  1.00  0.00    -0.269 OA
BRANCH  31  34
ATOM     34  C   UNL A   1      41.797  20.806  26.445  1.00  0.00     0.039 A 
ATOM     35  C   UNL A   1      42.296  21.143  27.708  1.00  0.00     0.014 A 
ATOM     36  C   UNL A   1      41.572  21.810  25.499  1.00  0.00     0.014 A 
ATOM     37  C   UNL A   1      42.619  22.472  28.000  1.00  0.00     0.010 A 
ATOM     38  C   UNL A   1      41.960  23.123  25.768  1.00  0.00     0.010 A 
ATOM     39  C   UNL A   1      42.483  23.471  27.022  1.00  0.00    -0.014 A 
BRANCH  39  40
ATOM     40  C   UNL A   1      42.896  24.874  27.297  1.00  0.00     0.031 A 
ATOM     41  C   UNL A   1      41.941  25.842  27.943  1.00  0.00     0.074 A 
ATOM     42  C   UNL A   1      44.113  25.298  26.902  1.00  0.00     0.049 A 
ATOM     43  N   UNL A   1      42.123  27.104  28.236  1.00  0.00    -0.248 NA
ATOM     44  C   UNL A   1      40.601  25.337  28.289  1.00  0.00     0.031 C 
ATOM     45  C   UNL A   1      45.101  24.482  26.193  1.00  0.00     0.029 A 
ATOM     46  N   UNL A   1      44.722  26.525  27.018  1.00  0.00    -0.354 N 
ATOM     47  C   UNL A   1      40.919  27.551  28.766  1.00  0.00     0.074 A 
ATOM     48  C   UNL A   1      40.001  26.435  28.731  1.00  0.00     0.031 C 
ATOM     49  C   UNL A   1      46.191  25.224  25.946  1.00  0.00     0.029 A 
ATOM     50  C   UNL A   1      45.975  26.577  26.452  1.00  0.00     0.049 A 
ATOM     51  H   UNL A   1      44.301  27.294  27.465  1.00  0.00     0.167 HD
ATOM     52  C   UNL A   1      40.614  28.772  29.265  1.00  0.00     0.034 A 
ATOM     53  C   UNL A   1      46.852  27.596  26.347  1.00  0.00     0.034 A 
ATOM     54  C   UNL A   1      41.548  29.863  29.353  1.00  0.00     0.049 A 
ATOM     55  C   UNL A   1      46.508  28.928  26.956  1.00  0.00     0.074 A 
ATOM     56  C   UNL A   1      41.360  31.103  29.938  1.00  0.00     0.029 A 
ATOM     57  N   UNL A   1      42.836  29.850  28.844  1.00  0.00    -0.354 N 
ATOM     58  N   UNL A   1      45.421  29.280  27.600  1.00  0.00    -0.248 NA
ATOM     59  C   UNL A   1      47.519  29.993  26.862  1.00  0.00     0.031 C 
ATOM     60  C   UNL A   1      42.526  31.851  29.759  1.00  0.00     0.029 A 
ATOM     61  C   UNL A   1      43.450  31.064  29.090  1.00  0.00     0.049 A 
ATOM     62  H   UNL A   1      43.251  29.089  28.377  1.00  0.00     0.167 HD
ATOM     63  C   UNL A   1      45.630  30.592  28.013  1.00  0.00     0.074 A 
ATOM     64  C   UNL A   1      46.953  30.968  27.562  1.00  0.00     0.031 C 
ATOM     65  C   UNL A   1      44.790  31.411  28.692  1.00  0.00     0.034 A 
BRANCH  52  66
ATOM     66  C   UNL A   1      39.236  28.992  29.829  1.00  0.00     0.023 A 
ATOM     67  C   UNL A   1      38.947  28.558  31.138  1.00  0.00     0.012 A 
ATOM     68  C   UNL A   1      38.273  29.736  29.119  1.00  0.00     0.148 A 
ATOM     69  C   UNL A   1      37.717  28.847  31.726  1.00  0.00     0.002 A 
ATOM     70  C   UNL A   1      37.066  30.059  29.728  1.00  0.00     0.091 A 
ATOM     71  F   UNL A   1      38.562  30.127  27.869  1.00  0.00    -0.205 F 
ATOM     72  C   UNL A   1      36.783  29.608  31.028  1.00  0.00     0.022 A 
BRANCH  70  73
ATOM     73  S   UNL A   1      35.832  31.108  28.949  1.00  0.00     0.127 S 
ATOM     74  O   UNL A   1      35.139  30.153  28.083  1.00  0.00    -0.237 OA
ATOM     75  O   UNL A   1      35.051  31.567  30.098  1.00  0.00    -0.237 OA
ATOM     76  O   UNL A   1      36.569  32.152  28.254  1.00  0.00    -0.744 OA
ENDBRANCH  70  73
ENDBRANCH  52  66
BRANCH  53  77
ATOM     77  C   UNL A   1      48.175  27.364  25.697  1.00  0.00     0.023 A 
ATOM     78  C   UNL A   1      49.255  26.900  26.473  1.00  0.00     0.012 A 
ATOM     79  C   UNL A   1      48.351  27.540  24.311  1.00  0.00     0.148 A 
ATOM     80  C   UNL A   1      50.492  26.634  25.883  1.00  0.00     0.002 A 
ATOM     81  C   UNL A   1      49.568  27.218  23.721  1.00  0.00     0.091 A 
ATOM     82  F   UNL A   1      47.315  27.998  23.593  1.00  0.00    -0.205 F 
ATOM     83  C   UNL A   1      50.644  26.779  24.507  1.00  0.00     0.022 A 
BRANCH  81  84
ATOM     84  S   UNL A   1      49.806  27.235  21.939  1.00  0.00     0.127 S 
ATOM     85  O   UNL A   1      48.784  26.290  21.493  1.00  0.00    -0.237 OA
ATOM     86  O   UNL A   1      49.533  28.636  21.613  1.00  0.00    -0.237 OA
ATOM     87  O   UNL A   1      51.184  26.828  21.723  1.00  0.00    -0.744 OA
ENDBRANCH  81  84
ENDBRANCH  53  77
BRANCH  65  88
ATOM     88  C   UNL A   1      45.262  32.801  29.029  1.00  0.00     0.023 A 
ATOM     89  C   UNL A   1      46.096  33.000  30.145  1.00  0.00     0.012 A 
ATOM     90  C   UNL A   1      45.004  33.875  28.154  1.00  0.00     0.148 A 
ATOM     91  C   UNL A   1      46.660  34.252  30.392  1.00  0.00     0.002 A 
ATOM     92  C   UNL A   1      45.608  35.106  28.379  1.00  0.00     0.091 A 
ATOM     93  F   UNL A   1      44.195  33.664  27.105  1.00  0.00    -0.205 F 
ATOM     94  C   UNL A   1      46.429  35.299  29.501  1.00  0.00     0.022 A 
BRANCH  92  95
ATOM     95  S   UNL A   1      45.458  36.481  27.231  1.00  0.00     0.127 S 
ATOM     96  O   UNL A   1      46.054  37.575  27.998  1.00  0.00    -0.237 OA
ATOM     97  O   UNL A   1      46.260  36.024  26.096  1.00  0.00    -0.237 OA
ATOM     98  O   UNL A   1      44.035  36.623  26.953  1.00  0.00    -0.744 OA
ENDBRANCH  92  95
ENDBRANCH  65  88
ENDBRANCH  39  40
ENDBRANCH  31  34
ENDBRANCH  29  30
ENDBRANCH  28  29
ENDBRANCH  27  28
ENDBRANCH   1  27
TORSDOF 20
ENDMDL
MODEL 2
REMARK VINA RESULT:     -11.4      2.583      8.521
REMARK SMILES O=C(CCc1cccnc1)Nc1cccc(F)c1C(=O)NCCCCCCNC(=O)c1ccc(-c2c3nc(c(-c4cccc(S(=O)(=O)[O-])c4F)c4ccc([nH]4)c(-c4cccc(S(=O)(=O)[O-])c4F)c4nc(c(-c5cccc(S(=O)(=O)[O-])c5F)c5ccc2[nH]5)C=C4)C=C3)cc1
REMARK SMILES IDX 24 1 23 2 22 3 21 4 19 5 20 6 18 8 12 9 13 10 14 11 16 12
REMARK SMILES IDX 15 13 17 14 11 15 1 16 2 17 3 19 4 20 5 21 6 22 10 23 7 24
REMARK SMILES IDX 9 25 8 26 25 27 26 28 27 29 28 30 29 31 30 33 31 34 32 35
REMARK SMILES IDX 93 36 33 37 92 38 34 39 35 40 36 41 86 42 37 43 91 44 85 45
REMARK SMILES IDX 87 46 38 47 90 48 84 49 83 50 39 52 71 53 51 54 70 55 52 56
REMARK SMILES IDX 55 57 69 58 88 59 53 60 54 61 68 63 89 64 56 65 40 66 41 67
REMARK SMILES IDX 49 68 42 69 44 70 50 71 43 72 45 73 46 74 47 75 48 76 72 77
REMARK SMILES IDX 73 78 81 79 74 80 76 81 82 82 75 83 77 84 78 85 79 86 80 87
REMARK SMILES IDX 57 88 58 89 66 90 59 91 61 92 67 93 60 94 62 95 63 96 64 97
REMARK SMILES IDX 65 98
REMARK H PARENT 21 7 11 18 28 32 87 51 55 62
REMARK Flexibility Score: inf
ROOT
ATOM      1  C   UNL A   1      34.867  23.578  24.719  1.00  0.00     0.002 C 
ENDROOT
BRANCH   1   2
ATOM      2  C   UNL A   1      34.329  24.339  23.504  1.00  0.00     0.021 C 
BRANCH   2   3
ATOM      3  C   UNL A   1      32.846  24.711  23.490  1.00  0.00     0.116 C 
BRANCH   3   4
ATOM      4  N   UNL A   1      32.186  24.614  24.780  1.00  0.00    -0.352 N 
ATOM      5  C   UNL A   1      31.828  25.575  25.700  1.00  0.00     0.256 C 
ATOM      6  O   UNL A   1      31.149  25.205  26.660  1.00  0.00    -0.269 OA
ATOM      7  H   UNL A   1      31.952  23.695  25.045  1.00  0.00     0.163 HD
BRANCH   5   8
ATOM      8  C   UNL A   1      32.266  26.997  25.659  1.00  0.00     0.099 A 
ATOM      9  C   UNL A   1      31.374  28.008  25.210  1.00  0.00     0.056 A 
ATOM     10  C   UNL A   1      31.791  29.351  25.240  1.00  0.00     0.027 A 
ATOM     11  C   UNL A   1      33.084  29.699  25.630  1.00  0.00     0.005 A 
ATOM     12  C   UNL A   1      33.586  27.366  25.940  1.00  0.00     0.138 A 
ATOM     13  C   UNL A   1      33.990  28.700  25.953  1.00  0.00     0.040 A 
ATOM     14  F   UNL A   1      34.539  26.446  26.143  1.00  0.00    -0.206 F 
BRANCH   9  15
ATOM     15  N   UNL A   1      30.071  27.678  24.731  1.00  0.00    -0.325 N 
ATOM     16  O   UNL A   1      30.430  27.833  22.447  1.00  0.00    -0.275 OA
ATOM     17  C   UNL A   1      29.674  27.674  23.408  1.00  0.00     0.224 C 
ATOM     18  H   UNL A   1      29.396  27.430  25.403  1.00  0.00     0.169 HD
BRANCH  17  19
ATOM     19  C   UNL A   1      28.181  27.550  23.136  1.00  0.00     0.105 C 
BRANCH  19  20
ATOM     20  C   UNL A   1      27.287  28.743  23.473  1.00  0.00     0.047 C 
BRANCH  20  21
ATOM     21  C   UNL A   1      27.691  30.056  22.857  1.00  0.00    -0.029 A 
ATOM     22  C   UNL A   1      27.820  31.194  23.656  1.00  0.00     0.007 A 
ATOM     23  C   UNL A   1      27.950  30.206  21.497  1.00  0.00     0.114 A 
ATOM     24  C   UNL A   1      28.279  32.385  23.100  1.00  0.00     0.020 A 
ATOM     25  N   UNL A   1      28.390  31.351  20.928  1.00  0.00    -0.264 NA
ATOM     26  C   UNL A   1      28.565  32.408  21.748  1.00  0.00     0.111 A 
ENDBRANCH  20  21
ENDBRANCH  19  20
ENDBRANCH  17  19
ENDBRANCH   9  15
ENDBRANCH   5   8
ENDBRANCH   3   4
ENDBRANCH   2   3
ENDBRANCH   1   2
BRANCH   1  27
ATOM     27  C   UNL A   1      34.761  22.052  24.707  1.00  0.00     0.002 C 
BRANCH  27  28
ATOM     28  C   UNL A   1      36.069  21.263  24.625  1.00  0.00     0.021 C 
BRANCH  28  29
ATOM     29  C   UNL A   1      37.290  21.892  25.289  1.00  0.00     0.116 C 
BRANCH  29  30
ATOM     30  N   UNL A   1      38.275  20.916  25.720  1.00  0.00    -0.352 N 
ATOM     31  C   UNL A   1      39.501  21.110  26.312  1.00  0.00     0.251 C 
ATOM     32  H   UNL A   1      38.029  19.975  25.566  1.00  0.00     0.163 HD
ATOM     33  O   UNL A   1      40.246  20.148  26.489  1.00  0.00    -0.269 OA
BRANCH  31  34
ATOM     34  C   UNL A   1      39.944  22.467  26.714  1.00  0.00     0.039 A 
ATOM     35  C   UNL A   1      40.913  22.586  27.716  1.00  0.00     0.014 A 
ATOM     36  C   UNL A   1      39.400  23.618  26.138  1.00  0.00     0.014 A 
ATOM     37  C   UNL A   1      41.374  23.851  28.097  1.00  0.00     0.010 A 
ATOM     38  C   UNL A   1      39.910  24.874  26.469  1.00  0.00     0.010 A 
ATOM     39  C   UNL A   1      40.898  25.006  27.456  1.00  0.00    -0.014 A 
BRANCH  39  40
ATOM     40  C   UNL A   1      41.436  26.351  27.800  1.00  0.00     0.031 A 
ATOM     41  C   UNL A   1      42.847  26.728  27.437  1.00  0.00     0.074 A 
ATOM     42  C   UNL A   1      40.672  27.213  28.500  1.00  0.00     0.049 A 
ATOM     43  N   UNL A   1      43.487  27.843  27.676  1.00  0.00    -0.248 NA
ATOM     44  C   UNL A   1      43.655  25.717  26.732  1.00  0.00     0.031 C 
ATOM     45  C   UNL A   1      39.316  26.939  28.982  1.00  0.00     0.029 A 
ATOM     46  N   UNL A   1      40.931  28.486  28.949  1.00  0.00    -0.354 N 
ATOM     47  C   UNL A   1      44.774  27.659  27.185  1.00  0.00     0.074 A 
ATOM     48  C   UNL A   1      44.837  26.314  26.658  1.00  0.00     0.031 C 
ATOM     49  C   UNL A   1      38.861  28.010  29.650  1.00  0.00     0.029 A 
ATOM     50  C   UNL A   1      39.897  29.039  29.671  1.00  0.00     0.049 A 
ATOM     51  H   UNL A   1      41.776  28.958  28.772  1.00  0.00     0.167 HD
ATOM     52  C   UNL A   1      45.801  28.540  27.149  1.00  0.00     0.034 A 
ATOM     53  C   UNL A   1      39.792  30.236  30.283  1.00  0.00     0.034 A 
ATOM     54  C   UNL A   1      45.717  29.896  27.620  1.00  0.00     0.049 A 
ATOM     55  C   UNL A   1      40.930  31.216  30.182  1.00  0.00     0.074 A 
ATOM     56  C   UNL A   1      46.673  30.893  27.530  1.00  0.00     0.029 A 
ATOM     57  N   UNL A   1      44.624  30.446  28.269  1.00  0.00    -0.354 N 
ATOM     58  N   UNL A   1      42.080  31.077  29.569  1.00  0.00    -0.248 NA
ATOM     59  C   UNL A   1      40.747  32.528  30.822  1.00  0.00     0.031 C 
ATOM     60  C   UNL A   1      46.168  32.039  28.149  1.00  0.00     0.029 A 
ATOM     61  C   UNL A   1      44.886  31.764  28.596  1.00  0.00     0.049 A 
ATOM     62  H   UNL A   1      43.786  29.969  28.467  1.00  0.00     0.167 HD
ATOM     63  C   UNL A   1      42.743  32.290  29.721  1.00  0.00     0.074 A 
ATOM     64  C   UNL A   1      41.860  33.159  30.469  1.00  0.00     0.031 C 
ATOM     65  C   UNL A   1      43.979  32.642  29.289  1.00  0.00     0.034 A 
BRANCH  52  66
ATOM     66  C   UNL A   1      47.096  28.105  26.514  1.00  0.00     0.023 A 
ATOM     67  C   UNL A   1      48.109  27.551  27.321  1.00  0.00     0.012 A 
ATOM     68  C   UNL A   1      47.259  28.127  25.115  1.00  0.00     0.148 A 
ATOM     69  C   UNL A   1      49.271  27.037  26.748  1.00  0.00     0.002 A 
ATOM     70  C   UNL A   1      48.401  27.573  24.547  1.00  0.00     0.091 A 
ATOM     71  F   UNL A   1      46.290  28.672  24.367  1.00  0.00    -0.205 F 
ATOM     72  C   UNL A   1      49.411  27.036  25.362  1.00  0.00     0.022 A 
BRANCH  70  73
ATOM     73  S   UNL A   1      48.639  27.441  22.772  1.00  0.00     0.127 S 
ATOM     74  O   UNL A   1      49.958  28.053  22.605  1.00  0.00    -0.237 OA
ATOM     75  O   UNL A   1      48.610  25.992  22.565  1.00  0.00    -0.237 OA
ATOM     76  O   UNL A   1      47.537  28.169  22.160  1.00  0.00    -0.744 OA
ENDBRANCH  70  73
ENDBRANCH  52  66
BRANCH  53  77
ATOM     77  C   UNL A   1      38.524  30.596  30.982  1.00  0.00     0.023 A 
ATOM     78  C   UNL A   1      38.383  30.305  32.353  1.00  0.00     0.012 A 
ATOM     79  C   UNL A   1      37.487  31.276  30.314  1.00  0.00     0.148 A 
ATOM     80  C   UNL A   1      37.224  30.668  33.041  1.00  0.00     0.002 A 
ATOM     81  C   UNL A   1      36.361  31.686  31.019  1.00  0.00     0.091 A 
ATOM     82  F   UNL A   1      37.634  31.529  29.005  1.00  0.00    -0.205 F 
ATOM     83  C   UNL A   1      36.221  31.370  32.379  1.00  0.00     0.022 A 
BRANCH  81  84
ATOM     84  S   UNL A   1      35.090  32.721  30.282  1.00  0.00     0.127 S 
ATOM     85  O   UNL A   1      35.871  33.867  29.817  1.00  0.00    -0.237 OA
ATOM     86  O   UNL A   1      34.577  31.854  29.218  1.00  0.00    -0.237 OA
ATOM     87  O   UNL A   1      34.138  32.991  31.345  1.00  0.00    -0.744 OA
ENDBRANCH  81  84
ENDBRANCH  53  77
BRANCH  65  88
ATOM     88  C   UNL A   1      44.469  34.036  29.578  1.00  0.00     0.023 A 
ATOM     89  C   UNL A   1      45.269  34.270  30.713  1.00  0.00     0.012 A 
ATOM     90  C   UNL A   1      44.264  35.074  28.646  1.00  0.00     0.148 A 
ATOM     91  C   UNL A   1      45.850  35.521  30.921  1.00  0.00     0.002 A 
ATOM     92  C   UNL A   1      44.886  36.302  28.836  1.00  0.00     0.091 A 
ATOM     93  F   UNL A   1      43.487  34.830  27.581  1.00  0.00    -0.205 F 
ATOM     94  C   UNL A   1      45.673  36.529  29.976  1.00  0.00     0.022 A 
BRANCH  92  95
ATOM     95  S   UNL A   1      44.805  37.625  27.623  1.00  0.00     0.127 S 
ATOM     96  O   UNL A   1      45.015  38.807  28.457  1.00  0.00    -0.237 OA
ATOM     97  O   UNL A   1      45.921  37.297  26.735  1.00  0.00    -0.237 OA
ATOM     98  O   UNL A   1      43.488  37.529  27.006  1.00  0.00    -0.744 OA
ENDBRANCH  92  95
ENDBRANCH  65  88
ENDBRANCH  39  40
ENDBRANCH  31  34
ENDBRANCH  29  30
ENDBRANCH  28  29
ENDBRANCH  27  28
ENDBRANCH   1  27
TORSDOF 20
ENDMDL
MODEL 3
REMARK VINA RESULT:     -11.3      1.786      8.173
REMARK SMILES O=C(CCc1cccnc1)Nc1cccc(F)c1C(=O)NCCCCCCNC(=O)c1ccc(-c2c3nc(c(-c4cccc(S(=O)(=O)[O-])c4F)c4ccc([nH]4)c(-c4cccc(S(=O)(=O)[O-])c4F)c4nc(c(-c5cccc(S(=O)(=O)[O-])c5F)c5ccc2[nH]5)C=C4)C=C3)cc1
REMARK SMILES IDX 24 1 23 2 22 3 21 4 19 5 20 6 18 8 12 9 13 10 14 11 16 12
REMARK SMILES IDX 15 13 17 14 11 15 1 16 2 17 3 19 4 20 5 21 6 22 10 23 7 24
REMARK SMILES IDX 9 25 8 26 25 27 26 28 27 29 28 30 29 31 30 33 31 34 32 35
REMARK SMILES IDX 93 36 33 37 92 38 34 39 35 40 36 41 86 42 37 43 91 44 85 45
REMARK SMILES IDX 87 46 38 47 90 48 84 49 83 50 39 52 71 53 51 54 70 55 52 56
REMARK SMILES IDX 55 57 69 58 88 59 53 60 54 61 68 63 89 64 56 65 40 66 41 67
REMARK SMILES IDX 49 68 42 69 44 70 50 71 43 72 45 73 46 74 47 75 48 76 72 77
REMARK SMILES IDX 73 78 81 79 74 80 76 81 82 82 75 83 77 84 78 85 79 86 80 87
REMARK SMILES IDX 57 88 58 89 66 90 59 91 61 92 67 93 60 94 62 95 63 96 64 97
REMARK SMILES IDX 65 98
REMARK H PARENT 21 7 11 18 28 32 87 51 55 62
REMARK Flexibility Score: inf
ROOT
ATOM      1  C   UNL A   1      35.272  23.944  25.763  1.00  0.00     0.002 C 
ENDROOT
BRANCH   1   2
ATOM      2  C   UNL A   1      34.408  25.149  25.378  1.00  0.00     0.021 C 
BRANCH   2   3
ATOM      3  C   UNL A   1      33.342  25.613  26.371  1.00  0.00     0.116 C 
BRANCH   3   4
ATOM      4  N   UNL A   1      32.000  25.698  25.823  1.00  0.00    -0.352 N 
ATOM      5  C   UNL A   1      31.181  24.747  25.254  1.00  0.00     0.256 C 
ATOM      6  O   UNL A   1      30.024  25.086  24.998  1.00  0.00    -0.269 OA
ATOM      7  H   UNL A   1      31.603  26.598  25.866  1.00  0.00     0.163 HD
BRANCH   5   8
ATOM      8  C   UNL A   1      31.614  23.378  24.859  1.00  0.00     0.099 A 
ATOM      9  C   UNL A   1      31.917  23.088  23.502  1.00  0.00     0.056 A 
ATOM     10  C   UNL A   1      32.384  21.805  23.165  1.00  0.00     0.027 A 
ATOM     11  C   UNL A   1      32.483  20.796  24.123  1.00  0.00     0.005 A 
ATOM     12  C   UNL A   1      31.621  22.319  25.773  1.00  0.00     0.138 A 
ATOM     13  C   UNL A   1      32.073  21.048  25.423  1.00  0.00     0.040 A 
ATOM     14  F   UNL A   1      31.127  22.464  27.010  1.00  0.00    -0.206 F 
BRANCH   9  15
ATOM     15  N   UNL A   1      31.752  24.075  22.485  1.00  0.00    -0.325 N 
ATOM     16  O   UNL A   1      33.971  24.535  22.005  1.00  0.00    -0.275 OA
ATOM     17  C   UNL A   1      32.769  24.768  21.859  1.00  0.00     0.224 C 
ATOM     18  H   UNL A   1      30.831  24.279  22.203  1.00  0.00     0.169 HD
BRANCH  17  19
ATOM     19  C   UNL A   1      32.366  25.957  20.996  1.00  0.00     0.105 C 
BRANCH  19  20
ATOM     20  C   UNL A   1      31.369  26.959  21.576  1.00  0.00     0.047 C 
BRANCH  20  21
ATOM     21  C   UNL A   1      31.861  27.768  22.746  1.00  0.00    -0.029 A 
ATOM     22  C   UNL A   1      33.230  27.866  23.005  1.00  0.00     0.007 A 
ATOM     23  C   UNL A   1      31.006  28.446  23.611  1.00  0.00     0.114 A 
ATOM     24  C   UNL A   1      33.687  28.686  24.033  1.00  0.00     0.020 A 
ATOM     25  N   UNL A   1      31.419  29.243  24.621  1.00  0.00    -0.264 NA
ATOM     26  C   UNL A   1      32.752  29.361  24.794  1.00  0.00     0.111 A 
ENDBRANCH  20  21
ENDBRANCH  19  20
ENDBRANCH  17  19
ENDBRANCH   9  15
ENDBRANCH   5   8
ENDBRANCH   3   4
ENDBRANCH   2   3
ENDBRANCH   1   2
BRANCH   1  27
ATOM     27  C   UNL A   1      35.577  22.912  24.676  1.00  0.00     0.002 C 
BRANCH  27  28
ATOM     28  C   UNL A   1      36.338  21.655  25.102  1.00  0.00     0.021 C 
BRANCH  28  29
ATOM     29  C   UNL A   1      37.825  21.608  24.762  1.00  0.00     0.116 C 
BRANCH  29  30
ATOM     30  N   UNL A   1      38.561  20.629  25.543  1.00  0.00    -0.352 N 
ATOM     31  C   UNL A   1      39.594  20.814  26.431  1.00  0.00     0.251 C 
ATOM     32  H   UNL A   1      38.278  19.694  25.418  1.00  0.00     0.163 HD
ATOM     33  O   UNL A   1      40.169  19.834  26.901  1.00  0.00    -0.269 OA
BRANCH  31  34
ATOM     34  C   UNL A   1      40.037  22.177  26.809  1.00  0.00     0.039 A 
ATOM     35  C   UNL A   1      41.057  22.312  27.757  1.00  0.00     0.014 A 
ATOM     36  C   UNL A   1      39.444  23.320  26.263  1.00  0.00     0.014 A 
ATOM     37  C   UNL A   1      41.517  23.584  28.112  1.00  0.00     0.010 A 
ATOM     38  C   UNL A   1      39.951  24.583  26.567  1.00  0.00     0.010 A 
ATOM     39  C   UNL A   1      40.989  24.732  27.499  1.00  0.00    -0.014 A 
BRANCH  39  40
ATOM     40  C   UNL A   1      41.524  26.085  27.813  1.00  0.00     0.031 A 
ATOM     41  C   UNL A   1      42.936  26.455  27.446  1.00  0.00     0.074 A 
ATOM     42  C   UNL A   1      40.756  26.962  28.490  1.00  0.00     0.049 A 
ATOM     43  N   UNL A   1      43.573  27.578  27.662  1.00  0.00    -0.248 NA
ATOM     44  C   UNL A   1      43.747  25.430  26.769  1.00  0.00     0.031 C 
ATOM     45  C   UNL A   1      39.398  26.697  28.973  1.00  0.00     0.029 A 
ATOM     46  N   UNL A   1      41.010  28.245  28.910  1.00  0.00    -0.354 N 
ATOM     47  C   UNL A   1      44.862  27.384  27.180  1.00  0.00     0.074 A 
ATOM     48  C   UNL A   1      44.929  26.028  26.685  1.00  0.00     0.031 C 
ATOM     49  C   UNL A   1      38.939  27.783  29.614  1.00  0.00     0.029 A 
ATOM     50  C   UNL A   1      39.973  28.813  29.614  1.00  0.00     0.049 A 
ATOM     51  H   UNL A   1      41.856  28.715  28.725  1.00  0.00     0.167 HD
ATOM     52  C   UNL A   1      45.888  28.266  27.127  1.00  0.00     0.034 A 
ATOM     53  C   UNL A   1      39.864  30.025  30.198  1.00  0.00     0.034 A 
ATOM     54  C   UNL A   1      45.800  29.633  27.566  1.00  0.00     0.049 A 
ATOM     55  C   UNL A   1      41.001  31.004  30.078  1.00  0.00     0.074 A 
ATOM     56  C   UNL A   1      46.755  30.628  27.456  1.00  0.00     0.029 A 
ATOM     57  N   UNL A   1      44.704  30.195  28.198  1.00  0.00    -0.354 N 
ATOM     58  N   UNL A   1      42.154  30.853  29.472  1.00  0.00    -0.248 NA
ATOM     59  C   UNL A   1      40.813  32.330  30.686  1.00  0.00     0.031 C 
ATOM     60  C   UNL A   1      46.246  31.787  28.046  1.00  0.00     0.029 A 
ATOM     61  C   UNL A   1      44.962  31.521  28.495  1.00  0.00     0.049 A 
ATOM     62  H   UNL A   1      43.865  29.722  28.404  1.00  0.00     0.167 HD
ATOM     63  C   UNL A   1      42.814  32.070  29.598  1.00  0.00     0.074 A 
ATOM     64  C   UNL A   1      41.926  32.955  30.323  1.00  0.00     0.031 C 
ATOM     65  C   UNL A   1      44.051  32.414  29.163  1.00  0.00     0.034 A 
BRANCH  52  66
ATOM     66  C   UNL A   1      47.186  27.818  26.508  1.00  0.00     0.023 A 
ATOM     67  C   UNL A   1      48.150  27.177  27.311  1.00  0.00     0.012 A 
ATOM     68  C   UNL A   1      47.396  27.916  25.118  1.00  0.00     0.148 A 
ATOM     69  C   UNL A   1      49.310  26.653  26.744  1.00  0.00     0.002 A 
ATOM     70  C   UNL A   1      48.535  27.352  24.554  1.00  0.00     0.091 A 
ATOM     71  F   UNL A   1      46.474  28.543  24.375  1.00  0.00    -0.205 F 
ATOM     72  C   UNL A   1      49.496  26.728  25.366  1.00  0.00     0.022 A 
BRANCH  70  73
ATOM     73  S   UNL A   1      48.827  27.316  22.781  1.00  0.00     0.127 S 
ATOM     74  O   UNL A   1      50.278  27.492  22.719  1.00  0.00    -0.237 OA
ATOM     75  O   UNL A   1      48.359  25.977  22.421  1.00  0.00    -0.237 OA
ATOM     76  O   UNL A   1      48.046  28.409  22.220  1.00  0.00    -0.744 OA
ENDBRANCH  70  73
ENDBRANCH  52  66
BRANCH  53  77
ATOM     77  C   UNL A   1      38.593  30.398  30.883  1.00  0.00     0.023 A 
ATOM     78  C   UNL A   1      38.422  30.081  32.245  1.00  0.00     0.012 A 
ATOM     79  C   UNL A   1      37.583  31.117  30.213  1.00  0.00     0.148 A 
ATOM     80  C   UNL A   1      37.260  30.457  32.921  1.00  0.00     0.002 A 
ATOM     81  C   UNL A   1      36.456  31.538  30.908  1.00  0.00     0.091 A 
ATOM     82  F   UNL A   1      37.759  31.395  28.913  1.00  0.00    -0.205 F 
ATOM     83  C   UNL A   1      36.284  31.196  32.258  1.00  0.00     0.022 A 
BRANCH  81  84
ATOM     84  S   UNL A   1      35.221  32.618  30.173  1.00  0.00     0.127 S 
ATOM     85  O   UNL A   1      34.268  32.773  31.271  1.00  0.00    -0.237 OA
ATOM     86  O   UNL A   1      36.011  33.814  29.870  1.00  0.00    -0.237 OA
ATOM     87  O   UNL A   1      34.729  31.913  29.001  1.00  0.00    -0.744 OA
ENDBRANCH  81  84
ENDBRANCH  53  77
BRANCH  65  88
ATOM     88  C   UNL A   1      44.537  33.815  29.422  1.00  0.00     0.023 A 
ATOM     89  C   UNL A   1      45.204  34.108  30.626  1.00  0.00     0.012 A 
ATOM     90  C   UNL A   1      44.469  34.794  28.409  1.00  0.00     0.148 A 
ATOM     91  C   UNL A   1      45.787  35.360  30.825  1.00  0.00     0.002 A 
ATOM     92  C   UNL A   1      45.095  36.020  28.595  1.00  0.00     0.091 A 
ATOM     93  F   UNL A   1      43.817  34.495  27.276  1.00  0.00    -0.205 F 
ATOM     94  C   UNL A   1      45.747  36.308  29.804  1.00  0.00     0.022 A 
BRANCH  92  95
ATOM     95  S   UNL A   1      45.190  37.264  27.300  1.00  0.00     0.127 S 
ATOM     96  O   UNL A   1      45.967  36.568  26.276  1.00  0.00    -0.237 OA
ATOM     97  O   UNL A   1      43.781  37.468  26.965  1.00  0.00    -0.237 OA
ATOM     98  O   UNL A   1      45.847  38.420  27.897  1.00  0.00    -0.744 OA
ENDBRANCH  92  95
ENDBRANCH  65  88
ENDBRANCH  39  40
ENDBRANCH  31  34
ENDBRANCH  29  30
ENDBRANCH  28  29
ENDBRANCH  27  28
ENDBRANCH   1  27
TORSDOF 20
ENDMDL
