MODEL 1
REMARK VINA RESULT:     -12.0      0.000      0.000
REMARK SMILES NS(=O)(=O)c1ccc(/N=N/c2ccc(O)c(C(=O)NCCCCCCNC(=O)c3ccc(-c4c5nc(c(-c6cccc(S(=O)(=O)[O-])c6F)c6ccc([nH]6)c(-c6cccc(S(=O)(=O)[O-])c6F)c6nc(c(-c7cccc(S(=O)(=O)[O-])c7F)c7ccc4[nH]7)C=C6)C=C5)cc3)c2)cc1
REMARK SMILES IDX 22 1 21 2 20 3 19 4 17 5 18 6 16 8 11 9 12 10 92 11 13 12
REMARK SMILES IDX 14 13 10 14 9 15 8 16 5 17 6 18 94 19 7 20 93 21 2 22 3 23
REMARK SMILES IDX 4 24 1 25 15 28 23 30 24 31 25 32 26 33 27 34 28 36 29 37
REMARK SMILES IDX 30 38 91 39 31 40 90 41 32 42 33 43 34 44 84 45 35 46 89 47
REMARK SMILES IDX 83 48 85 49 36 50 88 51 82 52 81 53 37 55 69 56 49 57 68 58
REMARK SMILES IDX 50 59 53 60 67 61 86 62 51 63 52 64 66 66 87 67 54 68 38 69
REMARK SMILES IDX 39 70 47 71 40 72 42 73 48 74 41 75 43 76 44 77 45 78 46 79
REMARK SMILES IDX 70 80 71 81 79 82 72 83 74 84 80 85 73 86 75 87 76 88 77 89
REMARK SMILES IDX 78 90 55 91 56 92 64 93 57 94 59 95 65 96 58 97 60 98 61 99
REMARK SMILES IDX 62 100 63 101
REMARK H PARENT 19 7 1 26 1 27 15 29 26 35 85 54 53 65
REMARK Flexibility Score: inf
ROOT
ATOM      1  C   UNL A   1      30.660  29.766  24.242  1.00  0.00     0.002 C 
ENDROOT
BRANCH   1   2
ATOM      2  C   UNL A   1      30.270  28.311  23.981  1.00  0.00     0.021 C 
BRANCH   2   3
ATOM      3  C   UNL A   1      30.622  27.741  22.609  1.00  0.00     0.116 C 
BRANCH   3   4
ATOM      4  N   UNL A   1      31.884  28.229  22.073  1.00  0.00    -0.352 N 
ATOM      5  C   UNL A   1      33.177  27.996  22.485  1.00  0.00     0.255 C 
ATOM      6  O   UNL A   1      34.102  28.611  21.951  1.00  0.00    -0.269 OA
ATOM      7  H   UNL A   1      31.801  28.821  21.292  1.00  0.00     0.163 HD
BRANCH   5   8
ATOM      8  C   UNL A   1      33.503  27.087  23.612  1.00  0.00     0.083 A 
ATOM      9  C   UNL A   1      33.568  24.847  24.583  1.00  0.00     0.087 A 
ATOM     10  C   UNL A   1      33.885  25.412  25.824  1.00  0.00     0.034 A 
ATOM     11  C   UNL A   1      33.458  25.699  23.471  1.00  0.00     0.048 A 
ATOM     12  C   UNL A   1      34.059  26.794  25.956  1.00  0.00     0.049 A 
ATOM     13  C   UNL A   1      33.864  27.626  24.854  1.00  0.00     0.128 A 
BRANCH   9  14
ATOM     14  N   UNL A   1      33.330  23.454  24.502  1.00  0.00    -0.151 NA
ATOM     15  N   UNL A   1      34.371  22.816  24.774  1.00  0.00    -0.151 NA
BRANCH  15  16
ATOM     16  C   UNL A   1      34.238  21.434  24.566  1.00  0.00     0.086 A 
ATOM     17  C   UNL A   1      33.824  18.667  24.443  1.00  0.00     0.082 A 
ATOM     18  C   UNL A   1      32.788  19.540  24.093  1.00  0.00     0.024 A 
ATOM     19  C   UNL A   1      35.068  19.163  24.839  1.00  0.00     0.024 A 
ATOM     20  C   UNL A   1      32.999  20.920  24.163  1.00  0.00     0.031 A 
ATOM     21  C   UNL A   1      35.268  20.545  24.901  1.00  0.00     0.031 A 
BRANCH  17  22
ATOM     22  S   UNL A   1      33.496  16.930  24.397  1.00  0.00     0.238 S 
ATOM     23  O   UNL A   1      33.797  16.449  23.068  1.00  0.00    -0.207 OA
ATOM     24  O   UNL A   1      32.259  16.690  25.092  1.00  0.00    -0.207 OA
BRANCH  22  25
ATOM     25  N   UNL A   1      34.694  16.243  25.368  1.00  0.00    -0.225 NA
ATOM     26  H   UNL A   1      35.556  16.779  25.275  1.00  0.00     0.137 HD
ATOM     27  H   UNL A   1      34.859  15.280  25.073  1.00  0.00     0.137 HD
ENDBRANCH  22  25
ENDBRANCH  17  22
ENDBRANCH  15  16
ENDBRANCH   9  14
BRANCH  13  28
ATOM     28  O   UNL A   1      34.043  28.967  25.061  1.00  0.00    -0.507 OA
ATOM     29  H   UNL A   1      34.876  29.361  24.888  1.00  0.00     0.293 HD
ENDBRANCH  13  28
ENDBRANCH   5   8
ENDBRANCH   3   4
ENDBRANCH   2   3
ENDBRANCH   1   2
BRANCH   1  30
ATOM     30  C   UNL A   1      31.449  30.048  25.523  1.00  0.00     0.002 C 
BRANCH  30  31
ATOM     31  C   UNL A   1      31.304  31.448  26.125  1.00  0.00     0.021 C 
BRANCH  31  32
ATOM     32  C   UNL A   1      32.508  31.982  26.893  1.00  0.00     0.116 C 
BRANCH  32  33
ATOM     33  N   UNL A   1      32.362  33.372  27.291  1.00  0.00    -0.352 N 
ATOM     34  C   UNL A   1      33.095  34.107  28.191  1.00  0.00     0.251 C 
ATOM     35  H   UNL A   1      31.630  33.858  26.849  1.00  0.00     0.163 HD
ATOM     36  O   UNL A   1      32.734  35.247  28.474  1.00  0.00    -0.269 OA
BRANCH  34  37
ATOM     37  C   UNL A   1      34.297  33.531  28.841  1.00  0.00     0.039 A 
ATOM     38  C   UNL A   1      34.124  32.507  29.779  1.00  0.00     0.014 A 
ATOM     39  C   UNL A   1      35.582  34.003  28.562  1.00  0.00     0.014 A 
ATOM     40  C   UNL A   1      35.236  31.924  30.392  1.00  0.00     0.010 A 
ATOM     41  C   UNL A   1      36.696  33.375  29.122  1.00  0.00     0.010 A 
ATOM     42  C   UNL A   1      36.536  32.335  30.050  1.00  0.00    -0.014 A 
BRANCH  42  43
ATOM     43  C   UNL A   1      37.728  31.685  30.655  1.00  0.00     0.031 A 
ATOM     44  C   UNL A   1      38.154  32.026  32.060  1.00  0.00     0.074 A 
ATOM     45  C   UNL A   1      38.465  30.828  29.921  1.00  0.00     0.049 A 
ATOM     46  N   UNL A   1      39.169  31.569  32.749  1.00  0.00    -0.248 NA
ATOM     47  C   UNL A   1      37.347  33.026  32.779  1.00  0.00     0.031 C 
ATOM     48  C   UNL A   1      38.206  30.472  28.524  1.00  0.00     0.029 A 
ATOM     49  N   UNL A   1      39.594  30.113  30.239  1.00  0.00    -0.354 N 
ATOM     50  C   UNL A   1      39.137  32.240  33.966  1.00  0.00     0.074 A 
ATOM     51  C   UNL A   1      38.027  33.165  33.908  1.00  0.00     0.031 C 
ATOM     52  C   UNL A   1      39.139  29.599  28.111  1.00  0.00     0.029 A 
ATOM     53  C   UNL A   1      40.074  29.347  29.202  1.00  0.00     0.049 A 
ATOM     54  H   UNL A   1      40.019  30.146  31.126  1.00  0.00     0.167 HD
ATOM     55  C   UNL A   1      39.934  32.076  35.050  1.00  0.00     0.034 A 
ATOM     56  C   UNL A   1      41.142  28.527  29.142  1.00  0.00     0.034 A 
ATOM     57  C   UNL A   1      41.013  31.127  35.123  1.00  0.00     0.049 A 
ATOM     58  C   UNL A   1      41.981  28.329  30.376  1.00  0.00     0.074 A 
ATOM     59  C   UNL A   1      41.843  30.844  36.194  1.00  0.00     0.029 A 
ATOM     60  N   UNL A   1      41.408  30.299  34.084  1.00  0.00    -0.354 N 
ATOM     61  N   UNL A   1      41.840  28.860  31.566  1.00  0.00    -0.248 NA
ATOM     62  C   UNL A   1      43.101  27.381  30.272  1.00  0.00     0.031 C 
ATOM     63  C   UNL A   1      42.743  29.847  35.800  1.00  0.00     0.029 A 
ATOM     64  C   UNL A   1      42.464  29.499  34.490  1.00  0.00     0.049 A 
ATOM     65  H   UNL A   1      40.999  30.282  33.189  1.00  0.00     0.167 HD
ATOM     66  C   UNL A   1      42.821  28.279  32.363  1.00  0.00     0.074 A 
ATOM     67  C   UNL A   1      43.535  27.337  31.524  1.00  0.00     0.031 C 
ATOM     68  C   UNL A   1      43.118  28.516  33.665  1.00  0.00     0.034 A 
BRANCH  55  69
ATOM     69  C   UNL A   1      39.620  32.892  36.278  1.00  0.00     0.023 A 
ATOM     70  C   UNL A   1      40.170  34.186  36.400  1.00  0.00     0.012 A 
ATOM     71  C   UNL A   1      38.749  32.417  37.276  1.00  0.00     0.148 A 
ATOM     72  C   UNL A   1      39.883  34.981  37.510  1.00  0.00     0.002 A 
ATOM     73  C   UNL A   1      38.434  33.231  38.360  1.00  0.00     0.091 A 
ATOM     74  F   UNL A   1      38.251  31.177  37.155  1.00  0.00    -0.205 F 
ATOM     75  C   UNL A   1      39.008  34.507  38.482  1.00  0.00     0.022 A 
BRANCH  73  76
ATOM     76  S   UNL A   1      37.261  32.746  39.632  1.00  0.00     0.127 S 
ATOM     77  O   UNL A   1      37.829  31.478  40.089  1.00  0.00    -0.237 OA
ATOM     78  O   UNL A   1      37.374  33.845  40.592  1.00  0.00    -0.237 OA
ATOM     79  O   UNL A   1      35.968  32.648  38.970  1.00  0.00    -0.744 OA
ENDBRANCH  73  76
ENDBRANCH  55  69
BRANCH  56  80
ATOM     80  C   UNL A   1      41.421  27.748  27.900  1.00  0.00     0.023 A 
ATOM     81  C   UNL A   1      41.928  28.419  26.769  1.00  0.00     0.012 A 
ATOM     82  C   UNL A   1      41.206  26.359  27.832  1.00  0.00     0.148 A 
ATOM     83  C   UNL A   1      42.176  27.730  25.582  1.00  0.00     0.002 A 
ATOM     84  C   UNL A   1      41.508  25.668  26.662  1.00  0.00     0.091 A 
ATOM     85  F   UNL A   1      40.709  25.734  28.909  1.00  0.00    -0.205 F 
ATOM     86  C   UNL A   1      41.974  26.354  25.530  1.00  0.00     0.022 A 
BRANCH  84  87
ATOM     87  S   UNL A   1      41.413  23.876  26.565  1.00  0.00     0.127 S 
ATOM     88  O   UNL A   1      42.020  23.475  27.831  1.00  0.00    -0.237 OA
ATOM     89  O   UNL A   1      39.970  23.646  26.475  1.00  0.00    -0.237 OA
ATOM     90  O   UNL A   1      42.144  23.520  25.356  1.00  0.00    -0.744 OA
ENDBRANCH  84  87
ENDBRANCH  56  80
BRANCH  68  91
ATOM     91  C   UNL A   1      44.232  27.712  34.282  1.00  0.00     0.023 A 
ATOM     92  C   UNL A   1      45.562  28.172  34.190  1.00  0.00     0.012 A 
ATOM     93  C   UNL A   1      43.958  26.530  34.996  1.00  0.00     0.148 A 
ATOM     94  C   UNL A   1      46.604  27.448  34.767  1.00  0.00     0.002 A 
ATOM     95  C   UNL A   1      44.997  25.838  35.609  1.00  0.00     0.091 A 
ATOM     96  F   UNL A   1      42.692  26.094  35.055  1.00  0.00    -0.205 F 
ATOM     97  C   UNL A   1      46.322  26.288  35.484  1.00  0.00     0.022 A 
BRANCH  95  98
ATOM     98  S   UNL A   1      44.706  24.388  36.630  1.00  0.00     0.127 S 
ATOM     99  O   UNL A   1      46.058  24.066  37.084  1.00  0.00    -0.237 OA
ATOM    100  O   UNL A   1      43.821  24.909  37.672  1.00  0.00    -0.237 OA
ATOM    101  O   UNL A   1      44.084  23.406  35.752  1.00  0.00    -0.744 OA
ENDBRANCH  95  98
ENDBRANCH  68  91
ENDBRANCH  42  43
ENDBRANCH  34  37
ENDBRANCH  32  33
ENDBRANCH  31  32
ENDBRANCH  30  31
ENDBRANCH   1  30
TORSDOF 21
ENDMDL
MODEL 2
REMARK VINA RESULT:     -11.9      5.887     10.115
REMARK SMILES NS(=O)(=O)c1ccc(/N=N/c2ccc(O)c(C(=O)NCCCCCCNC(=O)c3ccc(-c4c5nc(c(-c6cccc(S(=O)(=O)[O-])c6F)c6ccc([nH]6)c(-c6cccc(S(=O)(=O)[O-])c6F)c6nc(c(-c7cccc(S(=O)(=O)[O-])c7F)c7ccc4[nH]7)C=C6)C=C5)cc3)c2)cc1
REMARK SMILES IDX 22 1 21 2 20 3 19 4 17 5 18 6 16 8 11 9 12 10 92 11 13 12
REMARK SMILES IDX 14 13 10 14 9 15 8 16 5 17 6 18 94 19 7 20 93 21 2 22 3 23
REMARK SMILES IDX 4 24 1 25 15 28 23 30 24 31 25 32 26 33 27 34 28 36 29 37
REMARK SMILES IDX 30 38 91 39 31 40 90 41 32 42 33 43 34 44 84 45 35 46 89 47
REMARK SMILES IDX 83 48 85 49 36 50 88 51 82 52 81 53 37 55 69 56 49 57 68 58
REMARK SMILES IDX 50 59 53 60 67 61 86 62 51 63 52 64 66 66 87 67 54 68 38 69
REMARK SMILES IDX 39 70 47 71 40 72 42 73 48 74 41 75 43 76 44 77 45 78 46 79
REMARK SMILES IDX 70 80 71 81 79 82 72 83 74 84 80 85 73 86 75 87 76 88 77 89
REMARK SMILES IDX 78 90 55 91 56 92 64 93 57 94 59 95 65 96 58 97 60 98 61 99
REMARK SMILES IDX 62 100 63 101
REMARK H PARENT 19 7 1 26 1 27 15 29 26 35 85 54 53 65
REMARK Flexibility Score: inf
ROOT
ATOM      1  C   UNL A   1      37.739  21.987  24.986  1.00  0.00     0.002 C 
ENDROOT
BRANCH   1   2
ATOM      2  C   UNL A   1      36.624  23.007  24.752  1.00  0.00     0.021 C 
BRANCH   2   3
ATOM      3  C   UNL A   1      36.072  23.716  25.986  1.00  0.00     0.116 C 
BRANCH   3   4
ATOM      4  N   UNL A   1      35.434  22.825  26.943  1.00  0.00    -0.352 N 
ATOM      5  C   UNL A   1      34.342  21.999  26.801  1.00  0.00     0.255 C 
ATOM      6  O   UNL A   1      33.898  21.410  27.789  1.00  0.00    -0.269 OA
ATOM      7  H   UNL A   1      35.850  22.810  27.835  1.00  0.00     0.163 HD
BRANCH   5   8
ATOM      8  C   UNL A   1      33.619  21.848  25.514  1.00  0.00     0.083 A 
ATOM      9  C   UNL A   1      32.135  22.744  23.794  1.00  0.00     0.087 A 
ATOM     10  C   UNL A   1      32.059  21.471  23.219  1.00  0.00     0.034 A 
ATOM     11  C   UNL A   1      32.984  22.928  24.898  1.00  0.00     0.048 A 
ATOM     12  C   UNL A   1      32.790  20.403  23.750  1.00  0.00     0.049 A 
ATOM     13  C   UNL A   1      33.562  20.592  24.895  1.00  0.00     0.128 A 
BRANCH   9  14
ATOM     14  N   UNL A   1      31.327  23.784  23.274  1.00  0.00    -0.151 NA
ATOM     15  N   UNL A   1      31.690  24.891  23.732  1.00  0.00    -0.151 NA
BRANCH  15  16
ATOM     16  C   UNL A   1      30.835  25.942  23.369  1.00  0.00     0.086 A 
ATOM     17  C   UNL A   1      29.270  28.213  22.882  1.00  0.00     0.082 A 
ATOM     18  C   UNL A   1      30.558  28.131  22.345  1.00  0.00     0.024 A 
ATOM     19  C   UNL A   1      28.749  27.166  23.647  1.00  0.00     0.024 A 
ATOM     20  C   UNL A   1      31.337  26.997  22.597  1.00  0.00     0.031 A 
ATOM     21  C   UNL A   1      29.536  26.036  23.888  1.00  0.00     0.031 A 
BRANCH  17  22
ATOM     22  S   UNL A   1      28.341  29.689  22.589  1.00  0.00     0.238 S 
ATOM     23  O   UNL A   1      28.334  29.942  21.166  1.00  0.00    -0.207 OA
ATOM     24  O   UNL A   1      28.710  30.656  23.588  1.00  0.00    -0.207 OA
BRANCH  22  25
ATOM     25  N   UNL A   1      26.745  29.268  22.943  1.00  0.00    -0.225 NA
ATOM     26  H   UNL A   1      26.338  29.970  23.560  1.00  0.00     0.137 HD
ATOM     27  H   UNL A   1      26.729  28.358  23.404  1.00  0.00     0.137 HD
ENDBRANCH  22  25
ENDBRANCH  17  22
ENDBRANCH  15  16
ENDBRANCH   9  14
BRANCH  13  28
ATOM     28  O   UNL A   1      34.243  19.500  25.363  1.00  0.00    -0.507 OA
ATOM     29  H   UNL A   1      34.272  19.325  26.283  1.00  0.00     0.293 HD
ENDBRANCH  13  28
ENDBRANCH   5   8
ENDBRANCH   3   4
ENDBRANCH   2   3
ENDBRANCH   1   2
BRANCH   1  30
ATOM     30  C   UNL A   1      37.426  20.531  24.636  1.00  0.00     0.002 C 
BRANCH  30  31
ATOM     31  C   UNL A   1      38.548  19.514  24.855  1.00  0.00     0.021 C 
BRANCH  31  32
ATOM     32  C   UNL A   1      39.375  19.683  26.126  1.00  0.00     0.116 C 
BRANCH  32  33
ATOM     33  N   UNL A   1      40.613  18.922  26.108  1.00  0.00    -0.352 N 
ATOM     34  C   UNL A   1      41.912  19.362  26.189  1.00  0.00     0.251 C 
ATOM     35  H   UNL A   1      40.504  17.948  26.026  1.00  0.00     0.163 HD
ATOM     36  O   UNL A   1      42.831  18.560  26.038  1.00  0.00    -0.269 OA
BRANCH  34  37
ATOM     37  C   UNL A   1      42.215  20.793  26.431  1.00  0.00     0.039 A 
ATOM     38  C   UNL A   1      42.437  21.217  27.746  1.00  0.00     0.014 A 
ATOM     39  C   UNL A   1      42.256  21.723  25.388  1.00  0.00     0.014 A 
ATOM     40  C   UNL A   1      42.750  22.554  28.007  1.00  0.00     0.010 A 
ATOM     41  C   UNL A   1      42.636  23.042  25.641  1.00  0.00     0.010 A 
ATOM     42  C   UNL A   1      42.878  23.475  26.954  1.00  0.00    -0.014 A 
BRANCH  42  43
ATOM     43  C   UNL A   1      43.263  24.887  27.215  1.00  0.00     0.031 A 
ATOM     44  C   UNL A   1      42.277  25.848  27.828  1.00  0.00     0.074 A 
ATOM     45  C   UNL A   1      44.484  25.324  26.846  1.00  0.00     0.049 A 
ATOM     46  N   UNL A   1      42.431  27.115  28.119  1.00  0.00    -0.248 NA
ATOM     47  C   UNL A   1      40.937  25.323  28.137  1.00  0.00     0.031 C 
ATOM     48  C   UNL A   1      45.504  24.516  26.173  1.00  0.00     0.029 A 
ATOM     49  N   UNL A   1      45.071  26.560  26.969  1.00  0.00    -0.354 N 
ATOM     50  C   UNL A   1      41.206  27.543  28.619  1.00  0.00     0.074 A 
ATOM     51  C   UNL A   1      40.308  26.412  28.556  1.00  0.00     0.031 C 
ATOM     52  C   UNL A   1      46.591  25.272  25.955  1.00  0.00     0.029 A 
ATOM     53  C   UNL A   1      46.344  26.622  26.451  1.00  0.00     0.049 A 
ATOM     54  H   UNL A   1      44.622  27.329  27.389  1.00  0.00     0.167 HD
ATOM     55  C   UNL A   1      40.869  28.755  29.123  1.00  0.00     0.034 A 
ATOM     56  C   UNL A   1      47.215  27.648  26.391  1.00  0.00     0.034 A 
ATOM     57  C   UNL A   1      41.775  29.868  29.224  1.00  0.00     0.049 A 
ATOM     58  C   UNL A   1      46.829  28.969  27.001  1.00  0.00     0.074 A 
ATOM     59  C   UNL A   1      41.547  31.119  29.770  1.00  0.00     0.029 A 
ATOM     60  N   UNL A   1      43.087  29.862  28.776  1.00  0.00    -0.354 N 
ATOM     61  N   UNL A   1      45.717  29.307  27.608  1.00  0.00    -0.248 NA
ATOM     62  C   UNL A   1      47.838  30.039  26.959  1.00  0.00     0.031 C 
ATOM     63  C   UNL A   1      42.721  31.872  29.648  1.00  0.00     0.029 A 
ATOM     64  C   UNL A   1      43.684  31.084  29.040  1.00  0.00     0.049 A 
ATOM     65  H   UNL A   1      43.529  29.102  28.334  1.00  0.00     0.167 HD
ATOM     66  C   UNL A   1      45.909  30.609  28.059  1.00  0.00     0.074 A 
ATOM     67  C   UNL A   1      47.253  30.990  27.674  1.00  0.00     0.031 C 
ATOM     68  C   UNL A   1      45.045  31.424  28.715  1.00  0.00     0.034 A 
BRANCH  55  69
ATOM     69  C   UNL A   1      39.475  28.919  29.675  1.00  0.00     0.023 A 
ATOM     70  C   UNL A   1      39.206  28.495  30.993  1.00  0.00     0.012 A 
ATOM     71  C   UNL A   1      38.455  29.536  28.926  1.00  0.00     0.148 A 
ATOM     72  C   UNL A   1      37.936  28.653  31.547  1.00  0.00     0.002 A 
ATOM     73  C   UNL A   1      37.201  29.727  29.500  1.00  0.00     0.091 A 
ATOM     74  F   UNL A   1      38.722  29.915  27.668  1.00  0.00    -0.205 F 
ATOM     75  C   UNL A   1      36.938  29.277  30.805  1.00  0.00     0.022 A 
BRANCH  73  76
ATOM     76  S   UNL A   1      35.867  30.586  28.656  1.00  0.00     0.127 S 
ATOM     77  O   UNL A   1      35.064  29.470  28.160  1.00  0.00    -0.237 OA
ATOM     78  O   UNL A   1      35.250  31.344  29.745  1.00  0.00    -0.237 OA
ATOM     79  O   UNL A   1      36.501  31.404  27.632  1.00  0.00    -0.744 OA
ENDBRANCH  73  76
ENDBRANCH  55  69
BRANCH  56  80
ATOM     80  C   UNL A   1      48.580  27.442  25.825  1.00  0.00     0.023 A 
ATOM     81  C   UNL A   1      49.627  27.051  26.683  1.00  0.00     0.012 A 
ATOM     82  C   UNL A   1      48.848  27.615  24.454  1.00  0.00     0.148 A 
ATOM     83  C   UNL A   1      50.922  26.875  26.196  1.00  0.00     0.002 A 
ATOM     84  C   UNL A   1      50.130  27.384  23.964  1.00  0.00     0.091 A 
ATOM     85  F   UNL A   1      47.847  28.002  23.650  1.00  0.00    -0.205 F 
ATOM     86  C   UNL A   1      51.173  27.033  24.836  1.00  0.00     0.022 A 
BRANCH  84  87
ATOM     87  S   UNL A   1      50.498  27.424  22.206  1.00  0.00     0.127 S 
ATOM     88  O   UNL A   1      49.490  26.516  21.668  1.00  0.00    -0.237 OA
ATOM     89  O   UNL A   1      50.289  28.836  21.878  1.00  0.00    -0.237 OA
ATOM     90  O   UNL A   1      51.884  26.992  22.095  1.00  0.00    -0.744 OA
ENDBRANCH  84  87
ENDBRANCH  56  80
BRANCH  68  91
ATOM     91  C   UNL A   1      45.538  32.793  29.103  1.00  0.00     0.023 A 
ATOM     92  C   UNL A   1      46.148  32.988  30.359  1.00  0.00     0.012 A 
ATOM     93  C   UNL A   1      45.446  33.873  28.205  1.00  0.00     0.148 A 
ATOM     94  C   UNL A   1      46.621  34.246  30.730  1.00  0.00     0.002 A 
ATOM     95  C   UNL A   1      45.963  35.114  28.562  1.00  0.00     0.091 A 
ATOM     96  F   UNL A   1      44.844  33.677  27.023  1.00  0.00    -0.205 F 
ATOM     97  C   UNL A   1      46.539  35.305  29.829  1.00  0.00     0.022 A 
BRANCH  95  98
ATOM     98  S   UNL A   1      45.982  36.504  27.424  1.00  0.00     0.127 S 
ATOM     99  O   UNL A   1      44.592  36.954  27.479  1.00  0.00    -0.237 OA
ATOM    100  O   UNL A   1      46.942  37.412  28.052  1.00  0.00    -0.237 OA
ATOM    101  O   UNL A   1      46.420  35.960  26.146  1.00  0.00    -0.744 OA
ENDBRANCH  95  98
ENDBRANCH  68  91
ENDBRANCH  42  43
ENDBRANCH  34  37
ENDBRANCH  32  33
ENDBRANCH  31  32
ENDBRANCH  30  31
ENDBRANCH   1  30
TORSDOF 21
ENDMDL
MODEL 3
REMARK VINA RESULT:     -11.5      5.685     11.372
REMARK SMILES NS(=O)(=O)c1ccc(/N=N/c2ccc(O)c(C(=O)NCCCCCCNC(=O)c3ccc(-c4c5nc(c(-c6cccc(S(=O)(=O)[O-])c6F)c6ccc([nH]6)c(-c6cccc(S(=O)(=O)[O-])c6F)c6nc(c(-c7cccc(S(=O)(=O)[O-])c7F)c7ccc4[nH]7)C=C6)C=C5)cc3)c2)cc1
REMARK SMILES IDX 22 1 21 2 20 3 19 4 17 5 18 6 16 8 11 9 12 10 92 11 13 12
REMARK SMILES IDX 14 13 10 14 9 15 8 16 5 17 6 18 94 19 7 20 93 21 2 22 3 23
REMARK SMILES IDX 4 24 1 25 15 28 23 30 24 31 25 32 26 33 27 34 28 36 29 37
REMARK SMILES IDX 30 38 91 39 31 40 90 41 32 42 33 43 34 44 84 45 35 46 89 47
REMARK SMILES IDX 83 48 85 49 36 50 88 51 82 52 81 53 37 55 69 56 49 57 68 58
REMARK SMILES IDX 50 59 53 60 67 61 86 62 51 63 52 64 66 66 87 67 54 68 38 69
REMARK SMILES IDX 39 70 47 71 40 72 42 73 48 74 41 75 43 76 44 77 45 78 46 79
REMARK SMILES IDX 70 80 71 81 79 82 72 83 74 84 80 85 73 86 75 87 76 88 77 89
REMARK SMILES IDX 78 90 55 91 56 92 64 93 57 94 59 95 65 96 58 97 60 98 61 99
REMARK SMILES IDX 62 100 63 101
REMARK H PARENT 19 7 1 26 1 27 15 29 26 35 85 54 53 65
REMARK Flexibility Score: inf
ROOT
ATOM      1  C   UNL A   1      37.720  22.229  24.847  1.00  0.00     0.002 C 
ENDROOT
BRANCH   1   2
ATOM      2  C   UNL A   1      36.528  23.162  24.639  1.00  0.00     0.021 C 
BRANCH   2   3
ATOM      3  C   UNL A   1      35.952  23.830  25.885  1.00  0.00     0.116 C 
BRANCH   3   4
ATOM      4  N   UNL A   1      35.367  22.898  26.837  1.00  0.00    -0.352 N 
ATOM      5  C   UNL A   1      34.265  22.081  26.723  1.00  0.00     0.255 C 
ATOM      6  O   UNL A   1      33.877  21.450  27.708  1.00  0.00    -0.269 OA
ATOM      7  H   UNL A   1      35.835  22.843  27.701  1.00  0.00     0.163 HD
BRANCH   5   8
ATOM      8  C   UNL A   1      33.467  21.988  25.475  1.00  0.00     0.083 A 
ATOM      9  C   UNL A   1      31.827  22.928  23.928  1.00  0.00     0.087 A 
ATOM     10  C   UNL A   1      31.781  21.700  23.258  1.00  0.00     0.034 A 
ATOM     11  C   UNL A   1      32.737  23.074  24.989  1.00  0.00     0.048 A 
ATOM     12  C   UNL A   1      32.600  20.638  23.655  1.00  0.00     0.049 A 
ATOM     13  C   UNL A   1      33.435  20.783  24.762  1.00  0.00     0.128 A 
BRANCH   9  14
ATOM     14  N   UNL A   1      30.933  23.956  23.544  1.00  0.00    -0.151 NA
ATOM     15  N   UNL A   1      31.550  25.033  23.383  1.00  0.00    -0.151 NA
BRANCH  15  16
ATOM     16  C   UNL A   1      30.697  26.123  23.146  1.00  0.00     0.086 A 
ATOM     17  C   UNL A   1      29.138  28.439  22.933  1.00  0.00     0.082 A 
ATOM     18  C   UNL A   1      30.430  28.421  22.399  1.00  0.00     0.024 A 
ATOM     19  C   UNL A   1      28.611  27.306  23.559  1.00  0.00     0.024 A 
ATOM     20  C   UNL A   1      31.207  27.265  22.514  1.00  0.00     0.031 A 
ATOM     21  C   UNL A   1      29.395  26.154  23.664  1.00  0.00     0.031 A 
BRANCH  17  22
ATOM     22  S   UNL A   1      28.212  29.941  22.817  1.00  0.00     0.238 S 
ATOM     23  O   UNL A   1      29.116  31.047  23.042  1.00  0.00    -0.207 OA
ATOM     24  O   UNL A   1      26.965  29.753  23.509  1.00  0.00    -0.207 OA
BRANCH  22  25
ATOM     25  N   UNL A   1      27.802  30.066  21.185  1.00  0.00    -0.225 NA
ATOM     26  H   UNL A   1      28.478  29.549  20.624  1.00  0.00     0.137 HD
ATOM     27  H   UNL A   1      27.809  31.048  20.907  1.00  0.00     0.137 HD
ENDBRANCH  22  25
ENDBRANCH  17  22
ENDBRANCH  15  16
ENDBRANCH   9  14
BRANCH  13  28
ATOM     28  O   UNL A   1      34.202  19.698  25.097  1.00  0.00    -0.507 OA
ATOM     29  H   UNL A   1      34.355  19.493  25.998  1.00  0.00     0.293 HD
ENDBRANCH  13  28
ENDBRANCH   5   8
ENDBRANCH   3   4
ENDBRANCH   2   3
ENDBRANCH   1   2
BRANCH   1  30
ATOM     30  C   UNL A   1      37.415  20.733  24.957  1.00  0.00     0.002 C 
BRANCH  30  31
ATOM     31  C   UNL A   1      38.614  19.783  24.931  1.00  0.00     0.021 C 
BRANCH  31  32
ATOM     32  C   UNL A   1      39.434  19.693  26.215  1.00  0.00     0.116 C 
BRANCH  32  33
ATOM     33  N   UNL A   1      40.695  18.995  26.039  1.00  0.00    -0.352 N 
ATOM     34  C   UNL A   1      41.979  19.488  26.046  1.00  0.00     0.251 C 
ATOM     35  H   UNL A   1      40.620  18.024  25.895  1.00  0.00     0.163 HD
ATOM     36  O   UNL A   1      42.913  18.742  25.762  1.00  0.00    -0.269 OA
BRANCH  34  37
ATOM     37  C   UNL A   1      42.242  20.911  26.367  1.00  0.00     0.039 A 
ATOM     38  C   UNL A   1      42.450  21.268  27.704  1.00  0.00     0.014 A 
ATOM     39  C   UNL A   1      42.260  21.897  25.377  1.00  0.00     0.014 A 
ATOM     40  C   UNL A   1      42.727  22.597  28.039  1.00  0.00     0.010 A 
ATOM     41  C   UNL A   1      42.604  23.210  25.703  1.00  0.00     0.010 A 
ATOM     42  C   UNL A   1      42.832  23.577  27.038  1.00  0.00    -0.014 A 
BRANCH  42  43
ATOM     43  C   UNL A   1      43.179  24.983  27.376  1.00  0.00     0.031 A 
ATOM     44  C   UNL A   1      44.561  25.515  27.104  1.00  0.00     0.074 A 
ATOM     45  C   UNL A   1      42.266  25.767  27.984  1.00  0.00     0.049 A 
ATOM     46  N   UNL A   1      45.048  26.708  27.340  1.00  0.00    -0.248 NA
ATOM     47  C   UNL A   1      45.532  24.583  26.508  1.00  0.00     0.031 C 
ATOM     48  C   UNL A   1      40.916  25.349  28.372  1.00  0.00     0.029 A 
ATOM     49  N   UNL A   1      42.337  27.075  28.397  1.00  0.00    -0.354 N 
ATOM     50  C   UNL A   1      46.381  26.661  26.946  1.00  0.00     0.074 A 
ATOM     51  C   UNL A   1      46.638  25.312  26.493  1.00  0.00     0.031 C 
ATOM     52  C   UNL A   1      40.286  26.382  28.955  1.00  0.00     0.029 A 
ATOM     53  C   UNL A   1      41.188  27.528  29.001  1.00  0.00     0.049 A 
ATOM     54  H   UNL A   1      43.138  27.635  28.273  1.00  0.00     0.167 HD
ATOM     55  C   UNL A   1      47.298  27.658  26.925  1.00  0.00     0.034 A 
ATOM     56  C   UNL A   1      40.891  28.734  29.524  1.00  0.00     0.034 A 
ATOM     57  C   UNL A   1      47.030  29.011  27.337  1.00  0.00     0.049 A 
ATOM     58  C   UNL A   1      41.914  29.836  29.444  1.00  0.00     0.074 A 
ATOM     59  C   UNL A   1      47.875  30.106  27.302  1.00  0.00     0.029 A 
ATOM     60  N   UNL A   1      45.823  29.455  27.853  1.00  0.00    -0.354 N 
ATOM     61  N   UNL A   1      43.118  29.811  28.927  1.00  0.00    -0.248 NA
ATOM     62  C   UNL A   1      41.520  31.148  29.980  1.00  0.00     0.031 C 
ATOM     63  C   UNL A   1      47.178  31.213  27.801  1.00  0.00     0.029 A 
ATOM     64  C   UNL A   1      45.896  30.809  28.133  1.00  0.00     0.049 A 
ATOM     65  H   UNL A   1      45.030  28.890  28.001  1.00  0.00     0.167 HD
ATOM     66  C   UNL A   1      43.607  31.109  29.033  1.00  0.00     0.074 A 
ATOM     67  C   UNL A   1      42.558  31.900  29.643  1.00  0.00     0.031 C 
ATOM     68  C   UNL A   1      44.820  31.599  28.675  1.00  0.00     0.034 A 
BRANCH  55  69
ATOM     69  C   UNL A   1      48.663  27.341  26.368  1.00  0.00     0.023 A 
ATOM     70  C   UNL A   1      49.628  26.753  27.212  1.00  0.00     0.012 A 
ATOM     71  C   UNL A   1      48.975  27.565  25.014  1.00  0.00     0.148 A 
ATOM     72  C   UNL A   1      50.893  26.424  26.727  1.00  0.00     0.002 A 
ATOM     73  C   UNL A   1      50.225  27.194  24.526  1.00  0.00     0.091 A 
ATOM     74  F   UNL A   1      48.054  28.142  24.230  1.00  0.00    -0.205 F 
ATOM     75  C   UNL A   1      51.187  26.634  25.384  1.00  0.00     0.022 A 
BRANCH  73  76
ATOM     76  S   UNL A   1      50.680  27.356  22.795  1.00  0.00     0.127 S 
ATOM     77  O   UNL A   1      49.574  26.665  22.134  1.00  0.00    -0.237 OA
ATOM     78  O   UNL A   1      50.689  28.807  22.612  1.00  0.00    -0.237 OA
ATOM     79  O   UNL A   1      51.983  26.720  22.662  1.00  0.00    -0.744 OA
ENDBRANCH  73  76
ENDBRANCH  55  69
BRANCH  56  80
ATOM     80  C   UNL A   1      39.531  28.999  30.077  1.00  0.00     0.023 A 
ATOM     81  C   UNL A   1      39.224  28.564  31.382  1.00  0.00     0.012 A 
ATOM     82  C   UNL A   1      38.550  29.685  29.336  1.00  0.00     0.148 A 
ATOM     83  C   UNL A   1      37.955  28.769  31.923  1.00  0.00     0.002 A 
ATOM     84  C   UNL A   1      37.303  29.935  29.903  1.00  0.00     0.091 A 
ATOM     85  F   UNL A   1      38.848  30.080  28.091  1.00  0.00    -0.205 F 
ATOM     86  C   UNL A   1      36.998  29.461  31.188  1.00  0.00     0.022 A 
BRANCH  84  87
ATOM     87  S   UNL A   1      36.069  30.946  29.076  1.00  0.00     0.127 S 
ATOM     88  O   UNL A   1      35.406  29.968  28.219  1.00  0.00    -0.237 OA
ATOM     89  O   UNL A   1      35.261  31.428  30.197  1.00  0.00    -0.237 OA
ATOM     90  O   UNL A   1      36.824  31.993  28.400  1.00  0.00    -0.744 OA
ENDBRANCH  84  87
ENDBRANCH  56  80
BRANCH  68  91
ATOM     91  C   UNL A   1      45.067  33.069  28.888  1.00  0.00     0.023 A 
ATOM     92  C   UNL A   1      44.785  33.985  27.854  1.00  0.00     0.012 A 
ATOM     93  C   UNL A   1      45.529  33.549  30.129  1.00  0.00     0.148 A 
ATOM     94  C   UNL A   1      44.996  35.351  28.040  1.00  0.00     0.002 A 
ATOM     95  C   UNL A   1      45.692  34.916  30.322  1.00  0.00     0.091 A 
ATOM     96  F   UNL A   1      45.814  32.664  31.095  1.00  0.00    -0.205 F 
ATOM     97  C   UNL A   1      45.439  35.817  29.275  1.00  0.00     0.022 A 
BRANCH  95  98
ATOM     98  S   UNL A   1      46.167  35.605  31.912  1.00  0.00     0.127 S 
ATOM     99  O   UNL A   1      46.146  37.040  31.634  1.00  0.00    -0.237 OA
ATOM    100  O   UNL A   1      45.095  35.139  32.792  1.00  0.00    -0.237 OA
ATOM    101  O   UNL A   1      47.476  35.040  32.211  1.00  0.00    -0.744 OA
ENDBRANCH  95  98
ENDBRANCH  68  91
ENDBRANCH  42  43
ENDBRANCH  34  37
ENDBRANCH  32  33
ENDBRANCH  31  32
ENDBRANCH  30  31
ENDBRANCH   1  30
TORSDOF 21
ENDMDL
