MODEL 1
REMARK VINA RESULT:     -11.3      0.000      0.000
REMARK SMILES CC[C@@H]1CC[C@](O)([C@H](F)C(=O)NCCCCCCNC(=O)c2ccc(-c3c4nc(c(-c5cccc(S(=O)(=O)[O-])c5F)c5ccc([nH]5)c(-c5cccc(S(=O)(=O)[O-])c5F)c5nc(c(-c6cccc(S(=O)(=O)[O-])c6F)c6ccc3[nH]6)C=C5)C=C4)cc2)C1
REMARK SMILES IDX 16 1 15 2 14 3 13 4 12 5 10 6 11 7 8 9 9 10 6 11 3 12 4 13
REMARK SMILES IDX 85 14 5 15 2 16 1 17 7 18 17 20 18 21 19 22 20 23 21 25
REMARK SMILES IDX 22 26 23 27 84 28 24 29 83 30 25 31 26 32 27 33 77 34 28 35
REMARK SMILES IDX 82 36 76 37 78 38 29 39 81 40 75 41 74 42 30 44 62 45 42 46
REMARK SMILES IDX 61 47 43 48 46 49 60 50 79 51 44 52 45 53 59 55 80 56 47 57
REMARK SMILES IDX 31 58 32 59 40 60 33 61 35 62 41 63 34 64 36 65 37 66 38 67
REMARK SMILES IDX 39 68 63 69 64 70 72 71 65 72 67 73 73 74 66 75 68 76 69 77
REMARK SMILES IDX 70 78 71 79 48 80 49 81 57 82 50 83 52 84 58 85 51 86 53 87
REMARK SMILES IDX 54 88 55 89 56 90
REMARK H PARENT 12 8 7 19 19 24 78 43 46 54
REMARK Flexibility Score: inf
ROOT
ATOM      1  C   UNL A   1      33.182  28.348  25.615  1.00  0.00     0.002 C 
ENDROOT
BRANCH   1   2
ATOM      2  C   UNL A   1      32.321  27.181  25.116  1.00  0.00     0.002 C 
BRANCH   2   3
ATOM      3  C   UNL A   1      31.386  26.530  26.140  1.00  0.00     0.021 C 
BRANCH   3   4
ATOM      4  C   UNL A   1      30.282  25.660  25.554  1.00  0.00     0.116 C 
BRANCH   4   5
ATOM      5  N   UNL A   1      29.662  24.753  26.506  1.00  0.00    -0.353 N 
ATOM      6  C   UNL A   1      30.003  23.457  26.802  1.00  0.00     0.257 C 
ATOM      7  O   UNL A   1      29.470  22.934  27.787  1.00  0.00    -0.272 OA
ATOM      8  H   UNL A   1      28.895  25.117  27.006  1.00  0.00     0.163 HD
BRANCH   6   9
ATOM      9  C   UNL A   1      31.033  22.690  25.959  1.00  0.00     0.286 C 
ATOM     10  F   UNL A   1      31.135  23.228  24.700  1.00  0.00    -0.234 F 
BRANCH   9  11
ATOM     11  C   UNL A   1      32.447  22.588  26.570  1.00  0.00     0.105 C 
ATOM     12  C   UNL A   1      34.803  23.221  26.555  1.00  0.00    -0.008 C 
ATOM     13  C   UNL A   1      34.698  21.690  26.509  1.00  0.00     0.007 C 
ATOM     14  C   UNL A   1      33.383  23.755  26.240  1.00  0.00     0.042 C 
ATOM     15  C   UNL A   1      33.270  21.396  26.089  1.00  0.00     0.039 C 
BRANCH  12  16
ATOM     16  C   UNL A   1      35.855  23.841  25.627  1.00  0.00     0.000 C 
ATOM     17  C   UNL A   1      37.220  23.169  25.680  1.00  0.00     0.004 C 
ENDBRANCH  12  16
BRANCH  11  18
ATOM     18  O   UNL A   1      32.318  22.570  28.006  1.00  0.00    -0.386 OA
ATOM     19  H   UNL A   1      32.023  23.440  28.314  1.00  0.00     0.211 HD
ENDBRANCH  11  18
ENDBRANCH   9  11
ENDBRANCH   6   9
ENDBRANCH   4   5
ENDBRANCH   3   4
ENDBRANCH   2   3
ENDBRANCH   1   2
BRANCH   1  20
ATOM     20  C   UNL A   1      32.559  29.743  25.528  1.00  0.00     0.021 C 
BRANCH  20  21
ATOM     21  C   UNL A   1      32.120  30.357  26.853  1.00  0.00     0.116 C 
BRANCH  21  22
ATOM     22  N   UNL A   1      32.248  31.804  26.875  1.00  0.00    -0.352 N 
ATOM     23  C   UNL A   1      33.231  32.584  27.432  1.00  0.00     0.251 C 
ATOM     24  H   UNL A   1      31.525  32.298  26.425  1.00  0.00     0.163 HD
ATOM     25  O   UNL A   1      33.095  33.807  27.462  1.00  0.00    -0.269 OA
BRANCH  23  26
ATOM     26  C   UNL A   1      34.436  31.960  28.020  1.00  0.00     0.039 A 
ATOM     27  C   UNL A   1      35.589  32.735  28.173  1.00  0.00     0.014 A 
ATOM     28  C   UNL A   1      34.438  30.619  28.415  1.00  0.00     0.014 A 
ATOM     29  C   UNL A   1      36.721  32.184  28.775  1.00  0.00     0.010 A 
ATOM     30  C   UNL A   1      35.541  30.095  29.086  1.00  0.00     0.010 A 
ATOM     31  C   UNL A   1      36.697  30.868  29.267  1.00  0.00    -0.014 A 
BRANCH  31  32
ATOM     32  C   UNL A   1      37.865  30.296  29.987  1.00  0.00     0.031 A 
ATOM     33  C   UNL A   1      38.179  30.723  31.395  1.00  0.00     0.074 A 
ATOM     34  C   UNL A   1      38.694  29.452  29.341  1.00  0.00     0.049 A 
ATOM     35  N   UNL A   1      39.178  30.367  32.161  1.00  0.00    -0.248 NA
ATOM     36  C   UNL A   1      37.270  31.702  32.014  1.00  0.00     0.031 C 
ATOM     37  C   UNL A   1      38.550  29.028  27.947  1.00  0.00     0.029 A 
ATOM     38  N   UNL A   1      39.841  28.825  29.761  1.00  0.00    -0.354 N 
ATOM     39  C   UNL A   1      39.041  31.102  33.332  1.00  0.00     0.074 A 
ATOM     40  C   UNL A   1      37.881  31.949  33.164  1.00  0.00     0.031 C 
ATOM     41  C   UNL A   1      39.568  28.215  27.627  1.00  0.00     0.029 A 
ATOM     42  C   UNL A   1      40.457  28.086  28.778  1.00  0.00     0.049 A 
ATOM     43  H   UNL A   1      40.191  28.898  30.679  1.00  0.00     0.167 HD
ATOM     44  C   UNL A   1      39.795  31.058  34.457  1.00  0.00     0.034 A 
ATOM     45  C   UNL A   1      41.613  27.395  28.792  1.00  0.00     0.034 A 
ATOM     46  C   UNL A   1      40.928  30.191  34.633  1.00  0.00     0.049 A 
ATOM     47  C   UNL A   1      42.411  27.328  30.065  1.00  0.00     0.074 A 
ATOM     48  C   UNL A   1      41.696  29.998  35.769  1.00  0.00     0.029 A 
ATOM     49  N   UNL A   1      41.472  29.385  33.644  1.00  0.00    -0.354 N 
ATOM     50  N   UNL A   1      42.168  27.896  31.221  1.00  0.00    -0.248 NA
ATOM     51  C   UNL A   1      43.621  26.493  30.049  1.00  0.00     0.031 C 
ATOM     52  C   UNL A   1      42.729  29.109  35.452  1.00  0.00     0.029 A 
ATOM     53  C   UNL A   1      42.577  28.711  34.134  1.00  0.00     0.049 A 
ATOM     54  H   UNL A   1      41.123  29.306  32.726  1.00  0.00     0.167 HD
ATOM     55  C   UNL A   1      43.175  27.465  32.078  1.00  0.00     0.074 A 
ATOM     56  C   UNL A   1      44.017  26.569  31.312  1.00  0.00     0.031 C 
ATOM     57  C   UNL A   1      43.386  27.790  33.377  1.00  0.00     0.034 A 
BRANCH  44  58
ATOM     58  C   UNL A   1      39.396  31.955  35.602  1.00  0.00     0.023 A 
ATOM     59  C   UNL A   1      39.841  33.293  35.635  1.00  0.00     0.012 A 
ATOM     60  C   UNL A   1      38.542  31.488  36.621  1.00  0.00     0.148 A 
ATOM     61  C   UNL A   1      39.484  34.136  36.685  1.00  0.00     0.002 A 
ATOM     62  C   UNL A   1      38.149  32.350  37.638  1.00  0.00     0.091 A 
ATOM     63  F   UNL A   1      38.143  30.209  36.586  1.00  0.00    -0.205 F 
ATOM     64  C   UNL A   1      38.630  33.669  37.680  1.00  0.00     0.022 A 
BRANCH  62  65
ATOM     65  S   UNL A   1      36.984  31.868  38.919  1.00  0.00     0.127 S 
ATOM     66  O   UNL A   1      37.709  32.247  40.131  1.00  0.00    -0.237 OA
ATOM     67  O   UNL A   1      35.826  32.708  38.612  1.00  0.00    -0.237 OA
ATOM     68  O   UNL A   1      36.762  30.441  38.743  1.00  0.00    -0.744 OA
ENDBRANCH  62  65
ENDBRANCH  44  58
BRANCH  45  69
ATOM     69  C   UNL A   1      42.060  26.678  27.564  1.00  0.00     0.023 A 
ATOM     70  C   UNL A   1      42.737  27.384  26.551  1.00  0.00     0.012 A 
ATOM     71  C   UNL A   1      41.853  25.293  27.417  1.00  0.00     0.148 A 
ATOM     72  C   UNL A   1      43.174  26.728  25.400  1.00  0.00     0.002 A 
ATOM     73  C   UNL A   1      42.342  24.635  26.296  1.00  0.00     0.091 A 
ATOM     74  F   UNL A   1      41.199  24.644  28.390  1.00  0.00    -0.205 F 
ATOM     75  C   UNL A   1      42.987  25.353  25.277  1.00  0.00     0.022 A 
BRANCH  73  76
ATOM     76  S   UNL A   1      42.272  22.849  26.120  1.00  0.00     0.127 S 
ATOM     77  O   UNL A   1      42.993  22.403  27.308  1.00  0.00    -0.237 OA
ATOM     78  O   UNL A   1      40.829  22.603  26.143  1.00  0.00    -0.237 OA
ATOM     79  O   UNL A   1      42.910  22.551  24.845  1.00  0.00    -0.744 OA
ENDBRANCH  73  76
ENDBRANCH  45  69
BRANCH  57  80
ATOM     80  C   UNL A   1      44.557  27.148  34.077  1.00  0.00     0.023 A 
ATOM     81  C   UNL A   1      45.787  27.829  34.167  1.00  0.00     0.012 A 
ATOM     82  C   UNL A   1      44.412  25.898  34.710  1.00  0.00     0.148 A 
ATOM     83  C   UNL A   1      46.866  27.258  34.844  1.00  0.00     0.002 A 
ATOM     84  C   UNL A   1      45.474  25.360  35.427  1.00  0.00     0.091 A 
ATOM     85  F   UNL A   1      43.239  25.257  34.599  1.00  0.00    -0.205 F 
ATOM     86  C   UNL A   1      46.705  26.031  35.483  1.00  0.00     0.022 A 
BRANCH  84  87
ATOM     87  S   UNL A   1      45.329  23.834  36.365  1.00  0.00     0.127 S 
ATOM     88  O   UNL A   1      44.325  23.104  35.592  1.00  0.00    -0.237 OA
ATOM     89  O   UNL A   1      46.683  23.288  36.276  1.00  0.00    -0.237 OA
ATOM     90  O   UNL A   1      44.920  24.223  37.707  1.00  0.00    -0.744 OA
ENDBRANCH  84  87
ENDBRANCH  57  80
ENDBRANCH  31  32
ENDBRANCH  23  26
ENDBRANCH  21  22
ENDBRANCH  20  21
ENDBRANCH   1  20
TORSDOF 19
ENDMDL
MODEL 2
REMARK VINA RESULT:     -11.3      5.509     10.751
REMARK SMILES CC[C@@H]1CC[C@](O)([C@H](F)C(=O)NCCCCCCNC(=O)c2ccc(-c3c4nc(c(-c5cccc(S(=O)(=O)[O-])c5F)c5ccc([nH]5)c(-c5cccc(S(=O)(=O)[O-])c5F)c5nc(c(-c6cccc(S(=O)(=O)[O-])c6F)c6ccc3[nH]6)C=C5)C=C4)cc2)C1
REMARK SMILES IDX 16 1 15 2 14 3 13 4 12 5 10 6 11 7 8 9 9 10 6 11 3 12 4 13
REMARK SMILES IDX 85 14 5 15 2 16 1 17 7 18 17 20 18 21 19 22 20 23 21 25
REMARK SMILES IDX 22 26 23 27 84 28 24 29 83 30 25 31 26 32 27 33 77 34 28 35
REMARK SMILES IDX 82 36 76 37 78 38 29 39 81 40 75 41 74 42 30 44 62 45 42 46
REMARK SMILES IDX 61 47 43 48 46 49 60 50 79 51 44 52 45 53 59 55 80 56 47 57
REMARK SMILES IDX 31 58 32 59 40 60 33 61 35 62 41 63 34 64 36 65 37 66 38 67
REMARK SMILES IDX 39 68 63 69 64 70 72 71 65 72 67 73 73 74 66 75 68 76 69 77
REMARK SMILES IDX 70 78 71 79 48 80 49 81 57 82 50 83 52 84 58 85 51 86 53 87
REMARK SMILES IDX 54 88 55 89 56 90
REMARK H PARENT 12 8 7 19 19 24 78 43 46 54
REMARK Flexibility Score: inf
ROOT
ATOM      1  C   UNL A   1      35.493  23.171  23.825  1.00  0.00     0.002 C 
ENDROOT
BRANCH   1   2
ATOM      2  C   UNL A   1      34.659  23.689  25.002  1.00  0.00     0.002 C 
BRANCH   2   3
ATOM      3  C   UNL A   1      34.109  25.114  24.880  1.00  0.00     0.021 C 
BRANCH   3   4
ATOM      4  C   UNL A   1      33.122  25.337  23.742  1.00  0.00     0.116 C 
BRANCH   4   5
ATOM      5  N   UNL A   1      33.614  26.199  22.679  1.00  0.00    -0.353 N 
ATOM      6  C   UNL A   1      33.374  27.536  22.481  1.00  0.00     0.257 C 
ATOM      7  O   UNL A   1      34.052  28.119  21.628  1.00  0.00    -0.272 OA
ATOM      8  H   UNL A   1      34.197  25.766  22.014  1.00  0.00     0.163 HD
BRANCH   6   9
ATOM      9  C   UNL A   1      32.322  28.289  23.309  1.00  0.00     0.286 C 
ATOM     10  F   UNL A   1      32.671  29.608  23.462  1.00  0.00    -0.234 F 
BRANCH   9  11
ATOM     11  C   UNL A   1      30.877  28.218  22.770  1.00  0.00     0.105 C 
ATOM     12  C   UNL A   1      28.724  29.288  22.360  1.00  0.00    -0.008 C 
ATOM     13  C   UNL A   1      28.496  28.005  23.173  1.00  0.00     0.007 C 
ATOM     14  C   UNL A   1      30.246  29.571  22.428  1.00  0.00     0.042 C 
ATOM     15  C   UNL A   1      29.855  27.646  23.747  1.00  0.00     0.039 C 
BRANCH  12  16
ATOM     16  C   UNL A   1      27.905  30.507  22.804  1.00  0.00     0.000 C 
ATOM     17  C   UNL A   1      28.655  31.480  23.703  1.00  0.00     0.004 C 
ENDBRANCH  12  16
BRANCH  11  18
ATOM     18  O   UNL A   1      30.890  27.459  21.544  1.00  0.00    -0.386 OA
ATOM     19  H   UNL A   1      29.993  27.421  21.178  1.00  0.00     0.211 HD
ENDBRANCH  11  18
ENDBRANCH   9  11
ENDBRANCH   6   9
ENDBRANCH   4   5
ENDBRANCH   3   4
ENDBRANCH   2   3
ENDBRANCH   1   2
BRANCH   1  20
ATOM     20  C   UNL A   1      36.804  22.462  24.174  1.00  0.00     0.021 C 
BRANCH  20  21
ATOM     21  C   UNL A   1      36.991  22.102  25.644  1.00  0.00     0.116 C 
BRANCH  21  22
ATOM     22  N   UNL A   1      38.059  21.140  25.858  1.00  0.00    -0.352 N 
ATOM     23  C   UNL A   1      39.348  21.348  26.282  1.00  0.00     0.251 C 
ATOM     24  H   UNL A   1      37.824  20.202  25.673  1.00  0.00     0.163 HD
ATOM     25  O   UNL A   1      40.150  20.414  26.276  1.00  0.00    -0.269 OA
BRANCH  23  26
ATOM     26  C   UNL A   1      39.782  22.693  26.717  1.00  0.00     0.039 A 
ATOM     27  C   UNL A   1      40.748  22.795  27.722  1.00  0.00     0.014 A 
ATOM     28  C   UNL A   1      39.243  23.849  26.146  1.00  0.00     0.014 A 
ATOM     29  C   UNL A   1      41.214  24.052  28.112  1.00  0.00     0.010 A 
ATOM     30  C   UNL A   1      39.766  25.096  26.479  1.00  0.00     0.010 A 
ATOM     31  C   UNL A   1      40.752  25.214  27.471  1.00  0.00    -0.014 A 
BRANCH  31  32
ATOM     32  C   UNL A   1      41.300  26.551  27.815  1.00  0.00     0.031 A 
ATOM     33  C   UNL A   1      42.721  26.906  27.467  1.00  0.00     0.074 A 
ATOM     34  C   UNL A   1      40.545  27.419  28.516  1.00  0.00     0.049 A 
ATOM     35  N   UNL A   1      43.383  28.005  27.727  1.00  0.00    -0.248 NA
ATOM     36  C   UNL A   1      43.511  25.884  26.762  1.00  0.00     0.031 C 
ATOM     37  C   UNL A   1      39.183  27.161  28.990  1.00  0.00     0.029 A 
ATOM     38  N   UNL A   1      40.824  28.680  28.982  1.00  0.00    -0.354 N 
ATOM     39  C   UNL A   1      44.672  27.792  27.255  1.00  0.00     0.074 A 
ATOM     40  C   UNL A   1      44.709  26.448  26.722  1.00  0.00     0.031 C 
ATOM     41  C   UNL A   1      38.749  28.227  29.680  1.00  0.00     0.029 A 
ATOM     42  C   UNL A   1      39.808  29.230  29.729  1.00  0.00     0.049 A 
ATOM     43  H   UNL A   1      41.672  29.146  28.800  1.00  0.00     0.167 HD
ATOM     44  C   UNL A   1      45.724  28.647  27.241  1.00  0.00     0.034 A 
ATOM     45  C   UNL A   1      39.740  30.400  30.393  1.00  0.00     0.034 A 
ATOM     46  C   UNL A   1      45.675  29.993  27.743  1.00  0.00     0.049 A 
ATOM     47  C   UNL A   1      40.906  31.349  30.328  1.00  0.00     0.074 A 
ATOM     48  C   UNL A   1      46.654  30.969  27.684  1.00  0.00     0.029 A 
ATOM     49  N   UNL A   1      44.597  30.550  28.414  1.00  0.00    -0.354 N 
ATOM     50  N   UNL A   1      42.059  31.197  29.725  1.00  0.00    -0.248 NA
ATOM     51  C   UNL A   1      40.746  32.645  31.002  1.00  0.00     0.031 C 
ATOM     52  C   UNL A   1      46.182  32.102  28.357  1.00  0.00     0.029 A 
ATOM     53  C   UNL A   1      44.893  31.847  28.794  1.00  0.00     0.049 A 
ATOM     54  H   UNL A   1      43.746  30.089  28.595  1.00  0.00     0.167 HD
ATOM     55  C   UNL A   1      42.751  32.387  29.919  1.00  0.00     0.074 A 
ATOM     56  C   UNL A   1      41.876  33.258  30.676  1.00  0.00     0.031 C 
ATOM     57  C   UNL A   1      44.001  32.722  29.513  1.00  0.00     0.034 A 
BRANCH  44  58
ATOM     58  C   UNL A   1      47.014  28.157  26.633  1.00  0.00     0.023 A 
ATOM     59  C   UNL A   1      48.058  27.705  27.466  1.00  0.00     0.012 A 
ATOM     60  C   UNL A   1      47.177  28.101  25.234  1.00  0.00     0.148 A 
ATOM     61  C   UNL A   1      49.258  27.250  26.922  1.00  0.00     0.002 A 
ATOM     62  C   UNL A   1      48.357  27.598  24.698  1.00  0.00     0.091 A 
ATOM     63  F   UNL A   1      46.184  28.552  24.455  1.00  0.00    -0.205 F 
ATOM     64  C   UNL A   1      49.404  27.186  25.539  1.00  0.00     0.022 A 
BRANCH  62  65
ATOM     65  S   UNL A   1      48.608  27.397  22.930  1.00  0.00     0.127 S 
ATOM     66  O   UNL A   1      48.416  25.956  22.769  1.00  0.00    -0.237 OA
ATOM     67  O   UNL A   1      47.536  28.222  22.372  1.00  0.00    -0.237 OA
ATOM     68  O   UNL A   1      49.952  27.884  22.658  1.00  0.00    -0.744 OA
ENDBRANCH  62  65
ENDBRANCH  44  58
BRANCH  45  69
ATOM     69  C   UNL A   1      38.502  30.751  31.143  1.00  0.00     0.023 A 
ATOM     70  C   UNL A   1      38.397  30.425  32.510  1.00  0.00     0.012 A 
ATOM     71  C   UNL A   1      37.447  31.444  30.518  1.00  0.00     0.148 A 
ATOM     72  C   UNL A   1      37.250  30.758  33.232  1.00  0.00     0.002 A 
ATOM     73  C   UNL A   1      36.334  31.823  31.257  1.00  0.00     0.091 A 
ATOM     74  F   UNL A   1      37.565  31.736  29.215  1.00  0.00    -0.205 F 
ATOM     75  C   UNL A   1      36.224  31.466  32.609  1.00  0.00     0.022 A 
BRANCH  73  76
ATOM     76  S   UNL A   1      35.032  32.856  30.576  1.00  0.00     0.127 S 
ATOM     77  O   UNL A   1      34.542  32.033  29.474  1.00  0.00    -0.237 OA
ATOM     78  O   UNL A   1      34.118  32.975  31.713  1.00  0.00    -0.237 OA
ATOM     79  O   UNL A   1      35.677  34.105  30.192  1.00  0.00    -0.744 OA
ENDBRANCH  73  76
ENDBRANCH  45  69
BRANCH  57  80
ATOM     80  C   UNL A   1      44.496  34.107  29.846  1.00  0.00     0.023 A 
ATOM     81  C   UNL A   1      45.293  34.318  30.988  1.00  0.00     0.012 A 
ATOM     82  C   UNL A   1      44.229  35.187  28.982  1.00  0.00     0.148 A 
ATOM     83  C   UNL A   1      45.785  35.589  31.285  1.00  0.00     0.002 A 
ATOM     84  C   UNL A   1      44.767  36.439  29.255  1.00  0.00     0.091 A 
ATOM     85  F   UNL A   1      43.454  34.971  27.908  1.00  0.00    -0.205 F 
ATOM     86  C   UNL A   1      45.533  36.645  30.412  1.00  0.00     0.022 A 
BRANCH  84  87
ATOM     87  S   UNL A   1      44.578  37.834  28.138  1.00  0.00     0.127 S 
ATOM     88  O   UNL A   1      43.164  38.163  28.308  1.00  0.00    -0.237 OA
ATOM     89  O   UNL A   1      45.505  38.812  28.708  1.00  0.00    -0.237 OA
ATOM     90  O   UNL A   1      44.950  37.346  26.817  1.00  0.00    -0.744 OA
ENDBRANCH  84  87
ENDBRANCH  57  80
ENDBRANCH  31  32
ENDBRANCH  23  26
ENDBRANCH  21  22
ENDBRANCH  20  21
ENDBRANCH   1  20
TORSDOF 19
ENDMDL
MODEL 3
REMARK VINA RESULT:     -11.2      2.683      3.426
REMARK SMILES CC[C@@H]1CC[C@](O)([C@H](F)C(=O)NCCCCCCNC(=O)c2ccc(-c3c4nc(c(-c5cccc(S(=O)(=O)[O-])c5F)c5ccc([nH]5)c(-c5cccc(S(=O)(=O)[O-])c5F)c5nc(c(-c6cccc(S(=O)(=O)[O-])c6F)c6ccc3[nH]6)C=C5)C=C4)cc2)C1
REMARK SMILES IDX 16 1 15 2 14 3 13 4 12 5 10 6 11 7 8 9 9 10 6 11 3 12 4 13
REMARK SMILES IDX 85 14 5 15 2 16 1 17 7 18 17 20 18 21 19 22 20 23 21 25
REMARK SMILES IDX 22 26 23 27 84 28 24 29 83 30 25 31 26 32 27 33 77 34 28 35
REMARK SMILES IDX 82 36 76 37 78 38 29 39 81 40 75 41 74 42 30 44 62 45 42 46
REMARK SMILES IDX 61 47 43 48 46 49 60 50 79 51 44 52 45 53 59 55 80 56 47 57
REMARK SMILES IDX 31 58 32 59 40 60 33 61 35 62 41 63 34 64 36 65 37 66 38 67
REMARK SMILES IDX 39 68 63 69 64 70 72 71 65 72 67 73 73 74 66 75 68 76 69 77
REMARK SMILES IDX 70 78 71 79 48 80 49 81 57 82 50 83 52 84 58 85 51 86 53 87
REMARK SMILES IDX 54 88 55 89 56 90
REMARK H PARENT 12 8 7 19 19 24 78 43 46 54
REMARK Flexibility Score: inf
ROOT
ATOM      1  C   UNL A   1      31.660  27.830  25.611  1.00  0.00     0.002 C 
ENDROOT
BRANCH   1   2
ATOM      2  C   UNL A   1      31.048  28.840  24.633  1.00  0.00     0.002 C 
BRANCH   2   3
ATOM      3  C   UNL A   1      31.525  28.764  23.179  1.00  0.00     0.021 C 
BRANCH   3   4
ATOM      4  C   UNL A   1      33.019  28.533  22.993  1.00  0.00     0.116 C 
BRANCH   4   5
ATOM      5  N   UNL A   1      33.358  27.643  21.895  1.00  0.00    -0.353 N 
ATOM      6  C   UNL A   1      33.088  26.304  21.763  1.00  0.00     0.257 C 
ATOM      7  O   UNL A   1      33.290  25.784  20.661  1.00  0.00    -0.272 OA
ATOM      8  H   UNL A   1      33.847  28.055  21.146  1.00  0.00     0.163 HD
BRANCH   6   9
ATOM      9  C   UNL A   1      32.525  25.484  22.934  1.00  0.00     0.286 C 
ATOM     10  F   UNL A   1      31.333  24.895  22.593  1.00  0.00    -0.234 F 
BRANCH   9  11
ATOM     11  C   UNL A   1      33.468  24.401  23.501  1.00  0.00     0.105 C 
ATOM     12  C   UNL A   1      33.891  22.583  25.072  1.00  0.00    -0.008 C 
ATOM     13  C   UNL A   1      34.993  23.641  25.225  1.00  0.00     0.007 C 
ATOM     14  C   UNL A   1      32.770  23.254  24.238  1.00  0.00     0.042 C 
ATOM     15  C   UNL A   1      34.446  24.893  24.564  1.00  0.00     0.039 C 
BRANCH  12  16
ATOM     16  C   UNL A   1      33.345  22.001  26.382  1.00  0.00     0.000 C 
ATOM     17  C   UNL A   1      34.070  22.473  27.634  1.00  0.00     0.004 C 
ENDBRANCH  12  16
BRANCH  11  18
ATOM     18  O   UNL A   1      34.177  23.799  22.399  1.00  0.00    -0.386 OA
ATOM     19  H   UNL A   1      35.125  23.981  22.486  1.00  0.00     0.211 HD
ENDBRANCH  11  18
ENDBRANCH   9  11
ENDBRANCH   6   9
ENDBRANCH   4   5
ENDBRANCH   3   4
ENDBRANCH   2   3
ENDBRANCH   1   2
BRANCH   1  20
ATOM     20  C   UNL A   1      31.976  28.345  27.017  1.00  0.00     0.021 C 
BRANCH  20  21
ATOM     21  C   UNL A   1      33.407  28.824  27.241  1.00  0.00     0.116 C 
BRANCH  21  22
ATOM     22  N   UNL A   1      33.499  30.263  27.419  1.00  0.00    -0.352 N 
ATOM     23  C   UNL A   1      34.502  31.008  27.990  1.00  0.00     0.251 C 
ATOM     24  H   UNL A   1      32.732  30.779  27.082  1.00  0.00     0.163 HD
ATOM     25  O   UNL A   1      34.338  32.214  28.169  1.00  0.00    -0.269 OA
BRANCH  23  26
ATOM     26  C   UNL A   1      35.762  30.362  28.414  1.00  0.00     0.039 A 
ATOM     27  C   UNL A   1      36.864  30.407  27.554  1.00  0.00     0.014 A 
ATOM     28  C   UNL A   1      35.865  29.711  29.646  1.00  0.00     0.014 A 
ATOM     29  C   UNL A   1      38.080  29.852  27.955  1.00  0.00     0.010 A 
ATOM     30  C   UNL A   1      37.099  29.229  30.076  1.00  0.00     0.010 A 
ATOM     31  C   UNL A   1      38.219  29.287  29.233  1.00  0.00    -0.014 A 
BRANCH  31  32
ATOM     32  C   UNL A   1      39.529  28.770  29.707  1.00  0.00     0.031 A 
ATOM     33  C   UNL A   1      40.279  29.478  30.803  1.00  0.00     0.074 A 
ATOM     34  C   UNL A   1      40.086  27.708  29.091  1.00  0.00     0.049 A 
ATOM     35  N   UNL A   1      41.452  29.199  31.312  1.00  0.00    -0.248 NA
ATOM     36  C   UNL A   1      39.644  30.672  31.383  1.00  0.00     0.031 C 
ATOM     37  C   UNL A   1      39.502  26.987  27.958  1.00  0.00     0.029 A 
ATOM     38  N   UNL A   1      41.282  27.069  29.309  1.00  0.00    -0.354 N 
ATOM     39  C   UNL A   1      41.711  30.200  32.240  1.00  0.00     0.074 A 
ATOM     40  C   UNL A   1      40.589  31.111  32.201  1.00  0.00     0.031 C 
ATOM     41  C   UNL A   1      40.340  26.010  27.579  1.00  0.00     0.029 A 
ATOM     42  C   UNL A   1      41.535  26.054  28.416  1.00  0.00     0.049 A 
ATOM     43  H   UNL A   1      41.900  27.316  30.034  1.00  0.00     0.167 HD
ATOM     44  C   UNL A   1      42.774  30.336  33.070  1.00  0.00     0.034 A 
ATOM     45  C   UNL A   1      42.612  25.258  28.274  1.00  0.00     0.034 A 
ATOM     46  C   UNL A   1      43.872  29.410  33.129  1.00  0.00     0.049 A 
ATOM     47  C   UNL A   1      43.762  25.401  29.234  1.00  0.00     0.074 A 
ATOM     48  C   UNL A   1      44.945  29.403  34.003  1.00  0.00     0.029 A 
ATOM     49  N   UNL A   1      44.053  28.337  32.269  1.00  0.00    -0.354 N 
ATOM     50  N   UNL A   1      43.910  26.249  30.222  1.00  0.00    -0.248 NA
ATOM     51  C   UNL A   1      44.875  24.452  29.085  1.00  0.00     0.031 C 
ATOM     52  C   UNL A   1      45.795  28.352  33.644  1.00  0.00     0.029 A 
ATOM     53  C   UNL A   1      45.228  27.675  32.576  1.00  0.00     0.049 A 
ATOM     54  H   UNL A   1      43.435  28.085  31.545  1.00  0.00     0.167 HD
ATOM     55  C   UNL A   1      45.115  25.919  30.831  1.00  0.00     0.074 A 
ATOM     56  C   UNL A   1      45.644  24.777  30.115  1.00  0.00     0.031 C 
ATOM     57  C   UNL A   1      45.729  26.515  31.883  1.00  0.00     0.034 A 
BRANCH  44  58
ATOM     58  C   UNL A   1      42.782  31.517  34.007  1.00  0.00     0.023 A 
ATOM     59  C   UNL A   1      43.323  32.748  33.583  1.00  0.00     0.012 A 
ATOM     60  C   UNL A   1      42.213  31.422  35.293  1.00  0.00     0.148 A 
ATOM     61  C   UNL A   1      43.341  33.850  34.435  1.00  0.00     0.002 A 
ATOM     62  C   UNL A   1      42.188  32.540  36.119  1.00  0.00     0.091 A 
ATOM     63  F   UNL A   1      41.720  30.241  35.690  1.00  0.00    -0.205 F 
ATOM     64  C   UNL A   1      42.764  33.750  35.698  1.00  0.00     0.022 A 
BRANCH  62  65
ATOM     65  S   UNL A   1      41.393  32.535  37.730  1.00  0.00     0.127 S 
ATOM     66  O   UNL A   1      41.498  33.943  38.114  1.00  0.00    -0.237 OA
ATOM     67  O   UNL A   1      40.038  32.091  37.403  1.00  0.00    -0.237 OA
ATOM     68  O   UNL A   1      42.154  31.604  38.550  1.00  0.00    -0.744 OA
ENDBRANCH  62  65
ENDBRANCH  44  58
BRANCH  45  69
ATOM     69  C   UNL A   1      42.630  24.226  27.199  1.00  0.00     0.023 A 
ATOM     70  C   UNL A   1      43.303  24.488  25.990  1.00  0.00     0.012 A 
ATOM     71  C   UNL A   1      42.020  22.971  27.388  1.00  0.00     0.148 A 
ATOM     72  C   UNL A   1      43.341  23.529  24.977  1.00  0.00     0.002 A 
ATOM     73  C   UNL A   1      42.112  22.000  26.399  1.00  0.00     0.091 A 
ATOM     74  F   UNL A   1      41.378  22.747  28.543  1.00  0.00    -0.205 F 
ATOM     75  C   UNL A   1      42.756  22.282  25.185  1.00  0.00     0.022 A 
BRANCH  73  76
ATOM     76  S   UNL A   1      41.512  20.324  26.636  1.00  0.00     0.127 S 
ATOM     77  O   UNL A   1      42.238  19.912  27.835  1.00  0.00    -0.237 OA
ATOM     78  O   UNL A   1      40.077  20.543  26.827  1.00  0.00    -0.237 OA
ATOM     79  O   UNL A   1      41.851  19.605  25.415  1.00  0.00    -0.744 OA
ENDBRANCH  73  76
ENDBRANCH  45  69
BRANCH  57  80
ATOM     80  C   UNL A   1      47.034  25.925  32.356  1.00  0.00     0.023 A 
ATOM     81  C   UNL A   1      48.251  26.369  31.804  1.00  0.00     0.012 A 
ATOM     82  C   UNL A   1      47.053  24.982  33.402  1.00  0.00     0.148 A 
ATOM     83  C   UNL A   1      49.466  25.855  32.260  1.00  0.00     0.002 A 
ATOM     84  C   UNL A   1      48.268  24.514  33.888  1.00  0.00     0.091 A 
ATOM     85  F   UNL A   1      45.883  24.558  33.903  1.00  0.00    -0.205 F 
ATOM     86  C   UNL A   1      49.474  24.939  33.309  1.00  0.00     0.022 A 
BRANCH  84  87
ATOM     87  S   UNL A   1      48.381  23.409  35.300  1.00  0.00     0.127 S 
ATOM     88  O   UNL A   1      47.715  22.210  34.794  1.00  0.00    -0.237 OA
ATOM     89  O   UNL A   1      49.828  23.276  35.472  1.00  0.00    -0.237 OA
ATOM     90  O   UNL A   1      47.701  24.085  36.396  1.00  0.00    -0.744 OA
ENDBRANCH  84  87
ENDBRANCH  57  80
ENDBRANCH  31  32
ENDBRANCH  23  26
ENDBRANCH  21  22
ENDBRANCH  20  21
ENDBRANCH   1  20
TORSDOF 19
ENDMDL
