MODEL 1
REMARK VINA RESULT:     -11.9      0.000      0.000
REMARK SMILES NC(=O)C[C@@H](C(=O)NCCCCCCNC(=O)c1ccc(-c2c3nc(c(-c4cccc(S(=O)(=O)[O-])c4F)c4ccc([nH]4)c(-c4cccc(S(=O)(=O)[O-])c4F)c4nc(c(-c5cccc(S(=O)(=O)[O-])c5F)c5ccc2[nH]5)C=C4)C=C3)cc1)N1C(=O)/C(=C/c2ccccc2)SC1=S
REMARK SMILES IDX 12 1 11 2 10 3 9 4 8 5 6 6 7 7 5 9 4 10 2 11 1 12 3 15 81 16
REMARK SMILES IDX 82 17 93 18 83 19 84 20 92 21 94 22 85 23 86 24 87 25 91 26
REMARK SMILES IDX 88 27 90 28 89 29 13 30 14 31 15 32 16 33 17 35 18 36 19 37
REMARK SMILES IDX 80 38 20 39 79 40 21 41 22 42 23 43 73 44 24 45 78 46 72 47
REMARK SMILES IDX 74 48 25 49 77 50 71 51 70 52 26 54 58 55 38 56 57 57 39 58
REMARK SMILES IDX 42 59 56 60 75 61 40 62 41 63 55 65 76 66 43 67 27 68 28 69
REMARK SMILES IDX 36 70 29 71 31 72 37 73 30 74 32 75 33 76 34 77 35 78 59 79
REMARK SMILES IDX 60 80 68 81 61 82 63 83 69 84 62 85 64 86 65 87 66 88 67 89
REMARK SMILES IDX 44 90 45 91 53 92 46 93 48 94 54 95 47 96 49 97 50 98 51 99
REMARK SMILES IDX 52 100
REMARK H PARENT 8 8 1 13 1 14 15 34 74 53 42 64
REMARK Flexibility Score: inf
ROOT
ATOM      1  C   UNL A   1      31.614  30.574  26.851  1.00  0.00     0.002 C 
ENDROOT
BRANCH   1   2
ATOM      2  C   UNL A   1      32.610  29.961  25.863  1.00  0.00     0.002 C 
BRANCH   2   3
ATOM      3  C   UNL A   1      33.615  28.977  26.473  1.00  0.00     0.021 C 
BRANCH   3   4
ATOM      4  C   UNL A   1      33.816  27.697  25.659  1.00  0.00     0.116 C 
BRANCH   4   5
ATOM      5  N   UNL A   1      32.911  26.663  26.122  1.00  0.00    -0.354 N 
ATOM      6  C   UNL A   1      32.608  25.434  25.627  1.00  0.00     0.243 C 
ATOM      7  O   UNL A   1      31.857  24.754  26.338  1.00  0.00    -0.273 OA
ATOM      8  H   UNL A   1      32.429  26.894  26.949  1.00  0.00     0.163 HD
BRANCH   6   9
ATOM      9  C   UNL A   1      33.189  24.897  24.289  1.00  0.00     0.190 C 
BRANCH   9  10
ATOM     10  C   UNL A   1      32.246  24.939  23.081  1.00  0.00     0.135 C 
BRANCH  10  11
ATOM     11  C   UNL A   1      32.915  24.980  21.742  1.00  0.00     0.220 C 
ATOM     12  N   UNL A   1      32.867  23.805  21.053  1.00  0.00    -0.370 N 
ATOM     13  H   UNL A   1      33.282  23.740  20.162  1.00  0.00     0.159 HD
ATOM     14  H   UNL A   1      32.418  23.022  21.445  1.00  0.00     0.159 HD
ATOM     15  O   UNL A   1      33.482  25.967  21.297  1.00  0.00    -0.275 OA
ENDBRANCH  10  11
ENDBRANCH   9  10
BRANCH   9  16
ATOM     16  N   UNL A   1      33.558  23.471  24.568  1.00  0.00    -0.280 N 
ATOM     17  C   UNL A   1      32.607  22.481  24.355  1.00  0.00     0.266 C 
ATOM     18  C   UNL A   1      34.750  23.043  25.112  1.00  0.00     0.149 C 
ATOM     19  O   UNL A   1      31.460  22.636  23.952  1.00  0.00    -0.268 OA
ATOM     20  C   UNL A   1      33.163  21.140  24.644  1.00  0.00     0.081 C 
ATOM     21  S   UNL A   1      34.758  21.280  25.240  1.00  0.00    -0.054 SA
ATOM     22  S   UNL A   1      36.060  23.960  25.582  1.00  0.00    -0.052 S 
ATOM     23  C   UNL A   1      32.436  20.052  24.357  1.00  0.00     0.029 C 
BRANCH  23  24
ATOM     24  C   UNL A   1      32.813  18.644  24.473  1.00  0.00    -0.024 A 
ATOM     25  C   UNL A   1      33.479  18.044  23.395  1.00  0.00     0.008 A 
ATOM     26  C   UNL A   1      32.462  17.864  25.578  1.00  0.00     0.008 A 
ATOM     27  C   UNL A   1      33.812  16.690  23.432  1.00  0.00     0.001 A 
ATOM     28  C   UNL A   1      32.797  16.509  25.615  1.00  0.00     0.001 A 
ATOM     29  C   UNL A   1      33.473  15.923  24.545  1.00  0.00     0.000 A 
ENDBRANCH  23  24
ENDBRANCH   9  16
ENDBRANCH   6   9
ENDBRANCH   4   5
ENDBRANCH   3   4
ENDBRANCH   2   3
ENDBRANCH   1   2
BRANCH   1  30
ATOM     30  C   UNL A   1      31.472  32.097  26.781  1.00  0.00     0.021 C 
BRANCH  30  31
ATOM     31  C   UNL A   1      32.769  32.879  26.962  1.00  0.00     0.116 C 
BRANCH  31  32
ATOM     32  N   UNL A   1      32.554  34.166  27.602  1.00  0.00    -0.352 N 
ATOM     33  C   UNL A   1      33.144  34.688  28.727  1.00  0.00     0.251 C 
ATOM     34  H   UNL A   1      31.890  34.748  27.166  1.00  0.00     0.163 HD
ATOM     35  O   UNL A   1      32.703  35.717  29.231  1.00  0.00    -0.269 OA
BRANCH  33  36
ATOM     36  C   UNL A   1      34.301  34.000  29.336  1.00  0.00     0.039 A 
ATOM     37  C   UNL A   1      35.591  34.417  29.000  1.00  0.00     0.014 A 
ATOM     38  C   UNL A   1      34.114  32.945  30.235  1.00  0.00     0.014 A 
ATOM     39  C   UNL A   1      36.694  33.812  29.608  1.00  0.00     0.010 A 
ATOM     40  C   UNL A   1      35.211  32.393  30.891  1.00  0.00     0.010 A 
ATOM     41  C   UNL A   1      36.513  32.814  30.580  1.00  0.00    -0.014 A 
BRANCH  41  42
ATOM     42  C   UNL A   1      37.671  32.208  31.285  1.00  0.00     0.031 A 
ATOM     43  C   UNL A   1      38.427  31.065  30.662  1.00  0.00     0.074 A 
ATOM     44  C   UNL A   1      37.991  32.631  32.524  1.00  0.00     0.049 A 
ATOM     45  N   UNL A   1      39.433  30.382  31.144  1.00  0.00    -0.248 NA
ATOM     46  C   UNL A   1      37.979  30.614  29.334  1.00  0.00     0.031 C 
ATOM     47  C   UNL A   1      37.287  33.678  33.269  1.00  0.00     0.029 A 
ATOM     48  N   UNL A   1      38.975  32.216  33.387  1.00  0.00    -0.354 N 
ATOM     49  C   UNL A   1      39.713  29.400  30.201  1.00  0.00     0.074 A 
ATOM     50  C   UNL A   1      38.751  29.556  29.133  1.00  0.00     0.031 C 
ATOM     51  C   UNL A   1      37.864  33.827  34.472  1.00  0.00     0.029 A 
ATOM     52  C   UNL A   1      38.958  32.869  34.599  1.00  0.00     0.049 A 
ATOM     53  H   UNL A   1      39.631  31.518  33.161  1.00  0.00     0.167 HD
ATOM     54  C   UNL A   1      40.698  28.471  30.211  1.00  0.00     0.034 A 
ATOM     55  C   UNL A   1      39.730  32.709  35.691  1.00  0.00     0.034 A 
ATOM     56  C   UNL A   1      41.678  28.348  31.255  1.00  0.00     0.049 A 
ATOM     57  C   UNL A   1      40.841  31.694  35.659  1.00  0.00     0.074 A 
ATOM     58  C   UNL A   1      42.774  27.503  31.311  1.00  0.00     0.029 A 
ATOM     59  N   UNL A   1      41.679  29.081  32.431  1.00  0.00    -0.354 N 
ATOM     60  N   UNL A   1      41.195  30.888  34.687  1.00  0.00    -0.248 NA
ATOM     61  C   UNL A   1      41.683  31.592  36.859  1.00  0.00     0.031 C 
ATOM     62  C   UNL A   1      43.419  27.706  32.535  1.00  0.00     0.029 A 
ATOM     63  C   UNL A   1      42.746  28.699  33.226  1.00  0.00     0.049 A 
ATOM     64  H   UNL A   1      41.018  29.771  32.667  1.00  0.00     0.167 HD
ATOM     65  C   UNL A   1      42.321  30.211  35.143  1.00  0.00     0.074 A 
ATOM     66  C   UNL A   1      42.602  30.718  36.471  1.00  0.00     0.031 C 
ATOM     67  C   UNL A   1      43.048  29.249  34.523  1.00  0.00     0.034 A 
BRANCH  54  68
ATOM     68  C   UNL A   1      40.796  27.540  29.029  1.00  0.00     0.023 A 
ATOM     69  C   UNL A   1      39.935  26.427  28.946  1.00  0.00     0.012 A 
ATOM     70  C   UNL A   1      41.694  27.798  27.976  1.00  0.00     0.148 A 
ATOM     71  C   UNL A   1      39.990  25.565  27.851  1.00  0.00     0.002 A 
ATOM     72  C   UNL A   1      41.711  26.962  26.865  1.00  0.00     0.091 A 
ATOM     73  F   UNL A   1      42.520  28.850  28.081  1.00  0.00    -0.205 F 
ATOM     74  C   UNL A   1      40.870  25.839  26.806  1.00  0.00     0.022 A 
BRANCH  72  75
ATOM     75  S   UNL A   1      42.750  27.273  25.434  1.00  0.00     0.127 S 
ATOM     76  O   UNL A   1      44.062  27.455  26.054  1.00  0.00    -0.237 OA
ATOM     77  O   UNL A   1      42.604  26.032  24.672  1.00  0.00    -0.237 OA
ATOM     78  O   UNL A   1      42.197  28.452  24.783  1.00  0.00    -0.744 OA
ENDBRANCH  72  75
ENDBRANCH  54  68
BRANCH  55  79
ATOM     79  C   UNL A   1      39.525  33.579  36.884  1.00  0.00     0.023 A 
ATOM     80  C   UNL A   1      40.008  34.902  36.866  1.00  0.00     0.012 A 
ATOM     81  C   UNL A   1      38.839  33.113  38.023  1.00  0.00     0.148 A 
ATOM     82  C   UNL A   1      39.842  35.736  37.972  1.00  0.00     0.002 A 
ATOM     83  C   UNL A   1      38.629  33.967  39.099  1.00  0.00     0.091 A 
ATOM     84  F   UNL A   1      38.398  31.848  38.025  1.00  0.00    -0.205 F 
ATOM     85  C   UNL A   1      39.144  35.272  39.083  1.00  0.00     0.022 A 
BRANCH  83  86
ATOM     86  S   UNL A   1      37.629  33.500  40.518  1.00  0.00     0.127 S 
ATOM     87  O   UNL A   1      38.424  32.423  41.101  1.00  0.00    -0.237 OA
ATOM     88  O   UNL A   1      37.608  34.741  41.293  1.00  0.00    -0.237 OA
ATOM     89  O   UNL A   1      36.335  33.111  39.975  1.00  0.00    -0.744 OA
ENDBRANCH  83  86
ENDBRANCH  55  79
BRANCH  67  90
ATOM     90  C   UNL A   1      44.248  28.701  35.251  1.00  0.00     0.023 A 
ATOM     91  C   UNL A   1      45.519  29.270  35.041  1.00  0.00     0.012 A 
ATOM     92  C   UNL A   1      44.101  27.669  36.200  1.00  0.00     0.148 A 
ATOM     93  C   UNL A   1      46.631  28.800  35.739  1.00  0.00     0.002 A 
ATOM     94  C   UNL A   1      45.203  27.241  36.929  1.00  0.00     0.091 A 
ATOM     95  F   UNL A   1      42.887  27.127  36.371  1.00  0.00    -0.205 F 
ATOM     96  C   UNL A   1      46.471  27.796  36.691  1.00  0.00     0.022 A 
BRANCH  94  97
ATOM     97  S   UNL A   1      45.074  26.022  38.244  1.00  0.00     0.127 S 
ATOM     98  O   UNL A   1      46.456  25.944  38.714  1.00  0.00    -0.237 OA
ATOM     99  O   UNL A   1      44.149  26.669  39.175  1.00  0.00    -0.237 OA
ATOM    100  O   UNL A   1      44.556  24.813  37.620  1.00  0.00    -0.744 OA
ENDBRANCH  94  97
ENDBRANCH  67  90
ENDBRANCH  41  42
ENDBRANCH  33  36
ENDBRANCH  31  32
ENDBRANCH  30  31
ENDBRANCH   1  30
TORSDOF 20
ENDMDL
MODEL 2
REMARK VINA RESULT:     -11.6      1.605      7.735
REMARK SMILES NC(=O)C[C@@H](C(=O)NCCCCCCNC(=O)c1ccc(-c2c3nc(c(-c4cccc(S(=O)(=O)[O-])c4F)c4ccc([nH]4)c(-c4cccc(S(=O)(=O)[O-])c4F)c4nc(c(-c5cccc(S(=O)(=O)[O-])c5F)c5ccc2[nH]5)C=C4)C=C3)cc1)N1C(=O)/C(=C/c2ccccc2)SC1=S
REMARK SMILES IDX 12 1 11 2 10 3 9 4 8 5 6 6 7 7 5 9 4 10 2 11 1 12 3 15 81 16
REMARK SMILES IDX 82 17 93 18 83 19 84 20 92 21 94 22 85 23 86 24 87 25 91 26
REMARK SMILES IDX 88 27 90 28 89 29 13 30 14 31 15 32 16 33 17 35 18 36 19 37
REMARK SMILES IDX 80 38 20 39 79 40 21 41 22 42 23 43 73 44 24 45 78 46 72 47
REMARK SMILES IDX 74 48 25 49 77 50 71 51 70 52 26 54 58 55 38 56 57 57 39 58
REMARK SMILES IDX 42 59 56 60 75 61 40 62 41 63 55 65 76 66 43 67 27 68 28 69
REMARK SMILES IDX 36 70 29 71 31 72 37 73 30 74 32 75 33 76 34 77 35 78 59 79
REMARK SMILES IDX 60 80 68 81 61 82 63 83 69 84 62 85 64 86 65 87 66 88 67 89
REMARK SMILES IDX 44 90 45 91 53 92 46 93 48 94 54 95 47 96 49 97 50 98 51 99
REMARK SMILES IDX 52 100
REMARK H PARENT 8 8 1 13 1 14 15 34 74 53 42 64
REMARK Flexibility Score: inf
ROOT
ATOM      1  C   UNL A   1      31.819  29.496  25.267  1.00  0.00     0.002 C 
ENDROOT
BRANCH   1   2
ATOM      2  C   UNL A   1      33.281  29.255  24.879  1.00  0.00     0.002 C 
BRANCH   2   3
ATOM      3  C   UNL A   1      33.505  28.782  23.438  1.00  0.00     0.021 C 
BRANCH   3   4
ATOM      4  C   UNL A   1      32.572  27.655  22.993  1.00  0.00     0.116 C 
BRANCH   4   5
ATOM      5  N   UNL A   1      33.345  26.512  22.546  1.00  0.00    -0.354 N 
ATOM      6  C   UNL A   1      33.420  25.233  22.999  1.00  0.00     0.243 C 
ATOM      7  O   UNL A   1      34.114  24.474  22.311  1.00  0.00    -0.273 OA
ATOM      8  H   UNL A   1      33.921  26.698  21.769  1.00  0.00     0.163 HD
BRANCH   6   9
ATOM      9  C   UNL A   1      32.659  24.741  24.262  1.00  0.00     0.190 C 
BRANCH   9  10
ATOM     10  C   UNL A   1      32.867  25.566  25.537  1.00  0.00     0.135 C 
BRANCH  10  11
ATOM     11  C   UNL A   1      31.766  25.478  26.549  1.00  0.00     0.220 C 
ATOM     12  N   UNL A   1      31.214  26.679  26.884  1.00  0.00    -0.370 N 
ATOM     13  H   UNL A   1      30.483  26.717  27.543  1.00  0.00     0.159 HD
ATOM     14  H   UNL A   1      31.546  27.507  26.468  1.00  0.00     0.159 HD
ATOM     15  O   UNL A   1      31.395  24.432  27.058  1.00  0.00    -0.275 OA
ENDBRANCH  10  11
ENDBRANCH   9  10
BRANCH   9  16
ATOM     16  N   UNL A   1      33.159  23.347  24.499  1.00  0.00    -0.280 N 
ATOM     17  C   UNL A   1      32.286  22.283  24.313  1.00  0.00     0.266 C 
ATOM     18  C   UNL A   1      34.407  23.014  24.980  1.00  0.00     0.149 C 
ATOM     19  O   UNL A   1      31.112  22.345  23.965  1.00  0.00    -0.268 OA
ATOM     20  C   UNL A   1      32.966  20.990  24.552  1.00  0.00     0.081 C 
ATOM     21  S   UNL A   1      34.570  21.257  25.078  1.00  0.00    -0.054 SA
ATOM     22  S   UNL A   1      35.656  24.033  25.406  1.00  0.00    -0.052 S 
ATOM     23  C   UNL A   1      32.320  19.849  24.280  1.00  0.00     0.029 C 
BRANCH  23  24
ATOM     24  C   UNL A   1      32.819  18.476  24.355  1.00  0.00    -0.024 A 
ATOM     25  C   UNL A   1      32.659  17.776  25.559  1.00  0.00     0.008 A 
ATOM     26  C   UNL A   1      33.516  17.875  23.303  1.00  0.00     0.008 A 
ATOM     27  C   UNL A   1      33.167  16.485  25.701  1.00  0.00     0.001 A 
ATOM     28  C   UNL A   1      34.023  16.582  23.446  1.00  0.00     0.001 A 
ATOM     29  C   UNL A   1      33.846  15.887  24.642  1.00  0.00     0.000 A 
ENDBRANCH  23  24
ENDBRANCH   9  16
ENDBRANCH   6   9
ENDBRANCH   4   5
ENDBRANCH   3   4
ENDBRANCH   2   3
ENDBRANCH   1   2
BRANCH   1  30
ATOM     30  C   UNL A   1      31.536  30.829  25.965  1.00  0.00     0.021 C 
BRANCH  30  31
ATOM     31  C   UNL A   1      32.653  31.336  26.873  1.00  0.00     0.116 C 
BRANCH  31  32
ATOM     32  N   UNL A   1      32.614  32.780  27.043  1.00  0.00    -0.352 N 
ATOM     33  C   UNL A   1      33.372  33.579  27.863  1.00  0.00     0.251 C 
ATOM     34  H   UNL A   1      31.950  33.252  26.490  1.00  0.00     0.163 HD
ATOM     35  O   UNL A   1      33.074  34.761  28.014  1.00  0.00    -0.269 OA
BRANCH  33  36
ATOM     36  C   UNL A   1      34.537  33.010  28.573  1.00  0.00     0.039 A 
ATOM     37  C   UNL A   1      34.325  32.272  29.739  1.00  0.00     0.014 A 
ATOM     38  C   UNL A   1      35.834  33.206  28.089  1.00  0.00     0.014 A 
ATOM     39  C   UNL A   1      35.410  31.684  30.392  1.00  0.00     0.010 A 
ATOM     40  C   UNL A   1      36.905  32.560  28.700  1.00  0.00     0.010 A 
ATOM     41  C   UNL A   1      36.707  31.799  29.862  1.00  0.00    -0.014 A 
BRANCH  41  42
ATOM     42  C   UNL A   1      37.864  31.123  30.505  1.00  0.00     0.031 A 
ATOM     43  C   UNL A   1      38.252  31.463  31.919  1.00  0.00     0.074 A 
ATOM     44  C   UNL A   1      38.614  30.264  29.788  1.00  0.00     0.049 A 
ATOM     45  N   UNL A   1      39.253  31.011  32.630  1.00  0.00    -0.248 NA
ATOM     46  C   UNL A   1      37.423  32.459  32.619  1.00  0.00     0.031 C 
ATOM     47  C   UNL A   1      38.387  29.910  28.385  1.00  0.00     0.029 A 
ATOM     48  N   UNL A   1      39.736  29.551  30.132  1.00  0.00    -0.354 N 
ATOM     49  C   UNL A   1      39.199  31.692  33.840  1.00  0.00     0.074 A 
ATOM     50  C   UNL A   1      38.085  32.610  33.757  1.00  0.00     0.031 C 
ATOM     51  C   UNL A   1      39.335  29.044  27.990  1.00  0.00     0.029 A 
ATOM     52  C   UNL A   1      40.253  28.803  29.098  1.00  0.00     0.049 A 
ATOM     53  H   UNL A   1      40.132  29.572  31.033  1.00  0.00     0.167 HD
ATOM     54  C   UNL A   1      39.987  31.547  34.932  1.00  0.00     0.034 A 
ATOM     55  C   UNL A   1      41.347  28.018  29.047  1.00  0.00     0.034 A 
ATOM     56  C   UNL A   1      41.067  30.602  35.025  1.00  0.00     0.049 A 
ATOM     57  C   UNL A   1      42.183  27.847  30.287  1.00  0.00     0.074 A 
ATOM     58  C   UNL A   1      41.862  30.311  36.120  1.00  0.00     0.029 A 
ATOM     59  N   UNL A   1      41.511  29.802  33.984  1.00  0.00    -0.354 N 
ATOM     60  N   UNL A   1      42.015  28.374  31.475  1.00  0.00    -0.248 NA
ATOM     61  C   UNL A   1      43.339  26.944  30.189  1.00  0.00     0.031 C 
ATOM     62  C   UNL A   1      42.806  29.356  35.732  1.00  0.00     0.029 A 
ATOM     63  C   UNL A   1      42.578  29.028  34.405  1.00  0.00     0.049 A 
ATOM     64  H   UNL A   1      41.125  29.787  33.079  1.00  0.00     0.167 HD
ATOM     65  C   UNL A   1      43.018  27.838  32.276  1.00  0.00     0.074 A 
ATOM     66  C   UNL A   1      43.777  26.930  31.441  1.00  0.00     0.031 C 
ATOM     67  C   UNL A   1      43.292  28.087  33.581  1.00  0.00     0.034 A 
BRANCH  54  68
ATOM     68  C   UNL A   1      39.681  32.399  36.137  1.00  0.00     0.023 A 
ATOM     69  C   UNL A   1      40.317  33.648  36.287  1.00  0.00     0.012 A 
ATOM     70  C   UNL A   1      38.722  31.994  37.086  1.00  0.00     0.148 A 
ATOM     71  C   UNL A   1      40.031  34.465  37.381  1.00  0.00     0.002 A 
ATOM     72  C   UNL A   1      38.408  32.834  38.149  1.00  0.00     0.091 A 
ATOM     73  F   UNL A   1      38.142  30.794  36.938  1.00  0.00    -0.205 F 
ATOM     74  C   UNL A   1      39.070  34.063  38.304  1.00  0.00     0.022 A 
BRANCH  72  75
ATOM     75  S   UNL A   1      37.128  32.444  39.347  1.00  0.00     0.127 S 
ATOM     76  O   UNL A   1      37.414  31.040  39.638  1.00  0.00    -0.237 OA
ATOM     77  O   UNL A   1      37.438  33.368  40.439  1.00  0.00    -0.237 OA
ATOM     78  O   UNL A   1      35.860  32.698  38.679  1.00  0.00    -0.744 OA
ENDBRANCH  72  75
ENDBRANCH  54  68
BRANCH  55  79
ATOM     79  C   UNL A   1      41.677  27.279  27.795  1.00  0.00     0.023 A 
ATOM     80  C   UNL A   1      42.141  27.992  26.673  1.00  0.00     0.012 A 
ATOM     81  C   UNL A   1      41.556  25.877  27.717  1.00  0.00     0.148 A 
ATOM     82  C   UNL A   1      42.446  27.328  25.484  1.00  0.00     0.002 A 
ATOM     83  C   UNL A   1      41.915  25.218  26.548  1.00  0.00     0.091 A 
ATOM     84  F   UNL A   1      41.102  25.219  28.792  1.00  0.00    -0.205 F 
ATOM     85  C   UNL A   1      42.343  25.942  25.425  1.00  0.00     0.022 A 
BRANCH  83  86
ATOM     86  S   UNL A   1      41.939  23.425  26.422  1.00  0.00     0.127 S 
ATOM     87  O   UNL A   1      42.590  23.226  25.130  1.00  0.00    -0.237 OA
ATOM     88  O   UNL A   1      42.746  23.053  27.584  1.00  0.00    -0.237 OA
ATOM     89  O   UNL A   1      40.546  23.007  26.501  1.00  0.00    -0.744 OA
ENDBRANCH  83  86
ENDBRANCH  55  79
BRANCH  67  90
ATOM     90  C   UNL A   1      44.439  27.338  34.209  1.00  0.00     0.023 A 
ATOM     91  C   UNL A   1      45.752  27.834  34.093  1.00  0.00     0.012 A 
ATOM     92  C   UNL A   1      44.203  26.181  34.979  1.00  0.00     0.148 A 
ATOM     93  C   UNL A   1      46.816  27.174  34.704  1.00  0.00     0.002 A 
ATOM     94  C   UNL A   1      45.261  25.557  35.628  1.00  0.00     0.091 A 
ATOM     95  F   UNL A   1      42.949  25.713  35.061  1.00  0.00    -0.205 F 
ATOM     96  C   UNL A   1      46.570  26.044  35.482  1.00  0.00     0.022 A 
BRANCH  94  97
ATOM     97  S   UNL A   1      45.024  24.156  36.728  1.00  0.00     0.127 S 
ATOM     98  O   UNL A   1      44.057  24.690  37.686  1.00  0.00    -0.237 OA
ATOM     99  O   UNL A   1      44.488  23.139  35.822  1.00  0.00    -0.237 OA
ATOM    100  O   UNL A   1      46.339  23.848  37.273  1.00  0.00    -0.744 OA
ENDBRANCH  94  97
ENDBRANCH  67  90
ENDBRANCH  41  42
ENDBRANCH  33  36
ENDBRANCH  31  32
ENDBRANCH  30  31
ENDBRANCH   1  30
TORSDOF 20
ENDMDL
MODEL 3
REMARK VINA RESULT:     -11.5      5.670      9.188
REMARK SMILES NC(=O)C[C@@H](C(=O)NCCCCCCNC(=O)c1ccc(-c2c3nc(c(-c4cccc(S(=O)(=O)[O-])c4F)c4ccc([nH]4)c(-c4cccc(S(=O)(=O)[O-])c4F)c4nc(c(-c5cccc(S(=O)(=O)[O-])c5F)c5ccc2[nH]5)C=C4)C=C3)cc1)N1C(=O)/C(=C/c2ccccc2)SC1=S
REMARK SMILES IDX 12 1 11 2 10 3 9 4 8 5 6 6 7 7 5 9 4 10 2 11 1 12 3 15 81 16
REMARK SMILES IDX 82 17 93 18 83 19 84 20 92 21 94 22 85 23 86 24 87 25 91 26
REMARK SMILES IDX 88 27 90 28 89 29 13 30 14 31 15 32 16 33 17 35 18 36 19 37
REMARK SMILES IDX 80 38 20 39 79 40 21 41 22 42 23 43 73 44 24 45 78 46 72 47
REMARK SMILES IDX 74 48 25 49 77 50 71 51 70 52 26 54 58 55 38 56 57 57 39 58
REMARK SMILES IDX 42 59 56 60 75 61 40 62 41 63 55 65 76 66 43 67 27 68 28 69
REMARK SMILES IDX 36 70 29 71 31 72 37 73 30 74 32 75 33 76 34 77 35 78 59 79
REMARK SMILES IDX 60 80 68 81 61 82 63 83 69 84 62 85 64 86 65 87 66 88 67 89
REMARK SMILES IDX 44 90 45 91 53 92 46 93 48 94 54 95 47 96 49 97 50 98 51 99
REMARK SMILES IDX 52 100
REMARK H PARENT 8 8 1 13 1 14 15 34 74 53 42 64
REMARK Flexibility Score: inf
ROOT
ATOM      1  C   UNL A   1      35.045  20.773  25.359  1.00  0.00     0.002 C 
ENDROOT
BRANCH   1   2
ATOM      2  C   UNL A   1      33.592  21.245  25.462  1.00  0.00     0.002 C 
BRANCH   2   3
ATOM      3  C   UNL A   1      33.298  22.213  26.613  1.00  0.00     0.021 C 
BRANCH   3   4
ATOM      4  C   UNL A   1      31.828  22.620  26.733  1.00  0.00     0.116 C 
BRANCH   4   5
ATOM      5  N   UNL A   1      31.724  24.039  27.013  1.00  0.00    -0.354 N 
ATOM      6  C   UNL A   1      31.581  25.117  26.198  1.00  0.00     0.243 C 
ATOM      7  O   UNL A   1      31.418  26.197  26.781  1.00  0.00    -0.273 OA
ATOM      8  H   UNL A   1      31.763  24.262  27.972  1.00  0.00     0.163 HD
BRANCH   6   9
ATOM      9  C   UNL A   1      31.579  25.007  24.648  1.00  0.00     0.190 C 
BRANCH   9  10
ATOM     10  C   UNL A   1      32.863  24.464  24.009  1.00  0.00     0.135 C 
BRANCH  10  11
ATOM     11  C   UNL A   1      32.671  23.644  22.771  1.00  0.00     0.220 C 
ATOM     12  N   UNL A   1      31.545  22.876  22.775  1.00  0.00    -0.370 N 
ATOM     13  H   UNL A   1      31.337  22.303  22.001  1.00  0.00     0.159 HD
ATOM     14  H   UNL A   1      30.939  22.893  23.551  1.00  0.00     0.159 HD
ATOM     15  O   UNL A   1      33.457  23.633  21.836  1.00  0.00    -0.275 OA
ENDBRANCH  10  11
ENDBRANCH   9  10
BRANCH   9  16
ATOM     16  N   UNL A   1      31.347  26.405  24.157  1.00  0.00    -0.280 N 
ATOM     17  C   UNL A   1      30.089  26.745  23.677  1.00  0.00     0.266 C 
ATOM     18  C   UNL A   1      32.308  27.387  24.054  1.00  0.00     0.149 C 
ATOM     19  O   UNL A   1      29.108  26.015  23.601  1.00  0.00    -0.268 OA
ATOM     20  C   UNL A   1      30.040  28.170  23.279  1.00  0.00     0.081 C 
ATOM     21  S   UNL A   1      31.583  28.883  23.453  1.00  0.00    -0.054 SA
ATOM     22  S   UNL A   1      33.927  27.294  24.438  1.00  0.00    -0.052 S 
ATOM     23  C   UNL A   1      28.867  28.713  22.926  1.00  0.00     0.029 C 
BRANCH  23  24
ATOM     24  C   UNL A   1      28.569  30.103  22.586  1.00  0.00    -0.024 A 
ATOM     25  C   UNL A   1      28.251  30.408  21.255  1.00  0.00     0.008 A 
ATOM     26  C   UNL A   1      28.672  31.140  23.518  1.00  0.00     0.008 A 
ATOM     27  C   UNL A   1      28.014  31.726  20.867  1.00  0.00     0.001 A 
ATOM     28  C   UNL A   1      28.433  32.459  23.129  1.00  0.00     0.001 A 
ATOM     29  C   UNL A   1      28.102  32.752  21.807  1.00  0.00     0.000 A 
ENDBRANCH  23  24
ENDBRANCH   9  16
ENDBRANCH   6   9
ENDBRANCH   4   5
ENDBRANCH   3   4
ENDBRANCH   2   3
ENDBRANCH   1   2
BRANCH   1  30
ATOM     30  C   UNL A   1      35.985  21.705  24.589  1.00  0.00     0.021 C 
BRANCH  30  31
ATOM     31  C   UNL A   1      37.144  22.275  25.401  1.00  0.00     0.116 C 
BRANCH  31  32
ATOM     32  N   UNL A   1      38.139  21.266  25.727  1.00  0.00    -0.352 N 
ATOM     33  C   UNL A   1      39.413  21.426  26.213  1.00  0.00     0.251 C 
ATOM     34  H   UNL A   1      37.859  20.333  25.578  1.00  0.00     0.163 HD
ATOM     35  O   UNL A   1      40.180  20.468  26.253  1.00  0.00    -0.269 OA
BRANCH  33  36
ATOM     36  C   UNL A   1      39.862  22.756  26.675  1.00  0.00     0.039 A 
ATOM     37  C   UNL A   1      40.847  22.833  27.662  1.00  0.00     0.014 A 
ATOM     38  C   UNL A   1      39.312  23.923  26.136  1.00  0.00     0.014 A 
ATOM     39  C   UNL A   1      41.320  24.082  28.071  1.00  0.00     0.010 A 
ATOM     40  C   UNL A   1      39.834  25.163  26.494  1.00  0.00     0.010 A 
ATOM     41  C   UNL A   1      40.838  25.257  27.470  1.00  0.00    -0.014 A 
BRANCH  41  42
ATOM     42  C   UNL A   1      41.377  26.590  27.844  1.00  0.00     0.031 A 
ATOM     43  C   UNL A   1      42.814  26.935  27.561  1.00  0.00     0.074 A 
ATOM     44  C   UNL A   1      40.594  27.460  28.513  1.00  0.00     0.049 A 
ATOM     45  N   UNL A   1      43.473  28.027  27.852  1.00  0.00    -0.248 NA
ATOM     46  C   UNL A   1      43.627  25.909  26.885  1.00  0.00     0.031 C 
ATOM     47  C   UNL A   1      39.208  27.215  28.915  1.00  0.00     0.029 A 
ATOM     48  N   UNL A   1      40.861  28.718  28.995  1.00  0.00    -0.354 N 
ATOM     49  C   UNL A   1      44.779  27.807  27.432  1.00  0.00     0.074 A 
ATOM     50  C   UNL A   1      44.829  26.466  26.894  1.00  0.00     0.031 C 
ATOM     51  C   UNL A   1      38.745  28.287  29.576  1.00  0.00     0.029 A 
ATOM     52  C   UNL A   1      39.806  29.284  29.674  1.00  0.00     0.049 A 
ATOM     53  H   UNL A   1      41.725  29.171  28.868  1.00  0.00     0.167 HD
ATOM     54  C   UNL A   1      45.836  28.654  27.466  1.00  0.00     0.034 A 
ATOM     55  C   UNL A   1      39.707  30.468  30.308  1.00  0.00     0.034 A 
ATOM     56  C   UNL A   1      45.771  30.002  27.963  1.00  0.00     0.049 A 
ATOM     57  C   UNL A   1      40.885  31.405  30.297  1.00  0.00     0.074 A 
ATOM     58  C   UNL A   1      46.759  30.971  27.951  1.00  0.00     0.029 A 
ATOM     59  N   UNL A   1      44.661  30.570  28.569  1.00  0.00    -0.354 N 
ATOM     60  N   UNL A   1      42.063  31.243  29.745  1.00  0.00    -0.248 NA
ATOM     61  C   UNL A   1      40.708  32.703  30.964  1.00  0.00     0.031 C 
ATOM     62  C   UNL A   1      46.256  32.116  28.577  1.00  0.00     0.029 A 
ATOM     63  C   UNL A   1      44.944  31.871  28.949  1.00  0.00     0.049 A 
ATOM     64  H   UNL A   1      43.800  30.116  28.709  1.00  0.00     0.167 HD
ATOM     65  C   UNL A   1      42.754  32.429  29.964  1.00  0.00     0.074 A 
ATOM     66  C   UNL A   1      41.854  33.309  30.682  1.00  0.00     0.031 C 
ATOM     67  C   UNL A   1      44.023  32.756  29.614  1.00  0.00     0.034 A 
BRANCH  54  68
ATOM     68  C   UNL A   1      47.147  28.165  26.905  1.00  0.00     0.023 A 
ATOM     69  C   UNL A   1      48.193  27.815  27.783  1.00  0.00     0.012 A 
ATOM     70  C   UNL A   1      47.322  27.992  25.518  1.00  0.00     0.148 A 
ATOM     71  C   UNL A   1      49.406  27.337  27.289  1.00  0.00     0.002 A 
ATOM     72  C   UNL A   1      48.517  27.470  25.035  1.00  0.00     0.091 A 
ATOM     73  F   UNL A   1      46.324  28.348  24.697  1.00  0.00    -0.205 F 
ATOM     74  C   UNL A   1      49.563  27.154  25.917  1.00  0.00     0.022 A 
BRANCH  72  75
ATOM     75  S   UNL A   1      48.790  27.123  23.295  1.00  0.00     0.127 S 
ATOM     76  O   UNL A   1      48.199  28.301  22.662  1.00  0.00    -0.237 OA
ATOM     77  O   UNL A   1      50.250  27.059  23.219  1.00  0.00    -0.237 OA
ATOM     78  O   UNL A   1      48.112  25.862  23.025  1.00  0.00    -0.744 OA
ENDBRANCH  72  75
ENDBRANCH  54  68
BRANCH  55  79
ATOM     79  C   UNL A   1      38.421  30.867  30.948  1.00  0.00     0.023 A 
ATOM     80  C   UNL A   1      38.209  30.580  32.311  1.00  0.00     0.012 A 
ATOM     81  C   UNL A   1      37.420  31.545  30.226  1.00  0.00     0.148 A 
ATOM     82  C   UNL A   1      37.011  30.929  32.935  1.00  0.00     0.002 A 
ATOM     83  C   UNL A   1      36.252  31.940  30.868  1.00  0.00     0.091 A 
ATOM     84  F   UNL A   1      37.635  31.798  28.928  1.00  0.00    -0.205 F 
ATOM     85  C   UNL A   1      36.038  31.617  32.217  1.00  0.00     0.022 A 
BRANCH  83  86
ATOM     86  S   UNL A   1      35.000  32.944  30.059  1.00  0.00     0.127 S 
ATOM     87  O   UNL A   1      34.035  33.142  31.137  1.00  0.00    -0.237 OA
ATOM     88  O   UNL A   1      35.764  34.135  29.687  1.00  0.00    -0.237 OA
ATOM     89  O   UNL A   1      34.534  32.154  28.928  1.00  0.00    -0.744 OA
ENDBRANCH  83  86
ENDBRANCH  55  79
BRANCH  67  90
ATOM     90  C   UNL A   1      44.511  34.139  29.963  1.00  0.00     0.023 A 
ATOM     91  C   UNL A   1      45.243  34.348  31.148  1.00  0.00     0.012 A 
ATOM     92  C   UNL A   1      44.307  35.215  29.076  1.00  0.00     0.148 A 
ATOM     93  C   UNL A   1      45.737  35.614  31.461  1.00  0.00     0.002 A 
ATOM     94  C   UNL A   1      44.845  36.461  29.370  1.00  0.00     0.091 A 
ATOM     95  F   UNL A   1      43.591  34.999  27.964  1.00  0.00    -0.205 F 
ATOM     96  C   UNL A   1      45.549  36.666  30.568  1.00  0.00     0.022 A 
BRANCH  94  97
ATOM     97  S   UNL A   1      44.738  37.848  28.232  1.00  0.00     0.127 S 
ATOM     98  O   UNL A   1      44.885  37.185  26.938  1.00  0.00    -0.237 OA
ATOM     99  O   UNL A   1      43.397  38.367  28.503  1.00  0.00    -0.237 OA
ATOM    100  O   UNL A   1      45.821  38.751  28.598  1.00  0.00    -0.744 OA
ENDBRANCH  94  97
ENDBRANCH  67  90
ENDBRANCH  41  42
ENDBRANCH  33  36
ENDBRANCH  31  32
ENDBRANCH  30  31
ENDBRANCH   1  30
TORSDOF 20
ENDMDL
