MODEL 1
REMARK VINA RESULT:     -10.4      0.000      0.000
REMARK SMILES O=C(CCC(=O)Nc1ncc([N+](=O)[O-])s1)NCCCCCCNC(=O)c1ccc(-c2c3nc(c(-c4cccc(S(=O)(=O)[O-])c4F)c4ccc([nH]4)c(-c4cccc(S(=O)(=O)[O-])c4F)c4nc(c(-c5cccc(S(=O)(=O)[O-])c5F)c5ccc2[nH]5)C=C4)C=C3)cc1
REMARK SMILES IDX 19 1 18 2 17 3 16 4 1 5 2 6 3 8 4 9 5 10 6 11 7 12 8 14 9 15
REMARK SMILES IDX 15 16 10 17 11 18 12 19 13 20 14 21 20 22 21 23 22 24 23 25
REMARK SMILES IDX 24 26 25 28 26 29 27 30 88 31 28 32 87 33 29 34 30 35 31 36
REMARK SMILES IDX 81 37 32 38 86 39 80 40 82 41 33 42 85 43 79 44 78 45 34 47
REMARK SMILES IDX 66 48 46 49 65 50 47 51 50 52 64 53 83 54 48 55 49 56 63 58
REMARK SMILES IDX 84 59 51 60 35 61 36 62 44 63 37 64 39 65 45 66 38 67 40 68
REMARK SMILES IDX 41 69 42 70 43 71 67 72 68 73 76 74 69 75 71 76 77 77 70 78
REMARK SMILES IDX 72 79 73 80 74 81 75 82 52 83 53 84 61 85 54 86 56 87 62 88
REMARK SMILES IDX 55 89 57 90 58 91 59 92 60 93
REMARK H PARENT 16 7 7 13 23 27 82 46 50 57
REMARK Flexibility Score: inf
ROOT
ATOM      1  C   UNL A   1      34.379  23.489  23.588  1.00  0.00     0.002 C 
ENDROOT
BRANCH   1   2
ATOM      2  C   UNL A   1      33.457  23.169  24.772  1.00  0.00     0.021 C 
BRANCH   2   3
ATOM      3  C   UNL A   1      32.071  23.799  24.707  1.00  0.00     0.116 C 
BRANCH   3   4
ATOM      4  N   UNL A   1      32.064  25.191  25.107  1.00  0.00    -0.356 N 
ATOM      5  O   UNL A   1      30.680  24.939  26.926  1.00  0.00    -0.275 OA
ATOM      6  C   UNL A   1      31.420  25.635  26.240  1.00  0.00     0.220 C 
ATOM      7  H   UNL A   1      32.539  25.846  24.546  1.00  0.00     0.163 HD
BRANCH   6   8
ATOM      8  C   UNL A   1      31.710  27.085  26.574  1.00  0.00     0.110 C 
BRANCH   8   9
ATOM      9  C   UNL A   1      33.015  27.615  25.984  1.00  0.00     0.110 C 
BRANCH   9  10
ATOM     10  C   UNL A   1      32.832  28.847  25.116  1.00  0.00     0.226 C 
ATOM     11  O   UNL A   1      32.818  29.965  25.644  1.00  0.00    -0.275 OA
ATOM     12  N   UNL A   1      32.624  28.777  23.773  1.00  0.00    -0.302 N 
ATOM     13  H   UNL A   1      32.705  29.616  23.263  1.00  0.00     0.172 HD
BRANCH  12  14
ATOM     14  C   UNL A   1      32.313  27.652  23.068  1.00  0.00     0.195 A 
ATOM     15  N   UNL A   1      31.133  27.157  22.807  1.00  0.00    -0.221 NA
ATOM     16  S   UNL A   1      33.640  26.899  22.297  1.00  0.00    -0.024 S 
ATOM     17  C   UNL A   1      31.241  26.244  21.773  1.00  0.00     0.212 A 
ATOM     18  C   UNL A   1      32.530  26.012  21.358  1.00  0.00     0.345 A 
BRANCH  18  19
ATOM     19  N   UNL A   1      32.942  25.202  20.259  1.00  0.00     0.076 N 
ATOM     20  O   UNL A   1      32.988  25.724  19.142  1.00  0.00    -0.257 OA
ATOM     21  O   UNL A   1      33.217  24.024  20.524  1.00  0.00    -0.257 OA
ENDBRANCH  18  19
ENDBRANCH  12  14
ENDBRANCH   9  10
ENDBRANCH   8   9
ENDBRANCH   6   8
ENDBRANCH   3   4
ENDBRANCH   2   3
ENDBRANCH   1   2
BRANCH   1  22
ATOM     22  C   UNL A   1      35.770  22.851  23.628  1.00  0.00     0.002 C 
BRANCH  22  23
ATOM     23  C   UNL A   1      35.901  21.594  24.492  1.00  0.00     0.021 C 
BRANCH  23  24
ATOM     24  C   UNL A   1      36.764  21.736  25.744  1.00  0.00     0.116 C 
BRANCH  24  25
ATOM     25  N   UNL A   1      37.848  20.769  25.804  1.00  0.00    -0.352 N 
ATOM     26  C   UNL A   1      39.168  20.952  26.139  1.00  0.00     0.251 C 
ATOM     27  H   UNL A   1      37.599  19.846  25.571  1.00  0.00     0.163 HD
ATOM     28  O   UNL A   1      39.954  20.018  26.027  1.00  0.00    -0.269 OA
BRANCH  26  29
ATOM     29  C   UNL A   1      39.649  22.276  26.600  1.00  0.00     0.039 A 
ATOM     30  C   UNL A   1      40.681  22.316  27.544  1.00  0.00     0.014 A 
ATOM     31  C   UNL A   1      39.095  23.467  26.124  1.00  0.00     0.014 A 
ATOM     32  C   UNL A   1      41.193  23.547  27.961  1.00  0.00     0.010 A 
ATOM     33  C   UNL A   1      39.659  24.691  26.482  1.00  0.00     0.010 A 
ATOM     34  C   UNL A   1      40.711  24.745  27.407  1.00  0.00    -0.014 A 
BRANCH  34  35
ATOM     35  C   UNL A   1      41.333  26.048  27.765  1.00  0.00     0.031 A 
ATOM     36  C   UNL A   1      42.743  26.373  27.352  1.00  0.00     0.074 A 
ATOM     37  C   UNL A   1      40.639  26.922  28.520  1.00  0.00     0.049 A 
ATOM     38  N   UNL A   1      43.421  27.477  27.543  1.00  0.00    -0.248 NA
ATOM     39  C   UNL A   1      43.499  25.320  26.659  1.00  0.00     0.031 C 
ATOM     40  C   UNL A   1      39.298  26.689  29.062  1.00  0.00     0.029 A 
ATOM     41  N   UNL A   1      40.965  28.175  28.974  1.00  0.00    -0.354 N 
ATOM     42  C   UNL A   1      44.691  27.239  27.028  1.00  0.00     0.074 A 
ATOM     43  C   UNL A   1      44.697  25.875  26.545  1.00  0.00     0.031 C 
ATOM     44  C   UNL A   1      38.905  27.774  29.747  1.00  0.00     0.029 A 
ATOM     45  C   UNL A   1      39.973  28.769  29.720  1.00  0.00     0.049 A 
ATOM     46  H   UNL A   1      41.828  28.609  28.782  1.00  0.00     0.167 HD
ATOM     47  C   UNL A   1      45.746  28.085  26.942  1.00  0.00     0.034 A 
ATOM     48  C   UNL A   1      39.923  29.979  30.308  1.00  0.00     0.034 A 
ATOM     49  C   UNL A   1      45.724  29.452  27.393  1.00  0.00     0.049 A 
ATOM     50  C   UNL A   1      41.091  30.914  30.154  1.00  0.00     0.074 A 
ATOM     51  C   UNL A   1      46.702  30.421  27.251  1.00  0.00     0.029 A 
ATOM     52  N   UNL A   1      44.681  30.040  28.093  1.00  0.00    -0.354 N 
ATOM     53  N   UNL A   1      42.212  30.738  29.498  1.00  0.00    -0.248 NA
ATOM     54  C   UNL A   1      40.969  32.233  30.793  1.00  0.00     0.031 C 
ATOM     55  C   UNL A   1      46.265  31.583  27.898  1.00  0.00     0.029 A 
ATOM     56  C   UNL A   1      44.999  31.350  28.411  1.00  0.00     0.049 A 
ATOM     57  H   UNL A   1      43.837  29.591  28.329  1.00  0.00     0.167 HD
ATOM     58  C   UNL A   1      42.914  31.933  29.616  1.00  0.00     0.074 A 
ATOM     59  C   UNL A   1      42.076  32.833  30.382  1.00  0.00     0.031 C 
ATOM     60  C   UNL A   1      44.147  32.251  29.146  1.00  0.00     0.034 A 
BRANCH  47  61
ATOM     61  C   UNL A   1      47.009  27.565  26.301  1.00  0.00     0.023 A 
ATOM     62  C   UNL A   1      47.239  27.780  24.927  1.00  0.00     0.012 A 
ATOM     63  C   UNL A   1      47.990  26.903  27.068  1.00  0.00     0.148 A 
ATOM     64  C   UNL A   1      48.401  27.309  24.316  1.00  0.00     0.002 A 
ATOM     65  C   UNL A   1      49.167  26.480  26.462  1.00  0.00     0.091 A 
ATOM     66  F   UNL A   1      47.747  26.687  28.368  1.00  0.00    -0.205 F 
ATOM     67  C   UNL A   1      49.369  26.669  25.085  1.00  0.00     0.022 A 
BRANCH  65  68
ATOM     68  S   UNL A   1      50.509  25.720  27.383  1.00  0.00     0.127 S 
ATOM     69  O   UNL A   1      51.639  25.919  26.477  1.00  0.00    -0.237 OA
ATOM     70  O   UNL A   1      50.551  26.537  28.597  1.00  0.00    -0.237 OA
ATOM     71  O   UNL A   1      50.114  24.335  27.598  1.00  0.00    -0.744 OA
ENDBRANCH  65  68
ENDBRANCH  47  61
BRANCH  48  72
ATOM     72  C   UNL A   1      38.689  30.409  31.021  1.00  0.00     0.023 A 
ATOM     73  C   UNL A   1      38.551  30.122  32.394  1.00  0.00     0.012 A 
ATOM     74  C   UNL A   1      37.668  31.123  30.364  1.00  0.00     0.148 A 
ATOM     75  C   UNL A   1      37.406  30.508  33.091  1.00  0.00     0.002 A 
ATOM     76  C   UNL A   1      36.556  31.554  31.077  1.00  0.00     0.091 A 
ATOM     77  F   UNL A   1      37.816  31.379  29.055  1.00  0.00    -0.205 F 
ATOM     78  C   UNL A   1      36.414  31.232  32.436  1.00  0.00     0.022 A 
BRANCH  76  79
ATOM     79  S   UNL A   1      35.290  32.603  30.353  1.00  0.00     0.127 S 
ATOM     80  O   UNL A   1      36.044  33.817  30.052  1.00  0.00    -0.237 OA
ATOM     81  O   UNL A   1      34.885  31.822  29.185  1.00  0.00    -0.237 OA
ATOM     82  O   UNL A   1      34.260  32.738  31.374  1.00  0.00    -0.744 OA
ENDBRANCH  76  79
ENDBRANCH  48  72
BRANCH  60  83
ATOM     83  C   UNL A   1      44.657  33.641  29.428  1.00  0.00     0.023 A 
ATOM     84  C   UNL A   1      45.309  33.918  30.647  1.00  0.00     0.012 A 
ATOM     85  C   UNL A   1      44.521  34.668  28.471  1.00  0.00     0.148 A 
ATOM     86  C   UNL A   1      45.772  35.203  30.930  1.00  0.00     0.002 A 
ATOM     87  C   UNL A   1      45.034  35.932  28.738  1.00  0.00     0.091 A 
ATOM     88  F   UNL A   1      43.883  34.394  27.324  1.00  0.00    -0.205 F 
ATOM     89  C   UNL A   1      45.643  36.206  29.973  1.00  0.00     0.022 A 
BRANCH  87  90
ATOM     90  S   UNL A   1      45.001  37.256  27.525  1.00  0.00     0.127 S 
ATOM     91  O   UNL A   1      45.850  36.712  26.466  1.00  0.00    -0.237 OA
ATOM     92  O   UNL A   1      43.580  37.334  27.187  1.00  0.00    -0.237 OA
ATOM     93  O   UNL A   1      45.524  38.434  28.205  1.00  0.00    -0.744 OA
ENDBRANCH  87  90
ENDBRANCH  60  83
ENDBRANCH  34  35
ENDBRANCH  26  29
ENDBRANCH  24  25
ENDBRANCH  23  24
ENDBRANCH  22  23
ENDBRANCH   1  22
TORSDOF 20
ENDMDL
MODEL 2
REMARK VINA RESULT:     -10.4      2.043      2.684
REMARK SMILES O=C(CCC(=O)Nc1ncc([N+](=O)[O-])s1)NCCCCCCNC(=O)c1ccc(-c2c3nc(c(-c4cccc(S(=O)(=O)[O-])c4F)c4ccc([nH]4)c(-c4cccc(S(=O)(=O)[O-])c4F)c4nc(c(-c5cccc(S(=O)(=O)[O-])c5F)c5ccc2[nH]5)C=C4)C=C3)cc1
REMARK SMILES IDX 19 1 18 2 17 3 16 4 1 5 2 6 3 8 4 9 5 10 6 11 7 12 8 14 9 15
REMARK SMILES IDX 15 16 10 17 11 18 12 19 13 20 14 21 20 22 21 23 22 24 23 25
REMARK SMILES IDX 24 26 25 28 26 29 27 30 88 31 28 32 87 33 29 34 30 35 31 36
REMARK SMILES IDX 81 37 32 38 86 39 80 40 82 41 33 42 85 43 79 44 78 45 34 47
REMARK SMILES IDX 66 48 46 49 65 50 47 51 50 52 64 53 83 54 48 55 49 56 63 58
REMARK SMILES IDX 84 59 51 60 35 61 36 62 44 63 37 64 39 65 45 66 38 67 40 68
REMARK SMILES IDX 41 69 42 70 43 71 67 72 68 73 76 74 69 75 71 76 77 77 70 78
REMARK SMILES IDX 72 79 73 80 74 81 75 82 52 83 53 84 61 85 54 86 56 87 62 88
REMARK SMILES IDX 55 89 57 90 58 91 59 92 60 93
REMARK H PARENT 16 7 7 13 23 27 82 46 50 57
REMARK Flexibility Score: inf
ROOT
ATOM      1  C   UNL A   1      33.259  23.670  23.875  1.00  0.00     0.002 C 
ENDROOT
BRANCH   1   2
ATOM      2  C   UNL A   1      32.672  22.433  24.566  1.00  0.00     0.021 C 
BRANCH   2   3
ATOM      3  C   UNL A   1      31.175  22.494  24.849  1.00  0.00     0.116 C 
BRANCH   3   4
ATOM      4  N   UNL A   1      30.664  23.849  24.895  1.00  0.00    -0.356 N 
ATOM      5  O   UNL A   1      30.460  23.982  27.181  1.00  0.00    -0.275 OA
ATOM      6  C   UNL A   1      30.417  24.511  26.076  1.00  0.00     0.220 C 
ATOM      7  H   UNL A   1      30.486  24.315  24.045  1.00  0.00     0.163 HD
BRANCH   6   8
ATOM      8  C   UNL A   1      30.081  25.977  25.891  1.00  0.00     0.110 C 
BRANCH   8   9
ATOM      9  C   UNL A   1      30.455  26.538  24.521  1.00  0.00     0.110 C 
BRANCH   9  10
ATOM     10  C   UNL A   1      31.744  27.341  24.525  1.00  0.00     0.226 C 
ATOM     11  O   UNL A   1      32.664  27.007  25.279  1.00  0.00    -0.275 OA
ATOM     12  N   UNL A   1      31.916  28.460  23.768  1.00  0.00    -0.302 N 
ATOM     13  H   UNL A   1      32.835  28.806  23.686  1.00  0.00     0.172 HD
BRANCH  12  14
ATOM     14  C   UNL A   1      30.936  29.145  23.115  1.00  0.00     0.195 A 
ATOM     15  N   UNL A   1      30.388  28.875  21.960  1.00  0.00    -0.221 NA
ATOM     16  S   UNL A   1      30.234  30.420  24.009  1.00  0.00    -0.024 S 
ATOM     17  C   UNL A   1      29.205  29.582  21.841  1.00  0.00     0.212 A 
ATOM     18  C   UNL A   1      28.956  30.443  22.883  1.00  0.00     0.345 A 
BRANCH  18  19
ATOM     19  N   UNL A   1      27.781  31.226  23.083  1.00  0.00     0.076 N 
ATOM     20  O   UNL A   1      27.089  30.986  24.076  1.00  0.00    -0.257 OA
ATOM     21  O   UNL A   1      27.550  32.090  22.226  1.00  0.00    -0.257 OA
ENDBRANCH  18  19
ENDBRANCH  12  14
ENDBRANCH   9  10
ENDBRANCH   8   9
ENDBRANCH   6   8
ENDBRANCH   3   4
ENDBRANCH   2   3
ENDBRANCH   1   2
BRANCH   1  22
ATOM     22  C   UNL A   1      34.779  23.678  23.689  1.00  0.00     0.002 C 
BRANCH  22  23
ATOM     23  C   UNL A   1      35.498  22.370  24.030  1.00  0.00     0.021 C 
BRANCH  23  24
ATOM     24  C   UNL A   1      36.246  22.352  25.361  1.00  0.00     0.116 C 
BRANCH  24  25
ATOM     25  N   UNL A   1      37.245  21.299  25.441  1.00  0.00    -0.352 N 
ATOM     26  C   UNL A   1      38.559  21.365  25.842  1.00  0.00     0.251 C 
ATOM     27  H   UNL A   1      36.935  20.406  25.169  1.00  0.00     0.163 HD
ATOM     28  O   UNL A   1      39.271  20.374  25.737  1.00  0.00    -0.269 OA
BRANCH  26  29
ATOM     29  C   UNL A   1      39.121  22.632  26.365  1.00  0.00     0.039 A 
ATOM     30  C   UNL A   1      40.239  22.567  27.203  1.00  0.00     0.014 A 
ATOM     31  C   UNL A   1      38.559  23.872  26.048  1.00  0.00     0.014 A 
ATOM     32  C   UNL A   1      40.826  23.745  27.670  1.00  0.00     0.010 A 
ATOM     33  C   UNL A   1      39.191  25.047  26.452  1.00  0.00     0.010 A 
ATOM     34  C   UNL A   1      40.329  24.998  27.271  1.00  0.00    -0.014 A 
BRANCH  34  35
ATOM     35  C   UNL A   1      41.021  26.250  27.676  1.00  0.00     0.031 A 
ATOM     36  C   UNL A   1      42.446  26.515  27.271  1.00  0.00     0.074 A 
ATOM     37  C   UNL A   1      40.376  27.131  28.466  1.00  0.00     0.049 A 
ATOM     38  N   UNL A   1      43.183  27.572  27.501  1.00  0.00    -0.248 NA
ATOM     39  C   UNL A   1      43.143  25.449  26.535  1.00  0.00     0.031 C 
ATOM     40  C   UNL A   1      39.025  26.951  29.003  1.00  0.00     0.029 A 
ATOM     41  N   UNL A   1      40.771  28.347  28.966  1.00  0.00    -0.354 N 
ATOM     42  C   UNL A   1      44.438  27.286  26.973  1.00  0.00     0.074 A 
ATOM     43  C   UNL A   1      44.369  25.943  26.438  1.00  0.00     0.031 C 
ATOM     44  C   UNL A   1      38.693  28.029  29.730  1.00  0.00     0.029 A 
ATOM     45  C   UNL A   1      39.814  28.964  29.737  1.00  0.00     0.049 A 
ATOM     46  H   UNL A   1      41.656  28.741  28.788  1.00  0.00     0.167 HD
ATOM     47  C   UNL A   1      45.537  28.076  26.915  1.00  0.00     0.034 A 
ATOM     48  C   UNL A   1      39.830  30.152  30.371  1.00  0.00     0.034 A 
ATOM     49  C   UNL A   1      45.590  29.424  27.418  1.00  0.00     0.049 A 
ATOM     50  C   UNL A   1      41.047  31.028  30.249  1.00  0.00     0.074 A 
ATOM     51  C   UNL A   1      46.618  30.343  27.310  1.00  0.00     0.029 A 
ATOM     52  N   UNL A   1      44.581  30.040  28.143  1.00  0.00    -0.354 N 
ATOM     53  N   UNL A   1      42.155  30.817  29.583  1.00  0.00    -0.248 NA
ATOM     54  C   UNL A   1      40.997  32.326  30.938  1.00  0.00     0.031 C 
ATOM     55  C   UNL A   1      46.246  31.501  28.002  1.00  0.00     0.029 A 
ATOM     56  C   UNL A   1      44.970  31.318  28.509  1.00  0.00     0.049 A 
ATOM     57  H   UNL A   1      43.715  29.628  28.365  1.00  0.00     0.167 HD
ATOM     58  C   UNL A   1      42.922  31.966  29.743  1.00  0.00     0.074 A 
ATOM     59  C   UNL A   1      42.135  32.881  30.546  1.00  0.00     0.031 C 
ATOM     60  C   UNL A   1      44.169  32.235  29.281  1.00  0.00     0.034 A 
BRANCH  47  61
ATOM     61  C   UNL A   1      46.768  27.512  26.251  1.00  0.00     0.023 A 
ATOM     62  C   UNL A   1      47.609  26.631  26.962  1.00  0.00     0.012 A 
ATOM     63  C   UNL A   1      47.069  27.817  24.908  1.00  0.00     0.148 A 
ATOM     64  C   UNL A   1      48.751  26.097  26.365  1.00  0.00     0.002 A 
ATOM     65  C   UNL A   1      48.182  27.242  24.304  1.00  0.00     0.091 A 
ATOM     66  F   UNL A   1      46.273  28.672  24.252  1.00  0.00    -0.205 F 
ATOM     67  C   UNL A   1      49.031  26.395  25.033  1.00  0.00     0.022 A 
BRANCH  65  68
ATOM     68  S   UNL A   1      48.581  27.497  22.571  1.00  0.00     0.127 S 
ATOM     69  O   UNL A   1      48.591  26.125  22.066  1.00  0.00    -0.237 OA
ATOM     70  O   UNL A   1      47.451  28.307  22.111  1.00  0.00    -0.237 OA
ATOM     71  O   UNL A   1      49.866  28.181  22.551  1.00  0.00    -0.744 OA
ENDBRANCH  65  68
ENDBRANCH  47  61
BRANCH  48  72
ATOM     72  C   UNL A   1      38.622  30.621  31.104  1.00  0.00     0.023 A 
ATOM     73  C   UNL A   1      38.539  30.419  32.497  1.00  0.00     0.012 A 
ATOM     74  C   UNL A   1      37.572  31.289  30.445  1.00  0.00     0.148 A 
ATOM     75  C   UNL A   1      37.420  30.844  33.213  1.00  0.00     0.002 A 
ATOM     76  C   UNL A   1      36.486  31.759  31.173  1.00  0.00     0.091 A 
ATOM     77  F   UNL A   1      37.667  31.464  29.119  1.00  0.00    -0.205 F 
ATOM     78  C   UNL A   1      36.399  31.522  32.554  1.00  0.00     0.022 A 
BRANCH  76  79
ATOM     79  S   UNL A   1      35.186  32.757  30.437  1.00  0.00     0.127 S 
ATOM     80  O   UNL A   1      34.299  32.980  31.576  1.00  0.00    -0.237 OA
ATOM     81  O   UNL A   1      35.929  33.936  29.993  1.00  0.00    -0.237 OA
ATOM     82  O   UNL A   1      34.635  31.950  29.357  1.00  0.00    -0.744 OA
ENDBRANCH  76  79
ENDBRANCH  48  72
BRANCH  60  83
ATOM     83  C   UNL A   1      44.754  33.583  29.614  1.00  0.00     0.023 A 
ATOM     84  C   UNL A   1      45.530  33.746  30.780  1.00  0.00     0.012 A 
ATOM     85  C   UNL A   1      44.565  34.685  28.754  1.00  0.00     0.148 A 
ATOM     86  C   UNL A   1      46.064  34.991  31.110  1.00  0.00     0.002 A 
ATOM     87  C   UNL A   1      45.146  35.910  29.063  1.00  0.00     0.091 A 
ATOM     88  F   UNL A   1      43.809  34.520  27.659  1.00  0.00    -0.205 F 
ATOM     89  C   UNL A   1      45.881  36.069  30.248  1.00  0.00     0.022 A 
BRANCH  87  90
ATOM     90  S   UNL A   1      45.045  37.324  27.960  1.00  0.00     0.127 S 
ATOM     91  O   UNL A   1      45.152  38.441  28.896  1.00  0.00    -0.237 OA
ATOM     92  O   UNL A   1      46.215  37.133  27.102  1.00  0.00    -0.237 OA
ATOM     93  O   UNL A   1      43.767  37.201  27.271  1.00  0.00    -0.744 OA
ENDBRANCH  87  90
ENDBRANCH  60  83
ENDBRANCH  34  35
ENDBRANCH  26  29
ENDBRANCH  24  25
ENDBRANCH  23  24
ENDBRANCH  22  23
ENDBRANCH   1  22
TORSDOF 20
ENDMDL
MODEL 3
REMARK VINA RESULT:      -9.9      2.003      8.079
REMARK SMILES O=C(CCC(=O)Nc1ncc([N+](=O)[O-])s1)NCCCCCCNC(=O)c1ccc(-c2c3nc(c(-c4cccc(S(=O)(=O)[O-])c4F)c4ccc([nH]4)c(-c4cccc(S(=O)(=O)[O-])c4F)c4nc(c(-c5cccc(S(=O)(=O)[O-])c5F)c5ccc2[nH]5)C=C4)C=C3)cc1
REMARK SMILES IDX 19 1 18 2 17 3 16 4 1 5 2 6 3 8 4 9 5 10 6 11 7 12 8 14 9 15
REMARK SMILES IDX 15 16 10 17 11 18 12 19 13 20 14 21 20 22 21 23 22 24 23 25
REMARK SMILES IDX 24 26 25 28 26 29 27 30 88 31 28 32 87 33 29 34 30 35 31 36
REMARK SMILES IDX 81 37 32 38 86 39 80 40 82 41 33 42 85 43 79 44 78 45 34 47
REMARK SMILES IDX 66 48 46 49 65 50 47 51 50 52 64 53 83 54 48 55 49 56 63 58
REMARK SMILES IDX 84 59 51 60 35 61 36 62 44 63 37 64 39 65 45 66 38 67 40 68
REMARK SMILES IDX 41 69 42 70 43 71 67 72 68 73 76 74 69 75 71 76 77 77 70 78
REMARK SMILES IDX 72 79 73 80 74 81 75 82 52 83 53 84 61 85 54 86 56 87 62 88
REMARK SMILES IDX 55 89 57 90 58 91 59 92 60 93
REMARK H PARENT 16 7 7 13 23 27 82 46 50 57
REMARK Flexibility Score: inf
ROOT
ATOM      1  C   UNL A   1      35.996  22.423  24.534  1.00  0.00     0.002 C 
ENDROOT
BRANCH   1   2
ATOM      2  C   UNL A   1      35.344  21.882  25.812  1.00  0.00     0.021 C 
BRANCH   2   3
ATOM      3  C   UNL A   1      33.846  21.613  25.716  1.00  0.00     0.116 C 
BRANCH   3   4
ATOM      4  N   UNL A   1      33.257  22.132  24.498  1.00  0.00    -0.356 N 
ATOM      5  O   UNL A   1      32.119  23.876  25.473  1.00  0.00    -0.275 OA
ATOM      6  C   UNL A   1      32.494  23.277  24.471  1.00  0.00     0.220 C 
ATOM      7  H   UNL A   1      33.409  21.644  23.656  1.00  0.00     0.163 HD
BRANCH   6   8
ATOM      8  C   UNL A   1      32.150  23.744  23.070  1.00  0.00     0.110 C 
BRANCH   8   9
ATOM      9  C   UNL A   1      33.226  24.605  22.415  1.00  0.00     0.110 C 
BRANCH   9  10
ATOM     10  C   UNL A   1      32.696  25.501  21.309  1.00  0.00     0.226 C 
ATOM     11  O   UNL A   1      33.132  25.369  20.160  1.00  0.00    -0.275 OA
ATOM     12  N   UNL A   1      31.793  26.494  21.535  1.00  0.00    -0.302 N 
ATOM     13  H   UNL A   1      31.364  26.897  20.745  1.00  0.00     0.172 HD
BRANCH  12  14
ATOM     14  C   UNL A   1      31.428  26.983  22.754  1.00  0.00     0.195 A 
ATOM     15  N   UNL A   1      30.301  26.813  23.393  1.00  0.00    -0.221 NA
ATOM     16  S   UNL A   1      32.675  27.781  23.609  1.00  0.00    -0.024 S 
ATOM     17  C   UNL A   1      30.478  27.152  24.723  1.00  0.00     0.212 A 
ATOM     18  C   UNL A   1      31.719  27.664  25.015  1.00  0.00     0.345 A 
BRANCH  18  19
ATOM     19  N   UNL A   1      32.221  28.009  26.304  1.00  0.00     0.076 N 
ATOM     20  O   UNL A   1      31.500  28.688  27.041  1.00  0.00    -0.257 OA
ATOM     21  O   UNL A   1      33.357  27.598  26.575  1.00  0.00    -0.257 OA
ENDBRANCH  18  19
ENDBRANCH  12  14
ENDBRANCH   9  10
ENDBRANCH   8   9
ENDBRANCH   6   8
ENDBRANCH   3   4
ENDBRANCH   2   3
ENDBRANCH   1   2
BRANCH   1  22
ATOM     22  C   UNL A   1      37.217  21.651  24.024  1.00  0.00     0.002 C 
BRANCH  22  23
ATOM     23  C   UNL A   1      37.555  20.365  24.783  1.00  0.00     0.021 C 
BRANCH  23  24
ATOM     24  C   UNL A   1      38.512  20.523  25.962  1.00  0.00     0.116 C 
BRANCH  24  25
ATOM     25  N   UNL A   1      39.559  19.514  25.988  1.00  0.00    -0.352 N 
ATOM     26  C   UNL A   1      40.914  19.660  26.163  1.00  0.00     0.251 C 
ATOM     27  H   UNL A   1      39.250  18.588  25.862  1.00  0.00     0.163 HD
ATOM     28  O   UNL A   1      41.646  18.684  26.048  1.00  0.00    -0.269 OA
BRANCH  26  29
ATOM     29  C   UNL A   1      41.494  20.992  26.456  1.00  0.00     0.039 A 
ATOM     30  C   UNL A   1      41.768  21.848  25.384  1.00  0.00     0.014 A 
ATOM     31  C   UNL A   1      41.775  21.401  27.762  1.00  0.00     0.014 A 
ATOM     32  C   UNL A   1      42.264  23.130  25.628  1.00  0.00     0.010 A 
ATOM     33  C   UNL A   1      42.198  22.707  28.008  1.00  0.00     0.010 A 
ATOM     34  C   UNL A   1      42.451  23.585  26.945  1.00  0.00    -0.014 A 
BRANCH  34  35
ATOM     35  C   UNL A   1      42.871  24.987  27.209  1.00  0.00     0.031 A 
ATOM     36  C   UNL A   1      41.929  25.972  27.846  1.00  0.00     0.074 A 
ATOM     37  C   UNL A   1      44.096  25.391  26.816  1.00  0.00     0.049 A 
ATOM     38  N   UNL A   1      42.148  27.217  28.186  1.00  0.00    -0.248 NA
ATOM     39  C   UNL A   1      40.559  25.512  28.116  1.00  0.00     0.031 C 
ATOM     40  C   UNL A   1      45.070  24.559  26.106  1.00  0.00     0.029 A 
ATOM     41  N   UNL A   1      44.727  26.602  26.946  1.00  0.00    -0.354 N 
ATOM     42  C   UNL A   1      40.938  27.699  28.673  1.00  0.00     0.074 A 
ATOM     43  C   UNL A   1      39.981  26.620  28.556  1.00  0.00     0.031 C 
ATOM     44  C   UNL A   1      46.185  25.275  25.891  1.00  0.00     0.029 A 
ATOM     45  C   UNL A   1      45.998  26.622  26.420  1.00  0.00     0.049 A 
ATOM     46  H   UNL A   1      44.310  27.383  27.376  1.00  0.00     0.167 HD
ATOM     47  C   UNL A   1      40.656  28.918  29.194  1.00  0.00     0.034 A 
ATOM     48  C   UNL A   1      46.913  27.609  26.375  1.00  0.00     0.034 A 
ATOM     49  C   UNL A   1      41.620  29.977  29.340  1.00  0.00     0.049 A 
ATOM     50  C   UNL A   1      46.588  28.936  27.004  1.00  0.00     0.074 A 
ATOM     51  C   UNL A   1      41.461  31.206  29.955  1.00  0.00     0.029 A 
ATOM     52  N   UNL A   1      42.916  29.942  28.849  1.00  0.00    -0.354 N 
ATOM     53  N   UNL A   1      45.500  29.310  27.631  1.00  0.00    -0.248 NA
ATOM     54  C   UNL A   1      47.636  29.966  26.951  1.00  0.00     0.031 C 
ATOM     55  C   UNL A   1      42.649  31.930  29.802  1.00  0.00     0.029 A 
ATOM     56  C   UNL A   1      43.561  31.137  29.125  1.00  0.00     0.049 A 
ATOM     57  H   UNL A   1      43.318  29.180  28.374  1.00  0.00     0.167 HD
ATOM     58  C   UNL A   1      45.742  30.605  28.076  1.00  0.00     0.074 A 
ATOM     59  C   UNL A   1      47.094  30.937  27.671  1.00  0.00     0.031 C 
ATOM     60  C   UNL A   1      44.917  31.448  28.747  1.00  0.00     0.034 A 
BRANCH  47  61
ATOM     61  C   UNL A   1      39.248  29.161  29.680  1.00  0.00     0.023 A 
ATOM     62  C   UNL A   1      38.875  28.763  30.981  1.00  0.00     0.012 A 
ATOM     63  C   UNL A   1      38.307  29.825  28.867  1.00  0.00     0.148 A 
ATOM     64  C   UNL A   1      37.580  28.981  31.449  1.00  0.00     0.002 A 
ATOM     65  C   UNL A   1      37.032  30.083  29.359  1.00  0.00     0.091 A 
ATOM     66  F   UNL A   1      38.669  30.178  27.626  1.00  0.00    -0.205 F 
ATOM     67  C   UNL A   1      36.662  29.649  30.643  1.00  0.00     0.022 A 
BRANCH  65  68
ATOM     68  S   UNL A   1      35.806  31.009  28.429  1.00  0.00     0.127 S 
ATOM     69  O   UNL A   1      36.556  32.212  28.070  1.00  0.00    -0.237 OA
ATOM     70  O   UNL A   1      35.525  30.110  27.309  1.00  0.00    -0.237 OA
ATOM     71  O   UNL A   1      34.686  31.216  29.336  1.00  0.00    -0.744 OA
ENDBRANCH  65  68
ENDBRANCH  47  61
BRANCH  48  72
ATOM     72  C   UNL A   1      48.258  27.350  25.790  1.00  0.00     0.023 A 
ATOM     73  C   UNL A   1      49.291  26.873  26.621  1.00  0.00     0.012 A 
ATOM     74  C   UNL A   1      48.515  27.543  24.418  1.00  0.00     0.148 A 
ATOM     75  C   UNL A   1      50.563  26.624  26.105  1.00  0.00     0.002 A 
ATOM     76  C   UNL A   1      49.768  27.238  23.900  1.00  0.00     0.091 A 
ATOM     77  F   UNL A   1      47.520  28.004  23.647  1.00  0.00    -0.205 F 
ATOM     78  C   UNL A   1      50.799  26.796  24.745  1.00  0.00     0.022 A 
BRANCH  76  79
ATOM     79  S   UNL A   1      50.129  27.303  22.142  1.00  0.00     0.127 S 
ATOM     80  O   UNL A   1      49.084  26.444  21.591  1.00  0.00    -0.237 OA
ATOM     81  O   UNL A   1      49.972  28.729  21.856  1.00  0.00    -0.237 OA
ATOM     82  O   UNL A   1      51.492  26.807  22.001  1.00  0.00    -0.744 OA
ENDBRANCH  76  79
ENDBRANCH  48  72
BRANCH  60  83
ATOM     83  C   UNL A   1      45.461  32.808  29.105  1.00  0.00     0.023 A 
ATOM     84  C   UNL A   1      46.150  32.992  30.321  1.00  0.00     0.012 A 
ATOM     85  C   UNL A   1      45.320  33.898  28.222  1.00  0.00     0.148 A 
ATOM     86  C   UNL A   1      46.645  34.247  30.675  1.00  0.00     0.002 A 
ATOM     87  C   UNL A   1      45.864  35.133  28.557  1.00  0.00     0.091 A 
ATOM     88  F   UNL A   1      44.647  33.712  27.078  1.00  0.00    -0.205 F 
ATOM     89  C   UNL A   1      46.511  35.313  29.790  1.00  0.00     0.022 A 
BRANCH  87  90
ATOM     90  S   UNL A   1      45.826  36.534  27.434  1.00  0.00     0.127 S 
ATOM     91  O   UNL A   1      46.542  36.007  26.275  1.00  0.00    -0.237 OA
ATOM     92  O   UNL A   1      44.390  36.728  27.228  1.00  0.00    -0.237 OA
ATOM     93  O   UNL A   1      46.485  37.626  28.138  1.00  0.00    -0.744 OA
ENDBRANCH  87  90
ENDBRANCH  60  83
ENDBRANCH  34  35
ENDBRANCH  26  29
ENDBRANCH  24  25
ENDBRANCH  23  24
ENDBRANCH  22  23
ENDBRANCH   1  22
TORSDOF 20
ENDMDL
