MODEL 1
REMARK VINA RESULT:     -10.3      0.000      0.000
REMARK SMILES C[NH2+]C[C@H](C)C(=O)N1CCC[C@@H]1C(=O)NCCCCCCNC(=O)c1ccc(-c2c3nc(c(-c4cccc(S(=O)(=O)[O-])c4F)c4ccc([nH]4)c(-c4cccc(S(=O)(=O)[O-])c4F)c4nc(c(-c5cccc(S(=O)(=O)[O-])c5F)c5ccc2[nH]5)C=C4)C=C3)cc1
REMARK SMILES IDX 18 1 17 2 16 3 15 4 13 5 14 6 12 8 8 9 9 10 10 11 11 12 6 13
REMARK SMILES IDX 7 14 4 15 5 16 3 17 2 18 1 19 19 22 20 23 21 24 22 25 23 26
REMARK SMILES IDX 24 28 25 29 26 30 87 31 27 32 86 33 28 34 29 35 30 36 80 37
REMARK SMILES IDX 31 38 85 39 79 40 81 41 32 42 84 43 78 44 77 45 33 47 65 48
REMARK SMILES IDX 45 49 64 50 46 51 49 52 63 53 82 54 47 55 48 56 62 58 83 59
REMARK SMILES IDX 50 60 34 61 35 62 43 63 36 64 38 65 44 66 37 67 39 68 40 69
REMARK SMILES IDX 41 70 42 71 66 72 67 73 75 74 68 75 70 76 76 77 69 78 71 79
REMARK SMILES IDX 72 80 73 81 74 82 51 83 52 84 60 85 53 86 55 87 61 88 54 89
REMARK SMILES IDX 56 90 57 91 58 92 59 93
REMARK H PARENT 15 7 2 20 2 21 22 27 81 46 49 57
REMARK Flexibility Score: inf
ROOT
ATOM      1  C   UNL A   1      33.912  23.064  22.688  1.00  0.00     0.002 C 
ENDROOT
BRANCH   1   2
ATOM      2  C   UNL A   1      32.956  24.260  22.748  1.00  0.00     0.021 C 
BRANCH   2   3
ATOM      3  C   UNL A   1      33.062  25.047  24.049  1.00  0.00     0.116 C 
BRANCH   3   4
ATOM      4  N   UNL A   1      31.779  25.179  24.703  1.00  0.00    -0.354 N 
ATOM      5  C   UNL A   1      30.864  26.191  24.659  1.00  0.00     0.242 C 
ATOM      6  O   UNL A   1      29.950  26.150  25.491  1.00  0.00    -0.273 OA
ATOM      7  H   UNL A   1      31.525  24.417  25.273  1.00  0.00     0.163 HD
BRANCH   5   8
ATOM      8  C   UNL A   1      31.039  27.425  23.743  1.00  0.00     0.174 C 
ATOM      9  N   UNL A   1      31.126  28.703  24.452  1.00  0.00    -0.330 N 
ATOM     10  C   UNL A   1      30.266  29.701  23.844  1.00  0.00     0.120 C 
ATOM     11  C   UNL A   1      29.244  28.928  23.024  1.00  0.00     0.024 C 
ATOM     12  C   UNL A   1      29.881  27.567  22.752  1.00  0.00     0.037 C 
BRANCH   9  13
ATOM     13  C   UNL A   1      32.219  28.938  25.261  1.00  0.00     0.231 C 
ATOM     14  O   UNL A   1      33.357  28.661  24.865  1.00  0.00    -0.274 OA
BRANCH  13  15
ATOM     15  C   UNL A   1      32.038  29.342  26.728  1.00  0.00     0.130 C 
ATOM     16  C   UNL A   1      31.637  28.220  27.684  1.00  0.00     0.024 C 
BRANCH  15  17
ATOM     17  C   UNL A   1      33.277  30.108  27.234  1.00  0.00     0.273 C 
BRANCH  17  18
ATOM     18  N   UNL A   1      34.247  29.311  28.000  1.00  0.00    -0.348 N 
ATOM     19  C   UNL A   1      35.598  29.395  27.464  1.00  0.00     0.330 C 
ATOM     20  H   UNL A   1      34.258  29.647  28.963  1.00  0.00     0.346 HD
ATOM     21  H   UNL A   1      33.956  28.335  27.940  1.00  0.00     0.346 HD
ENDBRANCH  17  18
ENDBRANCH  15  17
ENDBRANCH  13  15
ENDBRANCH   9  13
ENDBRANCH   5   8
ENDBRANCH   3   4
ENDBRANCH   2   3
ENDBRANCH   1   2
BRANCH   1  22
ATOM     22  C   UNL A   1      34.339  22.503  24.052  1.00  0.00     0.002 C 
BRANCH  22  23
ATOM     23  C   UNL A   1      35.845  22.531  24.328  1.00  0.00     0.021 C 
BRANCH  23  24
ATOM     24  C   UNL A   1      36.243  22.017  25.708  1.00  0.00     0.116 C 
BRANCH  24  25
ATOM     25  N   UNL A   1      37.259  20.977  25.628  1.00  0.00    -0.352 N 
ATOM     26  C   UNL A   1      38.618  21.073  25.765  1.00  0.00     0.251 C 
ATOM     27  H   UNL A   1      36.918  20.070  25.448  1.00  0.00     0.163 HD
ATOM     28  O   UNL A   1      39.336  20.124  25.444  1.00  0.00    -0.269 OA
BRANCH  26  29
ATOM     29  C   UNL A   1      39.222  22.315  26.287  1.00  0.00     0.039 A 
ATOM     30  C   UNL A   1      40.229  22.224  27.250  1.00  0.00     0.014 A 
ATOM     31  C   UNL A   1      38.794  23.565  25.830  1.00  0.00     0.014 A 
ATOM     32  C   UNL A   1      40.851  23.386  27.709  1.00  0.00     0.010 A 
ATOM     33  C   UNL A   1      39.463  24.716  26.235  1.00  0.00     0.010 A 
ATOM     34  C   UNL A   1      40.501  24.638  27.177  1.00  0.00    -0.014 A 
BRANCH  34  35
ATOM     35  C   UNL A   1      41.241  25.867  27.559  1.00  0.00     0.031 A 
ATOM     36  C   UNL A   1      40.567  26.958  28.343  1.00  0.00     0.074 A 
ATOM     37  C   UNL A   1      42.506  26.033  27.122  1.00  0.00     0.049 A 
ATOM     38  N   UNL A   1      41.046  28.113  28.726  1.00  0.00    -0.248 NA
ATOM     39  C   UNL A   1      39.163  26.735  28.728  1.00  0.00     0.031 C 
ATOM     40  C   UNL A   1      43.241  25.082  26.286  1.00  0.00     0.029 A 
ATOM     41  N   UNL A   1      43.386  27.072  27.294  1.00  0.00    -0.354 N 
ATOM     42  C   UNL A   1      40.001  28.767  29.368  1.00  0.00     0.074 A 
ATOM     43  C   UNL A   1      38.850  27.892  29.295  1.00  0.00     0.031 C 
ATOM     44  C   UNL A   1      44.461  25.577  26.024  1.00  0.00     0.029 A 
ATOM     45  C   UNL A   1      44.582  26.894  26.639  1.00  0.00     0.049 A 
ATOM     46  H   UNL A   1      43.181  27.869  27.836  1.00  0.00     0.167 HD
ATOM     47  C   UNL A   1      40.006  29.972  29.983  1.00  0.00     0.034 A 
ATOM     48  C   UNL A   1      45.653  27.706  26.532  1.00  0.00     0.034 A 
ATOM     49  C   UNL A   1      41.161  30.826  30.076  1.00  0.00     0.049 A 
ATOM     50  C   UNL A   1      45.638  29.031  27.243  1.00  0.00     0.074 A 
ATOM     51  C   UNL A   1      41.291  32.026  30.754  1.00  0.00     0.029 A 
ATOM     52  N   UNL A   1      42.379  30.583  29.459  1.00  0.00    -0.354 N 
ATOM     53  N   UNL A   1      44.695  29.559  27.985  1.00  0.00    -0.248 NA
ATOM     54  C   UNL A   1      46.847  29.858  27.130  1.00  0.00     0.031 C 
ATOM     55  C   UNL A   1      42.576  32.525  30.516  1.00  0.00     0.029 A 
ATOM     56  C   UNL A   1      43.259  31.619  29.722  1.00  0.00     0.049 A 
ATOM     57  H   UNL A   1      42.587  29.790  28.914  1.00  0.00     0.167 HD
ATOM     58  C   UNL A   1      45.207  30.764  28.452  1.00  0.00     0.074 A 
ATOM     59  C   UNL A   1      46.554  30.874  27.931  1.00  0.00     0.031 C 
ATOM     60  C   UNL A   1      44.611  31.700  29.230  1.00  0.00     0.034 A 
BRANCH  47  61
ATOM     61  C   UNL A   1      38.730  30.429  30.644  1.00  0.00     0.023 A 
ATOM     62  C   UNL A   1      38.427  29.997  31.951  1.00  0.00     0.012 A 
ATOM     63  C   UNL A   1      37.865  31.335  29.999  1.00  0.00     0.148 A 
ATOM     64  C   UNL A   1      37.267  30.430  32.593  1.00  0.00     0.002 A 
ATOM     65  C   UNL A   1      36.736  31.801  30.663  1.00  0.00     0.091 A 
ATOM     66  F   UNL A   1      38.159  31.721  28.750  1.00  0.00    -0.205 F 
ATOM     67  C   UNL A   1      36.429  31.339  31.955  1.00  0.00     0.022 A 
BRANCH  65  68
ATOM     68  S   UNL A   1      35.635  33.033  29.960  1.00  0.00     0.127 S 
ATOM     69  O   UNL A   1      35.023  32.288  28.860  1.00  0.00    -0.237 OA
ATOM     70  O   UNL A   1      34.735  33.315  31.079  1.00  0.00    -0.237 OA
ATOM     71  O   UNL A   1      36.481  34.150  29.563  1.00  0.00    -0.744 OA
ENDBRANCH  65  68
ENDBRANCH  47  61
BRANCH  48  72
ATOM     72  C   UNL A   1      46.846  27.264  25.757  1.00  0.00     0.023 A 
ATOM     73  C   UNL A   1      47.766  26.375  26.344  1.00  0.00     0.012 A 
ATOM     74  C   UNL A   1      47.060  27.699  24.434  1.00  0.00     0.148 A 
ATOM     75  C   UNL A   1      48.895  25.953  25.641  1.00  0.00     0.002 A 
ATOM     76  C   UNL A   1      48.154  27.229  23.719  1.00  0.00     0.091 A 
ATOM     77  F   UNL A   1      46.177  28.553  23.897  1.00  0.00    -0.205 F 
ATOM     78  C   UNL A   1      49.084  26.371  24.327  1.00  0.00     0.022 A 
BRANCH  76  79
ATOM     79  S   UNL A   1      48.402  27.608  21.981  1.00  0.00     0.127 S 
ATOM     80  O   UNL A   1      49.549  28.510  22.032  1.00  0.00    -0.237 OA
ATOM     81  O   UNL A   1      48.682  26.285  21.421  1.00  0.00    -0.237 OA
ATOM     82  O   UNL A   1      47.153  28.201  21.522  1.00  0.00    -0.744 OA
ENDBRANCH  76  79
ENDBRANCH  48  72
BRANCH  60  83
ATOM     83  C   UNL A   1      45.417  32.921  29.593  1.00  0.00     0.023 A 
ATOM     84  C   UNL A   1      46.222  32.912  30.751  1.00  0.00     0.012 A 
ATOM     85  C   UNL A   1      45.429  34.051  28.753  1.00  0.00     0.148 A 
ATOM     86  C   UNL A   1      46.995  34.024  31.084  1.00  0.00     0.002 A 
ATOM     87  C   UNL A   1      46.241  35.134  29.063  1.00  0.00     0.091 A 
ATOM     88  F   UNL A   1      44.644  34.046  27.666  1.00  0.00    -0.205 F 
ATOM     89  C   UNL A   1      47.014  35.128  30.236  1.00  0.00     0.022 A 
BRANCH  87  90
ATOM     90  S   UNL A   1      46.406  36.559  27.983  1.00  0.00     0.127 S 
ATOM     91  O   UNL A   1      45.008  36.920  27.750  1.00  0.00    -0.237 OA
ATOM     92  O   UNL A   1      47.147  37.500  28.824  1.00  0.00    -0.237 OA
ATOM     93  O   UNL A   1      47.133  36.094  26.810  1.00  0.00    -0.744 OA
ENDBRANCH  87  90
ENDBRANCH  60  83
ENDBRANCH  34  35
ENDBRANCH  26  29
ENDBRANCH  24  25
ENDBRANCH  23  24
ENDBRANCH  22  23
ENDBRANCH   1  22
TORSDOF 20
ENDMDL
MODEL 2
REMARK VINA RESULT:     -10.2      1.757      7.961
REMARK SMILES C[NH2+]C[C@H](C)C(=O)N1CCC[C@@H]1C(=O)NCCCCCCNC(=O)c1ccc(-c2c3nc(c(-c4cccc(S(=O)(=O)[O-])c4F)c4ccc([nH]4)c(-c4cccc(S(=O)(=O)[O-])c4F)c4nc(c(-c5cccc(S(=O)(=O)[O-])c5F)c5ccc2[nH]5)C=C4)C=C3)cc1
REMARK SMILES IDX 18 1 17 2 16 3 15 4 13 5 14 6 12 8 8 9 9 10 10 11 11 12 6 13
REMARK SMILES IDX 7 14 4 15 5 16 3 17 2 18 1 19 19 22 20 23 21 24 22 25 23 26
REMARK SMILES IDX 24 28 25 29 26 30 87 31 27 32 86 33 28 34 29 35 30 36 80 37
REMARK SMILES IDX 31 38 85 39 79 40 81 41 32 42 84 43 78 44 77 45 33 47 65 48
REMARK SMILES IDX 45 49 64 50 46 51 49 52 63 53 82 54 47 55 48 56 62 58 83 59
REMARK SMILES IDX 50 60 34 61 35 62 43 63 36 64 38 65 44 66 37 67 39 68 40 69
REMARK SMILES IDX 41 70 42 71 66 72 67 73 75 74 68 75 70 76 76 77 69 78 71 79
REMARK SMILES IDX 72 80 73 81 74 82 51 83 52 84 60 85 53 86 55 87 61 88 54 89
REMARK SMILES IDX 56 90 57 91 58 92 59 93
REMARK H PARENT 15 7 2 20 2 21 22 27 81 46 49 57
REMARK Flexibility Score: inf
ROOT
ATOM      1  C   UNL A   1      34.015  23.708  25.987  1.00  0.00     0.002 C 
ENDROOT
BRANCH   1   2
ATOM      2  C   UNL A   1      34.739  24.949  25.457  1.00  0.00     0.021 C 
BRANCH   2   3
ATOM      3  C   UNL A   1      33.812  26.142  25.254  1.00  0.00     0.116 C 
BRANCH   3   4
ATOM      4  N   UNL A   1      32.430  25.798  25.508  1.00  0.00    -0.354 N 
ATOM      5  C   UNL A   1      31.411  26.551  26.015  1.00  0.00     0.242 C 
ATOM      6  O   UNL A   1      30.382  25.946  26.339  1.00  0.00    -0.273 OA
ATOM      7  H   UNL A   1      32.185  24.873  25.278  1.00  0.00     0.163 HD
BRANCH   5   8
ATOM      8  C   UNL A   1      31.576  28.054  26.343  1.00  0.00     0.174 C 
ATOM      9  N   UNL A   1      32.240  28.836  25.299  1.00  0.00    -0.330 N 
ATOM     10  C   UNL A   1      33.270  29.691  25.857  1.00  0.00     0.120 C 
ATOM     11  C   UNL A   1      33.608  29.104  27.219  1.00  0.00     0.024 C 
ATOM     12  C   UNL A   1      32.391  28.272  27.620  1.00  0.00     0.037 C 
BRANCH   9  13
ATOM     13  C   UNL A   1      31.603  28.997  24.085  1.00  0.00     0.231 C 
ATOM     14  O   UNL A   1      30.385  29.209  24.046  1.00  0.00    -0.274 OA
BRANCH  13  15
ATOM     15  C   UNL A   1      32.333  28.711  22.770  1.00  0.00     0.130 C 
ATOM     16  C   UNL A   1      33.857  28.810  22.817  1.00  0.00     0.024 C 
BRANCH  15  17
ATOM     17  C   UNL A   1      31.867  27.367  22.174  1.00  0.00     0.273 C 
BRANCH  17  18
ATOM     18  N   UNL A   1      32.936  26.483  21.686  1.00  0.00    -0.348 N 
ATOM     19  C   UNL A   1      32.655  25.074  21.913  1.00  0.00     0.330 C 
ATOM     20  H   UNL A   1      33.053  26.634  20.684  1.00  0.00     0.346 HD
ATOM     21  H   UNL A   1      33.783  26.713  22.206  1.00  0.00     0.346 HD
ENDBRANCH  17  18
ENDBRANCH  15  17
ENDBRANCH  13  15
ENDBRANCH   9  13
ENDBRANCH   5   8
ENDBRANCH   3   4
ENDBRANCH   2   3
ENDBRANCH   1   2
BRANCH   1  22
ATOM     22  C   UNL A   1      34.932  22.566  26.447  1.00  0.00     0.002 C 
BRANCH  22  23
ATOM     23  C   UNL A   1      35.436  21.643  25.333  1.00  0.00     0.021 C 
BRANCH  23  24
ATOM     24  C   UNL A   1      36.883  21.889  24.917  1.00  0.00     0.116 C 
BRANCH  24  25
ATOM     25  N   UNL A   1      37.771  20.837  25.392  1.00  0.00    -0.352 N 
ATOM     26  C   UNL A   1      39.006  20.935  25.976  1.00  0.00     0.251 C 
ATOM     27  H   UNL A   1      37.433  19.919  25.275  1.00  0.00     0.163 HD
ATOM     28  O   UNL A   1      39.704  19.929  26.109  1.00  0.00    -0.269 OA
BRANCH  26  29
ATOM     29  C   UNL A   1      39.502  22.247  26.437  1.00  0.00     0.039 A 
ATOM     30  C   UNL A   1      40.555  22.287  27.353  1.00  0.00     0.014 A 
ATOM     31  C   UNL A   1      38.929  23.433  25.970  1.00  0.00     0.014 A 
ATOM     32  C   UNL A   1      41.076  23.519  27.752  1.00  0.00     0.010 A 
ATOM     33  C   UNL A   1      39.495  24.657  26.313  1.00  0.00     0.010 A 
ATOM     34  C   UNL A   1      40.576  24.713  27.205  1.00  0.00    -0.014 A 
BRANCH  34  35
ATOM     35  C   UNL A   1      41.203  26.022  27.521  1.00  0.00     0.031 A 
ATOM     36  C   UNL A   1      42.623  26.310  27.121  1.00  0.00     0.074 A 
ATOM     37  C   UNL A   1      40.510  26.922  28.247  1.00  0.00     0.049 A 
ATOM     38  N   UNL A   1      43.341  27.378  27.350  1.00  0.00    -0.248 NA
ATOM     39  C   UNL A   1      43.339  25.252  26.389  1.00  0.00     0.031 C 
ATOM     40  C   UNL A   1      39.154  26.726  28.763  1.00  0.00     0.029 A 
ATOM     41  N   UNL A   1      40.860  28.169  28.702  1.00  0.00    -0.354 N 
ATOM     42  C   UNL A   1      44.599  27.114  26.821  1.00  0.00     0.074 A 
ATOM     43  C   UNL A   1      44.555  25.770  26.285  1.00  0.00     0.031 C 
ATOM     44  C   UNL A   1      38.784  27.814  29.456  1.00  0.00     0.029 A 
ATOM     45  C   UNL A   1      39.888  28.768  29.468  1.00  0.00     0.049 A 
ATOM     46  H   UNL A   1      41.725  28.594  28.499  1.00  0.00     0.167 HD
ATOM     47  C   UNL A   1      45.681  27.925  26.763  1.00  0.00     0.034 A 
ATOM     48  C   UNL A   1      39.887  29.947  30.120  1.00  0.00     0.034 A 
ATOM     49  C   UNL A   1      45.710  29.271  27.272  1.00  0.00     0.049 A 
ATOM     50  C   UNL A   1      41.097  30.836  30.021  1.00  0.00     0.074 A 
ATOM     51  C   UNL A   1      46.730  30.202  27.183  1.00  0.00     0.029 A 
ATOM     52  N   UNL A   1      44.682  29.872  27.983  1.00  0.00    -0.354 N 
ATOM     53  N   UNL A   1      42.218  30.634  29.373  1.00  0.00    -0.248 NA
ATOM     54  C   UNL A   1      41.027  32.130  30.714  1.00  0.00     0.031 C 
ATOM     55  C   UNL A   1      46.332  31.354  27.870  1.00  0.00     0.029 A 
ATOM     56  C   UNL A   1      45.050  31.154  28.356  1.00  0.00     0.049 A 
ATOM     57  H   UNL A   1      43.818  29.449  28.190  1.00  0.00     0.167 HD
ATOM     58  C   UNL A   1      42.976  31.785  29.555  1.00  0.00     0.074 A 
ATOM     59  C   UNL A   1      42.173  32.691  30.350  1.00  0.00     0.031 C 
ATOM     60  C   UNL A   1      44.228  32.062  29.114  1.00  0.00     0.034 A 
BRANCH  47  61
ATOM     61  C   UNL A   1      46.921  27.395  26.087  1.00  0.00     0.023 A 
ATOM     62  C   UNL A   1      47.122  27.630  24.712  1.00  0.00     0.012 A 
ATOM     63  C   UNL A   1      47.915  26.722  26.824  1.00  0.00     0.148 A 
ATOM     64  C   UNL A   1      48.275  27.175  24.073  1.00  0.00     0.002 A 
ATOM     65  C   UNL A   1      49.083  26.313  26.191  1.00  0.00     0.091 A 
ATOM     66  F   UNL A   1      47.699  26.490  28.126  1.00  0.00    -0.205 F 
ATOM     67  C   UNL A   1      49.259  26.527  24.814  1.00  0.00     0.022 A 
BRANCH  65  68
ATOM     68  S   UNL A   1      50.445  25.541  27.071  1.00  0.00     0.127 S 
ATOM     69  O   UNL A   1      49.803  24.347  27.620  1.00  0.00    -0.237 OA
ATOM     70  O   UNL A   1      51.398  25.279  25.992  1.00  0.00    -0.237 OA
ATOM     71  O   UNL A   1      50.893  26.517  28.055  1.00  0.00    -0.744 OA
ENDBRANCH  65  68
ENDBRANCH  47  61
BRANCH  48  72
ATOM     72  C   UNL A   1      38.683  30.374  30.885  1.00  0.00     0.023 A 
ATOM     73  C   UNL A   1      38.595  30.085  32.261  1.00  0.00     0.012 A 
ATOM     74  C   UNL A   1      37.638  31.088  30.266  1.00  0.00     0.148 A 
ATOM     75  C   UNL A   1      37.474  30.468  32.998  1.00  0.00     0.002 A 
ATOM     76  C   UNL A   1      36.552  31.518  31.017  1.00  0.00     0.091 A 
ATOM     77  F   UNL A   1      37.737  31.345  28.953  1.00  0.00    -0.205 F 
ATOM     78  C   UNL A   1      36.457  31.192  32.379  1.00  0.00     0.022 A 
BRANCH  76  79
ATOM     79  S   UNL A   1      35.266  32.569  30.335  1.00  0.00     0.127 S 
ATOM     80  O   UNL A   1      36.003  33.795  30.044  1.00  0.00    -0.237 OA
ATOM     81  O   UNL A   1      34.845  31.807  29.159  1.00  0.00    -0.237 OA
ATOM     82  O   UNL A   1      34.249  32.676  31.374  1.00  0.00    -0.744 OA
ENDBRANCH  76  79
ENDBRANCH  48  72
BRANCH  60  83
ATOM     83  C   UNL A   1      44.805  33.411  29.458  1.00  0.00     0.023 A 
ATOM     84  C   UNL A   1      45.569  33.570  30.632  1.00  0.00     0.012 A 
ATOM     85  C   UNL A   1      44.647  34.504  28.584  1.00  0.00     0.148 A 
ATOM     86  C   UNL A   1      46.133  34.805  30.949  1.00  0.00     0.002 A 
ATOM     87  C   UNL A   1      45.256  35.717  28.879  1.00  0.00     0.091 A 
ATOM     88  F   UNL A   1      43.904  34.337  27.480  1.00  0.00    -0.205 F 
ATOM     89  C   UNL A   1      45.987  35.874  30.068  1.00  0.00     0.022 A 
BRANCH  87  90
ATOM     90  S   UNL A   1      45.206  37.121  27.760  1.00  0.00     0.127 S 
ATOM     91  O   UNL A   1      46.062  38.084  28.451  1.00  0.00    -0.237 OA
ATOM     92  O   UNL A   1      45.779  36.562  26.536  1.00  0.00    -0.237 OA
ATOM     93  O   UNL A   1      43.803  37.501  27.653  1.00  0.00    -0.744 OA
ENDBRANCH  87  90
ENDBRANCH  60  83
ENDBRANCH  34  35
ENDBRANCH  26  29
ENDBRANCH  24  25
ENDBRANCH  23  24
ENDBRANCH  22  23
ENDBRANCH   1  22
TORSDOF 20
ENDMDL
MODEL 3
REMARK VINA RESULT:     -10.1      4.686      7.607
REMARK SMILES C[NH2+]C[C@H](C)C(=O)N1CCC[C@@H]1C(=O)NCCCCCCNC(=O)c1ccc(-c2c3nc(c(-c4cccc(S(=O)(=O)[O-])c4F)c4ccc([nH]4)c(-c4cccc(S(=O)(=O)[O-])c4F)c4nc(c(-c5cccc(S(=O)(=O)[O-])c5F)c5ccc2[nH]5)C=C4)C=C3)cc1
REMARK SMILES IDX 18 1 17 2 16 3 15 4 13 5 14 6 12 8 8 9 9 10 10 11 11 12 6 13
REMARK SMILES IDX 7 14 4 15 5 16 3 17 2 18 1 19 19 22 20 23 21 24 22 25 23 26
REMARK SMILES IDX 24 28 25 29 26 30 87 31 27 32 86 33 28 34 29 35 30 36 80 37
REMARK SMILES IDX 31 38 85 39 79 40 81 41 32 42 84 43 78 44 77 45 33 47 65 48
REMARK SMILES IDX 45 49 64 50 46 51 49 52 63 53 82 54 47 55 48 56 62 58 83 59
REMARK SMILES IDX 50 60 34 61 35 62 43 63 36 64 38 65 44 66 37 67 39 68 40 69
REMARK SMILES IDX 41 70 42 71 66 72 67 73 75 74 68 75 70 76 76 77 69 78 71 79
REMARK SMILES IDX 72 80 73 81 74 82 51 83 52 84 60 85 53 86 55 87 61 88 54 89
REMARK SMILES IDX 56 90 57 91 58 92 59 93
REMARK H PARENT 15 7 2 20 2 21 22 27 81 46 49 57
REMARK Flexibility Score: inf
ROOT
ATOM      1  C   UNL A   1      31.596  27.302  23.671  1.00  0.00     0.002 C 
ENDROOT
BRANCH   1   2
ATOM      2  C   UNL A   1      32.217  26.744  22.386  1.00  0.00     0.021 C 
BRANCH   2   3
ATOM      3  C   UNL A   1      33.082  25.513  22.625  1.00  0.00     0.116 C 
BRANCH   3   4
ATOM      4  N   UNL A   1      33.785  25.586  23.887  1.00  0.00    -0.354 N 
ATOM      5  C   UNL A   1      34.574  24.666  24.515  1.00  0.00     0.242 C 
ATOM      6  O   UNL A   1      34.871  24.900  25.692  1.00  0.00    -0.273 OA
ATOM      7  H   UNL A   1      33.678  26.436  24.371  1.00  0.00     0.163 HD
BRANCH   5   8
ATOM      8  C   UNL A   1      34.941  23.310  23.865  1.00  0.00     0.174 C 
ATOM      9  N   UNL A   1      34.445  22.136  24.584  1.00  0.00    -0.330 N 
ATOM     10  C   UNL A   1      35.485  21.135  24.737  1.00  0.00     0.120 C 
ATOM     11  C   UNL A   1      36.803  21.869  24.539  1.00  0.00     0.024 C 
ATOM     12  C   UNL A   1      36.457  23.128  23.747  1.00  0.00     0.037 C 
BRANCH   9  13
ATOM     13  C   UNL A   1      33.083  21.926  24.651  1.00  0.00     0.231 C 
ATOM     14  O   UNL A   1      32.395  21.978  23.625  1.00  0.00    -0.274 OA
BRANCH  13  15
ATOM     15  C   UNL A   1      32.367  21.838  26.002  1.00  0.00     0.130 C 
ATOM     16  C   UNL A   1      33.136  22.387  27.202  1.00  0.00     0.024 C 
BRANCH  15  17
ATOM     17  C   UNL A   1      30.952  22.444  25.905  1.00  0.00     0.273 C 
BRANCH  17  18
ATOM     18  N   UNL A   1      30.868  23.758  25.249  1.00  0.00    -0.348 N 
ATOM     19  C   UNL A   1      30.890  24.865  26.193  1.00  0.00     0.330 C 
ATOM     20  H   UNL A   1      31.660  23.857  24.614  1.00  0.00     0.346 HD
ATOM     21  H   UNL A   1      29.977  23.797  24.755  1.00  0.00     0.346 HD
ENDBRANCH  17  18
ENDBRANCH  15  17
ENDBRANCH  13  15
ENDBRANCH   9  13
ENDBRANCH   5   8
ENDBRANCH   3   4
ENDBRANCH   2   3
ENDBRANCH   1   2
BRANCH   1  22
ATOM     22  C   UNL A   1      32.261  28.573  24.217  1.00  0.00     0.002 C 
BRANCH  22  23
ATOM     23  C   UNL A   1      32.443  28.614  25.738  1.00  0.00     0.021 C 
BRANCH  23  24
ATOM     24  C   UNL A   1      33.823  29.074  26.196  1.00  0.00     0.116 C 
BRANCH  24  25
ATOM     25  N   UNL A   1      33.795  30.429  26.729  1.00  0.00    -0.352 N 
ATOM     26  C   UNL A   1      34.595  31.010  27.676  1.00  0.00     0.251 C 
ATOM     27  H   UNL A   1      33.096  31.013  26.353  1.00  0.00     0.163 HD
ATOM     28  O   UNL A   1      34.281  32.098  28.161  1.00  0.00    -0.269 OA
BRANCH  26  29
ATOM     29  C   UNL A   1      35.827  30.328  28.121  1.00  0.00     0.039 A 
ATOM     30  C   UNL A   1      36.964  30.393  27.314  1.00  0.00     0.014 A 
ATOM     31  C   UNL A   1      35.858  29.626  29.329  1.00  0.00     0.014 A 
ATOM     32  C   UNL A   1      38.153  29.806  27.750  1.00  0.00     0.010 A 
ATOM     33  C   UNL A   1      37.061  29.103  29.794  1.00  0.00     0.010 A 
ATOM     34  C   UNL A   1      38.222  29.190  29.010  1.00  0.00    -0.014 A 
BRANCH  34  35
ATOM     35  C   UNL A   1      39.509  28.675  29.542  1.00  0.00     0.031 A 
ATOM     36  C   UNL A   1      40.217  29.384  30.662  1.00  0.00     0.074 A 
ATOM     37  C   UNL A   1      40.081  27.606  28.951  1.00  0.00     0.049 A 
ATOM     38  N   UNL A   1      41.365  29.100  31.220  1.00  0.00    -0.248 NA
ATOM     39  C   UNL A   1      39.564  30.583  31.213  1.00  0.00     0.031 C 
ATOM     40  C   UNL A   1      39.532  26.881  27.803  1.00  0.00     0.029 A 
ATOM     41  N   UNL A   1      41.264  26.962  29.213  1.00  0.00    -0.354 N 
ATOM     42  C   UNL A   1      41.588  30.096  32.164  1.00  0.00     0.074 A 
ATOM     43  C   UNL A   1      40.470  31.011  32.081  1.00  0.00     0.031 C 
ATOM     44  C   UNL A   1      40.370  25.890  27.465  1.00  0.00     0.029 A 
ATOM     45  C   UNL A   1      41.534  25.931  28.344  1.00  0.00     0.049 A 
ATOM     46  H   UNL A   1      41.864  27.214  29.953  1.00  0.00     0.167 HD
ATOM     47  C   UNL A   1      42.616  30.222  33.036  1.00  0.00     0.034 A 
ATOM     48  C   UNL A   1      42.604  25.117  28.253  1.00  0.00     0.034 A 
ATOM     49  C   UNL A   1      43.711  29.293  33.132  1.00  0.00     0.049 A 
ATOM     50  C   UNL A   1      43.722  25.268  29.249  1.00  0.00     0.074 A 
ATOM     51  C   UNL A   1      44.754  29.286  34.042  1.00  0.00     0.029 A 
ATOM     52  N   UNL A   1      43.918  28.218  32.280  1.00  0.00    -0.354 N 
ATOM     53  N   UNL A   1      43.835  26.117  30.241  1.00  0.00    -0.248 NA
ATOM     54  C   UNL A   1      44.845  24.327  29.133  1.00  0.00     0.031 C 
ATOM     55  C   UNL A   1      45.610  28.229  33.717  1.00  0.00     0.029 A 
ATOM     56  C   UNL A   1      45.082  27.554  32.629  1.00  0.00     0.049 A 
ATOM     57  H   UNL A   1      43.323  27.966  31.538  1.00  0.00     0.167 HD
ATOM     58  C   UNL A   1      45.023  25.794  30.886  1.00  0.00     0.074 A 
ATOM     59  C   UNL A   1      45.579  24.654  30.187  1.00  0.00     0.031 C 
ATOM     60  C   UNL A   1      45.607  26.396  31.951  1.00  0.00     0.034 A 
BRANCH  47  61
ATOM     61  C   UNL A   1      42.588  31.389  33.989  1.00  0.00     0.023 A 
ATOM     62  C   UNL A   1      43.231  32.593  33.638  1.00  0.00     0.012 A 
ATOM     63  C   UNL A   1      41.874  31.317  35.202  1.00  0.00     0.148 A 
ATOM     64  C   UNL A   1      43.194  33.696  34.492  1.00  0.00     0.002 A 
ATOM     65  C   UNL A   1      41.801  32.435  36.025  1.00  0.00     0.091 A 
ATOM     66  F   UNL A   1      41.286  30.159  35.529  1.00  0.00    -0.205 F 
ATOM     67  C   UNL A   1      42.470  33.620  35.678  1.00  0.00     0.022 A 
BRANCH  65  68
ATOM     68  S   UNL A   1      40.830  32.465  37.536  1.00  0.00     0.127 S 
ATOM     69  O   UNL A   1      39.644  31.708  37.139  1.00  0.00    -0.237 OA
ATOM     70  O   UNL A   1      41.709  31.771  38.479  1.00  0.00    -0.237 OA
ATOM     71  O   UNL A   1      40.601  33.871  37.839  1.00  0.00    -0.744 OA
ENDBRANCH  65  68
ENDBRANCH  47  61
BRANCH  48  72
ATOM     72  C   UNL A   1      42.646  24.057  27.208  1.00  0.00     0.023 A 
ATOM     73  C   UNL A   1      43.336  24.295  26.004  1.00  0.00     0.012 A 
ATOM     74  C   UNL A   1      42.031  22.806  27.411  1.00  0.00     0.148 A 
ATOM     75  C   UNL A   1      43.385  23.320  25.007  1.00  0.00     0.002 A 
ATOM     76  C   UNL A   1      42.132  21.818  26.439  1.00  0.00     0.091 A 
ATOM     77  F   UNL A   1      41.371  22.602  28.560  1.00  0.00    -0.205 F 
ATOM     78  C   UNL A   1      42.791  22.079  25.227  1.00  0.00     0.022 A 
BRANCH  76  79
ATOM     79  S   UNL A   1      41.516  20.151  26.694  1.00  0.00     0.127 S 
ATOM     80  O   UNL A   1      40.079  20.378  26.822  1.00  0.00    -0.237 OA
ATOM     81  O   UNL A   1      41.928  19.485  25.458  1.00  0.00    -0.237 OA
ATOM     82  O   UNL A   1      42.186  19.659  27.891  1.00  0.00    -0.744 OA
ENDBRANCH  76  79
ENDBRANCH  48  72
BRANCH  60  83
ATOM     83  C   UNL A   1      46.906  25.820  32.451  1.00  0.00     0.023 A 
ATOM     84  C   UNL A   1      46.911  24.961  33.569  1.00  0.00     0.012 A 
ATOM     85  C   UNL A   1      48.115  26.078  31.774  1.00  0.00     0.148 A 
ATOM     86  C   UNL A   1      48.102  24.398  34.025  1.00  0.00     0.002 A 
ATOM     87  C   UNL A   1      49.288  25.472  32.203  1.00  0.00     0.091 A 
ATOM     88  F   UNL A   1      48.092  26.911  30.723  1.00  0.00    -0.205 F 
ATOM     89  C   UNL A   1      49.287  24.644  33.337  1.00  0.00     0.022 A 
BRANCH  87  90
ATOM     90  S   UNL A   1      50.845  25.651  31.324  1.00  0.00     0.127 S 
ATOM     91  O   UNL A   1      50.513  25.095  30.013  1.00  0.00    -0.237 OA
ATOM     92  O   UNL A   1      51.044  27.100  31.340  1.00  0.00    -0.237 OA
ATOM     93  O   UNL A   1      51.828  24.897  32.089  1.00  0.00    -0.744 OA
ENDBRANCH  87  90
ENDBRANCH  60  83
ENDBRANCH  34  35
ENDBRANCH  26  29
ENDBRANCH  24  25
ENDBRANCH  23  24
ENDBRANCH  22  23
ENDBRANCH   1  22
TORSDOF 20
ENDMDL
