MODEL 1
REMARK VINA RESULT:     -11.7      0.000      0.000
REMARK SMILES O=C(NCCCCCCNC(=O)c1nnn(-c2cccc(OC(F)(F)F)c2)c1-c1ccncc1)c1ccc(-c2c3nc(c(-c4cccc(S(=O)(=O)[O-])c4F)c4ccc([nH]4)c(-c4cccc(S(=O)(=O)[O-])c4F)c4nc(c(-c5cccc(S(=O)(=O)[O-])c5F)c5ccc2[nH]5)C=C4)C=C3)cc1
REMARK SMILES IDX 6 1 5 2 4 3 3 4 1 5 2 6 35 8 36 9 97 10 37 11 96 12 38 13
REMARK SMILES IDX 39 14 40 15 90 16 41 17 95 18 89 19 91 20 42 21 94 22 88 23
REMARK SMILES IDX 87 24 43 26 75 27 55 28 74 29 56 30 59 31 73 32 92 33 57 34
REMARK SMILES IDX 58 35 72 37 93 38 60 39 44 40 45 41 53 42 46 43 48 44 54 45
REMARK SMILES IDX 47 46 49 47 50 48 51 49 52 50 76 51 77 52 85 53 78 54 80 55
REMARK SMILES IDX 86 56 79 57 81 58 82 59 83 60 84 61 61 62 62 63 70 64 63 65
REMARK SMILES IDX 65 66 71 67 64 68 66 69 67 70 68 71 69 72 7 73 8 74 9 75
REMARK SMILES IDX 10 76 11 77 12 79 13 80 14 81 28 82 15 83 16 84 29 85 30 86
REMARK SMILES IDX 34 87 31 88 33 89 32 90 17 91 18 92 27 93 19 94 21 95 20 96
REMARK SMILES IDX 22 97 23 98 24 99 25 100 26 101
REMARK H PARENT 3 7 91 25 59 36 10 78
REMARK Flexibility Score: inf
ROOT
ATOM      1  C   UNL A   1      38.119  24.009  25.855  1.00  0.00     0.002 C 
ENDROOT
BRANCH   1   2
ATOM      2  C   UNL A   1      39.018  23.995  27.097  1.00  0.00     0.021 C 
BRANCH   2   3
ATOM      3  C   UNL A   1      40.119  22.932  27.095  1.00  0.00     0.116 C 
BRANCH   3   4
ATOM      4  N   UNL A   1      41.163  23.161  26.123  1.00  0.00    -0.352 N 
ATOM      5  O   UNL A   1      42.896  23.945  25.012  1.00  0.00    -0.269 OA
ATOM      6  C   UNL A   1      42.072  24.159  25.905  1.00  0.00     0.251 C 
ATOM      7  H   UNL A   1      41.238  22.432  25.466  1.00  0.00     0.163 HD
BRANCH   6   8
ATOM      8  C   UNL A   1      42.101  25.464  26.624  1.00  0.00     0.039 A 
ATOM      9  C   UNL A   1      42.715  25.700  27.855  1.00  0.00     0.014 A 
ATOM     10  C   UNL A   1      41.429  26.531  25.997  1.00  0.00     0.014 A 
ATOM     11  C   UNL A   1      42.607  26.938  28.478  1.00  0.00     0.010 A 
ATOM     12  C   UNL A   1      41.336  27.778  26.605  1.00  0.00     0.010 A 
ATOM     13  C   UNL A   1      41.903  27.971  27.862  1.00  0.00    -0.014 A 
BRANCH  13  14
ATOM     14  C   UNL A   1      41.879  29.266  28.536  1.00  0.00     0.031 A 
ATOM     15  C   UNL A   1      43.038  30.166  28.264  1.00  0.00     0.074 A 
ATOM     16  C   UNL A   1      40.822  29.703  29.244  1.00  0.00     0.049 A 
ATOM     17  N   UNL A   1      43.855  30.711  29.109  1.00  0.00    -0.248 NA
ATOM     18  C   UNL A   1      43.364  30.437  26.857  1.00  0.00     0.031 C 
ATOM     19  C   UNL A   1      39.493  29.090  29.325  1.00  0.00     0.029 A 
ATOM     20  N   UNL A   1      40.669  30.882  29.915  1.00  0.00    -0.354 N 
ATOM     21  C   UNL A   1      44.671  31.559  28.356  1.00  0.00     0.074 A 
ATOM     22  C   UNL A   1      44.417  31.245  26.974  1.00  0.00     0.031 C 
ATOM     23  C   UNL A   1      38.614  30.011  29.774  1.00  0.00     0.029 A 
ATOM     24  C   UNL A   1      39.338  31.220  30.130  1.00  0.00     0.049 A 
ATOM     25  H   UNL A   1      41.424  31.437  30.218  1.00  0.00     0.167 HD
ATOM     26  C   UNL A   1      45.351  32.600  28.910  1.00  0.00     0.034 A 
ATOM     27  C   UNL A   1      38.857  32.435  30.479  1.00  0.00     0.034 A 
ATOM     28  C   UNL A   1      45.479  32.467  30.336  1.00  0.00     0.049 A 
ATOM     29  C   UNL A   1      39.968  33.224  31.051  1.00  0.00     0.074 A 
ATOM     30  C   UNL A   1      46.034  31.545  31.199  1.00  0.00     0.029 A 
ATOM     31  N   UNL A   1      44.713  33.296  31.116  1.00  0.00    -0.354 N 
ATOM     32  N   UNL A   1      40.541  32.964  32.193  1.00  0.00    -0.248 NA
ATOM     33  C   UNL A   1      40.690  34.139  30.181  1.00  0.00     0.031 C 
ATOM     34  C   UNL A   1      45.211  31.586  32.363  1.00  0.00     0.029 A 
ATOM     35  C   UNL A   1      44.216  32.538  32.139  1.00  0.00     0.049 A 
ATOM     36  H   UNL A   1      44.553  34.256  30.968  1.00  0.00     0.167 HD
ATOM     37  C   UNL A   1      41.868  33.329  32.009  1.00  0.00     0.074 A 
ATOM     38  C   UNL A   1      41.864  34.170  30.815  1.00  0.00     0.031 C 
ATOM     39  C   UNL A   1      42.876  32.682  32.665  1.00  0.00     0.034 A 
BRANCH  26  40
ATOM     40  C   UNL A   1      45.626  33.926  28.226  1.00  0.00     0.023 A 
ATOM     41  C   UNL A   1      46.980  34.315  28.082  1.00  0.00     0.012 A 
ATOM     42  C   UNL A   1      44.651  34.920  27.987  1.00  0.00     0.148 A 
ATOM     43  C   UNL A   1      47.343  35.636  27.797  1.00  0.00     0.002 A 
ATOM     44  C   UNL A   1      45.017  36.213  27.623  1.00  0.00     0.091 A 
ATOM     45  F   UNL A   1      43.362  34.674  28.240  1.00  0.00    -0.205 F 
ATOM     46  C   UNL A   1      46.361  36.586  27.561  1.00  0.00     0.022 A 
BRANCH  44  47
ATOM     47  S   UNL A   1      43.774  37.453  27.243  1.00  0.00     0.127 S 
ATOM     48  O   UNL A   1      44.585  38.508  26.645  1.00  0.00    -0.237 OA
ATOM     49  O   UNL A   1      42.902  36.737  26.309  1.00  0.00    -0.237 OA
ATOM     50  O   UNL A   1      43.146  37.759  28.522  1.00  0.00    -0.744 OA
ENDBRANCH  44  47
ENDBRANCH  26  40
BRANCH  27  51
ATOM     51  C   UNL A   1      37.553  33.044  30.140  1.00  0.00     0.023 A 
ATOM     52  C   UNL A   1      37.082  32.996  28.814  1.00  0.00     0.012 A 
ATOM     53  C   UNL A   1      36.659  33.459  31.153  1.00  0.00     0.148 A 
ATOM     54  C   UNL A   1      35.758  33.334  28.509  1.00  0.00     0.002 A 
ATOM     55  C   UNL A   1      35.351  33.812  30.843  1.00  0.00     0.091 A 
ATOM     56  F   UNL A   1      37.065  33.420  32.429  1.00  0.00    -0.205 F 
ATOM     57  C   UNL A   1      34.892  33.739  29.522  1.00  0.00     0.022 A 
BRANCH  55  58
ATOM     58  S   UNL A   1      34.181  34.344  32.102  1.00  0.00     0.127 S 
ATOM     59  O   UNL A   1      33.874  33.086  32.783  1.00  0.00    -0.237 OA
ATOM     60  O   UNL A   1      34.982  35.283  32.881  1.00  0.00    -0.237 OA
ATOM     61  O   UNL A   1      33.055  34.918  31.375  1.00  0.00    -0.744 OA
ENDBRANCH  55  58
ENDBRANCH  27  51
BRANCH  39  62
ATOM     62  C   UNL A   1      42.521  31.777  33.816  1.00  0.00     0.023 A 
ATOM     63  C   UNL A   1      42.234  32.291  35.098  1.00  0.00     0.012 A 
ATOM     64  C   UNL A   1      42.274  30.416  33.559  1.00  0.00     0.148 A 
ATOM     65  C   UNL A   1      41.739  31.463  36.108  1.00  0.00     0.002 A 
ATOM     66  C   UNL A   1      41.733  29.606  34.552  1.00  0.00     0.091 A 
ATOM     67  F   UNL A   1      42.539  29.943  32.332  1.00  0.00    -0.205 F 
ATOM     68  C   UNL A   1      41.474  30.124  35.831  1.00  0.00     0.022 A 
BRANCH  66  69
ATOM     69  S   UNL A   1      41.233  27.915  34.219  1.00  0.00     0.127 S 
ATOM     70  O   UNL A   1      42.397  27.385  33.512  1.00  0.00    -0.237 OA
ATOM     71  O   UNL A   1      41.036  27.371  35.565  1.00  0.00    -0.237 OA
ATOM     72  O   UNL A   1      40.008  28.008  33.434  1.00  0.00    -0.744 OA
ENDBRANCH  66  69
ENDBRANCH  39  62
ENDBRANCH  13  14
ENDBRANCH   6   8
ENDBRANCH   3   4
ENDBRANCH   2   3
ENDBRANCH   1   2
BRANCH   1  73
ATOM     73  C   UNL A   1      36.653  23.626  26.078  1.00  0.00     0.002 C 
BRANCH  73  74
ATOM     74  C   UNL A   1      36.027  22.728  25.010  1.00  0.00     0.021 C 
BRANCH  74  75
ATOM     75  C   UNL A   1      35.772  23.409  23.675  1.00  0.00     0.116 C 
BRANCH  75  76
ATOM     76  N   UNL A   1      34.736  22.752  22.897  1.00  0.00    -0.351 N 
ATOM     77  C   UNL A   1      33.602  23.307  22.355  1.00  0.00     0.274 C 
ATOM     78  H   UNL A   1      34.862  21.788  22.740  1.00  0.00     0.163 HD
ATOM     79  O   UNL A   1      32.790  22.577  21.785  1.00  0.00    -0.267 OA
BRANCH  77  80
ATOM     80  C   UNL A   1      33.400  24.744  22.467  1.00  0.00     0.178 A 
ATOM     81  N   UNL A   1      33.634  25.599  21.419  1.00  0.00    -0.124 NA
ATOM     82  C   UNL A   1      32.886  25.461  23.542  1.00  0.00     0.108 A 
ATOM     83  N   UNL A   1      33.223  26.810  21.771  1.00  0.00    -0.061 NA
ATOM     84  N   UNL A   1      32.894  26.771  23.080  1.00  0.00    -0.212 N 
BRANCH  82  85
ATOM     85  C   UNL A   1      32.269  25.013  24.792  1.00  0.00     0.006 A 
ATOM     86  C   UNL A   1      33.042  24.644  25.890  1.00  0.00     0.030 A 
ATOM     87  C   UNL A   1      30.873  24.905  24.879  1.00  0.00     0.030 A 
ATOM     88  C   UNL A   1      32.388  24.188  27.023  1.00  0.00     0.111 A 
ATOM     89  C   UNL A   1      30.314  24.436  26.052  1.00  0.00     0.111 A 
ATOM     90  N   UNL A   1      31.046  24.070  27.121  1.00  0.00    -0.265 NA
ENDBRANCH  82  85
BRANCH  84  91
ATOM     91  C   UNL A   1      32.543  27.936  23.799  1.00  0.00     0.071 A 
ATOM     92  C   UNL A   1      31.248  28.447  23.702  1.00  0.00     0.029 A 
ATOM     93  C   UNL A   1      33.479  28.504  24.679  1.00  0.00     0.075 A 
ATOM     94  C   UNL A   1      30.865  29.469  24.568  1.00  0.00     0.006 A 
ATOM     95  C   UNL A   1      33.104  29.548  25.520  1.00  0.00     0.131 A 
ATOM     96  C   UNL A   1      31.785  30.007  25.476  1.00  0.00     0.047 A 
BRANCH  95  97
ATOM     97  O   UNL A   1      33.911  30.176  26.425  1.00  0.00    -0.406 OA
BRANCH  97  98
ATOM     98  C   UNL A   1      34.499  29.383  27.446  1.00  0.00     0.573 C 
ATOM     99  F   UNL A   1      35.544  28.671  26.977  1.00  0.00    -0.132 F 
ATOM    100  F   UNL A   1      34.917  30.159  28.474  1.00  0.00    -0.132 F 
ATOM    101  F   UNL A   1      33.575  28.524  27.925  1.00  0.00    -0.132 F 
ENDBRANCH  97  98
ENDBRANCH  95  97
ENDBRANCH  84  91
ENDBRANCH  77  80
ENDBRANCH  75  76
ENDBRANCH  74  75
ENDBRANCH  73  74
ENDBRANCH   1  73
TORSDOF 20
ENDMDL
MODEL 2
REMARK VINA RESULT:     -11.6      3.927      9.394
REMARK SMILES O=C(NCCCCCCNC(=O)c1nnn(-c2cccc(OC(F)(F)F)c2)c1-c1ccncc1)c1ccc(-c2c3nc(c(-c4cccc(S(=O)(=O)[O-])c4F)c4ccc([nH]4)c(-c4cccc(S(=O)(=O)[O-])c4F)c4nc(c(-c5cccc(S(=O)(=O)[O-])c5F)c5ccc2[nH]5)C=C4)C=C3)cc1
REMARK SMILES IDX 6 1 5 2 4 3 3 4 1 5 2 6 35 8 36 9 97 10 37 11 96 12 38 13
REMARK SMILES IDX 39 14 40 15 90 16 41 17 95 18 89 19 91 20 42 21 94 22 88 23
REMARK SMILES IDX 87 24 43 26 75 27 55 28 74 29 56 30 59 31 73 32 92 33 57 34
REMARK SMILES IDX 58 35 72 37 93 38 60 39 44 40 45 41 53 42 46 43 48 44 54 45
REMARK SMILES IDX 47 46 49 47 50 48 51 49 52 50 76 51 77 52 85 53 78 54 80 55
REMARK SMILES IDX 86 56 79 57 81 58 82 59 83 60 84 61 61 62 62 63 70 64 63 65
REMARK SMILES IDX 65 66 71 67 64 68 66 69 67 70 68 71 69 72 7 73 8 74 9 75
REMARK SMILES IDX 10 76 11 77 12 79 13 80 14 81 28 82 15 83 16 84 29 85 30 86
REMARK SMILES IDX 34 87 31 88 33 89 32 90 17 91 18 92 27 93 19 94 21 95 20 96
REMARK SMILES IDX 22 97 23 98 24 99 25 100 26 101
REMARK H PARENT 3 7 91 25 59 36 10 78
REMARK Flexibility Score: inf
ROOT
ATOM      1  C   UNL A   1      33.224  29.696  26.049  1.00  0.00     0.002 C 
ENDROOT
BRANCH   1   2
ATOM      2  C   UNL A   1      33.916  29.728  27.417  1.00  0.00     0.021 C 
BRANCH   2   3
ATOM      3  C   UNL A   1      34.929  30.858  27.610  1.00  0.00     0.116 C 
BRANCH   3   4
ATOM      4  N   UNL A   1      34.837  31.525  28.888  1.00  0.00    -0.352 N 
ATOM      5  O   UNL A   1      35.276  32.437  30.844  1.00  0.00    -0.269 OA
ATOM      6  C   UNL A   1      35.685  31.695  29.948  1.00  0.00     0.251 C 
ATOM      7  H   UNL A   1      33.964  31.958  29.030  1.00  0.00     0.163 HD
BRANCH   6   8
ATOM      8  C   UNL A   1      37.008  31.027  30.103  1.00  0.00     0.039 A 
ATOM      9  C   UNL A   1      38.209  31.666  30.414  1.00  0.00     0.014 A 
ATOM     10  C   UNL A   1      37.026  29.635  29.892  1.00  0.00     0.014 A 
ATOM     11  C   UNL A   1      39.404  30.956  30.449  1.00  0.00     0.010 A 
ATOM     12  C   UNL A   1      38.215  28.915  29.947  1.00  0.00     0.010 A 
ATOM     13  C   UNL A   1      39.410  29.585  30.198  1.00  0.00    -0.014 A 
BRANCH  13  14
ATOM     14  C   UNL A   1      40.685  28.885  30.313  1.00  0.00     0.031 A 
ATOM     15  C   UNL A   1      41.219  28.720  31.697  1.00  0.00     0.074 A 
ATOM     16  C   UNL A   1      41.288  28.286  29.269  1.00  0.00     0.049 A 
ATOM     17  N   UNL A   1      42.366  29.092  32.171  1.00  0.00    -0.248 NA
ATOM     18  C   UNL A   1      40.325  28.118  32.696  1.00  0.00     0.031 C 
ATOM     19  C   UNL A   1      40.734  28.070  27.929  1.00  0.00     0.029 A 
ATOM     20  N   UNL A   1      42.469  27.601  29.238  1.00  0.00    -0.354 N 
ATOM     21  C   UNL A   1      42.420  28.589  33.473  1.00  0.00     0.074 A 
ATOM     22  C   UNL A   1      41.093  28.125  33.785  1.00  0.00     0.031 C 
ATOM     23  C   UNL A   1      41.445  27.101  27.314  1.00  0.00     0.029 A 
ATOM     24  C   UNL A   1      42.568  26.732  28.160  1.00  0.00     0.049 A 
ATOM     25  H   UNL A   1      43.179  27.713  29.912  1.00  0.00     0.167 HD
ATOM     26  C   UNL A   1      43.594  28.401  34.136  1.00  0.00     0.034 A 
ATOM     27  C   UNL A   1      43.449  25.715  28.018  1.00  0.00     0.034 A 
ATOM     28  C   UNL A   1      44.673  29.148  33.549  1.00  0.00     0.049 A 
ATOM     29  C   UNL A   1      44.579  25.951  28.941  1.00  0.00     0.074 A 
ATOM     30  C   UNL A   1      44.937  30.479  33.300  1.00  0.00     0.029 A 
ATOM     31  N   UNL A   1      45.617  28.443  32.845  1.00  0.00    -0.354 N 
ATOM     32  N   UNL A   1      45.448  26.913  28.807  1.00  0.00    -0.248 NA
ATOM     33  C   UNL A   1      44.560  25.300  30.242  1.00  0.00     0.031 C 
ATOM     34  C   UNL A   1      45.719  30.486  32.108  1.00  0.00     0.029 A 
ATOM     35  C   UNL A   1      45.892  29.159  31.714  1.00  0.00     0.049 A 
ATOM     36  H   UNL A   1      46.021  27.584  33.106  1.00  0.00     0.167 HD
ATOM     37  C   UNL A   1      45.777  27.271  30.107  1.00  0.00     0.074 A 
ATOM     38  C   UNL A   1      45.314  26.159  30.932  1.00  0.00     0.031 C 
ATOM     39  C   UNL A   1      46.125  28.554  30.420  1.00  0.00     0.034 A 
BRANCH  26  40
ATOM     40  C   UNL A   1      43.870  27.283  35.123  1.00  0.00     0.023 A 
ATOM     41  C   UNL A   1      44.335  27.651  36.409  1.00  0.00     0.012 A 
ATOM     42  C   UNL A   1      43.981  25.918  34.775  1.00  0.00     0.148 A 
ATOM     43  C   UNL A   1      44.945  26.729  37.267  1.00  0.00     0.002 A 
ATOM     44  C   UNL A   1      44.514  24.990  35.666  1.00  0.00     0.091 A 
ATOM     45  F   UNL A   1      43.699  25.515  33.533  1.00  0.00    -0.205 F 
ATOM     46  C   UNL A   1      45.031  25.395  36.898  1.00  0.00     0.022 A 
BRANCH  44  47
ATOM     47  S   UNL A   1      44.578  23.243  35.251  1.00  0.00     0.127 S 
ATOM     48  O   UNL A   1      43.197  22.983  34.860  1.00  0.00    -0.237 OA
ATOM     49  O   UNL A   1      45.547  23.225  34.153  1.00  0.00    -0.237 OA
ATOM     50  O   UNL A   1      45.048  22.586  36.464  1.00  0.00    -0.744 OA
ENDBRANCH  44  47
ENDBRANCH  26  40
BRANCH  27  51
ATOM     51  C   UNL A   1      43.272  24.432  27.305  1.00  0.00     0.023 A 
ATOM     52  C   UNL A   1      42.002  23.825  27.262  1.00  0.00     0.012 A 
ATOM     53  C   UNL A   1      44.286  23.922  26.463  1.00  0.00     0.148 A 
ATOM     54  C   UNL A   1      41.746  22.756  26.396  1.00  0.00     0.002 A 
ATOM     55  C   UNL A   1      44.032  22.848  25.617  1.00  0.00     0.091 A 
ATOM     56  F   UNL A   1      45.470  24.549  26.423  1.00  0.00    -0.205 F 
ATOM     57  C   UNL A   1      42.758  22.268  25.573  1.00  0.00     0.022 A 
BRANCH  55  58
ATOM     58  S   UNL A   1      45.294  22.170  24.529  1.00  0.00     0.127 S 
ATOM     59  O   UNL A   1      46.276  21.657  25.486  1.00  0.00    -0.237 OA
ATOM     60  O   UNL A   1      44.550  21.143  23.806  1.00  0.00    -0.237 OA
ATOM     61  O   UNL A   1      45.770  23.292  23.731  1.00  0.00    -0.744 OA
ENDBRANCH  55  58
ENDBRANCH  27  51
BRANCH  39  62
ATOM     62  C   UNL A   1      46.445  29.507  29.297  1.00  0.00     0.023 A 
ATOM     63  C   UNL A   1      47.731  29.562  28.720  1.00  0.00     0.012 A 
ATOM     64  C   UNL A   1      45.393  30.208  28.681  1.00  0.00     0.148 A 
ATOM     65  C   UNL A   1      47.969  30.320  27.571  1.00  0.00     0.002 A 
ATOM     66  C   UNL A   1      45.623  30.921  27.508  1.00  0.00     0.091 A 
ATOM     67  F   UNL A   1      44.173  30.138  29.234  1.00  0.00    -0.205 F 
ATOM     68  C   UNL A   1      46.913  30.987  26.957  1.00  0.00     0.022 A 
BRANCH  66  69
ATOM     69  S   UNL A   1      44.281  31.680  26.590  1.00  0.00     0.127 S 
ATOM     70  O   UNL A   1      43.794  32.685  27.531  1.00  0.00    -0.237 OA
ATOM     71  O   UNL A   1      44.967  32.223  25.415  1.00  0.00    -0.237 OA
ATOM     72  O   UNL A   1      43.349  30.601  26.283  1.00  0.00    -0.744 OA
ENDBRANCH  66  69
ENDBRANCH  39  62
ENDBRANCH  13  14
ENDBRANCH   6   8
ENDBRANCH   3   4
ENDBRANCH   2   3
ENDBRANCH   1   2
BRANCH   1  73
ATOM     73  C   UNL A   1      33.780  28.693  25.034  1.00  0.00     0.002 C 
BRANCH  73  74
ATOM     74  C   UNL A   1      33.366  28.918  23.578  1.00  0.00     0.021 C 
BRANCH  74  75
ATOM     75  C   UNL A   1      33.641  27.746  22.649  1.00  0.00     0.116 C 
BRANCH  75  76
ATOM     76  N   UNL A   1      32.513  27.435  21.789  1.00  0.00    -0.351 N 
ATOM     77  C   UNL A   1      32.052  26.197  21.411  1.00  0.00     0.274 C 
ATOM     78  H   UNL A   1      32.018  28.207  21.432  1.00  0.00     0.163 HD
ATOM     79  O   UNL A   1      31.121  26.122  20.608  1.00  0.00    -0.267 OA
BRANCH  77  80
ATOM     80  C   UNL A   1      32.676  25.011  21.977  1.00  0.00     0.178 A 
ATOM     81  N   UNL A   1      33.612  24.278  21.288  1.00  0.00    -0.124 NA
ATOM     82  C   UNL A   1      32.525  24.482  23.253  1.00  0.00     0.108 A 
ATOM     83  N   UNL A   1      34.102  23.357  22.106  1.00  0.00    -0.061 NA
ATOM     84  N   UNL A   1      33.373  23.381  23.242  1.00  0.00    -0.212 N 
BRANCH  82  85
ATOM     85  C   UNL A   1      31.841  25.005  24.438  1.00  0.00     0.006 A 
ATOM     86  C   UNL A   1      30.452  25.005  24.531  1.00  0.00     0.030 A 
ATOM     87  C   UNL A   1      32.591  25.563  25.484  1.00  0.00     0.030 A 
ATOM     88  C   UNL A   1      29.876  25.557  25.664  1.00  0.00     0.111 A 
ATOM     89  C   UNL A   1      31.924  26.093  26.571  1.00  0.00     0.111 A 
ATOM     90  N   UNL A   1      30.582  26.105  26.676  1.00  0.00    -0.265 NA
ENDBRANCH  82  85
BRANCH  84  91
ATOM     91  C   UNL A   1      33.554  22.427  24.269  1.00  0.00     0.071 A 
ATOM     92  C   UNL A   1      34.410  22.709  25.335  1.00  0.00     0.029 A 
ATOM     93  C   UNL A   1      32.789  21.249  24.250  1.00  0.00     0.075 A 
ATOM     94  C   UNL A   1      34.420  21.850  26.431  1.00  0.00     0.006 A 
ATOM     95  C   UNL A   1      32.826  20.374  25.332  1.00  0.00     0.131 A 
ATOM     96  C   UNL A   1      33.625  20.696  26.431  1.00  0.00     0.047 A 
BRANCH  95  97
ATOM     97  O   UNL A   1      32.126  19.207  25.442  1.00  0.00    -0.406 OA
BRANCH  97  98
ATOM     98  C   UNL A   1      32.560  18.101  24.664  1.00  0.00     0.573 C 
ATOM     99  F   UNL A   1      33.895  18.126  24.473  1.00  0.00    -0.132 F 
ATOM    100  F   UNL A   1      32.220  16.933  25.259  1.00  0.00    -0.132 F 
ATOM    101  F   UNL A   1      31.953  18.144  23.459  1.00  0.00    -0.132 F 
ENDBRANCH  97  98
ENDBRANCH  95  97
ENDBRANCH  84  91
ENDBRANCH  77  80
ENDBRANCH  75  76
ENDBRANCH  74  75
ENDBRANCH  73  74
ENDBRANCH   1  73
TORSDOF 20
ENDMDL
MODEL 3
REMARK VINA RESULT:     -11.5      4.000      9.362
REMARK SMILES O=C(NCCCCCCNC(=O)c1nnn(-c2cccc(OC(F)(F)F)c2)c1-c1ccncc1)c1ccc(-c2c3nc(c(-c4cccc(S(=O)(=O)[O-])c4F)c4ccc([nH]4)c(-c4cccc(S(=O)(=O)[O-])c4F)c4nc(c(-c5cccc(S(=O)(=O)[O-])c5F)c5ccc2[nH]5)C=C4)C=C3)cc1
REMARK SMILES IDX 6 1 5 2 4 3 3 4 1 5 2 6 35 8 36 9 97 10 37 11 96 12 38 13
REMARK SMILES IDX 39 14 40 15 90 16 41 17 95 18 89 19 91 20 42 21 94 22 88 23
REMARK SMILES IDX 87 24 43 26 75 27 55 28 74 29 56 30 59 31 73 32 92 33 57 34
REMARK SMILES IDX 58 35 72 37 93 38 60 39 44 40 45 41 53 42 46 43 48 44 54 45
REMARK SMILES IDX 47 46 49 47 50 48 51 49 52 50 76 51 77 52 85 53 78 54 80 55
REMARK SMILES IDX 86 56 79 57 81 58 82 59 83 60 84 61 61 62 62 63 70 64 63 65
REMARK SMILES IDX 65 66 71 67 64 68 66 69 67 70 68 71 69 72 7 73 8 74 9 75
REMARK SMILES IDX 10 76 11 77 12 79 13 80 14 81 28 82 15 83 16 84 29 85 30 86
REMARK SMILES IDX 34 87 31 88 33 89 32 90 17 91 18 92 27 93 19 94 21 95 20 96
REMARK SMILES IDX 22 97 23 98 24 99 25 100 26 101
REMARK H PARENT 3 7 91 25 59 36 10 78
REMARK Flexibility Score: inf
ROOT
ATOM      1  C   UNL A   1      32.163  29.966  25.359  1.00  0.00     0.002 C 
ENDROOT
BRANCH   1   2
ATOM      2  C   UNL A   1      32.736  29.532  26.714  1.00  0.00     0.021 C 
BRANCH   2   3
ATOM      3  C   UNL A   1      34.100  30.127  27.067  1.00  0.00     0.116 C 
BRANCH   3   4
ATOM      4  N   UNL A   1      34.070  31.079  28.153  1.00  0.00    -0.352 N 
ATOM      5  O   UNL A   1      34.606  32.442  29.798  1.00  0.00    -0.269 OA
ATOM      6  C   UNL A   1      34.981  31.516  29.075  1.00  0.00     0.251 C 
ATOM      7  H   UNL A   1      33.192  31.513  28.255  1.00  0.00     0.163 HD
BRANCH   6   8
ATOM      8  C   UNL A   1      36.337  30.934  29.282  1.00  0.00     0.039 A 
ATOM      9  C   UNL A   1      37.542  31.635  29.208  1.00  0.00     0.014 A 
ATOM     10  C   UNL A   1      36.382  29.554  29.557  1.00  0.00     0.014 A 
ATOM     11  C   UNL A   1      38.758  30.973  29.333  1.00  0.00     0.010 A 
ATOM     12  C   UNL A   1      37.595  28.889  29.705  1.00  0.00     0.010 A 
ATOM     13  C   UNL A   1      38.785  29.598  29.564  1.00  0.00    -0.014 A 
BRANCH  13  14
ATOM     14  C   UNL A   1      40.091  28.972  29.751  1.00  0.00     0.031 A 
ATOM     15  C   UNL A   1      40.617  28.961  31.148  1.00  0.00     0.074 A 
ATOM     16  C   UNL A   1      40.732  28.309  28.771  1.00  0.00     0.049 A 
ATOM     17  N   UNL A   1      41.740  29.430  31.593  1.00  0.00    -0.248 NA
ATOM     18  C   UNL A   1      39.741  28.413  32.194  1.00  0.00     0.031 C 
ATOM     19  C   UNL A   1      40.203  27.944  27.454  1.00  0.00     0.029 A 
ATOM     20  N   UNL A   1      41.943  27.681  28.812  1.00  0.00    -0.354 N 
ATOM     21  C   UNL A   1      41.803  29.052  32.936  1.00  0.00     0.074 A 
ATOM     22  C   UNL A   1      40.497  28.557  33.282  1.00  0.00     0.031 C 
ATOM     23  C   UNL A   1      40.964  26.957  26.936  1.00  0.00     0.029 A 
ATOM     24  C   UNL A   1      42.094  26.721  27.819  1.00  0.00     0.049 A 
ATOM     25  H   UNL A   1      42.640  27.888  29.476  1.00  0.00     0.167 HD
ATOM     26  C   UNL A   1      42.979  28.982  33.621  1.00  0.00     0.034 A 
ATOM     27  C   UNL A   1      43.023  25.739  27.778  1.00  0.00     0.034 A 
ATOM     28  C   UNL A   1      44.028  29.721  32.974  1.00  0.00     0.049 A 
ATOM     29  C   UNL A   1      44.131  26.111  28.682  1.00  0.00     0.074 A 
ATOM     30  C   UNL A   1      44.232  31.035  32.605  1.00  0.00     0.029 A 
ATOM     31  N   UNL A   1      45.010  29.000  32.344  1.00  0.00    -0.354 N 
ATOM     32  N   UNL A   1      44.955  27.097  28.465  1.00  0.00    -0.248 NA
ATOM     33  C   UNL A   1      44.128  25.583  30.037  1.00  0.00     0.031 C 
ATOM     34  C   UNL A   1      45.025  30.968  31.422  1.00  0.00     0.029 A 
ATOM     35  C   UNL A   1      45.264  29.620  31.154  1.00  0.00     0.049 A 
ATOM     36  H   UNL A   1      45.451  28.189  32.687  1.00  0.00     0.167 HD
ATOM     37  C   UNL A   1      45.254  27.588  29.728  1.00  0.00     0.074 A 
ATOM     38  C   UNL A   1      44.834  26.536  30.650  1.00  0.00     0.031 C 
ATOM     39  C   UNL A   1      45.538  28.910  29.923  1.00  0.00     0.034 A 
BRANCH  26  40
ATOM     40  C   UNL A   1      43.296  27.974  34.709  1.00  0.00     0.023 A 
ATOM     41  C   UNL A   1      43.803  28.476  35.932  1.00  0.00     0.012 A 
ATOM     42  C   UNL A   1      43.401  26.580  34.503  1.00  0.00     0.148 A 
ATOM     43  C   UNL A   1      44.449  27.650  36.859  1.00  0.00     0.002 A 
ATOM     44  C   UNL A   1      43.970  25.752  35.466  1.00  0.00     0.091 A 
ATOM     45  F   UNL A   1      43.078  26.048  33.320  1.00  0.00    -0.205 F 
ATOM     46  C   UNL A   1      44.528  26.284  36.629  1.00  0.00     0.022 A 
BRANCH  44  47
ATOM     47  S   UNL A   1      44.030  23.971  35.235  1.00  0.00     0.127 S 
ATOM     48  O   UNL A   1      42.616  23.650  35.068  1.00  0.00    -0.237 OA
ATOM     49  O   UNL A   1      44.840  23.846  34.021  1.00  0.00    -0.237 OA
ATOM     50  O   UNL A   1      44.679  23.458  36.434  1.00  0.00    -0.744 OA
ENDBRANCH  44  47
ENDBRANCH  26  40
BRANCH  27  51
ATOM     51  C   UNL A   1      42.913  24.388  27.185  1.00  0.00     0.023 A 
ATOM     52  C   UNL A   1      41.681  23.707  27.222  1.00  0.00     0.012 A 
ATOM     53  C   UNL A   1      43.944  23.864  26.373  1.00  0.00     0.148 A 
ATOM     54  C   UNL A   1      41.478  22.550  26.460  1.00  0.00     0.002 A 
ATOM     55  C   UNL A   1      43.742  22.705  25.632  1.00  0.00     0.091 A 
ATOM     56  F   UNL A   1      45.087  24.553  26.255  1.00  0.00    -0.205 F 
ATOM     57  C   UNL A   1      42.506  22.051  25.664  1.00  0.00     0.022 A 
BRANCH  55  58
ATOM     58  S   UNL A   1      45.027  22.006  24.585  1.00  0.00     0.127 S 
ATOM     59  O   UNL A   1      44.389  20.783  24.096  1.00  0.00    -0.237 OA
ATOM     60  O   UNL A   1      45.201  23.051  23.580  1.00  0.00    -0.237 OA
ATOM     61  O   UNL A   1      46.167  21.772  25.464  1.00  0.00    -0.744 OA
ENDBRANCH  55  58
ENDBRANCH  27  51
BRANCH  39  62
ATOM     62  C   UNL A   1      45.826  29.769  28.718  1.00  0.00     0.023 A 
ATOM     63  C   UNL A   1      44.793  30.422  28.014  1.00  0.00     0.012 A 
ATOM     64  C   UNL A   1      47.162  30.087  28.415  1.00  0.00     0.148 A 
ATOM     65  C   UNL A   1      45.084  31.351  27.012  1.00  0.00     0.002 A 
ATOM     66  C   UNL A   1      47.447  31.049  27.451  1.00  0.00     0.091 A 
ATOM     67  F   UNL A   1      48.134  29.467  29.100  1.00  0.00    -0.205 F 
ATOM     68  C   UNL A   1      46.411  31.675  26.741  1.00  0.00     0.022 A 
BRANCH  66  69
ATOM     69  S   UNL A   1      49.125  31.617  27.157  1.00  0.00     0.127 S 
ATOM     70  O   UNL A   1      48.915  32.728  26.232  1.00  0.00    -0.237 OA
ATOM     71  O   UNL A   1      49.565  32.011  28.497  1.00  0.00    -0.237 OA
ATOM     72  O   UNL A   1      49.844  30.471  26.612  1.00  0.00    -0.744 OA
ENDBRANCH  66  69
ENDBRANCH  39  62
ENDBRANCH  13  14
ENDBRANCH   6   8
ENDBRANCH   3   4
ENDBRANCH   2   3
ENDBRANCH   1   2
BRANCH   1  73
ATOM     73  C   UNL A   1      32.259  28.940  24.226  1.00  0.00     0.002 C 
BRANCH  73  74
ATOM     74  C   UNL A   1      33.646  28.343  23.981  1.00  0.00     0.021 C 
BRANCH  74  75
ATOM     75  C   UNL A   1      33.893  27.869  22.558  1.00  0.00     0.116 C 
BRANCH  75  76
ATOM     76  N   UNL A   1      32.664  27.611  21.830  1.00  0.00    -0.351 N 
ATOM     77  C   UNL A   1      32.094  26.396  21.533  1.00  0.00     0.274 C 
ATOM     78  H   UNL A   1      32.178  28.405  21.508  1.00  0.00     0.163 HD
ATOM     79  O   UNL A   1      31.079  26.364  20.835  1.00  0.00    -0.267 OA
BRANCH  77  80
ATOM     80  C   UNL A   1      32.705  25.185  22.058  1.00  0.00     0.178 A 
ATOM     81  N   UNL A   1      33.641  24.472  21.350  1.00  0.00    -0.124 NA
ATOM     82  C   UNL A   1      32.540  24.610  23.313  1.00  0.00     0.108 A 
ATOM     83  N   UNL A   1      34.118  23.517  22.137  1.00  0.00    -0.061 NA
ATOM     84  N   UNL A   1      33.380  23.504  23.267  1.00  0.00    -0.212 N 
BRANCH  82  85
ATOM     85  C   UNL A   1      31.851  25.093  24.511  1.00  0.00     0.006 A 
ATOM     86  C   UNL A   1      30.461  25.156  24.572  1.00  0.00     0.030 A 
ATOM     87  C   UNL A   1      32.598  25.550  25.607  1.00  0.00     0.030 A 
ATOM     88  C   UNL A   1      29.882  25.666  25.722  1.00  0.00     0.111 A 
ATOM     89  C   UNL A   1      31.928  26.045  26.709  1.00  0.00     0.111 A 
ATOM     90  N   UNL A   1      30.586  26.117  26.783  1.00  0.00    -0.265 NA
ENDBRANCH  82  85
BRANCH  84  91
ATOM     91  C   UNL A   1      33.546  22.511  24.259  1.00  0.00     0.071 A 
ATOM     92  C   UNL A   1      34.410  22.740  25.331  1.00  0.00     0.029 A 
ATOM     93  C   UNL A   1      32.761  21.348  24.200  1.00  0.00     0.075 A 
ATOM     94  C   UNL A   1      34.407  21.841  26.397  1.00  0.00     0.006 A 
ATOM     95  C   UNL A   1      32.784  20.435  25.249  1.00  0.00     0.131 A 
ATOM     96  C   UNL A   1      33.592  20.703  26.358  1.00  0.00     0.047 A 
BRANCH  95  97
ATOM     97  O   UNL A   1      32.063  19.277  25.320  1.00  0.00    -0.406 OA
BRANCH  97  98
ATOM     98  C   UNL A   1      32.483  18.188  24.511  1.00  0.00     0.573 C 
ATOM     99  F   UNL A   1      31.946  18.256  23.275  1.00  0.00    -0.132 F 
ATOM    100  F   UNL A   1      33.833  18.161  24.406  1.00  0.00    -0.132 F 
ATOM    101  F   UNL A   1      32.089  17.032  25.087  1.00  0.00    -0.132 F 
ENDBRANCH  97  98
ENDBRANCH  95  97
ENDBRANCH  84  91
ENDBRANCH  77  80
ENDBRANCH  75  76
ENDBRANCH  74  75
ENDBRANCH  73  74
ENDBRANCH   1  73
TORSDOF 20
ENDMDL
