MODEL 1
REMARK VINA RESULT:     -10.6      0.000      0.000
REMARK SMILES COc1cc(/C=N/[NH+]=C2\NC(=O)[C@@H](CC(=O)NCCCCCCNC(=O)c3ccc(-c4c5nc(c(-c6cccc(S(=O)(=O)[O-])c6F)c6ccc([nH]6)c(-c6cccc(S(=O)(=O)[O-])c6F)c6nc(c(-c7cccc(S(=O)(=O)[O-])c7F)c7ccc4[nH]7)C=C6)C=C5)cc3)S2)cc(I)c1OC
REMARK SMILES IDX 20 1 19 2 18 3 17 4 15 5 16 6 14 8 13 9 8 10 9 11 10 13
REMARK SMILES IDX 90 14 11 15 12 17 7 18 6 19 5 20 3 21 4 22 94 23 92 24 91 25
REMARK SMILES IDX 93 26 2 27 1 28 95 29 96 30 21 31 22 32 23 33 24 34 25 35
REMARK SMILES IDX 26 37 27 38 28 39 89 40 29 41 88 42 30 43 31 44 32 45 82 46
REMARK SMILES IDX 33 47 87 48 81 49 83 50 34 51 86 52 80 53 79 54 35 56 67 57
REMARK SMILES IDX 47 58 66 59 48 60 51 61 65 62 84 63 49 64 50 65 64 67 85 68
REMARK SMILES IDX 52 69 36 70 37 71 45 72 38 73 40 74 46 75 39 76 41 77 42 78
REMARK SMILES IDX 43 79 44 80 68 81 69 82 77 83 70 84 72 85 78 86 71 87 73 88
REMARK SMILES IDX 74 89 75 90 76 91 53 92 54 93 62 94 55 95 57 96 63 97 56 98
REMARK SMILES IDX 58 99 59 100 60 101 61 102
REMARK H PARENT 17 7 8 12 10 16 24 36 83 55 51 66
REMARK Flexibility Score: inf
ROOT
ATOM      1  C   UNL A   1      31.580  27.753  26.228  1.00  0.00     0.002 C 
ENDROOT
BRANCH   1   2
ATOM      2  C   UNL A   1      32.745  26.905  25.707  1.00  0.00     0.021 C 
BRANCH   2   3
ATOM      3  C   UNL A   1      32.402  25.433  25.468  1.00  0.00     0.116 C 
BRANCH   3   4
ATOM      4  N   UNL A   1      32.450  25.101  24.056  1.00  0.00    -0.356 N 
ATOM      5  C   UNL A   1      33.193  24.164  23.407  1.00  0.00     0.221 C 
ATOM      6  O   UNL A   1      33.038  24.012  22.196  1.00  0.00    -0.275 OA
ATOM      7  H   UNL A   1      31.856  25.635  23.481  1.00  0.00     0.163 HD
BRANCH   5   8
ATOM      8  C   UNL A   1      34.159  23.300  24.184  1.00  0.00     0.127 C 
BRANCH   8   9
ATOM      9  C   UNL A   1      35.539  23.927  24.265  1.00  0.00     0.183 C 
ATOM     10  N   UNL A   1      38.386  22.814  26.610  1.00  0.00    -0.142 N 
ATOM     11  C   UNL A   1      37.465  23.036  25.734  1.00  0.00     0.337 C 
ATOM     12  H   UNL A   1      38.380  23.206  27.514  1.00  0.00     0.343 HD
ATOM     13  N   UNL A   1      37.478  22.560  24.468  1.00  0.00    -0.202 N 
ATOM     14  S   UNL A   1      36.089  24.047  26.010  1.00  0.00    -0.020 SA
ATOM     15  C   UNL A   1      36.579  23.063  23.582  1.00  0.00     0.322 C 
ATOM     16  H   UNL A   1      38.121  21.867  24.196  1.00  0.00     0.316 HD
ATOM     17  O   UNL A   1      36.661  22.884  22.377  1.00  0.00    -0.246 OA
BRANCH  10  18
ATOM     18  N   UNL A   1      39.396  21.960  26.146  1.00  0.00    -0.093 NA
ATOM     19  C   UNL A   1      40.542  22.200  26.703  1.00  0.00     0.166 C 
BRANCH  19  20
ATOM     20  C   UNL A   1      41.731  21.449  26.277  1.00  0.00     0.002 A 
ATOM     21  C   UNL A   1      42.794  19.362  25.734  1.00  0.00     0.162 A 
ATOM     22  C   UNL A   1      41.703  20.061  26.254  1.00  0.00     0.060 A 
ATOM     23  C   UNL A   1      43.930  20.044  25.227  1.00  0.00     0.174 A 
ATOM     24  C   UNL A   1      43.936  21.452  25.261  1.00  0.00     0.060 A 
ATOM     25  C   UNL A   1      42.842  22.148  25.808  1.00  0.00     0.028 A 
ATOM     26  I   UNL A   1      45.386  22.723  24.410  1.00  0.00    -0.040 I 
BRANCH  21  27
ATOM     27  O   UNL A   1      42.832  17.986  25.754  1.00  0.00    -0.493 OA
ATOM     28  C   UNL A   1      43.178  17.428  27.019  1.00  0.00     0.278 C 
ENDBRANCH  21  27
BRANCH  23  29
ATOM     29  O   UNL A   1      44.837  19.206  24.634  1.00  0.00    -0.492 OA
ATOM     30  C   UNL A   1      46.091  18.969  25.247  1.00  0.00     0.278 C 
ENDBRANCH  23  29
ENDBRANCH  19  20
ENDBRANCH  10  18
ENDBRANCH   8   9
ENDBRANCH   5   8
ENDBRANCH   3   4
ENDBRANCH   2   3
ENDBRANCH   1   2
BRANCH   1  31
ATOM     31  C   UNL A   1      31.955  28.803  27.277  1.00  0.00     0.002 C 
BRANCH  31  32
ATOM     32  C   UNL A   1      32.051  30.240  26.757  1.00  0.00     0.021 C 
BRANCH  32  33
ATOM     33  C   UNL A   1      33.313  30.991  27.171  1.00  0.00     0.116 C 
BRANCH  33  34
ATOM     34  N   UNL A   1      33.055  32.401  27.421  1.00  0.00    -0.352 N 
ATOM     35  C   UNL A   1      33.705  33.265  28.265  1.00  0.00     0.251 C 
ATOM     36  H   UNL A   1      32.308  32.789  26.911  1.00  0.00     0.163 HD
ATOM     37  O   UNL A   1      33.233  34.377  28.487  1.00  0.00    -0.269 OA
BRANCH  35  38
ATOM     38  C   UNL A   1      34.967  32.853  28.917  1.00  0.00     0.039 A 
ATOM     39  C   UNL A   1      36.171  33.409  28.476  1.00  0.00     0.014 A 
ATOM     40  C   UNL A   1      34.966  31.915  29.954  1.00  0.00     0.014 A 
ATOM     41  C   UNL A   1      37.368  33.066  29.110  1.00  0.00     0.010 A 
ATOM     42  C   UNL A   1      36.150  31.625  30.627  1.00  0.00     0.010 A 
ATOM     43  C   UNL A   1      37.364  32.191  30.210  1.00  0.00    -0.014 A 
BRANCH  43  44
ATOM     44  C   UNL A   1      38.614  31.866  30.941  1.00  0.00     0.031 A 
ATOM     45  C   UNL A   1      39.534  30.788  30.434  1.00  0.00     0.074 A 
ATOM     46  C   UNL A   1      38.877  32.478  32.113  1.00  0.00     0.049 A 
ATOM     47  N   UNL A   1      40.634  30.325  30.968  1.00  0.00    -0.248 NA
ATOM     48  C   UNL A   1      39.152  30.124  29.177  1.00  0.00     0.031 C 
ATOM     49  C   UNL A   1      38.023  33.480  32.753  1.00  0.00     0.029 A 
ATOM     50  N   UNL A   1      39.922  32.324  32.991  1.00  0.00    -0.354 N 
ATOM     51  C   UNL A   1      41.055  29.294  30.136  1.00  0.00     0.074 A 
ATOM     52  C   UNL A   1      40.075  29.178  29.078  1.00  0.00     0.031 C 
ATOM     53  C   UNL A   1      38.577  33.851  33.919  1.00  0.00     0.029 A 
ATOM     54  C   UNL A   1      39.811  33.096  34.123  1.00  0.00     0.049 A 
ATOM     55  H   UNL A   1      40.679  31.717  32.824  1.00  0.00     0.167 HD
ATOM     56  C   UNL A   1      42.172  28.532  30.226  1.00  0.00     0.034 A 
ATOM     57  C   UNL A   1      40.608  33.185  35.205  1.00  0.00     0.034 A 
ATOM     58  C   UNL A   1      43.170  28.685  31.250  1.00  0.00     0.049 A 
ATOM     59  C   UNL A   1      41.870  32.367  35.254  1.00  0.00     0.074 A 
ATOM     60  C   UNL A   1      44.384  28.029  31.372  1.00  0.00     0.029 A 
ATOM     61  N   UNL A   1      43.073  29.549  32.329  1.00  0.00    -0.354 N 
ATOM     62  N   UNL A   1      42.336  31.517  34.371  1.00  0.00    -0.248 NA
ATOM     63  C   UNL A   1      42.736  32.548  36.428  1.00  0.00     0.031 C 
ATOM     64  C   UNL A   1      45.011  28.486  32.536  1.00  0.00     0.029 A 
ATOM     65  C   UNL A   1      44.199  29.441  33.128  1.00  0.00     0.049 A 
ATOM     66  H   UNL A   1      42.314  30.152  32.502  1.00  0.00     0.167 HD
ATOM     67  C   UNL A   1      43.563  31.089  34.865  1.00  0.00     0.074 A 
ATOM     68  C   UNL A   1      43.778  31.789  36.115  1.00  0.00     0.031 C 
ATOM     69  C   UNL A   1      44.426  30.185  34.340  1.00  0.00     0.034 A 
BRANCH  56  70
ATOM     70  C   UNL A   1      42.406  27.503  29.151  1.00  0.00     0.023 A 
ATOM     71  C   UNL A   1      42.066  26.156  29.396  1.00  0.00     0.012 A 
ATOM     72  C   UNL A   1      42.905  27.870  27.887  1.00  0.00     0.148 A 
ATOM     73  C   UNL A   1      42.251  25.186  28.413  1.00  0.00     0.002 A 
ATOM     74  C   UNL A   1      43.046  26.904  26.896  1.00  0.00     0.091 A 
ATOM     75  F   UNL A   1      43.244  29.151  27.679  1.00  0.00    -0.205 F 
ATOM     76  C   UNL A   1      42.731  25.561  27.161  1.00  0.00     0.022 A 
BRANCH  74  77
ATOM     77  S   UNL A   1      43.585  27.301  25.229  1.00  0.00     0.127 S 
ATOM     78  O   UNL A   1      43.790  25.970  24.661  1.00  0.00    -0.237 OA
ATOM     79  O   UNL A   1      42.428  28.020  24.693  1.00  0.00    -0.237 OA
ATOM     80  O   UNL A   1      44.785  28.111  25.379  1.00  0.00    -0.744 OA
ENDBRANCH  74  77
ENDBRANCH  56  70
BRANCH  57  81
ATOM     81  C   UNL A   1      40.273  34.143  36.296  1.00  0.00     0.023 A 
ATOM     82  C   UNL A   1      40.386  35.526  36.057  1.00  0.00     0.012 A 
ATOM     83  C   UNL A   1      39.808  33.698  37.549  1.00  0.00     0.148 A 
ATOM     84  C   UNL A   1      40.071  36.449  37.056  1.00  0.00     0.002 A 
ATOM     85  C   UNL A   1      39.443  34.623  38.521  1.00  0.00     0.091 A 
ATOM     86  F   UNL A   1      39.719  32.377  37.761  1.00  0.00    -0.205 F 
ATOM     87  C   UNL A   1      39.589  35.998  38.281  1.00  0.00     0.022 A 
BRANCH  85  88
ATOM     88  S   UNL A   1      38.687  34.136  40.075  1.00  0.00     0.127 S 
ATOM     89  O   UNL A   1      37.430  33.546  39.625  1.00  0.00    -0.237 OA
ATOM     90  O   UNL A   1      39.663  33.181  40.601  1.00  0.00    -0.237 OA
ATOM     91  O   UNL A   1      38.571  35.361  40.855  1.00  0.00    -0.744 OA
ENDBRANCH  85  88
ENDBRANCH  57  81
BRANCH  69  92
ATOM     92  C   UNL A   1      45.702  29.915  35.093  1.00  0.00     0.023 A 
ATOM     93  C   UNL A   1      45.751  28.865  36.030  1.00  0.00     0.012 A 
ATOM     94  C   UNL A   1      46.871  30.651  34.816  1.00  0.00     0.148 A 
ATOM     95  C   UNL A   1      46.937  28.569  36.702  1.00  0.00     0.002 A 
ATOM     96  C   UNL A   1      48.061  30.321  35.456  1.00  0.00     0.091 A 
ATOM     97  F   UNL A   1      46.799  31.661  33.936  1.00  0.00    -0.205 F 
ATOM     98  C   UNL A   1      48.093  29.288  36.406  1.00  0.00     0.022 A 
BRANCH  96  99
ATOM     99  S   UNL A   1      49.616  31.131  35.066  1.00  0.00     0.127 S 
ATOM    100  O   UNL A   1      49.316  32.524  35.392  1.00  0.00    -0.237 OA
ATOM    101  O   UNL A   1      50.548  30.476  35.985  1.00  0.00    -0.237 OA
ATOM    102  O   UNL A   1      49.868  30.858  33.658  1.00  0.00    -0.744 OA
ENDBRANCH  96  99
ENDBRANCH  69  92
ENDBRANCH  43  44
ENDBRANCH  35  38
ENDBRANCH  33  34
ENDBRANCH  32  33
ENDBRANCH  31  32
ENDBRANCH   1  31
TORSDOF 21
ENDMDL
MODEL 2
REMARK VINA RESULT:     -10.1      4.431      8.460
REMARK SMILES COc1cc(/C=N/[NH+]=C2\NC(=O)[C@@H](CC(=O)NCCCCCCNC(=O)c3ccc(-c4c5nc(c(-c6cccc(S(=O)(=O)[O-])c6F)c6ccc([nH]6)c(-c6cccc(S(=O)(=O)[O-])c6F)c6nc(c(-c7cccc(S(=O)(=O)[O-])c7F)c7ccc4[nH]7)C=C6)C=C5)cc3)S2)cc(I)c1OC
REMARK SMILES IDX 20 1 19 2 18 3 17 4 15 5 16 6 14 8 13 9 8 10 9 11 10 13
REMARK SMILES IDX 90 14 11 15 12 17 7 18 6 19 5 20 3 21 4 22 94 23 92 24 91 25
REMARK SMILES IDX 93 26 2 27 1 28 95 29 96 30 21 31 22 32 23 33 24 34 25 35
REMARK SMILES IDX 26 37 27 38 28 39 89 40 29 41 88 42 30 43 31 44 32 45 82 46
REMARK SMILES IDX 33 47 87 48 81 49 83 50 34 51 86 52 80 53 79 54 35 56 67 57
REMARK SMILES IDX 47 58 66 59 48 60 51 61 65 62 84 63 49 64 50 65 64 67 85 68
REMARK SMILES IDX 52 69 36 70 37 71 45 72 38 73 40 74 46 75 39 76 41 77 42 78
REMARK SMILES IDX 43 79 44 80 68 81 69 82 77 83 70 84 72 85 78 86 71 87 73 88
REMARK SMILES IDX 74 89 75 90 76 91 53 92 54 93 62 94 55 95 57 96 63 97 56 98
REMARK SMILES IDX 58 99 59 100 60 101 61 102
REMARK H PARENT 17 7 8 12 10 16 24 36 83 55 51 66
REMARK Flexibility Score: inf
ROOT
ATOM      1  C   UNL A   1      33.750  21.609  26.864  1.00  0.00     0.002 C 
ENDROOT
BRANCH   1   2
ATOM      2  C   UNL A   1      32.884  20.563  26.151  1.00  0.00     0.021 C 
BRANCH   2   3
ATOM      3  C   UNL A   1      33.505  19.986  24.879  1.00  0.00     0.116 C 
BRANCH   3   4
ATOM      4  N   UNL A   1      32.626  20.153  23.736  1.00  0.00    -0.356 N 
ATOM      5  C   UNL A   1      32.500  21.203  22.881  1.00  0.00     0.221 C 
ATOM      6  O   UNL A   1      31.718  21.114  21.936  1.00  0.00    -0.275 OA
ATOM      7  H   UNL A   1      32.029  19.392  23.554  1.00  0.00     0.163 HD
BRANCH   5   8
ATOM      8  C   UNL A   1      33.349  22.439  23.077  1.00  0.00     0.127 C 
BRANCH   8   9
ATOM      9  C   UNL A   1      32.503  23.694  23.189  1.00  0.00     0.183 C 
ATOM     10  N   UNL A   1      31.442  25.412  26.470  1.00  0.00    -0.142 N 
ATOM     11  C   UNL A   1      31.962  24.898  25.406  1.00  0.00     0.337 C 
ATOM     12  H   UNL A   1      30.621  25.069  26.892  1.00  0.00     0.343 HD
ATOM     13  N   UNL A   1      33.053  25.385  24.773  1.00  0.00    -0.202 N 
ATOM     14  S   UNL A   1      31.301  23.539  24.564  1.00  0.00    -0.020 SA
ATOM     15  C   UNL A   1      33.350  24.901  23.538  1.00  0.00     0.322 C 
ATOM     16  H   UNL A   1      33.619  26.071  25.195  1.00  0.00     0.316 HD
ATOM     17  O   UNL A   1      34.155  25.433  22.791  1.00  0.00    -0.246 OA
BRANCH  10  18
ATOM     18  N   UNL A   1      32.164  26.507  26.965  1.00  0.00    -0.093 NA
ATOM     19  C   UNL A   1      31.836  27.619  26.385  1.00  0.00     0.166 C 
BRANCH  19  20
ATOM     20  C   UNL A   1      32.550  28.857  26.726  1.00  0.00     0.002 A 
ATOM     21  C   UNL A   1      32.524  31.214  27.202  1.00  0.00     0.162 A 
ATOM     22  C   UNL A   1      31.865  30.065  26.761  1.00  0.00     0.060 A 
ATOM     23  C   UNL A   1      33.880  31.170  27.616  1.00  0.00     0.174 A 
ATOM     24  C   UNL A   1      34.554  29.935  27.571  1.00  0.00     0.060 A 
ATOM     25  C   UNL A   1      33.889  28.786  27.103  1.00  0.00     0.028 A 
ATOM     26  I   UNL A   1      36.491  29.533  28.300  1.00  0.00    -0.040 I 
BRANCH  21  27
ATOM     27  O   UNL A   1      31.900  32.442  27.189  1.00  0.00    -0.493 OA
ATOM     28  C   UNL A   1      30.998  32.629  26.102  1.00  0.00     0.278 C 
ENDBRANCH  21  27
BRANCH  23  29
ATOM     29  O   UNL A   1      34.317  32.357  28.145  1.00  0.00    -0.492 OA
ATOM     30  C   UNL A   1      35.558  32.901  27.736  1.00  0.00     0.278 C 
ENDBRANCH  23  29
ENDBRANCH  19  20
ENDBRANCH  10  18
ENDBRANCH   8   9
ENDBRANCH   5   8
ENDBRANCH   3   4
ENDBRANCH   2   3
ENDBRANCH   1   2
BRANCH   1  31
ATOM     31  C   UNL A   1      35.207  21.677  26.399  1.00  0.00     0.002 C 
BRANCH  31  32
ATOM     32  C   UNL A   1      35.628  23.004  25.763  1.00  0.00     0.021 C 
BRANCH  32  33
ATOM     33  C   UNL A   1      37.006  22.994  25.107  1.00  0.00     0.116 C 
BRANCH  33  34
ATOM     34  N   UNL A   1      37.775  21.812  25.464  1.00  0.00    -0.352 N 
ATOM     35  C   UNL A   1      39.018  21.727  26.038  1.00  0.00     0.251 C 
ATOM     36  H   UNL A   1      37.341  20.952  25.265  1.00  0.00     0.163 HD
ATOM     37  O   UNL A   1      39.593  20.643  26.098  1.00  0.00    -0.269 OA
BRANCH  35  38
ATOM     38  C   UNL A   1      39.671  22.942  26.572  1.00  0.00     0.039 A 
ATOM     39  C   UNL A   1      40.657  22.806  27.553  1.00  0.00     0.014 A 
ATOM     40  C   UNL A   1      39.307  24.212  26.114  1.00  0.00     0.014 A 
ATOM     41  C   UNL A   1      41.316  23.939  28.037  1.00  0.00     0.010 A 
ATOM     42  C   UNL A   1      40.011  25.333  26.548  1.00  0.00     0.010 A 
ATOM     43  C   UNL A   1      41.017  25.210  27.517  1.00  0.00    -0.014 A 
BRANCH  43  44
ATOM     44  C   UNL A   1      41.754  26.419  27.967  1.00  0.00     0.031 A 
ATOM     45  C   UNL A   1      43.158  26.676  27.489  1.00  0.00     0.074 A 
ATOM     46  C   UNL A   1      41.193  27.238  28.878  1.00  0.00     0.049 A 
ATOM     47  N   UNL A   1      43.977  27.640  27.818  1.00  0.00    -0.248 NA
ATOM     48  C   UNL A   1      43.725  25.706  26.537  1.00  0.00     0.031 C 
ATOM     49  C   UNL A   1      39.873  27.053  29.482  1.00  0.00     0.029 A 
ATOM     50  N   UNL A   1      41.676  28.374  29.480  1.00  0.00    -0.354 N 
ATOM     51  C   UNL A   1      45.165  27.375  27.147  1.00  0.00     0.074 A 
ATOM     52  C   UNL A   1      44.971  26.142  26.416  1.00  0.00     0.031 C 
ATOM     53  C   UNL A   1      39.650  28.039  30.367  1.00  0.00     0.029 A 
ATOM     54  C   UNL A   1      40.821  28.911  30.414  1.00  0.00     0.049 A 
ATOM     55  H   UNL A   1      42.553  28.766  29.264  1.00  0.00     0.167 HD
ATOM     56  C   UNL A   1      46.305  28.107  27.117  1.00  0.00     0.034 A 
ATOM     57  C   UNL A   1      40.962  29.982  31.219  1.00  0.00     0.034 A 
ATOM     58  C   UNL A   1      46.476  29.359  27.803  1.00  0.00     0.049 A 
ATOM     59  C   UNL A   1      42.216  30.808  31.125  1.00  0.00     0.074 A 
ATOM     60  C   UNL A   1      47.556  30.224  27.757  1.00  0.00     0.029 A 
ATOM     61  N   UNL A   1      45.548  29.925  28.662  1.00  0.00    -0.354 N 
ATOM     62  N   UNL A   1      43.264  30.632  30.357  1.00  0.00    -0.248 NA
ATOM     63  C   UNL A   1      42.294  32.000  31.981  1.00  0.00     0.031 C 
ATOM     64  C   UNL A   1      47.286  31.305  28.603  1.00  0.00     0.029 A 
ATOM     65  C   UNL A   1      46.030  31.124  29.160  1.00  0.00     0.049 A 
ATOM     66  H   UNL A   1      44.673  29.532  28.886  1.00  0.00     0.167 HD
ATOM     67  C   UNL A   1      44.107  31.707  30.609  1.00  0.00     0.074 A 
ATOM     68  C   UNL A   1      43.439  32.541  31.588  1.00  0.00     0.031 C 
ATOM     69  C   UNL A   1      45.332  31.972  30.091  1.00  0.00     0.034 A 
BRANCH  56  70
ATOM     70  C   UNL A   1      47.438  27.602  26.262  1.00  0.00     0.023 A 
ATOM     71  C   UNL A   1      48.443  26.803  26.846  1.00  0.00     0.012 A 
ATOM     72  C   UNL A   1      47.483  27.867  24.880  1.00  0.00     0.148 A 
ATOM     73  C   UNL A   1      49.491  26.304  26.075  1.00  0.00     0.002 A 
ATOM     74  C   UNL A   1      48.509  27.330  24.109  1.00  0.00     0.091 A 
ATOM     75  F   UNL A   1      46.532  28.647  24.346  1.00  0.00    -0.205 F 
ATOM     76  C   UNL A   1      49.519  26.559  24.707  1.00  0.00     0.022 A 
BRANCH  74  77
ATOM     77  S   UNL A   1      48.589  27.538  22.327  1.00  0.00     0.127 S 
ATOM     78  O   UNL A   1      47.278  28.116  22.038  1.00  0.00    -0.237 OA
ATOM     79  O   UNL A   1      49.710  28.467  22.174  1.00  0.00    -0.237 OA
ATOM     80  O   UNL A   1      48.824  26.210  21.779  1.00  0.00    -0.744 OA
ENDBRANCH  74  77
ENDBRANCH  56  70
BRANCH  57  81
ATOM     81  C   UNL A   1      39.850  30.376  32.129  1.00  0.00     0.023 A 
ATOM     82  C   UNL A   1      39.893  29.981  33.480  1.00  0.00     0.012 A 
ATOM     83  C   UNL A   1      38.777  31.169  31.679  1.00  0.00     0.148 A 
ATOM     84  C   UNL A   1      38.872  30.342  34.360  1.00  0.00     0.002 A 
ATOM     85  C   UNL A   1      37.791  31.571  32.573  1.00  0.00     0.091 A 
ATOM     86  F   UNL A   1      38.748  31.524  30.386  1.00  0.00    -0.205 F 
ATOM     87  C   UNL A   1      37.828  31.145  33.909  1.00  0.00     0.022 A 
BRANCH  85  88
ATOM     88  S   UNL A   1      36.485  32.715  32.111  1.00  0.00     0.127 S 
ATOM     89  O   UNL A   1      37.245  33.814  31.520  1.00  0.00    -0.237 OA
ATOM     90  O   UNL A   1      35.708  31.921  31.160  1.00  0.00    -0.237 OA
ATOM     91  O   UNL A   1      35.780  33.023  33.349  1.00  0.00    -0.744 OA
ENDBRANCH  85  88
ENDBRANCH  57  81
BRANCH  69  92
ATOM     92  C   UNL A   1      46.026  33.231  30.543  1.00  0.00     0.023 A 
ATOM     93  C   UNL A   1      46.839  33.205  31.692  1.00  0.00     0.012 A 
ATOM     94  C   UNL A   1      45.934  34.415  29.785  1.00  0.00     0.148 A 
ATOM     95  C   UNL A   1      47.528  34.347  32.099  1.00  0.00     0.002 A 
ATOM     96  C   UNL A   1      46.661  35.536  30.171  1.00  0.00     0.091 A 
ATOM     97  F   UNL A   1      45.139  34.425  28.706  1.00  0.00    -0.205 F 
ATOM     98  C   UNL A   1      47.449  35.507  31.332  1.00  0.00     0.022 A 
BRANCH  96  99
ATOM     99  S   UNL A   1      46.692  37.042  29.191  1.00  0.00     0.127 S 
ATOM    100  O   UNL A   1      45.274  37.390  29.134  1.00  0.00    -0.237 OA
ATOM    101  O   UNL A   1      47.507  37.935  30.017  1.00  0.00    -0.237 OA
ATOM    102  O   UNL A   1      47.300  36.678  27.919  1.00  0.00    -0.744 OA
ENDBRANCH  96  99
ENDBRANCH  69  92
ENDBRANCH  43  44
ENDBRANCH  35  38
ENDBRANCH  33  34
ENDBRANCH  32  33
ENDBRANCH  31  32
ENDBRANCH   1  31
TORSDOF 21
ENDMDL
MODEL 3
REMARK VINA RESULT:     -10.0      1.847      2.141
REMARK SMILES COc1cc(/C=N/[NH+]=C2\NC(=O)[C@@H](CC(=O)NCCCCCCNC(=O)c3ccc(-c4c5nc(c(-c6cccc(S(=O)(=O)[O-])c6F)c6ccc([nH]6)c(-c6cccc(S(=O)(=O)[O-])c6F)c6nc(c(-c7cccc(S(=O)(=O)[O-])c7F)c7ccc4[nH]7)C=C6)C=C5)cc3)S2)cc(I)c1OC
REMARK SMILES IDX 20 1 19 2 18 3 17 4 15 5 16 6 14 8 13 9 8 10 9 11 10 13
REMARK SMILES IDX 90 14 11 15 12 17 7 18 6 19 5 20 3 21 4 22 94 23 92 24 91 25
REMARK SMILES IDX 93 26 2 27 1 28 95 29 96 30 21 31 22 32 23 33 24 34 25 35
REMARK SMILES IDX 26 37 27 38 28 39 89 40 29 41 88 42 30 43 31 44 32 45 82 46
REMARK SMILES IDX 33 47 87 48 81 49 83 50 34 51 86 52 80 53 79 54 35 56 67 57
REMARK SMILES IDX 47 58 66 59 48 60 51 61 65 62 84 63 49 64 50 65 64 67 85 68
REMARK SMILES IDX 52 69 36 70 37 71 45 72 38 73 40 74 46 75 39 76 41 77 42 78
REMARK SMILES IDX 43 79 44 80 68 81 69 82 77 83 70 84 72 85 78 86 71 87 73 88
REMARK SMILES IDX 74 89 75 90 76 91 53 92 54 93 62 94 55 95 57 96 63 97 56 98
REMARK SMILES IDX 58 99 59 100 60 101 61 102
REMARK H PARENT 17 7 8 12 10 16 24 36 83 55 51 66
REMARK Flexibility Score: inf
ROOT
ATOM      1  C   UNL A   1      32.808  26.437  25.359  1.00  0.00     0.002 C 
ENDROOT
BRANCH   1   2
ATOM      2  C   UNL A   1      32.398  25.114  26.015  1.00  0.00     0.021 C 
BRANCH   2   3
ATOM      3  C   UNL A   1      31.542  24.205  25.131  1.00  0.00     0.116 C 
BRANCH   3   4
ATOM      4  N   UNL A   1      31.976  24.251  23.747  1.00  0.00    -0.356 N 
ATOM      5  C   UNL A   1      33.067  23.691  23.157  1.00  0.00     0.221 C 
ATOM      6  O   UNL A   1      33.218  23.814  21.942  1.00  0.00    -0.275 OA
ATOM      7  H   UNL A   1      31.394  24.767  23.143  1.00  0.00     0.163 HD
BRANCH   5   8
ATOM      8  C   UNL A   1      34.047  22.896  23.989  1.00  0.00     0.127 C 
BRANCH   8   9
ATOM      9  C   UNL A   1      35.357  23.637  24.181  1.00  0.00     0.183 C 
ATOM     10  N   UNL A   1      38.245  22.549  26.488  1.00  0.00    -0.142 N 
ATOM     11  C   UNL A   1      37.326  22.777  25.610  1.00  0.00     0.337 C 
ATOM     12  H   UNL A   1      38.181  22.839  27.427  1.00  0.00     0.343 HD
ATOM     13  N   UNL A   1      37.414  22.443  24.303  1.00  0.00    -0.202 N 
ATOM     14  S   UNL A   1      35.854  23.620  25.946  1.00  0.00    -0.020 SA
ATOM     15  C   UNL A   1      36.491  22.952  23.445  1.00  0.00     0.322 C 
ATOM     16  H   UNL A   1      38.126  21.846  23.980  1.00  0.00     0.316 HD
ATOM     17  O   UNL A   1      36.617  22.912  22.231  1.00  0.00    -0.246 OA
BRANCH  10  18
ATOM     18  N   UNL A   1      39.343  21.848  25.970  1.00  0.00    -0.093 NA
ATOM     19  C   UNL A   1      40.373  21.890  26.756  1.00  0.00     0.166 C 
BRANCH  19  20
ATOM     20  C   UNL A   1      41.638  21.274  26.333  1.00  0.00     0.002 A 
ATOM     21  C   UNL A   1      42.914  19.317  25.765  1.00  0.00     0.162 A 
ATOM     22  C   UNL A   1      41.751  19.891  26.282  1.00  0.00     0.060 A 
ATOM     23  C   UNL A   1      43.982  20.121  25.291  1.00  0.00     0.174 A 
ATOM     24  C   UNL A   1      43.845  21.521  25.354  1.00  0.00     0.060 A 
ATOM     25  C   UNL A   1      42.678  22.091  25.897  1.00  0.00     0.028 A 
ATOM     26  I   UNL A   1      45.171  22.951  24.553  1.00  0.00    -0.040 I 
BRANCH  21  27
ATOM     27  O   UNL A   1      43.092  17.951  25.757  1.00  0.00    -0.493 OA
ATOM     28  C   UNL A   1      43.292  17.380  27.047  1.00  0.00     0.278 C 
ENDBRANCH  21  27
BRANCH  23  29
ATOM     29  O   UNL A   1      44.978  19.392  24.696  1.00  0.00    -0.492 OA
ATOM     30  C   UNL A   1      46.334  19.667  24.995  1.00  0.00     0.278 C 
ENDBRANCH  23  29
ENDBRANCH  19  20
ENDBRANCH  10  18
ENDBRANCH   8   9
ENDBRANCH   5   8
ENDBRANCH   3   4
ENDBRANCH   2   3
ENDBRANCH   1   2
BRANCH   1  31
ATOM     31  C   UNL A   1      32.914  27.632  26.311  1.00  0.00     0.002 C 
BRANCH  31  32
ATOM     32  C   UNL A   1      33.827  28.766  25.836  1.00  0.00     0.021 C 
BRANCH  32  33
ATOM     33  C   UNL A   1      34.492  29.566  26.952  1.00  0.00     0.116 C 
BRANCH  33  34
ATOM     34  N   UNL A   1      34.064  30.956  26.960  1.00  0.00    -0.352 N 
ATOM     35  C   UNL A   1      34.459  31.981  27.783  1.00  0.00     0.251 C 
ATOM     36  H   UNL A   1      33.397  31.195  26.277  1.00  0.00     0.163 HD
ATOM     37  O   UNL A   1      33.854  33.050  27.765  1.00  0.00    -0.269 OA
BRANCH  35  38
ATOM     38  C   UNL A   1      35.605  31.793  28.700  1.00  0.00     0.039 A 
ATOM     39  C   UNL A   1      35.543  30.781  29.662  1.00  0.00     0.014 A 
ATOM     40  C   UNL A   1      36.732  32.616  28.618  1.00  0.00     0.014 A 
ATOM     41  C   UNL A   1      36.633  30.559  30.507  1.00  0.00     0.010 A 
ATOM     42  C   UNL A   1      37.843  32.351  29.415  1.00  0.00     0.010 A 
ATOM     43  C   UNL A   1      37.804  31.325  30.371  1.00  0.00    -0.014 A 
BRANCH  43  44
ATOM     44  C   UNL A   1      38.999  31.061  31.212  1.00  0.00     0.031 A 
ATOM     45  C   UNL A   1      40.095  30.158  30.713  1.00  0.00     0.074 A 
ATOM     46  C   UNL A   1      39.055  31.559  32.463  1.00  0.00     0.049 A 
ATOM     47  N   UNL A   1      41.181  29.763  31.325  1.00  0.00    -0.248 NA
ATOM     48  C   UNL A   1      39.936  29.604  29.358  1.00  0.00     0.031 C 
ATOM     49  C   UNL A   1      38.020  32.379  33.094  1.00  0.00     0.029 A 
ATOM     50  N   UNL A   1      40.011  31.423  33.440  1.00  0.00    -0.354 N 
ATOM     51  C   UNL A   1      41.814  28.888  30.451  1.00  0.00     0.074 A 
ATOM     52  C   UNL A   1      40.976  28.785  29.276  1.00  0.00     0.031 C 
ATOM     53  C   UNL A   1      38.394  32.673  34.349  1.00  0.00     0.029 A 
ATOM     54  C   UNL A   1      39.683  32.043  34.623  1.00  0.00     0.049 A 
ATOM     55  H   UNL A   1      40.852  30.929  33.305  1.00  0.00     0.167 HD
ATOM     56  C   UNL A   1      43.001  28.251  30.597  1.00  0.00     0.034 A 
ATOM     57  C   UNL A   1      40.342  32.096  35.797  1.00  0.00     0.034 A 
ATOM     58  C   UNL A   1      43.856  28.396  31.744  1.00  0.00     0.049 A 
ATOM     59  C   UNL A   1      41.684  31.425  35.914  1.00  0.00     0.074 A 
ATOM     60  C   UNL A   1      45.122  27.871  31.945  1.00  0.00     0.029 A 
ATOM     61  N   UNL A   1      43.537  29.114  32.885  1.00  0.00    -0.354 N 
ATOM     62  N   UNL A   1      42.344  30.739  35.013  1.00  0.00    -0.248 NA
ATOM     63  C   UNL A   1      42.388  31.565  37.197  1.00  0.00     0.031 C 
ATOM     64  C   UNL A   1      45.559  28.259  33.216  1.00  0.00     0.029 A 
ATOM     65  C   UNL A   1      44.574  29.042  33.799  1.00  0.00     0.049 A 
ATOM     66  H   UNL A   1      42.694  29.605  33.025  1.00  0.00     0.167 HD
ATOM     67  C   UNL A   1      43.554  30.398  35.605  1.00  0.00     0.074 A 
ATOM     68  C   UNL A   1      43.544  30.969  36.936  1.00  0.00     0.031 C 
ATOM     69  C   UNL A   1      44.575  29.663  35.098  1.00  0.00     0.034 A 
BRANCH  56  70
ATOM     70  C   UNL A   1      43.476  27.385  29.460  1.00  0.00     0.023 A 
ATOM     71  C   UNL A   1      43.036  26.048  29.377  1.00  0.00     0.012 A 
ATOM     72  C   UNL A   1      44.306  27.902  28.447  1.00  0.00     0.148 A 
ATOM     73  C   UNL A   1      43.441  25.230  28.324  1.00  0.00     0.002 A 
ATOM     74  C   UNL A   1      44.672  27.093  27.377  1.00  0.00     0.091 A 
ATOM     75  F   UNL A   1      44.734  29.169  28.554  1.00  0.00    -0.205 F 
ATOM     76  C   UNL A   1      44.249  25.755  27.320  1.00  0.00     0.022 A 
BRANCH  74  77
ATOM     77  S   UNL A   1      45.649  27.699  25.996  1.00  0.00     0.127 S 
ATOM     78  O   UNL A   1      46.997  27.686  26.561  1.00  0.00    -0.237 OA
ATOM     79  O   UNL A   1      45.406  26.679  24.974  1.00  0.00    -0.237 OA
ATOM     80  O   UNL A   1      45.115  29.015  25.676  1.00  0.00    -0.744 OA
ENDBRANCH  74  77
ENDBRANCH  56  70
BRANCH  57  81
ATOM     81  C   UNL A   1      39.774  32.878  36.931  1.00  0.00     0.023 A 
ATOM     82  C   UNL A   1      40.194  34.208  37.128  1.00  0.00     0.012 A 
ATOM     83  C   UNL A   1      38.799  32.331  37.786  1.00  0.00     0.148 A 
ATOM     84  C   UNL A   1      39.674  34.970  38.176  1.00  0.00     0.002 A 
ATOM     85  C   UNL A   1      38.245  33.113  38.794  1.00  0.00     0.091 A 
ATOM     86  F   UNL A   1      38.422  31.060  37.589  1.00  0.00    -0.205 F 
ATOM     87  C   UNL A   1      38.693  34.427  39.000  1.00  0.00     0.022 A 
BRANCH  85  88
ATOM     88  S   UNL A   1      36.882  32.541  39.814  1.00  0.00     0.127 S 
ATOM     89  O   UNL A   1      35.795  32.454  38.842  1.00  0.00    -0.237 OA
ATOM     90  O   UNL A   1      37.383  31.253  40.295  1.00  0.00    -0.237 OA
ATOM     91  O   UNL A   1      36.724  33.547  40.856  1.00  0.00    -0.744 OA
ENDBRANCH  85  88
ENDBRANCH  57  81
BRANCH  69  92
ATOM     92  C   UNL A   1      45.786  29.453  35.970  1.00  0.00     0.023 A 
ATOM     93  C   UNL A   1      46.845  30.380  35.927  1.00  0.00     0.012 A 
ATOM     94  C   UNL A   1      45.838  28.384  36.885  1.00  0.00     0.148 A 
ATOM     95  C   UNL A   1      47.953  30.230  36.761  1.00  0.00     0.002 A 
ATOM     96  C   UNL A   1      46.924  28.266  37.746  1.00  0.00     0.091 A 
ATOM     97  F   UNL A   1      44.829  27.500  36.896  1.00  0.00    -0.205 F 
ATOM     98  C   UNL A   1      47.986  29.182  37.678  1.00  0.00     0.022 A 
BRANCH  96  99
ATOM     99  S   UNL A   1      47.005  27.003  39.020  1.00  0.00     0.127 S 
ATOM    100  O   UNL A   1      48.376  26.519  38.873  1.00  0.00    -0.237 OA
ATOM    101  O   UNL A   1      46.758  27.774  40.240  1.00  0.00    -0.237 OA
ATOM    102  O   UNL A   1      45.962  26.040  38.696  1.00  0.00    -0.744 OA
ENDBRANCH  96  99
ENDBRANCH  69  92
ENDBRANCH  43  44
ENDBRANCH  35  38
ENDBRANCH  33  34
ENDBRANCH  32  33
ENDBRANCH  31  32
ENDBRANCH   1  31
TORSDOF 21
ENDMDL
