MODEL 1
REMARK VINA RESULT:     -11.9      0.000      0.000
REMARK SMILES Cc1ccc(NC(=O)C[C@@H](C(=O)NCCCCCCNC(=O)c2ccc(-c3c4nc(c(-c5cccc(S(=O)(=O)[O-])c5F)c5ccc([nH]5)c(-c5cccc(S(=O)(=O)[O-])c5F)c5nc(c(-c6cccc(S(=O)(=O)[O-])c6F)c6ccc3[nH]6)C=C5)C=C4)cc2)[NH+]2CCOCC2)cc1
REMARK SMILES IDX 16 1 15 2 14 3 13 4 11 5 12 6 10 8 9 9 7 10 6 11 8 13 5 14
REMARK SMILES IDX 1 15 2 16 3 17 93 18 4 19 92 20 86 21 87 22 91 23 88 25
REMARK SMILES IDX 90 26 89 27 17 28 18 29 19 30 20 31 21 32 22 34 23 35 24 36
REMARK SMILES IDX 85 37 25 38 84 39 26 40 27 41 28 42 78 43 29 44 83 45 77 46
REMARK SMILES IDX 79 47 30 48 82 49 76 50 75 51 31 53 63 54 43 55 62 56 44 57
REMARK SMILES IDX 47 58 61 59 80 60 45 61 46 62 60 64 81 65 48 66 32 67 33 68
REMARK SMILES IDX 41 69 34 70 36 71 42 72 35 73 37 74 38 75 39 76 40 77 64 78
REMARK SMILES IDX 65 79 73 80 66 81 68 82 74 83 67 84 69 85 70 86 71 87 72 88
REMARK SMILES IDX 49 89 50 90 58 91 51 92 53 93 59 94 52 95 54 96 55 97 56 98
REMARK SMILES IDX 57 99
REMARK H PARENT 13 7 6 12 86 24 20 33 79 52 47 63
REMARK Flexibility Score: inf
ROOT
ATOM      1  C   UNL A   1      32.114  27.396  26.718  1.00  0.00     0.002 C 
ENDROOT
BRANCH   1   2
ATOM      2  C   UNL A   1      30.956  26.567  26.134  1.00  0.00     0.021 C 
BRANCH   2   3
ATOM      3  C   UNL A   1      31.029  25.055  26.377  1.00  0.00     0.116 C 
BRANCH   3   4
ATOM      4  N   UNL A   1      30.881  24.324  25.138  1.00  0.00    -0.351 N 
ATOM      5  C   UNL A   1      31.701  24.060  24.096  1.00  0.00     0.278 C 
ATOM      6  O   UNL A   1      31.167  23.391  23.200  1.00  0.00    -0.268 OA
ATOM      7  H   UNL A   1      29.985  23.931  25.031  1.00  0.00     0.163 HD
BRANCH   5   8
ATOM      8  C   UNL A   1      33.227  24.417  24.082  1.00  0.00     0.283 C 
BRANCH   8   9
ATOM      9  C   UNL A   1      33.680  25.463  23.042  1.00  0.00     0.175 C 
BRANCH   9  10
ATOM     10  C   UNL A   1      32.935  25.648  21.746  1.00  0.00     0.230 C 
ATOM     11  N   UNL A   1      31.860  26.478  21.613  1.00  0.00    -0.326 N 
ATOM     12  H   UNL A   1      31.349  26.362  20.781  1.00  0.00     0.169 HD
ATOM     13  O   UNL A   1      33.314  25.030  20.745  1.00  0.00    -0.274 OA
BRANCH  11  14
ATOM     14  C   UNL A   1      31.365  27.472  22.473  1.00  0.00     0.041 A 
ATOM     15  C   UNL A   1      29.506  30.962  24.135  1.00  0.00     0.044 C 
ATOM     16  C   UNL A   1      30.138  29.681  23.683  1.00  0.00    -0.051 A 
ATOM     17  C   UNL A   1      31.530  29.575  23.647  1.00  0.00     0.005 A 
ATOM     18  C   UNL A   1      29.365  28.612  23.225  1.00  0.00     0.005 A 
ATOM     19  C   UNL A   1      32.140  28.470  23.054  1.00  0.00     0.026 A 
ATOM     20  C   UNL A   1      29.979  27.497  22.652  1.00  0.00     0.026 A 
ENDBRANCH  11  14
ENDBRANCH   9  10
ENDBRANCH   8   9
BRANCH   8  21
ATOM     21  N   UNL A   1      33.981  23.129  23.940  1.00  0.00    -0.320 N 
ATOM     22  C   UNL A   1      33.842  22.192  25.071  1.00  0.00     0.291 C 
ATOM     23  C   UNL A   1      35.341  23.089  23.397  1.00  0.00     0.291 C 
ATOM     24  H   UNL A   1      33.440  22.805  23.137  1.00  0.00     0.348 HD
ATOM     25  C   UNL A   1      35.000  22.253  26.074  1.00  0.00     0.221 C 
ATOM     26  C   UNL A   1      36.463  23.077  24.442  1.00  0.00     0.221 C 
ATOM     27  O   UNL A   1      36.260  22.057  25.425  1.00  0.00    -0.370 OA
ENDBRANCH   8  21
ENDBRANCH   5   8
ENDBRANCH   3   4
ENDBRANCH   2   3
ENDBRANCH   1   2
BRANCH   1  28
ATOM     28  C   UNL A   1      31.718  28.667  27.479  1.00  0.00     0.002 C 
BRANCH  28  29
ATOM     29  C   UNL A   1      32.479  29.934  27.088  1.00  0.00     0.021 C 
BRANCH  29  30
ATOM     30  C   UNL A   1      33.969  29.714  26.906  1.00  0.00     0.116 C 
BRANCH  30  31
ATOM     31  N   UNL A   1      34.771  30.872  27.219  1.00  0.00    -0.352 N 
ATOM     32  C   UNL A   1      35.953  30.954  27.921  1.00  0.00     0.251 C 
ATOM     33  H   UNL A   1      34.422  31.728  26.881  1.00  0.00     0.163 HD
ATOM     34  O   UNL A   1      36.271  32.073  28.337  1.00  0.00    -0.269 OA
BRANCH  32  35
ATOM     35  C   UNL A   1      36.896  29.804  28.030  1.00  0.00     0.039 A 
ATOM     36  C   UNL A   1      37.058  29.224  29.299  1.00  0.00     0.014 A 
ATOM     37  C   UNL A   1      37.782  29.450  27.016  1.00  0.00     0.014 A 
ATOM     38  C   UNL A   1      38.223  28.529  29.611  1.00  0.00     0.010 A 
ATOM     39  C   UNL A   1      38.975  28.849  27.337  1.00  0.00     0.010 A 
ATOM     40  C   UNL A   1      39.220  28.463  28.653  1.00  0.00    -0.014 A 
BRANCH  40  41
ATOM     41  C   UNL A   1      40.574  28.005  28.873  1.00  0.00     0.031 A 
ATOM     42  C   UNL A   1      40.874  26.572  28.754  1.00  0.00     0.074 A 
ATOM     43  C   UNL A   1      41.543  28.944  28.869  1.00  0.00     0.049 A 
ATOM     44  N   UNL A   1      42.036  26.070  28.969  1.00  0.00    -0.248 NA
ATOM     45  C   UNL A   1      39.864  25.577  28.395  1.00  0.00     0.031 C 
ATOM     46  C   UNL A   1      42.951  28.800  28.520  1.00  0.00     0.029 A 
ATOM     47  N   UNL A   1      41.471  30.245  29.330  1.00  0.00    -0.354 N 
ATOM     48  C   UNL A   1      42.015  24.799  28.449  1.00  0.00     0.074 A 
ATOM     49  C   UNL A   1      40.623  24.484  28.263  1.00  0.00     0.031 C 
ATOM     50  C   UNL A   1      43.632  29.859  28.996  1.00  0.00     0.029 A 
ATOM     51  C   UNL A   1      42.715  30.598  29.850  1.00  0.00     0.049 A 
ATOM     52  H   UNL A   1      40.675  30.823  29.298  1.00  0.00     0.167 HD
ATOM     53  C   UNL A   1      43.195  24.247  28.063  1.00  0.00     0.034 A 
ATOM     54  C   UNL A   1      42.877  30.738  31.206  1.00  0.00     0.034 A 
ATOM     55  C   UNL A   1      44.326  25.014  28.601  1.00  0.00     0.049 A 
ATOM     56  C   UNL A   1      43.827  29.714  31.813  1.00  0.00     0.074 A 
ATOM     57  C   UNL A   1      45.232  25.896  28.041  1.00  0.00     0.029 A 
ATOM     58  N   UNL A   1      44.447  25.155  29.985  1.00  0.00    -0.354 N 
ATOM     59  N   UNL A   1      44.235  28.634  31.201  1.00  0.00    -0.248 NA
ATOM     60  C   UNL A   1      44.417  29.841  33.143  1.00  0.00     0.031 C 
ATOM     61  C   UNL A   1      45.782  26.679  29.099  1.00  0.00     0.029 A 
ATOM     62  C   UNL A   1      45.260  26.231  30.302  1.00  0.00     0.049 A 
ATOM     63  H   UNL A   1      44.013  24.569  30.646  1.00  0.00     0.167 HD
ATOM     64  C   UNL A   1      45.021  27.885  32.033  1.00  0.00     0.074 A 
ATOM     65  C   UNL A   1      45.159  28.721  33.215  1.00  0.00     0.031 C 
ATOM     66  C   UNL A   1      45.449  26.626  31.697  1.00  0.00     0.034 A 
BRANCH  53  67
ATOM     67  C   UNL A   1      43.343  23.135  27.044  1.00  0.00     0.023 A 
ATOM     68  C   UNL A   1      44.042  23.441  25.856  1.00  0.00     0.012 A 
ATOM     69  C   UNL A   1      42.748  21.847  27.103  1.00  0.00     0.148 A 
ATOM     70  C   UNL A   1      44.149  22.531  24.797  1.00  0.00     0.002 A 
ATOM     71  C   UNL A   1      42.924  20.912  26.078  1.00  0.00     0.091 A 
ATOM     72  F   UNL A   1      41.907  21.535  28.093  1.00  0.00    -0.205 F 
ATOM     73  C   UNL A   1      43.609  21.257  24.914  1.00  0.00     0.022 A 
BRANCH  71  74
ATOM     74  S   UNL A   1      42.306  19.221  26.205  1.00  0.00     0.127 S 
ATOM     75  O   UNL A   1      42.463  18.938  27.630  1.00  0.00    -0.237 OA
ATOM     76  O   UNL A   1      40.917  19.359  25.762  1.00  0.00    -0.237 OA
ATOM     77  O   UNL A   1      43.138  18.421  25.314  1.00  0.00    -0.744 OA
ENDBRANCH  71  74
ENDBRANCH  53  67
BRANCH  54  78
ATOM     78  C   UNL A   1      41.649  31.295  31.868  1.00  0.00     0.023 A 
ATOM     79  C   UNL A   1      41.217  32.568  31.413  1.00  0.00     0.012 A 
ATOM     80  C   UNL A   1      40.726  30.473  32.543  1.00  0.00     0.148 A 
ATOM     81  C   UNL A   1      39.868  32.922  31.447  1.00  0.00     0.002 A 
ATOM     82  C   UNL A   1      39.382  30.854  32.604  1.00  0.00     0.091 A 
ATOM     83  F   UNL A   1      41.153  29.316  33.064  1.00  0.00    -0.205 F 
ATOM     84  C   UNL A   1      38.944  32.045  32.003  1.00  0.00     0.022 A 
BRANCH  82  85
ATOM     85  S   UNL A   1      38.137  29.799  33.364  1.00  0.00     0.127 S 
ATOM     86  O   UNL A   1      38.324  30.099  34.781  1.00  0.00    -0.237 OA
ATOM     87  O   UNL A   1      36.888  30.307  32.795  1.00  0.00    -0.237 OA
ATOM     88  O   UNL A   1      38.475  28.449  32.940  1.00  0.00    -0.744 OA
ENDBRANCH  82  85
ENDBRANCH  54  78
BRANCH  66  89
ATOM     89  C   UNL A   1      46.083  25.641  32.665  1.00  0.00     0.023 A 
ATOM     90  C   UNL A   1      47.450  25.692  33.001  1.00  0.00     0.012 A 
ATOM     91  C   UNL A   1      45.286  24.719  33.394  1.00  0.00     0.148 A 
ATOM     92  C   UNL A   1      48.018  24.828  33.944  1.00  0.00     0.002 A 
ATOM     93  C   UNL A   1      45.835  23.942  34.412  1.00  0.00     0.091 A 
ATOM     94  F   UNL A   1      43.988  24.573  33.093  1.00  0.00    -0.205 F 
ATOM     95  C   UNL A   1      47.207  23.966  34.666  1.00  0.00     0.022 A 
BRANCH  93  96
ATOM     96  S   UNL A   1      44.784  23.005  35.534  1.00  0.00     0.127 S 
ATOM     97  O   UNL A   1      44.337  21.904  34.684  1.00  0.00    -0.237 OA
ATOM     98  O   UNL A   1      45.720  22.615  36.591  1.00  0.00    -0.237 OA
ATOM     99  O   UNL A   1      43.756  23.942  35.967  1.00  0.00    -0.744 OA
ENDBRANCH  93  96
ENDBRANCH  66  89
ENDBRANCH  40  41
ENDBRANCH  32  35
ENDBRANCH  30  31
ENDBRANCH  29  30
ENDBRANCH  28  29
ENDBRANCH   1  28
TORSDOF 20
ENDMDL
MODEL 2
REMARK VINA RESULT:     -11.2      1.879      3.407
REMARK SMILES Cc1ccc(NC(=O)C[C@@H](C(=O)NCCCCCCNC(=O)c2ccc(-c3c4nc(c(-c5cccc(S(=O)(=O)[O-])c5F)c5ccc([nH]5)c(-c5cccc(S(=O)(=O)[O-])c5F)c5nc(c(-c6cccc(S(=O)(=O)[O-])c6F)c6ccc3[nH]6)C=C5)C=C4)cc2)[NH+]2CCOCC2)cc1
REMARK SMILES IDX 16 1 15 2 14 3 13 4 11 5 12 6 10 8 9 9 7 10 6 11 8 13 5 14
REMARK SMILES IDX 1 15 2 16 3 17 93 18 4 19 92 20 86 21 87 22 91 23 88 25
REMARK SMILES IDX 90 26 89 27 17 28 18 29 19 30 20 31 21 32 22 34 23 35 24 36
REMARK SMILES IDX 85 37 25 38 84 39 26 40 27 41 28 42 78 43 29 44 83 45 77 46
REMARK SMILES IDX 79 47 30 48 82 49 76 50 75 51 31 53 63 54 43 55 62 56 44 57
REMARK SMILES IDX 47 58 61 59 80 60 45 61 46 62 60 64 81 65 48 66 32 67 33 68
REMARK SMILES IDX 41 69 34 70 36 71 42 72 35 73 37 74 38 75 39 76 40 77 64 78
REMARK SMILES IDX 65 79 73 80 66 81 68 82 74 83 67 84 69 85 70 86 71 87 72 88
REMARK SMILES IDX 49 89 50 90 58 91 51 92 53 93 59 94 52 95 54 96 55 97 56 98
REMARK SMILES IDX 57 99
REMARK H PARENT 13 7 6 12 86 24 20 33 79 52 47 63
REMARK Flexibility Score: inf
ROOT
ATOM      1  C   UNL A   1      32.488  27.122  26.452  1.00  0.00     0.002 C 
ENDROOT
BRANCH   1   2
ATOM      2  C   UNL A   1      31.236  27.072  25.558  1.00  0.00     0.021 C 
BRANCH   2   3
ATOM      3  C   UNL A   1      30.231  25.959  25.880  1.00  0.00     0.116 C 
BRANCH   3   4
ATOM      4  N   UNL A   1      30.004  25.118  24.727  1.00  0.00    -0.351 N 
ATOM      5  C   UNL A   1      30.745  24.195  24.073  1.00  0.00     0.278 C 
ATOM      6  O   UNL A   1      30.171  23.698  23.094  1.00  0.00    -0.268 OA
ATOM      7  H   UNL A   1      29.112  25.244  24.330  1.00  0.00     0.163 HD
BRANCH   5   8
ATOM      8  C   UNL A   1      32.132  23.675  24.587  1.00  0.00     0.283 C 
BRANCH   8   9
ATOM      9  C   UNL A   1      33.106  23.139  23.517  1.00  0.00     0.175 C 
BRANCH   9  10
ATOM     10  C   UNL A   1      34.082  24.052  22.823  1.00  0.00     0.230 C 
ATOM     11  N   UNL A   1      35.374  24.215  23.231  1.00  0.00    -0.326 N 
ATOM     12  H   UNL A   1      35.844  24.975  22.821  1.00  0.00     0.169 HD
ATOM     13  O   UNL A   1      33.708  24.681  21.827  1.00  0.00    -0.274 OA
BRANCH  11  14
ATOM     14  C   UNL A   1      36.142  23.473  24.143  1.00  0.00     0.041 A 
ATOM     15  C   UNL A   1      39.288  21.920  26.610  1.00  0.00     0.044 C 
ATOM     16  C   UNL A   1      38.097  22.403  25.841  1.00  0.00    -0.051 A 
ATOM     17  C   UNL A   1      37.668  21.692  24.719  1.00  0.00     0.005 A 
ATOM     18  C   UNL A   1      37.448  23.592  26.179  1.00  0.00     0.005 A 
ATOM     19  C   UNL A   1      36.687  22.221  23.879  1.00  0.00     0.026 A 
ATOM     20  C   UNL A   1      36.451  24.108  25.349  1.00  0.00     0.026 A 
ENDBRANCH  11  14
ENDBRANCH   9  10
ENDBRANCH   8   9
BRANCH   8  21
ATOM     21  N   UNL A   1      31.855  22.652  25.648  1.00  0.00    -0.320 N 
ATOM     22  C   UNL A   1      32.209  23.060  27.021  1.00  0.00     0.291 C 
ATOM     23  C   UNL A   1      32.140  21.231  25.439  1.00  0.00     0.291 C 
ATOM     24  H   UNL A   1      30.843  22.671  25.518  1.00  0.00     0.348 HD
ATOM     25  C   UNL A   1      33.573  22.542  27.491  1.00  0.00     0.221 C 
ATOM     26  C   UNL A   1      33.484  20.744  25.993  1.00  0.00     0.221 C 
ATOM     27  O   UNL A   1      33.660  21.120  27.363  1.00  0.00    -0.370 OA
ENDBRANCH   8  21
ENDBRANCH   5   8
ENDBRANCH   3   4
ENDBRANCH   2   3
ENDBRANCH   1   2
BRANCH   1  28
ATOM     28  C   UNL A   1      32.439  28.102  27.629  1.00  0.00     0.002 C 
BRANCH  28  29
ATOM     29  C   UNL A   1      32.244  29.572  27.255  1.00  0.00     0.021 C 
BRANCH  29  30
ATOM     30  C   UNL A   1      33.486  30.219  26.671  1.00  0.00     0.116 C 
BRANCH  30  31
ATOM     31  N   UNL A   1      34.023  31.285  27.482  1.00  0.00    -0.352 N 
ATOM     32  C   UNL A   1      34.978  31.234  28.473  1.00  0.00     0.251 C 
ATOM     33  H   UNL A   1      33.654  32.179  27.299  1.00  0.00     0.163 HD
ATOM     34  O   UNL A   1      35.031  32.202  29.238  1.00  0.00    -0.269 OA
BRANCH  32  35
ATOM     35  C   UNL A   1      36.014  30.162  28.527  1.00  0.00     0.039 A 
ATOM     36  C   UNL A   1      36.230  29.539  29.767  1.00  0.00     0.014 A 
ATOM     37  C   UNL A   1      36.921  29.931  27.496  1.00  0.00     0.014 A 
ATOM     38  C   UNL A   1      37.450  28.930  30.044  1.00  0.00     0.010 A 
ATOM     39  C   UNL A   1      38.161  29.417  27.787  1.00  0.00     0.010 A 
ATOM     40  C   UNL A   1      38.445  28.992  29.083  1.00  0.00    -0.014 A 
BRANCH  40  41
ATOM     41  C   UNL A   1      39.833  28.638  29.280  1.00  0.00     0.031 A 
ATOM     42  C   UNL A   1      40.259  27.252  29.046  1.00  0.00     0.074 A 
ATOM     43  C   UNL A   1      40.715  29.656  29.364  1.00  0.00     0.049 A 
ATOM     44  N   UNL A   1      41.461  26.838  29.232  1.00  0.00    -0.248 NA
ATOM     45  C   UNL A   1      39.344  26.205  28.595  1.00  0.00     0.031 C 
ATOM     46  C   UNL A   1      42.131  29.666  29.020  1.00  0.00     0.029 A 
ATOM     47  N   UNL A   1      40.526  30.902  29.929  1.00  0.00    -0.354 N 
ATOM     48  C   UNL A   1      41.555  25.618  28.608  1.00  0.00     0.074 A 
ATOM     49  C   UNL A   1      40.197  25.198  28.382  1.00  0.00     0.031 C 
ATOM     50  C   UNL A   1      42.713  30.738  29.589  1.00  0.00     0.029 A 
ATOM     51  C   UNL A   1      41.731  31.320  30.491  1.00  0.00     0.049 A 
ATOM     52  H   UNL A   1      39.681  31.409  29.936  1.00  0.00     0.167 HD
ATOM     53  C   UNL A   1      42.780  25.207  28.192  1.00  0.00     0.034 A 
ATOM     54  C   UNL A   1      41.875  31.360  31.855  1.00  0.00     0.034 A 
ATOM     55  C   UNL A   1      43.837  26.023  28.804  1.00  0.00     0.049 A 
ATOM     56  C   UNL A   1      42.911  30.377  32.386  1.00  0.00     0.074 A 
ATOM     57  C   UNL A   1      44.663  27.024  28.329  1.00  0.00     0.029 A 
ATOM     58  N   UNL A   1      43.940  26.058  30.196  1.00  0.00    -0.354 N 
ATOM     59  N   UNL A   1      43.415  29.392  31.692  1.00  0.00    -0.248 NA
ATOM     60  C   UNL A   1      43.481  30.445  33.729  1.00  0.00     0.031 C 
ATOM     61  C   UNL A   1      45.137  27.762  29.453  1.00  0.00     0.029 A 
ATOM     62  C   UNL A   1      44.652  27.172  30.610  1.00  0.00     0.049 A 
ATOM     63  H   UNL A   1      43.556  25.384  30.801  1.00  0.00     0.167 HD
ATOM     64  C   UNL A   1      44.261  28.648  32.469  1.00  0.00     0.074 A 
ATOM     65  C   UNL A   1      44.320  29.392  33.717  1.00  0.00     0.031 C 
ATOM     66  C   UNL A   1      44.801  27.465  32.035  1.00  0.00     0.034 A 
BRANCH  53  67
ATOM     67  C   UNL A   1      43.031  24.200  27.087  1.00  0.00     0.023 A 
ATOM     68  C   UNL A   1      43.494  24.704  25.852  1.00  0.00     0.012 A 
ATOM     69  C   UNL A   1      42.733  22.811  27.121  1.00  0.00     0.148 A 
ATOM     70  C   UNL A   1      43.656  23.887  24.725  1.00  0.00     0.002 A 
ATOM     71  C   UNL A   1      42.972  21.984  26.020  1.00  0.00     0.091 A 
ATOM     72  F   UNL A   1      42.109  22.280  28.176  1.00  0.00    -0.205 F 
ATOM     73  C   UNL A   1      43.417  22.523  24.812  1.00  0.00     0.022 A 
BRANCH  71  74
ATOM     74  S   UNL A   1      42.746  20.196  26.095  1.00  0.00     0.127 S 
ATOM     75  O   UNL A   1      41.639  19.983  25.164  1.00  0.00    -0.237 OA
ATOM     76  O   UNL A   1      44.039  19.694  25.628  1.00  0.00    -0.237 OA
ATOM     77  O   UNL A   1      42.456  19.885  27.490  1.00  0.00    -0.744 OA
ENDBRANCH  71  74
ENDBRANCH  53  67
BRANCH  54  78
ATOM     78  C   UNL A   1      40.600  31.750  32.547  1.00  0.00     0.023 A 
ATOM     79  C   UNL A   1      39.648  30.714  32.733  1.00  0.00     0.012 A 
ATOM     80  C   UNL A   1      40.511  32.899  33.356  1.00  0.00     0.148 A 
ATOM     81  C   UNL A   1      38.771  30.733  33.819  1.00  0.00     0.002 A 
ATOM     82  C   UNL A   1      39.603  32.924  34.419  1.00  0.00     0.091 A 
ATOM     83  F   UNL A   1      41.341  33.922  33.117  1.00  0.00    -0.205 F 
ATOM     84  C   UNL A   1      38.780  31.818  34.686  1.00  0.00     0.022 A 
BRANCH  82  85
ATOM     85  S   UNL A   1      39.512  34.322  35.549  1.00  0.00     0.127 S 
ATOM     86  O   UNL A   1      39.265  35.428  34.628  1.00  0.00    -0.237 OA
ATOM     87  O   UNL A   1      38.374  33.977  36.403  1.00  0.00    -0.237 OA
ATOM     88  O   UNL A   1      40.791  34.332  36.242  1.00  0.00    -0.744 OA
ENDBRANCH  82  85
ENDBRANCH  54  78
BRANCH  66  89
ATOM     89  C   UNL A   1      45.515  26.463  32.925  1.00  0.00     0.023 A 
ATOM     90  C   UNL A   1      46.839  26.660  33.367  1.00  0.00     0.012 A 
ATOM     91  C   UNL A   1      44.823  25.353  33.478  1.00  0.00     0.148 A 
ATOM     92  C   UNL A   1      47.472  25.771  34.242  1.00  0.00     0.002 A 
ATOM     93  C   UNL A   1      45.420  24.536  34.436  1.00  0.00     0.091 A 
ATOM     94  F   UNL A   1      43.580  25.067  33.064  1.00  0.00    -0.205 F 
ATOM     95  C   UNL A   1      46.756  24.719  34.794  1.00  0.00     0.022 A 
BRANCH  93  96
ATOM     96  S   UNL A   1      44.456  23.327  35.357  1.00  0.00     0.127 S 
ATOM     97  O   UNL A   1      45.387  22.936  36.412  1.00  0.00    -0.237 OA
ATOM     98  O   UNL A   1      43.313  24.119  35.817  1.00  0.00    -0.237 OA
ATOM     99  O   UNL A   1      44.112  22.295  34.388  1.00  0.00    -0.744 OA
ENDBRANCH  93  96
ENDBRANCH  66  89
ENDBRANCH  40  41
ENDBRANCH  32  35
ENDBRANCH  30  31
ENDBRANCH  29  30
ENDBRANCH  28  29
ENDBRANCH   1  28
TORSDOF 20
ENDMDL
MODEL 3
REMARK VINA RESULT:     -10.9      2.684      3.575
REMARK SMILES Cc1ccc(NC(=O)C[C@@H](C(=O)NCCCCCCNC(=O)c2ccc(-c3c4nc(c(-c5cccc(S(=O)(=O)[O-])c5F)c5ccc([nH]5)c(-c5cccc(S(=O)(=O)[O-])c5F)c5nc(c(-c6cccc(S(=O)(=O)[O-])c6F)c6ccc3[nH]6)C=C5)C=C4)cc2)[NH+]2CCOCC2)cc1
REMARK SMILES IDX 16 1 15 2 14 3 13 4 11 5 12 6 10 8 9 9 7 10 6 11 8 13 5 14
REMARK SMILES IDX 1 15 2 16 3 17 93 18 4 19 92 20 86 21 87 22 91 23 88 25
REMARK SMILES IDX 90 26 89 27 17 28 18 29 19 30 20 31 21 32 22 34 23 35 24 36
REMARK SMILES IDX 85 37 25 38 84 39 26 40 27 41 28 42 78 43 29 44 83 45 77 46
REMARK SMILES IDX 79 47 30 48 82 49 76 50 75 51 31 53 63 54 43 55 62 56 44 57
REMARK SMILES IDX 47 58 61 59 80 60 45 61 46 62 60 64 81 65 48 66 32 67 33 68
REMARK SMILES IDX 41 69 34 70 36 71 42 72 35 73 37 74 38 75 39 76 40 77 64 78
REMARK SMILES IDX 65 79 73 80 66 81 68 82 74 83 67 84 69 85 70 86 71 87 72 88
REMARK SMILES IDX 49 89 50 90 58 91 51 92 53 93 59 94 52 95 54 96 55 97 56 98
REMARK SMILES IDX 57 99
REMARK H PARENT 13 7 6 12 86 24 20 33 79 52 47 63
REMARK Flexibility Score: inf
ROOT
ATOM      1  C   UNL A   1      31.921  28.699  27.617  1.00  0.00     0.002 C 
ENDROOT
BRANCH   1   2
ATOM      2  C   UNL A   1      31.138  27.684  26.764  1.00  0.00     0.021 C 
BRANCH   2   3
ATOM      3  C   UNL A   1      31.917  26.438  26.326  1.00  0.00     0.116 C 
BRANCH   3   4
ATOM      4  N   UNL A   1      31.325  25.238  26.873  1.00  0.00    -0.351 N 
ATOM      5  C   UNL A   1      31.490  23.916  26.643  1.00  0.00     0.278 C 
ATOM      6  O   UNL A   1      30.757  23.195  27.334  1.00  0.00    -0.268 OA
ATOM      7  H   UNL A   1      30.653  25.426  27.568  1.00  0.00     0.163 HD
BRANCH   5   8
ATOM      8  C   UNL A   1      32.610  23.332  25.715  1.00  0.00     0.283 C 
BRANCH   8   9
ATOM      9  C   UNL A   1      32.464  23.606  24.203  1.00  0.00     0.175 C 
BRANCH   9  10
ATOM     10  C   UNL A   1      33.652  23.989  23.360  1.00  0.00     0.230 C 
ATOM     11  N   UNL A   1      33.700  25.127  22.608  1.00  0.00    -0.326 N 
ATOM     12  H   UNL A   1      34.439  25.162  21.960  1.00  0.00     0.169 HD
ATOM     13  O   UNL A   1      34.641  23.248  23.351  1.00  0.00    -0.274 OA
BRANCH  11  14
ATOM     14  C   UNL A   1      32.865  26.255  22.608  1.00  0.00     0.041 A 
ATOM     15  C   UNL A   1      30.388  29.576  23.720  1.00  0.00     0.044 C 
ATOM     16  C   UNL A   1      31.274  28.483  23.207  1.00  0.00    -0.051 A 
ATOM     17  C   UNL A   1      30.703  27.329  22.668  1.00  0.00     0.005 A 
ATOM     18  C   UNL A   1      32.664  28.561  23.321  1.00  0.00     0.005 A 
ATOM     19  C   UNL A   1      31.496  26.224  22.361  1.00  0.00     0.026 A 
ATOM     20  C   UNL A   1      33.458  27.460  22.992  1.00  0.00     0.026 A 
ENDBRANCH  11  14
ENDBRANCH   9  10
ENDBRANCH   8   9
BRANCH   8  21
ATOM     21  N   UNL A   1      32.705  21.864  26.006  1.00  0.00    -0.320 N 
ATOM     22  C   UNL A   1      33.970  21.428  26.627  1.00  0.00     0.291 C 
ATOM     23  C   UNL A   1      32.218  20.859  25.059  1.00  0.00     0.291 C 
ATOM     24  H   UNL A   1      31.950  21.868  26.693  1.00  0.00     0.348 HD
ATOM     25  C   UNL A   1      34.985  20.853  25.632  1.00  0.00     0.221 C 
ATOM     26  C   UNL A   1      33.286  20.258  24.135  1.00  0.00     0.221 C 
ATOM     27  O   UNL A   1      34.416  19.783  24.872  1.00  0.00    -0.370 OA
ENDBRANCH   8  21
ENDBRANCH   5   8
ENDBRANCH   3   4
ENDBRANCH   2   3
ENDBRANCH   1   2
BRANCH   1  28
ATOM     28  C   UNL A   1      33.064  29.435  26.909  1.00  0.00     0.002 C 
BRANCH  28  29
ATOM     29  C   UNL A   1      34.473  29.063  27.371  1.00  0.00     0.021 C 
BRANCH  29  30
ATOM     30  C   UNL A   1      35.385  30.262  27.559  1.00  0.00     0.116 C 
BRANCH  30  31
ATOM     31  N   UNL A   1      34.721  31.418  28.109  1.00  0.00    -0.352 N 
ATOM     32  C   UNL A   1      34.905  32.037  29.326  1.00  0.00     0.251 C 
ATOM     33  H   UNL A   1      34.036  31.824  27.530  1.00  0.00     0.163 HD
ATOM     34  O   UNL A   1      34.004  32.794  29.702  1.00  0.00    -0.269 OA
BRANCH  32  35
ATOM     35  C   UNL A   1      36.190  31.950  30.078  1.00  0.00     0.039 A 
ATOM     36  C   UNL A   1      37.317  32.552  29.495  1.00  0.00     0.014 A 
ATOM     37  C   UNL A   1      36.372  31.112  31.175  1.00  0.00     0.014 A 
ATOM     38  C   UNL A   1      38.597  32.116  29.827  1.00  0.00     0.010 A 
ATOM     39  C   UNL A   1      37.621  30.609  31.443  1.00  0.00     0.010 A 
ATOM     40  C   UNL A   1      38.717  31.057  30.711  1.00  0.00    -0.014 A 
BRANCH  40  41
ATOM     41  C   UNL A   1      39.930  30.318  30.982  1.00  0.00     0.031 A 
ATOM     42  C   UNL A   1      40.160  29.039  30.297  1.00  0.00     0.074 A 
ATOM     43  C   UNL A   1      40.923  30.985  31.607  1.00  0.00     0.049 A 
ATOM     44  N   UNL A   1      41.187  28.297  30.504  1.00  0.00    -0.248 NA
ATOM     45  C   UNL A   1      39.222  28.481  29.323  1.00  0.00     0.031 C 
ATOM     46  C   UNL A   1      42.361  30.756  31.537  1.00  0.00     0.029 A 
ATOM     47  N   UNL A   1      40.813  31.963  32.577  1.00  0.00    -0.354 N 
ATOM     48  C   UNL A   1      41.226  27.387  29.475  1.00  0.00     0.074 A 
ATOM     49  C   UNL A   1      39.917  27.430  28.877  1.00  0.00     0.031 C 
ATOM     50  C   UNL A   1      42.955  31.380  32.572  1.00  0.00     0.029 A 
ATOM     51  C   UNL A   1      41.892  31.841  33.451  1.00  0.00     0.049 A 
ATOM     52  H   UNL A   1      40.093  32.632  32.641  1.00  0.00     0.167 HD
ATOM     53  C   UNL A   1      42.428  26.850  29.143  1.00  0.00     0.034 A 
ATOM     54  C   UNL A   1      41.693  31.368  34.724  1.00  0.00     0.034 A 
ATOM     55  C   UNL A   1      43.420  27.108  30.194  1.00  0.00     0.049 A 
ATOM     56  C   UNL A   1      42.380  30.034  34.991  1.00  0.00     0.074 A 
ATOM     57  C   UNL A   1      44.497  27.969  30.297  1.00  0.00     0.029 A 
ATOM     58  N   UNL A   1      43.175  26.632  31.483  1.00  0.00    -0.354 N 
ATOM     59  N   UNL A   1      42.867  29.257  34.060  1.00  0.00    -0.248 NA
ATOM     60  C   UNL A   1      42.598  29.486  36.326  1.00  0.00     0.031 C 
ATOM     61  C   UNL A   1      44.792  28.126  31.684  1.00  0.00     0.029 A 
ATOM     62  C   UNL A   1      43.940  27.314  32.415  1.00  0.00     0.049 A 
ATOM     63  H   UNL A   1      42.542  25.910  31.700  1.00  0.00     0.167 HD
ATOM     64  C   UNL A   1      43.351  28.103  34.611  1.00  0.00     0.074 A 
ATOM     65  C   UNL A   1      43.221  28.327  36.042  1.00  0.00     0.031 C 
ATOM     66  C   UNL A   1      43.773  27.047  33.843  1.00  0.00     0.034 A 
BRANCH  53  67
ATOM     67  C   UNL A   1      42.773  26.261  27.789  1.00  0.00     0.023 A 
ATOM     68  C   UNL A   1      42.985  27.168  26.728  1.00  0.00     0.012 A 
ATOM     69  C   UNL A   1      42.786  24.883  27.443  1.00  0.00     0.148 A 
ATOM     70  C   UNL A   1      43.201  26.742  25.412  1.00  0.00     0.002 A 
ATOM     71  C   UNL A   1      43.082  24.458  26.144  1.00  0.00     0.091 A 
ATOM     72  F   UNL A   1      42.405  23.960  28.329  1.00  0.00    -0.205 F 
ATOM     73  C   UNL A   1      43.271  25.386  25.121  1.00  0.00     0.022 A 
BRANCH  71  74
ATOM     74  S   UNL A   1      43.256  22.712  25.722  1.00  0.00     0.127 S 
ATOM     75  O   UNL A   1      44.444  22.326  26.480  1.00  0.00    -0.237 OA
ATOM     76  O   UNL A   1      42.004  22.141  26.220  1.00  0.00    -0.237 OA
ATOM     77  O   UNL A   1      43.397  22.661  24.271  1.00  0.00    -0.744 OA
ENDBRANCH  71  74
ENDBRANCH  53  67
BRANCH  54  78
ATOM     78  C   UNL A   1      40.371  31.803  35.289  1.00  0.00     0.023 A 
ATOM     79  C   UNL A   1      39.279  30.924  35.070  1.00  0.00     0.012 A 
ATOM     80  C   UNL A   1      40.278  32.745  36.331  1.00  0.00     0.148 A 
ATOM     81  C   UNL A   1      38.224  30.849  35.981  1.00  0.00     0.002 A 
ATOM     82  C   UNL A   1      39.199  32.686  37.218  1.00  0.00     0.091 A 
ATOM     83  F   UNL A   1      41.260  33.643  36.479  1.00  0.00    -0.205 F 
ATOM     84  C   UNL A   1      38.208  31.701  37.079  1.00  0.00     0.022 A 
BRANCH  82  85
ATOM     85  S   UNL A   1      39.075  33.797  38.629  1.00  0.00     0.127 S 
ATOM     86  O   UNL A   1      37.830  33.348  39.247  1.00  0.00    -0.237 OA
ATOM     87  O   UNL A   1      40.281  33.486  39.396  1.00  0.00    -0.237 OA
ATOM     88  O   UNL A   1      39.065  35.135  38.056  1.00  0.00    -0.744 OA
ENDBRANCH  82  85
ENDBRANCH  54  78
BRANCH  66  89
ATOM     89  C   UNL A   1      44.060  25.653  34.374  1.00  0.00     0.023 A 
ATOM     90  C   UNL A   1      43.062  24.662  34.458  1.00  0.00     0.012 A 
ATOM     91  C   UNL A   1      45.386  25.242  34.666  1.00  0.00     0.148 A 
ATOM     92  C   UNL A   1      43.342  23.358  34.882  1.00  0.00     0.002 A 
ATOM     93  C   UNL A   1      45.677  23.915  34.977  1.00  0.00     0.091 A 
ATOM     94  F   UNL A   1      46.381  26.141  34.663  1.00  0.00    -0.205 F 
ATOM     95  C   UNL A   1      44.654  22.977  35.122  1.00  0.00     0.022 A 
BRANCH  93  96
ATOM     96  S   UNL A   1      47.377  23.328  35.047  1.00  0.00     0.127 S 
ATOM     97  O   UNL A   1      47.766  23.683  36.409  1.00  0.00    -0.237 OA
ATOM     98  O   UNL A   1      47.224  21.890  34.814  1.00  0.00    -0.237 OA
ATOM     99  O   UNL A   1      48.069  24.033  33.976  1.00  0.00    -0.744 OA
ENDBRANCH  93  96
ENDBRANCH  66  89
ENDBRANCH  40  41
ENDBRANCH  32  35
ENDBRANCH  30  31
ENDBRANCH  29  30
ENDBRANCH  28  29
ENDBRANCH   1  28
TORSDOF 20
ENDMDL
