MODEL 1
REMARK VINA RESULT:     -11.3      0.000      0.000
REMARK SMILES C[C@@H]1C[N@@H+](C[C@]2(C(=O)NCCCCCCNC(=O)c3ccc(-c4c5nc(c(-c6cccc(S(=O)(=O)[O-])c6F)c6ccc([nH]6)c(-c6cccc(S(=O)(=O)[O-])c6F)c6nc(c(-c7cccc(S(=O)(=O)[O-])c7F)c7ccc4[nH]7)C=C6)C=C5)cc3)CCOC2)C[C@@H]1C
REMARK SMILES IDX 13 1 12 2 11 3 10 4 9 5 7 6 8 7 6 9 82 10 85 11 83 12 84 13
REMARK SMILES IDX 5 14 4 15 1 16 2 17 3 18 87 19 86 20 88 21 14 23 15 24 16 25
REMARK SMILES IDX 17 26 18 28 19 29 20 30 81 31 21 32 80 33 22 34 23 35 24 36
REMARK SMILES IDX 74 37 25 38 79 39 73 40 75 41 26 42 78 43 72 44 71 45 27 47
REMARK SMILES IDX 59 48 39 49 58 50 40 51 43 52 57 53 76 54 41 55 42 56 56 58
REMARK SMILES IDX 77 59 44 60 28 61 29 62 37 63 30 64 32 65 38 66 31 67 33 68
REMARK SMILES IDX 34 69 35 70 36 71 60 72 61 73 69 74 62 75 64 76 70 77 63 78
REMARK SMILES IDX 65 79 66 80 67 81 68 82 45 83 46 84 54 85 47 86 49 87 55 88
REMARK SMILES IDX 48 89 50 90 51 91 52 92 53 93
REMARK H PARENT 9 8 4 22 16 27 75 46 43 57
REMARK Flexibility Score: inf
ROOT
ATOM      1  C   UNL A   1      31.894  30.358  26.633  1.00  0.00     0.002 C 
ENDROOT
BRANCH   1   2
ATOM      2  C   UNL A   1      33.103  29.755  27.354  1.00  0.00     0.002 C 
BRANCH   2   3
ATOM      3  C   UNL A   1      34.009  28.867  26.498  1.00  0.00     0.021 C 
BRANCH   3   4
ATOM      4  C   UNL A   1      33.858  29.050  24.994  1.00  0.00     0.116 C 
BRANCH   4   5
ATOM      5  N   UNL A   1      33.951  27.801  24.256  1.00  0.00    -0.355 N 
ATOM      6  C   UNL A   1      33.023  27.130  23.515  1.00  0.00     0.234 C 
ATOM      7  O   UNL A   1      33.441  26.184  22.841  1.00  0.00    -0.274 OA
ATOM      8  H   UNL A   1      34.833  27.367  24.297  1.00  0.00     0.163 HD
BRANCH   6   9
ATOM      9  C   UNL A   1      31.538  27.526  23.538  1.00  0.00     0.123 C 
ATOM     10  C   UNL A   1      30.707  26.502  22.753  1.00  0.00     0.054 C 
ATOM     11  C   UNL A   1      31.008  27.276  24.950  1.00  0.00     0.183 C 
ATOM     12  C   UNL A   1      29.412  26.375  23.520  1.00  0.00     0.161 C 
ATOM     13  O   UNL A   1      29.680  26.741  24.871  1.00  0.00    -0.380 OA
BRANCH   9  14
ATOM     14  C   UNL A   1      31.409  28.957  22.927  1.00  0.00     0.281 C 
BRANCH  14  15
ATOM     15  N   UNL A   1      30.157  29.676  22.901  1.00  0.00    -0.333 N 
ATOM     16  C   UNL A   1      28.031  31.876  20.824  1.00  0.00     0.014 C 
ATOM     17  C   UNL A   1      29.089  31.396  21.800  1.00  0.00     0.049 C 
ATOM     18  C   UNL A   1      29.406  29.911  21.689  1.00  0.00     0.265 C 
ATOM     19  C   UNL A   1      28.806  31.576  23.304  1.00  0.00     0.049 C 
ATOM     20  C   UNL A   1      29.784  30.586  23.961  1.00  0.00     0.265 C 
ATOM     21  C   UNL A   1      27.360  31.286  23.702  1.00  0.00     0.014 C 
ATOM     22  H   UNL A   1      29.875  28.738  23.181  1.00  0.00     0.348 HD
ENDBRANCH  14  15
ENDBRANCH   9  14
ENDBRANCH   6   9
ENDBRANCH   4   5
ENDBRANCH   3   4
ENDBRANCH   2   3
ENDBRANCH   1   2
BRANCH   1  23
ATOM     23  C   UNL A   1      31.673  31.856  26.845  1.00  0.00     0.021 C 
BRANCH  23  24
ATOM     24  C   UNL A   1      32.915  32.645  27.247  1.00  0.00     0.116 C 
BRANCH  24  25
ATOM     25  N   UNL A   1      32.609  34.017  27.619  1.00  0.00    -0.352 N 
ATOM     26  C   UNL A   1      33.151  34.787  28.620  1.00  0.00     0.251 C 
ATOM     27  H   UNL A   1      31.916  34.456  27.077  1.00  0.00     0.163 HD
ATOM     28  O   UNL A   1      32.660  35.878  28.887  1.00  0.00    -0.269 OA
BRANCH  26  29
ATOM     29  C   UNL A   1      34.311  34.283  29.388  1.00  0.00     0.039 A 
ATOM     30  C   UNL A   1      34.078  33.593  30.580  1.00  0.00     0.014 A 
ATOM     31  C   UNL A   1      35.618  34.482  28.934  1.00  0.00     0.014 A 
ATOM     32  C   UNL A   1      35.155  33.054  31.288  1.00  0.00     0.010 A 
ATOM     33  C   UNL A   1      36.681  33.875  29.596  1.00  0.00     0.010 A 
ATOM     34  C   UNL A   1      36.462  33.160  30.784  1.00  0.00    -0.014 A 
BRANCH  34  35
ATOM     35  C   UNL A   1      37.606  32.518  31.480  1.00  0.00     0.031 A 
ATOM     36  C   UNL A   1      38.335  31.364  30.847  1.00  0.00     0.074 A 
ATOM     37  C   UNL A   1      37.943  32.925  32.720  1.00  0.00     0.049 A 
ATOM     38  N   UNL A   1      39.329  30.657  31.321  1.00  0.00    -0.248 NA
ATOM     39  C   UNL A   1      37.870  30.928  29.520  1.00  0.00     0.031 C 
ATOM     40  C   UNL A   1      37.262  33.977  33.477  1.00  0.00     0.029 A 
ATOM     41  N   UNL A   1      38.923  32.485  33.574  1.00  0.00    -0.354 N 
ATOM     42  C   UNL A   1      39.588  29.678  30.369  1.00  0.00     0.074 A 
ATOM     43  C   UNL A   1      38.619  29.855  29.309  1.00  0.00     0.031 C 
ATOM     44  C   UNL A   1      37.848  34.106  34.677  1.00  0.00     0.029 A 
ATOM     45  C   UNL A   1      38.921  33.124  34.792  1.00  0.00     0.049 A 
ATOM     46  H   UNL A   1      39.568  31.778  33.337  1.00  0.00     0.167 HD
ATOM     47  C   UNL A   1      40.559  28.734  30.361  1.00  0.00     0.034 A 
ATOM     48  C   UNL A   1      39.688  32.934  35.883  1.00  0.00     0.034 A 
ATOM     49  C   UNL A   1      41.537  28.577  31.405  1.00  0.00     0.049 A 
ATOM     50  C   UNL A   1      40.777  31.898  35.842  1.00  0.00     0.074 A 
ATOM     51  C   UNL A   1      42.612  27.707  31.452  1.00  0.00     0.029 A 
ATOM     52  N   UNL A   1      41.550  29.292  32.593  1.00  0.00    -0.354 N 
ATOM     53  N   UNL A   1      41.107  31.086  34.867  1.00  0.00    -0.248 NA
ATOM     54  C   UNL A   1      41.625  31.777  37.037  1.00  0.00     0.031 C 
ATOM     55  C   UNL A   1      43.253  27.871  32.684  1.00  0.00     0.029 A 
ATOM     56  C   UNL A   1      42.604  28.873  33.387  1.00  0.00     0.049 A 
ATOM     57  H   UNL A   1      40.905  29.996  32.835  1.00  0.00     0.167 HD
ATOM     58  C   UNL A   1      42.218  30.381  35.316  1.00  0.00     0.074 A 
ATOM     59  C   UNL A   1      42.517  30.879  36.643  1.00  0.00     0.031 C 
ATOM     60  C   UNL A   1      42.917  29.401  34.692  1.00  0.00     0.034 A 
BRANCH  47  61
ATOM     61  C   UNL A   1      40.636  27.823  29.162  1.00  0.00     0.023 A 
ATOM     62  C   UNL A   1      39.792  26.695  29.086  1.00  0.00     0.012 A 
ATOM     63  C   UNL A   1      41.510  28.100  28.093  1.00  0.00     0.148 A 
ATOM     64  C   UNL A   1      39.849  25.834  27.991  1.00  0.00     0.002 A 
ATOM     65  C   UNL A   1      41.526  27.265  26.982  1.00  0.00     0.091 A 
ATOM     66  F   UNL A   1      42.320  29.165  28.189  1.00  0.00    -0.205 F 
ATOM     67  C   UNL A   1      40.709  26.124  26.936  1.00  0.00     0.022 A 
BRANCH  65  68
ATOM     68  S   UNL A   1      42.538  27.597  25.535  1.00  0.00     0.127 S 
ATOM     69  O   UNL A   1      43.879  27.640  26.116  1.00  0.00    -0.237 OA
ATOM     70  O   UNL A   1      42.273  26.423  24.701  1.00  0.00    -0.237 OA
ATOM     71  O   UNL A   1      42.053  28.855  24.985  1.00  0.00    -0.744 OA
ENDBRANCH  65  68
ENDBRANCH  47  61
BRANCH  48  72
ATOM     72  C   UNL A   1      39.479  33.783  37.090  1.00  0.00     0.023 A 
ATOM     73  C   UNL A   1      39.887  35.131  37.072  1.00  0.00     0.012 A 
ATOM     74  C   UNL A   1      38.840  33.272  38.237  1.00  0.00     0.148 A 
ATOM     75  C   UNL A   1      39.690  35.947  38.187  1.00  0.00     0.002 A 
ATOM     76  C   UNL A   1      38.594  34.106  39.320  1.00  0.00     0.091 A 
ATOM     77  F   UNL A   1      38.466  31.985  38.233  1.00  0.00    -0.205 F 
ATOM     78  C   UNL A   1      39.035  35.439  39.305  1.00  0.00     0.022 A 
BRANCH  76  79
ATOM     79  S   UNL A   1      37.641  33.577  40.747  1.00  0.00     0.127 S 
ATOM     80  O   UNL A   1      37.612  34.792  41.556  1.00  0.00    -0.237 OA
ATOM     81  O   UNL A   1      36.362  33.213  40.134  1.00  0.00    -0.237 OA
ATOM     82  O   UNL A   1      38.374  32.455  41.320  1.00  0.00    -0.744 OA
ENDBRANCH  76  79
ENDBRANCH  48  72
BRANCH  60  83
ATOM     83  C   UNL A   1      44.102  28.818  35.417  1.00  0.00     0.023 A 
ATOM     84  C   UNL A   1      45.386  29.370  35.230  1.00  0.00     0.012 A 
ATOM     85  C   UNL A   1      43.933  27.763  36.336  1.00  0.00     0.148 A 
ATOM     86  C   UNL A   1      46.485  28.857  35.918  1.00  0.00     0.002 A 
ATOM     87  C   UNL A   1      45.023  27.293  37.057  1.00  0.00     0.091 A 
ATOM     88  F   UNL A   1      42.707  27.240  36.488  1.00  0.00    -0.205 F 
ATOM     89  C   UNL A   1      46.302  27.828  36.839  1.00  0.00     0.022 A 
BRANCH  87  90
ATOM     90  S   UNL A   1      44.867  26.040  38.335  1.00  0.00     0.127 S 
ATOM     91  O   UNL A   1      43.926  25.104  37.721  1.00  0.00    -0.237 OA
ATOM     92  O   UNL A   1      46.238  25.541  38.447  1.00  0.00    -0.237 OA
ATOM     93  O   UNL A   1      44.375  26.731  39.518  1.00  0.00    -0.744 OA
ENDBRANCH  87  90
ENDBRANCH  60  83
ENDBRANCH  34  35
ENDBRANCH  26  29
ENDBRANCH  24  25
ENDBRANCH  23  24
ENDBRANCH   1  23
TORSDOF 18
ENDMDL
MODEL 2
REMARK VINA RESULT:     -11.1      4.100      9.290
REMARK SMILES C[C@@H]1C[N@@H+](C[C@]2(C(=O)NCCCCCCNC(=O)c3ccc(-c4c5nc(c(-c6cccc(S(=O)(=O)[O-])c6F)c6ccc([nH]6)c(-c6cccc(S(=O)(=O)[O-])c6F)c6nc(c(-c7cccc(S(=O)(=O)[O-])c7F)c7ccc4[nH]7)C=C6)C=C5)cc3)CCOC2)C[C@@H]1C
REMARK SMILES IDX 13 1 12 2 11 3 10 4 9 5 7 6 8 7 6 9 82 10 85 11 83 12 84 13
REMARK SMILES IDX 5 14 4 15 1 16 2 17 3 18 87 19 86 20 88 21 14 23 15 24 16 25
REMARK SMILES IDX 17 26 18 28 19 29 20 30 81 31 21 32 80 33 22 34 23 35 24 36
REMARK SMILES IDX 74 37 25 38 79 39 73 40 75 41 26 42 78 43 72 44 71 45 27 47
REMARK SMILES IDX 59 48 39 49 58 50 40 51 43 52 57 53 76 54 41 55 42 56 56 58
REMARK SMILES IDX 77 59 44 60 28 61 29 62 37 63 30 64 32 65 38 66 31 67 33 68
REMARK SMILES IDX 34 69 35 70 36 71 60 72 61 73 69 74 62 75 64 76 70 77 63 78
REMARK SMILES IDX 65 79 66 80 67 81 68 82 45 83 46 84 54 85 47 86 49 87 55 88
REMARK SMILES IDX 48 89 50 90 51 91 52 92 53 93
REMARK H PARENT 9 8 4 22 16 27 75 46 43 57
REMARK Flexibility Score: inf
ROOT
ATOM      1  C   UNL A   1      31.666  29.278  24.783  1.00  0.00     0.002 C 
ENDROOT
BRANCH   1   2
ATOM      2  C   UNL A   1      30.750  28.415  23.911  1.00  0.00     0.002 C 
BRANCH   2   3
ATOM      3  C   UNL A   1      30.301  27.089  24.530  1.00  0.00     0.021 C 
BRANCH   3   4
ATOM      4  C   UNL A   1      30.794  26.840  25.950  1.00  0.00     0.116 C 
BRANCH   4   5
ATOM      5  N   UNL A   1      30.359  25.563  26.489  1.00  0.00    -0.355 N 
ATOM      6  C   UNL A   1      30.990  24.355  26.546  1.00  0.00     0.234 C 
ATOM      7  O   UNL A   1      30.448  23.486  27.236  1.00  0.00    -0.274 OA
ATOM      8  H   UNL A   1      29.455  25.571  26.879  1.00  0.00     0.163 HD
BRANCH   6   9
ATOM      9  C   UNL A   1      32.295  24.094  25.777  1.00  0.00     0.123 C 
ATOM     10  C   UNL A   1      32.031  24.122  24.265  1.00  0.00     0.054 C 
ATOM     11  C   UNL A   1      33.179  25.334  25.918  1.00  0.00     0.183 C 
ATOM     12  C   UNL A   1      33.255  24.773  23.664  1.00  0.00     0.161 C 
ATOM     13  O   UNL A   1      33.843  25.588  24.673  1.00  0.00    -0.380 OA
BRANCH   9  14
ATOM     14  C   UNL A   1      32.859  22.711  26.233  1.00  0.00     0.281 C 
BRANCH  14  15
ATOM     15  N   UNL A   1      34.222  22.309  25.977  1.00  0.00    -0.333 N 
ATOM     16  C   UNL A   1      37.699  23.547  25.756  1.00  0.00     0.014 C 
ATOM     17  C   UNL A   1      36.275  23.173  25.388  1.00  0.00     0.049 C 
ATOM     18  C   UNL A   1      35.363  22.952  26.587  1.00  0.00     0.265 C 
ATOM     19  C   UNL A   1      36.067  21.893  24.556  1.00  0.00     0.049 C 
ATOM     20  C   UNL A   1      34.582  21.565  24.790  1.00  0.00     0.265 C 
ATOM     21  C   UNL A   1      36.970  20.731  24.970  1.00  0.00     0.014 C 
ATOM     22  H   UNL A   1      33.916  21.641  26.683  1.00  0.00     0.348 HD
ENDBRANCH  14  15
ENDBRANCH   9  14
ENDBRANCH   6   9
ENDBRANCH   4   5
ENDBRANCH   3   4
ENDBRANCH   2   3
ENDBRANCH   1   2
BRANCH   1  23
ATOM     23  C   UNL A   1      33.156  28.936  24.722  1.00  0.00     0.021 C 
BRANCH  23  24
ATOM     24  C   UNL A   1      33.910  29.082  26.040  1.00  0.00     0.116 C 
BRANCH  24  25
ATOM     25  N   UNL A   1      33.832  30.428  26.582  1.00  0.00    -0.352 N 
ATOM     26  C   UNL A   1      34.614  31.025  27.541  1.00  0.00     0.251 C 
ATOM     27  H   UNL A   1      33.117  30.992  26.210  1.00  0.00     0.163 HD
ATOM     28  O   UNL A   1      34.305  32.124  27.987  1.00  0.00    -0.269 OA
BRANCH  26  29
ATOM     29  C   UNL A   1      35.814  30.325  28.049  1.00  0.00     0.039 A 
ATOM     30  C   UNL A   1      36.986  30.365  27.290  1.00  0.00     0.014 A 
ATOM     31  C   UNL A   1      35.788  29.639  29.266  1.00  0.00     0.014 A 
ATOM     32  C   UNL A   1      38.148  29.764  27.780  1.00  0.00     0.010 A 
ATOM     33  C   UNL A   1      36.965  29.112  29.790  1.00  0.00     0.010 A 
ATOM     34  C   UNL A   1      38.156  29.163  29.050  1.00  0.00    -0.014 A 
BRANCH  34  35
ATOM     35  C   UNL A   1      39.405  28.597  29.622  1.00  0.00     0.031 A 
ATOM     36  C   UNL A   1      40.039  29.217  30.837  1.00  0.00     0.074 A 
ATOM     37  C   UNL A   1      40.013  27.566  29.000  1.00  0.00     0.049 A 
ATOM     38  N   UNL A   1      41.144  28.884  31.451  1.00  0.00    -0.248 NA
ATOM     39  C   UNL A   1      39.357  30.381  31.424  1.00  0.00     0.031 C 
ATOM     40  C   UNL A   1      39.544  26.930  27.768  1.00  0.00     0.029 A 
ATOM     41  N   UNL A   1      41.169  26.892  29.303  1.00  0.00    -0.354 N 
ATOM     42  C   UNL A   1      41.307  29.811  32.474  1.00  0.00     0.074 A 
ATOM     43  C   UNL A   1      40.208  30.746  32.372  1.00  0.00     0.031 C 
ATOM     44  C   UNL A   1      40.400  25.955  27.424  1.00  0.00     0.029 A 
ATOM     45  C   UNL A   1      41.495  25.919  28.387  1.00  0.00     0.049 A 
ATOM     46  H   UNL A   1      41.714  27.086  30.100  1.00  0.00     0.167 HD
ATOM     47  C   UNL A   1      42.266  29.865  33.429  1.00  0.00     0.034 A 
ATOM     48  C   UNL A   1      42.560  25.097  28.322  1.00  0.00     0.034 A 
ATOM     49  C   UNL A   1      43.343  28.918  33.543  1.00  0.00     0.049 A 
ATOM     50  C   UNL A   1      43.599  25.158  29.408  1.00  0.00     0.074 A 
ATOM     51  C   UNL A   1      44.317  28.837  34.522  1.00  0.00     0.029 A 
ATOM     52  N   UNL A   1      43.601  27.898  32.639  1.00  0.00    -0.354 N 
ATOM     53  N   UNL A   1      43.651  25.942  30.458  1.00  0.00    -0.248 NA
ATOM     54  C   UNL A   1      44.708  24.196  29.322  1.00  0.00     0.031 C 
ATOM     55  C   UNL A   1      45.185  27.791  34.191  1.00  0.00     0.029 A 
ATOM     56  C   UNL A   1      44.727  27.193  33.027  1.00  0.00     0.049 A 
ATOM     57  H   UNL A   1      43.061  27.704  31.838  1.00  0.00     0.167 HD
ATOM     58  C   UNL A   1      44.776  25.549  31.173  1.00  0.00     0.074 A 
ATOM     59  C   UNL A   1      45.364  24.441  30.448  1.00  0.00     0.031 C 
ATOM     60  C   UNL A   1      45.283  26.066  32.319  1.00  0.00     0.034 A 
BRANCH  47  61
ATOM     61  C   UNL A   1      42.167  30.967  34.454  1.00  0.00     0.023 A 
ATOM     62  C   UNL A   1      41.486  30.734  35.668  1.00  0.00     0.012 A 
ATOM     63  C   UNL A   1      42.779  32.217  34.238  1.00  0.00     0.148 A 
ATOM     64  C   UNL A   1      41.376  31.739  36.627  1.00  0.00     0.002 A 
ATOM     65  C   UNL A   1      42.708  33.197  35.221  1.00  0.00     0.091 A 
ATOM     66  F   UNL A   1      43.405  32.430  33.071  1.00  0.00    -0.205 F 
ATOM     67  C   UNL A   1      41.993  32.966  36.408  1.00  0.00     0.022 A 
BRANCH  65  68
ATOM     68  S   UNL A   1      43.539  34.782  35.070  1.00  0.00     0.127 S 
ATOM     69  O   UNL A   1      43.332  35.352  36.401  1.00  0.00    -0.237 OA
ATOM     70  O   UNL A   1      44.918  34.380  34.787  1.00  0.00    -0.237 OA
ATOM     71  O   UNL A   1      42.874  35.482  33.980  1.00  0.00    -0.744 OA
ENDBRANCH  65  68
ENDBRANCH  47  61
BRANCH  48  72
ATOM     72  C   UNL A   1      42.668  24.112  27.209  1.00  0.00     0.023 A 
ATOM     73  C   UNL A   1      43.421  24.435  26.064  1.00  0.00     0.012 A 
ATOM     74  C   UNL A   1      42.063  22.843  27.300  1.00  0.00     0.148 A 
ATOM     75  C   UNL A   1      43.545  23.522  25.016  1.00  0.00     0.002 A 
ATOM     76  C   UNL A   1      42.239  21.918  26.279  1.00  0.00     0.091 A 
ATOM     77  F   UNL A   1      41.345  22.561  28.397  1.00  0.00    -0.205 F 
ATOM     78  C   UNL A   1      42.965  22.262  25.128  1.00  0.00     0.022 A 
BRANCH  76  79
ATOM     79  S   UNL A   1      41.642  20.228  26.395  1.00  0.00     0.127 S 
ATOM     80  O   UNL A   1      42.320  19.593  25.268  1.00  0.00    -0.237 OA
ATOM     81  O   UNL A   1      42.132  19.828  27.715  1.00  0.00    -0.237 OA
ATOM     82  O   UNL A   1      40.191  20.313  26.291  1.00  0.00    -0.744 OA
ENDBRANCH  76  79
ENDBRANCH  48  72
BRANCH  60  83
ATOM     83  C   UNL A   1      46.521  25.424  32.889  1.00  0.00     0.023 A 
ATOM     84  C   UNL A   1      47.795  25.932  32.562  1.00  0.00     0.012 A 
ATOM     85  C   UNL A   1      46.419  24.355  33.803  1.00  0.00     0.148 A 
ATOM     86  C   UNL A   1      48.946  25.363  33.105  1.00  0.00     0.002 A 
ATOM     87  C   UNL A   1      47.567  23.828  34.381  1.00  0.00     0.091 A 
ATOM     88  F   UNL A   1      45.200  23.874  34.089  1.00  0.00    -0.205 F 
ATOM     89  C   UNL A   1      48.832  24.321  34.023  1.00  0.00     0.022 A 
BRANCH  87  90
ATOM     90  S   UNL A   1      47.513  22.554  35.645  1.00  0.00     0.127 S 
ATOM     91  O   UNL A   1      47.175  21.369  34.858  1.00  0.00    -0.237 OA
ATOM     92  O   UNL A   1      48.882  22.574  36.162  1.00  0.00    -0.237 OA
ATOM     93  O   UNL A   1      46.498  22.977  36.601  1.00  0.00    -0.744 OA
ENDBRANCH  87  90
ENDBRANCH  60  83
ENDBRANCH  34  35
ENDBRANCH  26  29
ENDBRANCH  24  25
ENDBRANCH  23  24
ENDBRANCH   1  23
TORSDOF 18
ENDMDL
MODEL 3
REMARK VINA RESULT:     -11.1      1.875      3.544
REMARK SMILES C[C@@H]1C[N@@H+](C[C@]2(C(=O)NCCCCCCNC(=O)c3ccc(-c4c5nc(c(-c6cccc(S(=O)(=O)[O-])c6F)c6ccc([nH]6)c(-c6cccc(S(=O)(=O)[O-])c6F)c6nc(c(-c7cccc(S(=O)(=O)[O-])c7F)c7ccc4[nH]7)C=C6)C=C5)cc3)CCOC2)C[C@@H]1C
REMARK SMILES IDX 13 1 12 2 11 3 10 4 9 5 7 6 8 7 6 9 82 10 85 11 83 12 84 13
REMARK SMILES IDX 5 14 4 15 1 16 2 17 3 18 87 19 86 20 88 21 14 23 15 24 16 25
REMARK SMILES IDX 17 26 18 28 19 29 20 30 81 31 21 32 80 33 22 34 23 35 24 36
REMARK SMILES IDX 74 37 25 38 79 39 73 40 75 41 26 42 78 43 72 44 71 45 27 47
REMARK SMILES IDX 59 48 39 49 58 50 40 51 43 52 57 53 76 54 41 55 42 56 56 58
REMARK SMILES IDX 77 59 44 60 28 61 29 62 37 63 30 64 32 65 38 66 31 67 33 68
REMARK SMILES IDX 34 69 35 70 36 71 60 72 61 73 69 74 62 75 64 76 70 77 63 78
REMARK SMILES IDX 65 79 66 80 67 81 68 82 45 83 46 84 54 85 47 86 49 87 55 88
REMARK SMILES IDX 48 89 50 90 51 91 52 92 53 93
REMARK H PARENT 9 8 4 22 16 27 75 46 43 57
REMARK Flexibility Score: inf
ROOT
ATOM      1  C   UNL A   1      31.743  30.620  26.301  1.00  0.00     0.002 C 
ENDROOT
BRANCH   1   2
ATOM      2  C   UNL A   1      32.768  29.829  27.119  1.00  0.00     0.002 C 
BRANCH   2   3
ATOM      3  C   UNL A   1      33.732  28.958  26.310  1.00  0.00     0.021 C 
BRANCH   3   4
ATOM      4  C   UNL A   1      33.334  27.492  26.195  1.00  0.00     0.116 C 
BRANCH   4   5
ATOM      5  N   UNL A   1      32.002  27.305  25.644  1.00  0.00    -0.355 N 
ATOM      6  C   UNL A   1      31.491  26.314  24.856  1.00  0.00     0.234 C 
ATOM      7  O   UNL A   1      30.267  26.319  24.697  1.00  0.00    -0.274 OA
ATOM      8  H   UNL A   1      31.360  28.012  25.879  1.00  0.00     0.163 HD
BRANCH   6   9
ATOM      9  C   UNL A   1      32.400  25.266  24.195  1.00  0.00     0.123 C 
ATOM     10  C   UNL A   1      31.739  24.724  22.920  1.00  0.00     0.054 C 
ATOM     11  C   UNL A   1      33.596  25.999  23.586  1.00  0.00     0.183 C 
ATOM     12  C   UNL A   1      32.873  24.521  21.944  1.00  0.00     0.161 C 
ATOM     13  O   UNL A   1      33.925  25.404  22.324  1.00  0.00    -0.380 OA
BRANCH   9  14
ATOM     14  C   UNL A   1      32.662  24.128  25.232  1.00  0.00     0.281 C 
BRANCH  14  15
ATOM     15  N   UNL A   1      33.666  23.111  25.026  1.00  0.00    -0.333 N 
ATOM     16  C   UNL A   1      34.200  19.460  24.793  1.00  0.00     0.014 C 
ATOM     17  C   UNL A   1      34.046  20.862  25.352  1.00  0.00     0.049 C 
ATOM     18  C   UNL A   1      33.387  21.843  24.392  1.00  0.00     0.265 C 
ATOM     19  C   UNL A   1      35.327  21.604  25.778  1.00  0.00     0.049 C 
ATOM     20  C   UNL A   1      34.880  23.076  25.810  1.00  0.00     0.265 C 
ATOM     21  C   UNL A   1      36.508  21.397  24.830  1.00  0.00     0.014 C 
ATOM     22  H   UNL A   1      33.819  23.744  24.242  1.00  0.00     0.348 HD
ENDBRANCH  14  15
ENDBRANCH   9  14
ENDBRANCH   6   9
ENDBRANCH   4   5
ENDBRANCH   3   4
ENDBRANCH   2   3
ENDBRANCH   1   2
BRANCH   1  23
ATOM     23  C   UNL A   1      31.519  32.068  26.739  1.00  0.00     0.021 C 
BRANCH  23  24
ATOM     24  C   UNL A   1      32.737  32.761  27.341  1.00  0.00     0.116 C 
BRANCH  24  25
ATOM     25  N   UNL A   1      32.481  34.152  27.674  1.00  0.00    -0.352 N 
ATOM     26  C   UNL A   1      33.070  34.939  28.635  1.00  0.00     0.251 C 
ATOM     27  H   UNL A   1      31.786  34.594  27.135  1.00  0.00     0.163 HD
ATOM     28  O   UNL A   1      32.618  36.052  28.877  1.00  0.00    -0.269 OA
BRANCH  26  29
ATOM     29  C   UNL A   1      34.234  34.426  29.389  1.00  0.00     0.039 A 
ATOM     30  C   UNL A   1      34.015  33.801  30.619  1.00  0.00     0.014 A 
ATOM     31  C   UNL A   1      35.533  34.554  28.888  1.00  0.00     0.014 A 
ATOM     32  C   UNL A   1      35.093  33.254  31.319  1.00  0.00     0.010 A 
ATOM     33  C   UNL A   1      36.593  33.938  29.545  1.00  0.00     0.010 A 
ATOM     34  C   UNL A   1      36.386  33.287  30.771  1.00  0.00    -0.014 A 
BRANCH  34  35
ATOM     35  C   UNL A   1      37.528  32.634  31.462  1.00  0.00     0.031 A 
ATOM     36  C   UNL A   1      38.244  31.474  30.824  1.00  0.00     0.074 A 
ATOM     37  C   UNL A   1      37.874  33.037  32.701  1.00  0.00     0.049 A 
ATOM     38  N   UNL A   1      39.233  30.758  31.293  1.00  0.00    -0.248 NA
ATOM     39  C   UNL A   1      37.769  31.044  29.499  1.00  0.00     0.031 C 
ATOM     40  C   UNL A   1      37.205  34.094  33.461  1.00  0.00     0.029 A 
ATOM     41  N   UNL A   1      38.854  32.587  33.550  1.00  0.00    -0.354 N 
ATOM     42  C   UNL A   1      39.479  29.778  30.339  1.00  0.00     0.074 A 
ATOM     43  C   UNL A   1      38.508  29.965  29.284  1.00  0.00     0.031 C 
ATOM     44  C   UNL A   1      37.798  34.216  34.659  1.00  0.00     0.029 A 
ATOM     45  C   UNL A   1      38.862  33.225  34.768  1.00  0.00     0.049 A 
ATOM     46  H   UNL A   1      39.491  31.875  33.309  1.00  0.00     0.167 HD
ATOM     47  C   UNL A   1      40.442  28.826  30.326  1.00  0.00     0.034 A 
ATOM     48  C   UNL A   1      39.632  33.027  35.856  1.00  0.00     0.034 A 
ATOM     49  C   UNL A   1      41.423  28.658  31.365  1.00  0.00     0.049 A 
ATOM     50  C   UNL A   1      40.712  31.982  35.809  1.00  0.00     0.074 A 
ATOM     51  C   UNL A   1      42.490  27.779  31.407  1.00  0.00     0.029 A 
ATOM     52  N   UNL A   1      41.448  29.373  32.554  1.00  0.00    -0.354 N 
ATOM     53  N   UNL A   1      41.030  31.168  34.832  1.00  0.00    -0.248 NA
ATOM     54  C   UNL A   1      41.564  31.852  37.000  1.00  0.00     0.031 C 
ATOM     55  C   UNL A   1      43.139  27.936  32.637  1.00  0.00     0.029 A 
ATOM     56  C   UNL A   1      42.501  28.943  33.344  1.00  0.00     0.049 A 
ATOM     57  H   UNL A   1      40.810  30.081  32.799  1.00  0.00     0.167 HD
ATOM     58  C   UNL A   1      42.137  30.452  35.276  1.00  0.00     0.074 A 
ATOM     59  C   UNL A   1      42.447  30.946  36.602  1.00  0.00     0.031 C 
ATOM     60  C   UNL A   1      42.825  29.467  34.647  1.00  0.00     0.034 A 
BRANCH  47  61
ATOM     61  C   UNL A   1      40.506  27.915  29.126  1.00  0.00     0.023 A 
ATOM     62  C   UNL A   1      39.617  26.823  29.028  1.00  0.00     0.012 A 
ATOM     63  C   UNL A   1      41.413  28.159  28.076  1.00  0.00     0.148 A 
ATOM     64  C   UNL A   1      39.662  25.963  27.932  1.00  0.00     0.002 A 
ATOM     65  C   UNL A   1      41.416  27.326  26.962  1.00  0.00     0.091 A 
ATOM     66  F   UNL A   1      42.264  29.188  28.191  1.00  0.00    -0.205 F 
ATOM     67  C   UNL A   1      40.554  26.220  26.896  1.00  0.00     0.022 A 
BRANCH  65  68
ATOM     68  S   UNL A   1      42.470  27.619  25.538  1.00  0.00     0.127 S 
ATOM     69  O   UNL A   1      41.940  28.885  25.033  1.00  0.00    -0.237 OA
ATOM     70  O   UNL A   1      43.796  27.715  26.152  1.00  0.00    -0.237 OA
ATOM     71  O   UNL A   1      42.289  26.471  24.661  1.00  0.00    -0.744 OA
ENDBRANCH  65  68
ENDBRANCH  47  61
BRANCH  48  72
ATOM     72  C   UNL A   1      39.436  33.877  37.064  1.00  0.00     0.023 A 
ATOM     73  C   UNL A   1      39.842  35.225  37.042  1.00  0.00     0.012 A 
ATOM     74  C   UNL A   1      38.811  33.366  38.219  1.00  0.00     0.148 A 
ATOM     75  C   UNL A   1      39.657  36.041  38.158  1.00  0.00     0.002 A 
ATOM     76  C   UNL A   1      38.576  34.200  39.305  1.00  0.00     0.091 A 
ATOM     77  F   UNL A   1      38.438  32.078  38.220  1.00  0.00    -0.205 F 
ATOM     78  C   UNL A   1      39.015  35.533  39.284  1.00  0.00     0.022 A 
BRANCH  76  79
ATOM     79  S   UNL A   1      37.639  33.671  40.743  1.00  0.00     0.127 S 
ATOM     80  O   UNL A   1      36.447  33.094  40.128  1.00  0.00    -0.237 OA
ATOM     81  O   UNL A   1      38.550  32.700  41.352  1.00  0.00    -0.237 OA
ATOM     82  O   UNL A   1      37.421  34.873  41.537  1.00  0.00    -0.744 OA
ENDBRANCH  76  79
ENDBRANCH  48  72
BRANCH  60  83
ATOM     83  C   UNL A   1      44.008  28.873  35.367  1.00  0.00     0.023 A 
ATOM     84  C   UNL A   1      45.293  29.422  35.186  1.00  0.00     0.012 A 
ATOM     85  C   UNL A   1      43.835  27.809  36.275  1.00  0.00     0.148 A 
ATOM     86  C   UNL A   1      46.391  28.899  35.869  1.00  0.00     0.002 A 
ATOM     87  C   UNL A   1      44.923  27.327  36.991  1.00  0.00     0.091 A 
ATOM     88  F   UNL A   1      42.607  27.287  36.421  1.00  0.00    -0.205 F 
ATOM     89  C   UNL A   1      46.204  27.861  36.779  1.00  0.00     0.022 A 
BRANCH  87  90
ATOM     90  S   UNL A   1      44.763  26.061  38.255  1.00  0.00     0.127 S 
ATOM     91  O   UNL A   1      46.146  25.915  38.706  1.00  0.00    -0.237 OA
ATOM     92  O   UNL A   1      43.871  26.702  39.222  1.00  0.00    -0.237 OA
ATOM     93  O   UNL A   1      44.199  24.896  37.589  1.00  0.00    -0.744 OA
ENDBRANCH  87  90
ENDBRANCH  60  83
ENDBRANCH  34  35
ENDBRANCH  26  29
ENDBRANCH  24  25
ENDBRANCH  23  24
ENDBRANCH   1  23
TORSDOF 18
ENDMDL
