MODEL 1
REMARK VINA RESULT:     -10.9      0.000      0.000
REMARK SMILES O=C(C[C@H]([NH2+]Cc1ccccc1C1CC1)c1cccs1)NCCCCCCNC(=O)c1ccc(-c2c3nc(c(-c4cccc(S(=O)(=O)[O-])c4F)c4ccc([nH]4)c(-c4cccc(S(=O)(=O)[O-])c4F)c4nc(c(-c5cccc(S(=O)(=O)[O-])c5F)c5ccc2[nH]5)C=C4)C=C3)cc1
REMARK SMILES IDX 23 1 22 2 21 3 1 4 2 5 3 7 4 8 16 9 17 10 20 11 18 12 19 13
REMARK SMILES IDX 5 14 6 17 7 18 8 19 12 20 9 21 11 22 10 23 13 24 14 25 15 26
REMARK SMILES IDX 24 27 25 28 26 29 27 30 28 31 29 32 30 34 31 35 32 36 93 37
REMARK SMILES IDX 33 38 92 39 34 40 35 41 36 42 86 43 37 44 91 45 85 46 87 47
REMARK SMILES IDX 38 48 90 49 84 50 83 51 39 53 71 54 51 55 70 56 52 57 55 58
REMARK SMILES IDX 69 59 88 60 53 61 54 62 68 64 89 65 56 66 40 67 41 68 49 69
REMARK SMILES IDX 42 70 44 71 50 72 43 73 45 74 46 75 47 76 48 77 72 78 73 79
REMARK SMILES IDX 81 80 74 81 76 82 82 83 75 84 77 85 78 86 79 87 80 88 57 89
REMARK SMILES IDX 58 90 66 91 59 92 61 93 67 94 60 95 62 96 63 97 64 98 65 99
REMARK H PARENT 21 6 5 15 5 16 28 33 87 52 55 63
REMARK Flexibility Score: inf
ROOT
ATOM      1  C   UNL A   1      30.412  27.687  23.376  1.00  0.00     0.021 C 
ENDROOT
BRANCH   1   2
ATOM      2  C   UNL A   1      29.308  26.656  23.633  1.00  0.00     0.116 C 
BRANCH   2   3
ATOM      3  N   UNL A   1      29.863  25.382  24.041  1.00  0.00    -0.356 N 
ATOM      4  O   UNL A   1      31.304  25.074  22.273  1.00  0.00    -0.275 OA
ATOM      5  C   UNL A   1      30.811  24.685  23.325  1.00  0.00     0.226 C 
ATOM      6  H   UNL A   1      29.543  24.989  24.885  1.00  0.00     0.163 HD
BRANCH   5   7
ATOM      7  C   UNL A   1      31.131  23.335  23.931  1.00  0.00     0.171 C 
BRANCH   7   8
ATOM      8  C   UNL A   1      32.577  22.839  23.752  1.00  0.00     0.233 C 
BRANCH   8   9
ATOM      9  C   UNL A   1      32.685  21.350  24.061  1.00  0.00     0.062 A 
ATOM     10  C   UNL A   1      32.309  20.301  23.239  1.00  0.00     0.021 A 
ATOM     11  S   UNL A   1      33.353  20.758  25.527  1.00  0.00    -0.143 S 
ATOM     12  C   UNL A   1      32.458  19.028  23.863  1.00  0.00     0.012 A 
ATOM     13  C   UNL A   1      32.966  19.141  25.136  1.00  0.00     0.065 A 
ENDBRANCH   8   9
BRANCH   8  14
ATOM     14  N   UNL A   1      33.230  23.164  22.485  1.00  0.00    -0.335 N 
ATOM     15  H   UNL A   1      32.544  23.644  21.901  1.00  0.00     0.347 HD
ATOM     16  H   UNL A   1      33.559  22.270  22.123  1.00  0.00     0.347 HD
BRANCH  14  17
ATOM     17  C   UNL A   1      34.418  24.003  22.541  1.00  0.00     0.298 C 
BRANCH  17  18
ATOM     18  C   UNL A   1      35.322  23.699  23.731  1.00  0.00     0.010 A 
ATOM     19  C   UNL A   1      36.321  22.719  23.509  1.00  0.00     0.010 A 
ATOM     20  C   UNL A   1      35.259  24.312  25.009  1.00  0.00    -0.036 A 
ATOM     21  C   UNL A   1      37.119  22.221  24.541  1.00  0.00     0.001 A 
ATOM     22  C   UNL A   1      35.993  23.685  26.053  1.00  0.00     0.004 A 
ATOM     23  C   UNL A   1      36.898  22.651  25.834  1.00  0.00     0.000 A 
BRANCH  20  24
ATOM     24  C   UNL A   1      34.623  25.634  25.412  1.00  0.00     0.020 C 
ATOM     25  C   UNL A   1      33.483  26.329  24.730  1.00  0.00     0.009 C 
ATOM     26  C   UNL A   1      33.284  25.702  26.085  1.00  0.00     0.009 C 
ENDBRANCH  20  24
ENDBRANCH  17  18
ENDBRANCH  14  17
ENDBRANCH   8  14
ENDBRANCH   7   8
ENDBRANCH   5   7
ENDBRANCH   2   3
ENDBRANCH   1   2
BRANCH   1  27
ATOM     27  C   UNL A   1      29.977  29.152  23.507  1.00  0.00     0.002 C 
BRANCH  27  28
ATOM     28  C   UNL A   1      30.783  29.977  24.505  1.00  0.00     0.002 C 
BRANCH  28  29
ATOM     29  C   UNL A   1      31.579  29.194  25.542  1.00  0.00     0.021 C 
BRANCH  29  30
ATOM     30  C   UNL A   1      32.795  29.933  26.079  1.00  0.00     0.116 C 
BRANCH  30  31
ATOM     31  N   UNL A   1      32.501  31.303  26.480  1.00  0.00    -0.352 N 
ATOM     32  C   UNL A   1      33.212  32.147  27.306  1.00  0.00     0.251 C 
ATOM     33  H   UNL A   1      31.673  31.682  26.105  1.00  0.00     0.163 HD
ATOM     34  O   UNL A   1      32.736  33.225  27.630  1.00  0.00    -0.269 OA
BRANCH  32  35
ATOM     35  C   UNL A   1      34.535  31.724  27.822  1.00  0.00     0.039 A 
ATOM     36  C   UNL A   1      35.541  32.681  27.978  1.00  0.00     0.014 A 
ATOM     37  C   UNL A   1      34.773  30.396  28.183  1.00  0.00     0.014 A 
ATOM     38  C   UNL A   1      36.755  32.318  28.566  1.00  0.00     0.010 A 
ATOM     39  C   UNL A   1      35.936  30.063  28.866  1.00  0.00     0.010 A 
ATOM     40  C   UNL A   1      36.946  31.015  29.056  1.00  0.00    -0.014 A 
BRANCH  40  41
ATOM     41  C   UNL A   1      38.187  30.633  29.781  1.00  0.00     0.031 A 
ATOM     42  C   UNL A   1      39.198  29.723  29.132  1.00  0.00     0.074 A 
ATOM     43  C   UNL A   1      38.362  31.030  31.057  1.00  0.00     0.049 A 
ATOM     44  N   UNL A   1      40.325  29.267  29.614  1.00  0.00    -0.248 NA
ATOM     45  C   UNL A   1      38.887  29.231  27.780  1.00  0.00     0.031 C 
ATOM     46  C   UNL A   1      37.413  31.835  31.831  1.00  0.00     0.029 A 
ATOM     47  N   UNL A   1      39.390  30.799  31.934  1.00  0.00    -0.354 N 
ATOM     48  C   UNL A   1      40.830  28.404  28.649  1.00  0.00     0.074 A 
ATOM     49  C   UNL A   1      39.867  28.367  27.571  1.00  0.00     0.031 C 
ATOM     50  C   UNL A   1      37.918  32.057  33.055  1.00  0.00     0.029 A 
ATOM     51  C   UNL A   1      39.208  31.385  33.166  1.00  0.00     0.049 A 
ATOM     52  H   UNL A   1      40.185  30.265  31.705  1.00  0.00     0.167 HD
ATOM     53  C   UNL A   1      42.003  27.726  28.643  1.00  0.00     0.034 A 
ATOM     54  C   UNL A   1      39.995  31.385  34.260  1.00  0.00     0.034 A 
ATOM     55  C   UNL A   1      42.980  27.804  29.696  1.00  0.00     0.049 A 
ATOM     56  C   UNL A   1      41.315  30.668  34.209  1.00  0.00     0.074 A 
ATOM     57  C   UNL A   1      44.246  27.252  29.738  1.00  0.00     0.029 A 
ATOM     58  N   UNL A   1      42.791  28.465  30.901  1.00  0.00    -0.354 N 
ATOM     59  N   UNL A   1      41.859  30.005  33.216  1.00  0.00    -0.248 NA
ATOM     60  C   UNL A   1      42.148  30.727  35.418  1.00  0.00     0.031 C 
ATOM     61  C   UNL A   1      44.811  27.547  30.984  1.00  0.00     0.029 A 
ATOM     62  C   UNL A   1      43.909  28.317  31.703  1.00  0.00     0.049 A 
ATOM     63  H   UNL A   1      41.981  28.966  31.148  1.00  0.00     0.167 HD
ATOM     64  C   UNL A   1      43.111  29.603  33.666  1.00  0.00     0.074 A 
ATOM     65  C   UNL A   1      43.253  30.117  35.013  1.00  0.00     0.031 C 
ATOM     66  C   UNL A   1      44.054  28.868  33.027  1.00  0.00     0.034 A 
BRANCH  53  67
ATOM     67  C   UNL A   1      42.308  26.868  27.440  1.00  0.00     0.023 A 
ATOM     68  C   UNL A   1      42.920  27.441  26.304  1.00  0.00     0.012 A 
ATOM     69  C   UNL A   1      42.020  25.490  27.445  1.00  0.00     0.148 A 
ATOM     70  C   UNL A   1      43.193  26.668  25.177  1.00  0.00     0.002 A 
ATOM     71  C   UNL A   1      42.342  24.715  26.336  1.00  0.00     0.091 A 
ATOM     72  F   UNL A   1      41.418  24.965  28.521  1.00  0.00    -0.205 F 
ATOM     73  C   UNL A   1      42.914  25.304  25.197  1.00  0.00     0.022 A 
BRANCH  71  74
ATOM     74  S   UNL A   1      42.100  22.936  26.298  1.00  0.00     0.127 S 
ATOM     75  O   UNL A   1      42.769  22.575  25.048  1.00  0.00    -0.237 OA
ATOM     76  O   UNL A   1      42.797  22.503  27.509  1.00  0.00    -0.237 OA
ATOM     77  O   UNL A   1      40.659  22.727  26.320  1.00  0.00    -0.744 OA
ENDBRANCH  71  74
ENDBRANCH  53  67
BRANCH  54  78
ATOM     78  C   UNL A   1      39.597  32.169  35.465  1.00  0.00     0.023 A 
ATOM     79  C   UNL A   1      40.040  33.501  35.593  1.00  0.00     0.012 A 
ATOM     80  C   UNL A   1      38.770  31.622  36.463  1.00  0.00     0.148 A 
ATOM     81  C   UNL A   1      39.693  34.263  36.708  1.00  0.00     0.002 A 
ATOM     82  C   UNL A   1      38.382  32.406  37.544  1.00  0.00     0.091 A 
ATOM     83  F   UNL A   1      38.363  30.353  36.325  1.00  0.00    -0.205 F 
ATOM     84  C   UNL A   1      38.857  33.720  37.678  1.00  0.00     0.022 A 
BRANCH  82  85
ATOM     85  S   UNL A   1      37.207  31.838  38.779  1.00  0.00     0.127 S 
ATOM     86  O   UNL A   1      37.033  30.437  38.405  1.00  0.00    -0.237 OA
ATOM     87  O   UNL A   1      37.949  32.057  40.021  1.00  0.00    -0.237 OA
ATOM     88  O   UNL A   1      36.031  32.683  38.622  1.00  0.00    -0.744 OA
ENDBRANCH  82  85
ENDBRANCH  54  78
BRANCH  66  89
ATOM     89  C   UNL A   1      45.342  28.599  33.762  1.00  0.00     0.023 A 
ATOM     90  C   UNL A   1      46.410  29.516  33.672  1.00  0.00     0.012 A 
ATOM     91  C   UNL A   1      45.477  27.463  34.584  1.00  0.00     0.148 A 
ATOM     92  C   UNL A   1      47.605  29.282  34.352  1.00  0.00     0.002 A 
ATOM     93  C   UNL A   1      46.650  27.266  35.302  1.00  0.00     0.091 A 
ATOM     94  F   UNL A   1      44.459  26.592  34.644  1.00  0.00    -0.205 F 
ATOM     95  C   UNL A   1      47.721  28.165  35.174  1.00  0.00     0.022 A 
BRANCH  93  96
ATOM     96  S   UNL A   1      46.848  25.910  36.464  1.00  0.00     0.127 S 
ATOM     97  O   UNL A   1      46.998  24.766  35.566  1.00  0.00    -0.237 OA
ATOM     98  O   UNL A   1      48.068  26.288  37.178  1.00  0.00    -0.237 OA
ATOM     99  O   UNL A   1      45.645  25.909  37.286  1.00  0.00    -0.744 OA
ENDBRANCH  93  96
ENDBRANCH  66  89
ENDBRANCH  40  41
ENDBRANCH  32  35
ENDBRANCH  30  31
ENDBRANCH  29  30
ENDBRANCH  28  29
ENDBRANCH  27  28
ENDBRANCH   1  27
TORSDOF 22
ENDMDL
MODEL 2
REMARK VINA RESULT:     -10.5      2.260      8.021
REMARK SMILES O=C(C[C@H]([NH2+]Cc1ccccc1C1CC1)c1cccs1)NCCCCCCNC(=O)c1ccc(-c2c3nc(c(-c4cccc(S(=O)(=O)[O-])c4F)c4ccc([nH]4)c(-c4cccc(S(=O)(=O)[O-])c4F)c4nc(c(-c5cccc(S(=O)(=O)[O-])c5F)c5ccc2[nH]5)C=C4)C=C3)cc1
REMARK SMILES IDX 23 1 22 2 21 3 1 4 2 5 3 7 4 8 16 9 17 10 20 11 18 12 19 13
REMARK SMILES IDX 5 14 6 17 7 18 8 19 12 20 9 21 11 22 10 23 13 24 14 25 15 26
REMARK SMILES IDX 24 27 25 28 26 29 27 30 28 31 29 32 30 34 31 35 32 36 93 37
REMARK SMILES IDX 33 38 92 39 34 40 35 41 36 42 86 43 37 44 91 45 85 46 87 47
REMARK SMILES IDX 38 48 90 49 84 50 83 51 39 53 71 54 51 55 70 56 52 57 55 58
REMARK SMILES IDX 69 59 88 60 53 61 54 62 68 64 89 65 56 66 40 67 41 68 49 69
REMARK SMILES IDX 42 70 44 71 50 72 43 73 45 74 46 75 47 76 48 77 72 78 73 79
REMARK SMILES IDX 81 80 74 81 76 82 82 83 75 84 77 85 78 86 79 87 80 88 57 89
REMARK SMILES IDX 58 90 66 91 59 92 61 93 67 94 60 95 62 96 63 97 64 98 65 99
REMARK H PARENT 21 6 5 15 5 16 28 33 87 52 55 63
REMARK Flexibility Score: inf
ROOT
ATOM      1  C   UNL A   1      32.091  27.753  23.994  1.00  0.00     0.021 C 
ENDROOT
BRANCH   1   2
ATOM      2  C   UNL A   1      31.217  26.496  23.927  1.00  0.00     0.116 C 
BRANCH   2   3
ATOM      3  N   UNL A   1      31.976  25.352  23.464  1.00  0.00    -0.356 N 
ATOM      4  O   UNL A   1      33.462  25.217  25.215  1.00  0.00    -0.275 OA
ATOM      5  C   UNL A   1      33.045  24.807  24.139  1.00  0.00     0.226 C 
ATOM      6  H   UNL A   1      31.709  24.938  22.611  1.00  0.00     0.163 HD
BRANCH   5   7
ATOM      7  C   UNL A   1      33.716  23.687  23.371  1.00  0.00     0.171 C 
BRANCH   7   8
ATOM      8  C   UNL A   1      33.910  22.366  24.136  1.00  0.00     0.233 C 
BRANCH   8   9
ATOM      9  C   UNL A   1      35.366  22.184  24.548  1.00  0.00     0.062 A 
ATOM     10  C   UNL A   1      36.340  23.166  24.620  1.00  0.00     0.021 A 
ATOM     11  S   UNL A   1      36.005  20.666  25.034  1.00  0.00    -0.143 S 
ATOM     12  C   UNL A   1      37.625  22.649  24.953  1.00  0.00     0.012 A 
ATOM     13  C   UNL A   1      37.591  21.288  25.150  1.00  0.00     0.065 A 
ENDBRANCH   8   9
BRANCH   8  14
ATOM     14  N   UNL A   1      33.008  22.119  25.260  1.00  0.00    -0.335 N 
ATOM     15  H   UNL A   1      32.357  22.904  25.308  1.00  0.00     0.347 HD
ATOM     16  H   UNL A   1      33.620  22.013  26.068  1.00  0.00     0.347 HD
BRANCH  14  17
ATOM     17  C   UNL A   1      32.218  20.898  25.227  1.00  0.00     0.298 C 
BRANCH  17  18
ATOM     18  C   UNL A   1      32.341  20.128  23.917  1.00  0.00     0.010 A 
ATOM     19  C   UNL A   1      32.008  20.852  22.745  1.00  0.00     0.010 A 
ATOM     20  C   UNL A   1      32.764  18.782  23.774  1.00  0.00    -0.036 A 
ATOM     21  C   UNL A   1      31.918  20.242  21.492  1.00  0.00     0.001 A 
ATOM     22  C   UNL A   1      32.531  18.172  22.510  1.00  0.00     0.004 A 
ATOM     23  C   UNL A   1      32.105  18.879  21.389  1.00  0.00     0.000 A 
BRANCH  20  24
ATOM     24  C   UNL A   1      33.564  17.916  24.736  1.00  0.00     0.020 C 
ATOM     25  C   UNL A   1      33.038  16.803  25.593  1.00  0.00     0.009 C 
ATOM     26  C   UNL A   1      33.928  16.497  24.416  1.00  0.00     0.009 C 
ENDBRANCH  20  24
ENDBRANCH  17  18
ENDBRANCH  14  17
ENDBRANCH   8  14
ENDBRANCH   7   8
ENDBRANCH   5   7
ENDBRANCH   2   3
ENDBRANCH   1   2
BRANCH   1  27
ATOM     27  C   UNL A   1      31.339  29.053  24.301  1.00  0.00     0.002 C 
BRANCH  27  28
ATOM     28  C   UNL A   1      31.446  29.535  25.744  1.00  0.00     0.002 C 
BRANCH  28  29
ATOM     29  C   UNL A   1      32.099  28.574  26.730  1.00  0.00     0.021 C 
BRANCH  29  30
ATOM     30  C   UNL A   1      33.482  29.006  27.193  1.00  0.00     0.116 C 
BRANCH  30  31
ATOM     31  N   UNL A   1      33.540  30.407  27.592  1.00  0.00    -0.352 N 
ATOM     32  C   UNL A   1      34.532  31.086  28.267  1.00  0.00     0.251 C 
ATOM     33  H   UNL A   1      32.757  30.948  27.342  1.00  0.00     0.163 HD
ATOM     34  O   UNL A   1      34.344  32.237  28.629  1.00  0.00    -0.269 OA
BRANCH  32  35
ATOM     35  C   UNL A   1      35.808  30.399  28.580  1.00  0.00     0.039 A 
ATOM     36  C   UNL A   1      36.905  30.588  27.735  1.00  0.00     0.014 A 
ATOM     37  C   UNL A   1      35.933  29.600  29.718  1.00  0.00     0.014 A 
ATOM     38  C   UNL A   1      38.143  30.037  28.077  1.00  0.00     0.010 A 
ATOM     39  C   UNL A   1      37.186  29.148  30.111  1.00  0.00     0.010 A 
ATOM     40  C   UNL A   1      38.304  29.349  29.291  1.00  0.00    -0.014 A 
BRANCH  40  41
ATOM     41  C   UNL A   1      39.633  28.846  29.728  1.00  0.00     0.031 A 
ATOM     42  C   UNL A   1      40.377  29.530  30.845  1.00  0.00     0.074 A 
ATOM     43  C   UNL A   1      40.211  27.828  29.059  1.00  0.00     0.049 A 
ATOM     44  N   UNL A   1      41.551  29.246  31.348  1.00  0.00    -0.248 NA
ATOM     45  C   UNL A   1      39.738  30.708  31.453  1.00  0.00     0.031 C 
ATOM     46  C   UNL A   1      39.636  27.142  27.899  1.00  0.00     0.029 A 
ATOM     47  N   UNL A   1      41.418  27.203  29.247  1.00  0.00    -0.354 N 
ATOM     48  C   UNL A   1      41.809  30.232  32.292  1.00  0.00     0.074 A 
ATOM     49  C   UNL A   1      40.689  31.147  32.264  1.00  0.00     0.031 C 
ATOM     50  C   UNL A   1      40.475  26.171  27.500  1.00  0.00     0.029 A 
ATOM     51  C   UNL A   1      41.659  26.187  28.351  1.00  0.00     0.049 A 
ATOM     52  H   UNL A   1      42.052  27.457  29.956  1.00  0.00     0.167 HD
ATOM     53  C   UNL A   1      42.866  30.353  33.131  1.00  0.00     0.034 A 
ATOM     54  C   UNL A   1      42.714  25.357  28.234  1.00  0.00     0.034 A 
ATOM     55  C   UNL A   1      43.955  29.415  33.188  1.00  0.00     0.049 A 
ATOM     56  C   UNL A   1      43.851  25.479  29.210  1.00  0.00     0.074 A 
ATOM     57  C   UNL A   1      45.013  29.379  34.076  1.00  0.00     0.029 A 
ATOM     58  N   UNL A   1      44.131  28.355  32.312  1.00  0.00    -0.354 N 
ATOM     59  N   UNL A   1      43.992  26.307  30.216  1.00  0.00    -0.248 NA
ATOM     60  C   UNL A   1      44.961  24.528  29.056  1.00  0.00     0.031 C 
ATOM     61  C   UNL A   1      45.853  28.319  33.713  1.00  0.00     0.029 A 
ATOM     62  C   UNL A   1      45.294  27.671  32.623  1.00  0.00     0.049 A 
ATOM     63  H   UNL A   1      43.519  28.124  31.576  1.00  0.00     0.167 HD
ATOM     64  C   UNL A   1      45.183  25.953  30.839  1.00  0.00     0.074 A 
ATOM     65  C   UNL A   1      45.712  24.820  30.108  1.00  0.00     0.031 C 
ATOM     66  C   UNL A   1      45.789  26.519  31.912  1.00  0.00     0.034 A 
BRANCH  53  67
ATOM     67  C   UNL A   1      42.875  31.526  34.079  1.00  0.00     0.023 A 
ATOM     68  C   UNL A   1      43.461  32.747  33.682  1.00  0.00     0.012 A 
ATOM     69  C   UNL A   1      42.273  31.433  35.349  1.00  0.00     0.148 A 
ATOM     70  C   UNL A   1      43.494  33.837  34.551  1.00  0.00     0.002 A 
ATOM     71  C   UNL A   1      42.264  32.540  36.190  1.00  0.00     0.091 A 
ATOM     72  F   UNL A   1      41.740  30.261  35.721  1.00  0.00    -0.205 F 
ATOM     73  C   UNL A   1      42.887  33.736  35.799  1.00  0.00     0.022 A 
BRANCH  71  74
ATOM     74  S   UNL A   1      41.434  32.538  37.783  1.00  0.00     0.127 S 
ATOM     75  O   UNL A   1      42.239  31.575  38.533  1.00  0.00    -0.237 OA
ATOM     76  O   UNL A   1      41.588  33.927  38.214  1.00  0.00    -0.237 OA
ATOM     77  O   UNL A   1      40.060  32.134  37.517  1.00  0.00    -0.744 OA
ENDBRANCH  71  74
ENDBRANCH  53  67
BRANCH  54  78
ATOM     78  C   UNL A   1      42.700  24.274  27.208  1.00  0.00     0.023 A 
ATOM     79  C   UNL A   1      43.301  24.509  25.955  1.00  0.00     0.012 A 
ATOM     80  C   UNL A   1      42.128  23.015  27.469  1.00  0.00     0.148 A 
ATOM     81  C   UNL A   1      43.304  23.522  24.970  1.00  0.00     0.002 A 
ATOM     82  C   UNL A   1      42.183  22.017  26.503  1.00  0.00     0.091 A 
ATOM     83  F   UNL A   1      41.557  22.813  28.665  1.00  0.00    -0.205 F 
ATOM     84  C   UNL A   1      42.754  22.274  25.246  1.00  0.00     0.022 A 
BRANCH  82  85
ATOM     85  S   UNL A   1      41.616  20.340  26.808  1.00  0.00     0.127 S 
ATOM     86  O   UNL A   1      40.218  20.558  27.169  1.00  0.00    -0.237 OA
ATOM     87  O   UNL A   1      41.827  19.710  25.505  1.00  0.00    -0.237 OA
ATOM     88  O   UNL A   1      42.467  19.824  27.872  1.00  0.00    -0.744 OA
ENDBRANCH  82  85
ENDBRANCH  54  78
BRANCH  66  89
ATOM     89  C   UNL A   1      47.080  25.903  32.386  1.00  0.00     0.023 A 
ATOM     90  C   UNL A   1      48.309  26.342  31.852  1.00  0.00     0.012 A 
ATOM     91  C   UNL A   1      47.080  24.924  33.399  1.00  0.00     0.148 A 
ATOM     92  C   UNL A   1      49.511  25.784  32.287  1.00  0.00     0.002 A 
ATOM     93  C   UNL A   1      48.284  24.414  33.866  1.00  0.00     0.091 A 
ATOM     94  F   UNL A   1      45.901  24.505  33.882  1.00  0.00    -0.205 F 
ATOM     95  C   UNL A   1      49.499  24.830  33.300  1.00  0.00     0.022 A 
BRANCH  93  96
ATOM     96  S   UNL A   1      48.369  23.257  35.238  1.00  0.00     0.127 S 
ATOM     97  O   UNL A   1      47.542  22.154  34.751  1.00  0.00    -0.237 OA
ATOM     98  O   UNL A   1      49.800  22.962  35.309  1.00  0.00    -0.237 OA
ATOM     99  O   UNL A   1      47.843  23.970  36.395  1.00  0.00    -0.744 OA
ENDBRANCH  93  96
ENDBRANCH  66  89
ENDBRANCH  40  41
ENDBRANCH  32  35
ENDBRANCH  30  31
ENDBRANCH  29  30
ENDBRANCH  28  29
ENDBRANCH  27  28
ENDBRANCH   1  27
TORSDOF 22
ENDMDL
MODEL 3
REMARK VINA RESULT:     -10.2      2.473      8.151
REMARK SMILES O=C(C[C@H]([NH2+]Cc1ccccc1C1CC1)c1cccs1)NCCCCCCNC(=O)c1ccc(-c2c3nc(c(-c4cccc(S(=O)(=O)[O-])c4F)c4ccc([nH]4)c(-c4cccc(S(=O)(=O)[O-])c4F)c4nc(c(-c5cccc(S(=O)(=O)[O-])c5F)c5ccc2[nH]5)C=C4)C=C3)cc1
REMARK SMILES IDX 23 1 22 2 21 3 1 4 2 5 3 7 4 8 16 9 17 10 20 11 18 12 19 13
REMARK SMILES IDX 5 14 6 17 7 18 8 19 12 20 9 21 11 22 10 23 13 24 14 25 15 26
REMARK SMILES IDX 24 27 25 28 26 29 27 30 28 31 29 32 30 34 31 35 32 36 93 37
REMARK SMILES IDX 33 38 92 39 34 40 35 41 36 42 86 43 37 44 91 45 85 46 87 47
REMARK SMILES IDX 38 48 90 49 84 50 83 51 39 53 71 54 51 55 70 56 52 57 55 58
REMARK SMILES IDX 69 59 88 60 53 61 54 62 68 64 89 65 56 66 40 67 41 68 49 69
REMARK SMILES IDX 42 70 44 71 50 72 43 73 45 74 46 75 47 76 48 77 72 78 73 79
REMARK SMILES IDX 81 80 74 81 76 82 82 83 75 84 77 85 78 86 79 87 80 88 57 89
REMARK SMILES IDX 58 90 66 91 59 92 61 93 67 94 60 95 62 96 63 97 64 98 65 99
REMARK H PARENT 21 6 5 15 5 16 28 33 87 52 55 63
REMARK Flexibility Score: inf
ROOT
ATOM      1  C   UNL A   1      32.948  27.032  23.935  1.00  0.00     0.021 C 
ENDROOT
BRANCH   1   2
ATOM      2  C   UNL A   1      32.755  25.518  23.799  1.00  0.00     0.116 C 
BRANCH   2   3
ATOM      3  N   UNL A   1      34.021  24.818  23.876  1.00  0.00    -0.356 N 
ATOM      4  O   UNL A   1      34.527  25.302  26.068  1.00  0.00    -0.275 OA
ATOM      5  C   UNL A   1      34.813  24.772  25.001  1.00  0.00     0.226 C 
ATOM      6  H   UNL A   1      34.335  24.344  23.072  1.00  0.00     0.163 HD
BRANCH   5   7
ATOM      7  C   UNL A   1      36.129  24.061  24.765  1.00  0.00     0.171 C 
BRANCH   7   8
ATOM      8  C   UNL A   1      36.400  22.830  25.648  1.00  0.00     0.233 C 
BRANCH   8   9
ATOM      9  C   UNL A   1      37.885  22.702  25.966  1.00  0.00     0.062 A 
ATOM     10  C   UNL A   1      38.665  21.563  25.853  1.00  0.00     0.021 A 
ATOM     11  S   UNL A   1      38.833  24.030  26.497  1.00  0.00    -0.143 S 
ATOM     12  C   UNL A   1      39.998  21.756  26.317  1.00  0.00     0.012 A 
ATOM     13  C   UNL A   1      40.205  23.045  26.748  1.00  0.00     0.065 A 
ENDBRANCH   8   9
BRANCH   8  14
ATOM     14  N   UNL A   1      35.588  22.697  26.857  1.00  0.00    -0.335 N 
ATOM     15  H   UNL A   1      35.080  23.573  26.982  1.00  0.00     0.347 HD
ATOM     16  H   UNL A   1      36.254  22.472  27.596  1.00  0.00     0.347 HD
BRANCH  14  17
ATOM     17  C   UNL A   1      34.612  21.619  26.892  1.00  0.00     0.298 C 
BRANCH  17  18
ATOM     18  C   UNL A   1      33.210  22.052  26.477  1.00  0.00     0.010 A 
ATOM     19  C   UNL A   1      32.591  23.014  27.314  1.00  0.00     0.010 A 
ATOM     20  C   UNL A   1      32.494  21.594  25.341  1.00  0.00    -0.036 A 
ATOM     21  C   UNL A   1      31.256  23.389  27.157  1.00  0.00     0.001 A 
ATOM     22  C   UNL A   1      31.106  21.900  25.298  1.00  0.00     0.004 A 
ATOM     23  C   UNL A   1      30.488  22.770  26.192  1.00  0.00     0.000 A 
BRANCH  20  24
ATOM     24  C   UNL A   1      33.018  20.930  24.076  1.00  0.00     0.020 C 
ATOM     25  C   UNL A   1      32.562  19.628  23.489  1.00  0.00     0.009 C 
ATOM     26  C   UNL A   1      32.235  20.926  22.797  1.00  0.00     0.009 C 
ENDBRANCH  20  24
ENDBRANCH  17  18
ENDBRANCH  14  17
ENDBRANCH   8  14
ENDBRANCH   7   8
ENDBRANCH   5   7
ENDBRANCH   2   3
ENDBRANCH   1   2
BRANCH   1  27
ATOM     27  C   UNL A   1      31.669  27.828  24.221  1.00  0.00     0.002 C 
BRANCH  27  28
ATOM     28  C   UNL A   1      31.570  28.406  25.628  1.00  0.00     0.002 C 
BRANCH  28  29
ATOM     29  C   UNL A   1      32.761  28.157  26.545  1.00  0.00     0.021 C 
BRANCH  29  30
ATOM     30  C   UNL A   1      33.938  29.089  26.300  1.00  0.00     0.116 C 
BRANCH  30  31
ATOM     31  N   UNL A   1      33.646  30.479  26.629  1.00  0.00    -0.352 N 
ATOM     32  C   UNL A   1      34.280  31.322  27.516  1.00  0.00     0.251 C 
ATOM     33  H   UNL A   1      32.885  30.874  26.146  1.00  0.00     0.163 HD
ATOM     34  O   UNL A   1      33.807  32.423  27.753  1.00  0.00    -0.269 OA
BRANCH  32  35
ATOM     35  C   UNL A   1      35.514  30.870  28.203  1.00  0.00     0.039 A 
ATOM     36  C   UNL A   1      36.637  31.701  28.197  1.00  0.00     0.014 A 
ATOM     37  C   UNL A   1      35.553  29.648  28.877  1.00  0.00     0.014 A 
ATOM     38  C   UNL A   1      37.768  31.338  28.933  1.00  0.00     0.010 A 
ATOM     39  C   UNL A   1      36.635  29.343  29.694  1.00  0.00     0.010 A 
ATOM     40  C   UNL A   1      37.760  30.177  29.724  1.00  0.00    -0.014 A 
BRANCH  40  41
ATOM     41  C   UNL A   1      38.911  29.825  30.597  1.00  0.00     0.031 A 
ATOM     42  C   UNL A   1      39.055  30.455  31.958  1.00  0.00     0.074 A 
ATOM     43  C   UNL A   1      39.874  29.006  30.130  1.00  0.00     0.049 A 
ATOM     44  N   UNL A   1      39.997  30.285  32.849  1.00  0.00    -0.248 NA
ATOM     45  C   UNL A   1      38.027  31.430  32.358  1.00  0.00     0.031 C 
ATOM     46  C   UNL A   1      39.900  28.405  28.793  1.00  0.00     0.029 A 
ATOM     47  N   UNL A   1      41.026  28.550  30.719  1.00  0.00    -0.354 N 
ATOM     48  C   UNL A   1      39.703  31.161  33.886  1.00  0.00     0.074 A 
ATOM     49  C   UNL A   1      38.517  31.892  33.498  1.00  0.00     0.031 C 
ATOM     50  C   UNL A   1      40.995  27.636  28.678  1.00  0.00     0.029 A 
ATOM     51  C   UNL A   1      41.764  27.713  29.914  1.00  0.00     0.049 A 
ATOM     52  H   UNL A   1      41.299  28.798  31.631  1.00  0.00     0.167 HD
ATOM     53  C   UNL A   1      40.340  31.324  35.071  1.00  0.00     0.034 A 
ATOM     54  C   UNL A   1      42.927  27.075  30.149  1.00  0.00     0.034 A 
ATOM     55  C   UNL A   1      41.491  30.562  35.473  1.00  0.00     0.049 A 
ATOM     56  C   UNL A   1      43.588  27.233  31.491  1.00  0.00     0.074 A 
ATOM     57  C   UNL A   1      42.142  30.565  36.692  1.00  0.00     0.029 A 
ATOM     58  N   UNL A   1      42.172  29.669  34.658  1.00  0.00    -0.354 N 
ATOM     59  N   UNL A   1      43.194  27.928  32.530  1.00  0.00    -0.248 NA
ATOM     60  C   UNL A   1      44.837  26.489  31.705  1.00  0.00     0.031 C 
ATOM     61  C   UNL A   1      43.241  29.703  36.603  1.00  0.00     0.029 A 
ATOM     62  C   UNL A   1      43.250  29.132  35.340  1.00  0.00     0.049 A 
ATOM     63  H   UNL A   1      41.924  29.451  33.731  1.00  0.00     0.167 HD
ATOM     64  C   UNL A   1      44.122  27.676  33.534  1.00  0.00     0.074 A 
ATOM     65  C   UNL A   1      45.086  26.745  32.982  1.00  0.00     0.031 C 
ATOM     66  C   UNL A   1      44.179  28.176  34.793  1.00  0.00     0.034 A 
BRANCH  53  67
ATOM     67  C   UNL A   1      39.781  32.346  36.030  1.00  0.00     0.023 A 
ATOM     68  C   UNL A   1      38.830  31.956  36.997  1.00  0.00     0.012 A 
ATOM     69  C   UNL A   1      40.221  33.683  35.998  1.00  0.00     0.148 A 
ATOM     70  C   UNL A   1      38.289  32.889  37.880  1.00  0.00     0.002 A 
ATOM     71  C   UNL A   1      39.715  34.597  36.916  1.00  0.00     0.091 A 
ATOM     72  F   UNL A   1      41.108  34.043  35.060  1.00  0.00    -0.205 F 
ATOM     73  C   UNL A   1      38.739  34.205  37.846  1.00  0.00     0.022 A 
BRANCH  71  74
ATOM     74  S   UNL A   1      40.294  36.294  37.009  1.00  0.00     0.127 S 
ATOM     75  O   UNL A   1      39.534  36.803  38.150  1.00  0.00    -0.237 OA
ATOM     76  O   UNL A   1      41.725  36.119  37.260  1.00  0.00    -0.237 OA
ATOM     77  O   UNL A   1      39.973  36.898  35.723  1.00  0.00    -0.744 OA
ENDBRANCH  71  74
ENDBRANCH  53  67
BRANCH  54  78
ATOM     78  C   UNL A   1      43.493  26.152  29.124  1.00  0.00     0.023 A 
ATOM     79  C   UNL A   1      43.019  24.826  29.059  1.00  0.00     0.012 A 
ATOM     80  C   UNL A   1      44.467  26.578  28.201  1.00  0.00     0.148 A 
ATOM     81  C   UNL A   1      43.527  23.933  28.116  1.00  0.00     0.002 A 
ATOM     82  C   UNL A   1      44.929  25.699  27.229  1.00  0.00     0.091 A 
ATOM     83  F   UNL A   1      44.908  27.841  28.283  1.00  0.00    -0.205 F 
ATOM     84  C   UNL A   1      44.474  24.371  27.195  1.00  0.00     0.022 A 
BRANCH  82  85
ATOM     85  S   UNL A   1      46.054  26.204  25.922  1.00  0.00     0.127 S 
ATOM     86  O   UNL A   1      46.161  27.641  26.159  1.00  0.00    -0.237 OA
ATOM     87  O   UNL A   1      47.254  25.434  26.245  1.00  0.00    -0.237 OA
ATOM     88  O   UNL A   1      45.407  25.819  24.675  1.00  0.00    -0.744 OA
ENDBRANCH  82  85
ENDBRANCH  54  78
BRANCH  66  89
ATOM     89  C   UNL A   1      45.303  27.702  35.679  1.00  0.00     0.023 A 
ATOM     90  C   UNL A   1      46.532  28.391  35.687  1.00  0.00     0.012 A 
ATOM     91  C   UNL A   1      45.122  26.604  36.542  1.00  0.00     0.148 A 
ATOM     92  C   UNL A   1      47.578  27.966  36.507  1.00  0.00     0.002 A 
ATOM     93  C   UNL A   1      46.149  26.221  37.396  1.00  0.00     0.091 A 
ATOM     94  F   UNL A   1      43.952  25.948  36.508  1.00  0.00    -0.205 F 
ATOM     95  C   UNL A   1      47.383  26.890  37.368  1.00  0.00     0.022 A 
BRANCH  93  96
ATOM     96  S   UNL A   1      45.950  24.912  38.610  1.00  0.00     0.127 S 
ATOM     97  O   UNL A   1      47.337  24.633  38.978  1.00  0.00    -0.237 OA
ATOM     98  O   UNL A   1      45.163  25.571  39.653  1.00  0.00    -0.237 OA
ATOM     99  O   UNL A   1      45.255  23.831  37.923  1.00  0.00    -0.744 OA
ENDBRANCH  93  96
ENDBRANCH  66  89
ENDBRANCH  40  41
ENDBRANCH  32  35
ENDBRANCH  30  31
ENDBRANCH  29  30
ENDBRANCH  28  29
ENDBRANCH  27  28
ENDBRANCH   1  27
TORSDOF 22
ENDMDL
