MODEL 1
REMARK VINA RESULT:     -11.8      0.000      0.000
REMARK SMILES CC(C)Oc1ccc(/C=C(\NC(=O)c2ccccc2)C(=O)NCCCCCCNC(=O)c2ccc(-c3c4nc(c(-c5cccc(S(=O)(=O)[O-])c5F)c5ccc([nH]5)c(-c5cccc(S(=O)(=O)[O-])c5F)c5nc(c(-c6cccc(S(=O)(=O)[O-])c6F)c6ccc3[nH]6)C=C5)C=C4)cc2)cc1
REMARK SMILES IDX 25 1 24 2 23 3 22 4 20 5 21 6 10 8 9 9 8 10 5 11 6 12 96 13
REMARK SMILES IDX 7 14 95 15 4 16 2 17 1 18 3 19 11 20 12 21 13 23 14 24 15 25
REMARK SMILES IDX 19 26 16 27 18 28 17 29 26 30 27 31 28 32 29 33 30 34 31 36
REMARK SMILES IDX 32 37 33 38 94 39 34 40 93 41 35 42 36 43 37 44 87 45 38 46
REMARK SMILES IDX 92 47 86 48 88 49 39 50 91 51 85 52 84 53 40 55 72 56 52 57
REMARK SMILES IDX 71 58 53 59 56 60 70 61 89 62 54 63 55 64 69 66 90 67 57 68
REMARK SMILES IDX 41 69 42 70 50 71 43 72 45 73 51 74 44 75 46 76 47 77 48 78
REMARK SMILES IDX 49 79 73 80 74 81 82 82 75 83 77 84 83 85 76 86 78 87 79 88
REMARK SMILES IDX 80 89 81 90 58 91 59 92 67 93 60 94 62 95 68 96 61 97 63 98
REMARK SMILES IDX 64 99 65 100 66 101
REMARK H PARENT 22 7 11 22 29 35 88 54 56 65
REMARK Flexibility Score: inf
ROOT
ATOM      1  C   UNL A   1      37.055  23.275  25.212  1.00  0.00     0.002 C 
ENDROOT
BRANCH   1   2
ATOM      2  C   UNL A   1      35.640  23.699  25.637  1.00  0.00     0.021 C 
BRANCH   2   3
ATOM      3  C   UNL A   1      34.501  23.486  24.629  1.00  0.00     0.116 C 
BRANCH   3   4
ATOM      4  N   UNL A   1      33.185  23.427  25.245  1.00  0.00    -0.351 N 
ATOM      5  C   UNL A   1      32.351  24.452  25.604  1.00  0.00     0.267 C 
ATOM      6  O   UNL A   1      31.295  24.205  26.187  1.00  0.00    -0.268 OA
ATOM      7  H   UNL A   1      32.845  22.522  25.429  1.00  0.00     0.163 HD
BRANCH   5   8
ATOM      8  C   UNL A   1      32.795  25.870  25.382  1.00  0.00     0.107 C 
ATOM      9  C   UNL A   1      32.615  26.650  26.466  1.00  0.00     0.040 C 
BRANCH   9  10
ATOM     10  C   UNL A   1      32.963  28.064  26.659  1.00  0.00    -0.023 A 
ATOM     11  C   UNL A   1      33.525  30.718  27.366  1.00  0.00     0.119 A 
ATOM     12  C   UNL A   1      34.563  29.800  27.218  1.00  0.00     0.047 A 
ATOM     13  C   UNL A   1      32.215  30.340  27.089  1.00  0.00     0.047 A 
ATOM     14  C   UNL A   1      34.283  28.473  26.884  1.00  0.00     0.012 A 
ATOM     15  C   UNL A   1      31.934  29.012  26.751  1.00  0.00     0.012 A 
BRANCH  11  16
ATOM     16  O   UNL A   1      33.841  31.996  27.718  1.00  0.00    -0.491 OA
BRANCH  16  17
ATOM     17  C   UNL A   1      34.959  32.159  28.613  1.00  0.00     0.167 C 
ATOM     18  C   UNL A   1      36.019  33.079  28.014  1.00  0.00     0.052 C 
ATOM     19  C   UNL A   1      34.614  32.547  30.054  1.00  0.00     0.052 C 
ENDBRANCH  16  17
ENDBRANCH  11  16
ENDBRANCH   9  10
BRANCH   8  20
ATOM     20  N   UNL A   1      33.345  26.317  24.201  1.00  0.00    -0.317 N 
ATOM     21  C   UNL A   1      32.773  26.925  23.105  1.00  0.00     0.255 C 
ATOM     22  H   UNL A   1      34.317  26.179  24.127  1.00  0.00     0.170 HD
ATOM     23  O   UNL A   1      33.392  27.023  22.050  1.00  0.00    -0.269 OA
BRANCH  21  24
ATOM     24  C   UNL A   1      31.428  27.517  23.197  1.00  0.00     0.040 A 
ATOM     25  C   UNL A   1      31.294  28.899  23.101  1.00  0.00     0.014 A 
ATOM     26  C   UNL A   1      30.305  26.709  23.382  1.00  0.00     0.014 A 
ATOM     27  C   UNL A   1      30.023  29.470  23.041  1.00  0.00     0.001 A 
ATOM     28  C   UNL A   1      29.035  27.289  23.367  1.00  0.00     0.001 A 
ATOM     29  C   UNL A   1      28.894  28.663  23.160  1.00  0.00     0.000 A 
ENDBRANCH  21  24
ENDBRANCH   8  20
ENDBRANCH   5   8
ENDBRANCH   3   4
ENDBRANCH   2   3
ENDBRANCH   1   2
BRANCH   1  30
ATOM     30  C   UNL A   1      37.187  22.016  24.356  1.00  0.00     0.002 C 
BRANCH  30  31
ATOM     31  C   UNL A   1      37.766  20.777  25.026  1.00  0.00     0.021 C 
BRANCH  31  32
ATOM     32  C   UNL A   1      39.076  21.022  25.762  1.00  0.00     0.116 C 
BRANCH  32  33
ATOM     33  N   UNL A   1      39.879  19.809  25.895  1.00  0.00    -0.352 N 
ATOM     34  C   UNL A   1      41.238  19.664  26.082  1.00  0.00     0.251 C 
ATOM     35  H   UNL A   1      39.373  18.966  25.842  1.00  0.00     0.163 HD
ATOM     36  O   UNL A   1      41.763  18.565  25.986  1.00  0.00    -0.269 OA
BRANCH  34  37
ATOM     37  C   UNL A   1      42.052  20.859  26.385  1.00  0.00     0.039 A 
ATOM     38  C   UNL A   1      42.488  21.685  25.345  1.00  0.00     0.014 A 
ATOM     39  C   UNL A   1      42.337  21.185  27.711  1.00  0.00     0.014 A 
ATOM     40  C   UNL A   1      43.120  22.896  25.646  1.00  0.00     0.010 A 
ATOM     41  C   UNL A   1      42.861  22.434  28.008  1.00  0.00     0.010 A 
ATOM     42  C   UNL A   1      43.260  23.303  26.982  1.00  0.00    -0.014 A 
BRANCH  42  43
ATOM     43  C   UNL A   1      43.805  24.632  27.365  1.00  0.00     0.031 A 
ATOM     44  C   UNL A   1      42.869  25.690  27.885  1.00  0.00     0.074 A 
ATOM     45  C   UNL A   1      45.089  24.934  27.089  1.00  0.00     0.049 A 
ATOM     46  N   UNL A   1      43.084  26.964  28.073  1.00  0.00    -0.248 NA
ATOM     47  C   UNL A   1      41.488  25.266  28.181  1.00  0.00     0.031 C 
ATOM     48  C   UNL A   1      46.070  24.022  26.494  1.00  0.00     0.029 A 
ATOM     49  N   UNL A   1      45.780  26.113  27.230  1.00  0.00    -0.354 N 
ATOM     50  C   UNL A   1      41.856  27.505  28.437  1.00  0.00     0.074 A 
ATOM     51  C   UNL A   1      40.893  26.426  28.411  1.00  0.00     0.031 C 
ATOM     52  C   UNL A   1      47.233  24.673  26.323  1.00  0.00     0.029 A 
ATOM     53  C   UNL A   1      47.072  26.055  26.758  1.00  0.00     0.049 A 
ATOM     54  H   UNL A   1      45.389  26.922  27.632  1.00  0.00     0.167 HD
ATOM     55  C   UNL A   1      41.562  28.776  28.797  1.00  0.00     0.034 A 
ATOM     56  C   UNL A   1      48.014  27.014  26.671  1.00  0.00     0.034 A 
ATOM     57  C   UNL A   1      42.545  29.816  28.910  1.00  0.00     0.049 A 
ATOM     58  C   UNL A   1      47.686  28.401  27.155  1.00  0.00     0.074 A 
ATOM     59  C   UNL A   1      42.386  31.101  29.396  1.00  0.00     0.029 A 
ATOM     60  N   UNL A   1      43.875  29.687  28.541  1.00  0.00    -0.354 N 
ATOM     61  N   UNL A   1      46.560  28.854  27.652  1.00  0.00    -0.248 NA
ATOM     62  C   UNL A   1      48.760  29.402  27.090  1.00  0.00     0.031 C 
ATOM     63  C   UNL A   1      43.621  31.753  29.310  1.00  0.00     0.029 A 
ATOM     64  C   UNL A   1      44.549  30.870  28.781  1.00  0.00     0.049 A 
ATOM     65  H   UNL A   1      44.280  28.873  28.163  1.00  0.00     0.167 HD
ATOM     66  C   UNL A   1      46.797  30.183  27.983  1.00  0.00     0.074 A 
ATOM     67  C   UNL A   1      48.182  30.454  27.652  1.00  0.00     0.031 C 
ATOM     68  C   UNL A   1      45.941  31.102  28.493  1.00  0.00     0.034 A 
BRANCH  55  69
ATOM     69  C   UNL A   1      40.136  29.089  29.166  1.00  0.00     0.023 A 
ATOM     70  C   UNL A   1      39.198  29.357  28.147  1.00  0.00     0.012 A 
ATOM     71  C   UNL A   1      39.710  29.077  30.509  1.00  0.00     0.148 A 
ATOM     72  C   UNL A   1      37.872  29.650  28.459  1.00  0.00     0.002 A 
ATOM     73  C   UNL A   1      38.376  29.326  30.809  1.00  0.00     0.091 A 
ATOM     74  F   UNL A   1      40.620  28.843  31.466  1.00  0.00    -0.205 F 
ATOM     75  C   UNL A   1      37.459  29.624  29.788  1.00  0.00     0.022 A 
BRANCH  73  76
ATOM     76  S   UNL A   1      37.727  29.243  32.483  1.00  0.00     0.127 S 
ATOM     77  O   UNL A   1      38.616  30.164  33.190  1.00  0.00    -0.237 OA
ATOM     78  O   UNL A   1      36.359  29.733  32.308  1.00  0.00    -0.237 OA
ATOM     79  O   UNL A   1      37.824  27.847  32.882  1.00  0.00    -0.744 OA
ENDBRANCH  73  76
ENDBRANCH  55  69
BRANCH  56  80
ATOM     80  C   UNL A   1      49.378  26.679  26.171  1.00  0.00     0.023 A 
ATOM     81  C   UNL A   1      50.209  25.852  26.952  1.00  0.00     0.012 A 
ATOM     82  C   UNL A   1      49.843  27.134  24.922  1.00  0.00     0.148 A 
ATOM     83  C   UNL A   1      51.487  25.506  26.513  1.00  0.00     0.002 A 
ATOM     84  C   UNL A   1      51.100  26.745  24.468  1.00  0.00     0.091 A 
ATOM     85  F   UNL A   1      49.044  27.931  24.198  1.00  0.00    -0.205 F 
ATOM     86  C   UNL A   1      51.928  25.943  25.267  1.00  0.00     0.022 A 
BRANCH  84  87
ATOM     87  S   UNL A   1      51.700  27.158  22.826  1.00  0.00     0.127 S 
ATOM     88  O   UNL A   1      50.601  26.699  21.982  1.00  0.00    -0.237 OA
ATOM     89  O   UNL A   1      51.843  28.613  22.914  1.00  0.00    -0.237 OA
ATOM     90  O   UNL A   1      52.958  26.439  22.680  1.00  0.00    -0.744 OA
ENDBRANCH  84  87
ENDBRANCH  56  80
BRANCH  68  91
ATOM     91  C   UNL A   1      46.474  32.486  28.744  1.00  0.00     0.023 A 
ATOM     92  C   UNL A   1      47.068  32.784  29.986  1.00  0.00     0.012 A 
ATOM     93  C   UNL A   1      46.480  33.453  27.720  1.00  0.00     0.148 A 
ATOM     94  C   UNL A   1      47.642  34.033  30.214  1.00  0.00     0.002 A 
ATOM     95  C   UNL A   1      47.095  34.679  27.939  1.00  0.00     0.091 A 
ATOM     96  F   UNL A   1      45.895  33.151  26.553  1.00  0.00    -0.205 F 
ATOM     97  C   UNL A   1      47.668  34.974  29.187  1.00  0.00     0.022 A 
BRANCH  95  98
ATOM     98  S   UNL A   1      47.263  35.917  26.648  1.00  0.00     0.127 S 
ATOM     99  O   UNL A   1      45.883  36.373  26.491  1.00  0.00    -0.237 OA
ATOM    100  O   UNL A   1      48.161  36.891  27.268  1.00  0.00    -0.237 OA
ATOM    101  O   UNL A   1      47.825  35.224  25.496  1.00  0.00    -0.744 OA
ENDBRANCH  95  98
ENDBRANCH  68  91
ENDBRANCH  42  43
ENDBRANCH  34  37
ENDBRANCH  32  33
ENDBRANCH  31  32
ENDBRANCH  30  31
ENDBRANCH   1  30
TORSDOF 21
ENDMDL
MODEL 2
REMARK VINA RESULT:     -11.7      3.466      8.652
REMARK SMILES CC(C)Oc1ccc(/C=C(\NC(=O)c2ccccc2)C(=O)NCCCCCCNC(=O)c2ccc(-c3c4nc(c(-c5cccc(S(=O)(=O)[O-])c5F)c5ccc([nH]5)c(-c5cccc(S(=O)(=O)[O-])c5F)c5nc(c(-c6cccc(S(=O)(=O)[O-])c6F)c6ccc3[nH]6)C=C5)C=C4)cc2)cc1
REMARK SMILES IDX 25 1 24 2 23 3 22 4 20 5 21 6 10 8 9 9 8 10 5 11 6 12 96 13
REMARK SMILES IDX 7 14 95 15 4 16 2 17 1 18 3 19 11 20 12 21 13 23 14 24 15 25
REMARK SMILES IDX 19 26 16 27 18 28 17 29 26 30 27 31 28 32 29 33 30 34 31 36
REMARK SMILES IDX 32 37 33 38 94 39 34 40 93 41 35 42 36 43 37 44 87 45 38 46
REMARK SMILES IDX 92 47 86 48 88 49 39 50 91 51 85 52 84 53 40 55 72 56 52 57
REMARK SMILES IDX 71 58 53 59 56 60 70 61 89 62 54 63 55 64 69 66 90 67 57 68
REMARK SMILES IDX 41 69 42 70 50 71 43 72 45 73 51 74 44 75 46 76 47 77 48 78
REMARK SMILES IDX 49 79 73 80 74 81 82 82 75 83 77 84 83 85 76 86 78 87 79 88
REMARK SMILES IDX 80 89 81 90 58 91 59 92 67 93 60 94 62 95 68 96 61 97 63 98
REMARK SMILES IDX 64 99 65 100 66 101
REMARK H PARENT 22 7 11 22 29 35 88 54 56 65
REMARK Flexibility Score: inf
ROOT
ATOM      1  C   UNL A   1      34.267  22.286  24.037  1.00  0.00     0.002 C 
ENDROOT
BRANCH   1   2
ATOM      2  C   UNL A   1      33.119  22.814  23.162  1.00  0.00     0.021 C 
BRANCH   2   3
ATOM      3  C   UNL A   1      32.102  23.759  23.816  1.00  0.00     0.116 C 
BRANCH   3   4
ATOM      4  N   UNL A   1      31.670  23.324  25.135  1.00  0.00    -0.351 N 
ATOM      5  C   UNL A   1      30.886  23.978  26.048  1.00  0.00     0.267 C 
ATOM      6  O   UNL A   1      30.687  23.473  27.153  1.00  0.00    -0.268 OA
ATOM      7  H   UNL A   1      31.986  22.433  25.411  1.00  0.00     0.163 HD
BRANCH   5   8
ATOM      8  C   UNL A   1      30.376  25.353  25.724  1.00  0.00     0.107 C 
ATOM      9  C   UNL A   1      29.903  25.452  24.467  1.00  0.00     0.040 C 
BRANCH   9  10
ATOM     10  C   UNL A   1      29.283  26.604  23.798  1.00  0.00    -0.023 A 
ATOM     11  C   UNL A   1      28.103  28.959  22.839  1.00  0.00     0.119 A 
ATOM     12  C   UNL A   1      29.450  28.701  22.590  1.00  0.00     0.047 A 
ATOM     13  C   UNL A   1      27.322  28.015  23.496  1.00  0.00     0.047 A 
ATOM     14  C   UNL A   1      30.044  27.537  23.083  1.00  0.00     0.012 A 
ATOM     15  C   UNL A   1      27.915  26.846  23.987  1.00  0.00     0.012 A 
BRANCH  11  16
ATOM     16  O   UNL A   1      27.571  30.120  22.361  1.00  0.00    -0.491 OA
BRANCH  16  17
ATOM     17  C   UNL A   1      28.470  31.240  22.246  1.00  0.00     0.167 C 
ATOM     18  C   UNL A   1      28.069  32.157  21.094  1.00  0.00     0.052 C 
ATOM     19  C   UNL A   1      28.735  32.025  23.534  1.00  0.00     0.052 C 
ENDBRANCH  16  17
ENDBRANCH  11  16
ENDBRANCH   9  10
BRANCH   8  20
ATOM     20  N   UNL A   1      30.376  26.394  26.626  1.00  0.00    -0.317 N 
ATOM     21  C   UNL A   1      31.274  27.418  26.831  1.00  0.00     0.255 C 
ATOM     22  H   UNL A   1      29.597  26.409  27.229  1.00  0.00     0.170 HD
ATOM     23  O   UNL A   1      31.219  28.103  27.848  1.00  0.00    -0.269 OA
BRANCH  21  24
ATOM     24  C   UNL A   1      32.282  27.744  25.809  1.00  0.00     0.040 A 
ATOM     25  C   UNL A   1      33.205  26.769  25.441  1.00  0.00     0.014 A 
ATOM     26  C   UNL A   1      32.315  29.008  25.218  1.00  0.00     0.014 A 
ATOM     27  C   UNL A   1      34.075  27.003  24.377  1.00  0.00     0.001 A 
ATOM     28  C   UNL A   1      33.218  29.255  24.182  1.00  0.00     0.001 A 
ATOM     29  C   UNL A   1      34.071  28.243  23.739  1.00  0.00     0.000 A 
ENDBRANCH  21  24
ENDBRANCH   8  20
ENDBRANCH   5   8
ENDBRANCH   3   4
ENDBRANCH   2   3
ENDBRANCH   1   2
BRANCH   1  30
ATOM     30  C   UNL A   1      35.624  22.977  23.912  1.00  0.00     0.002 C 
BRANCH  30  31
ATOM     31  C   UNL A   1      36.842  22.215  24.420  1.00  0.00     0.021 C 
BRANCH  31  32
ATOM     32  C   UNL A   1      37.434  22.773  25.706  1.00  0.00     0.116 C 
BRANCH  32  33
ATOM     33  N   UNL A   1      38.653  22.077  26.110  1.00  0.00    -0.352 N 
ATOM     34  C   UNL A   1      39.837  22.581  26.604  1.00  0.00     0.251 C 
ATOM     35  H   UNL A   1      38.624  21.097  26.015  1.00  0.00     0.163 HD
ATOM     36  O   UNL A   1      40.818  21.861  26.716  1.00  0.00    -0.269 OA
BRANCH  34  37
ATOM     37  C   UNL A   1      39.908  24.008  26.983  1.00  0.00     0.039 A 
ATOM     38  C   UNL A   1      39.785  24.377  28.325  1.00  0.00     0.014 A 
ATOM     39  C   UNL A   1      40.148  24.972  26.005  1.00  0.00     0.014 A 
ATOM     40  C   UNL A   1      40.011  25.707  28.696  1.00  0.00     0.010 A 
ATOM     41  C   UNL A   1      40.481  26.262  26.387  1.00  0.00     0.010 A 
ATOM     42  C   UNL A   1      40.415  26.647  27.734  1.00  0.00    -0.014 A 
BRANCH  42  43
ATOM     43  C   UNL A   1      40.794  28.041  28.083  1.00  0.00     0.031 A 
ATOM     44  C   UNL A   1      42.249  28.425  28.105  1.00  0.00     0.074 A 
ATOM     45  C   UNL A   1      39.856  28.897  28.534  1.00  0.00     0.049 A 
ATOM     46  N   UNL A   1      42.812  29.504  28.579  1.00  0.00    -0.248 NA
ATOM     47  C   UNL A   1      43.205  27.436  27.572  1.00  0.00     0.031 C 
ATOM     48  C   UNL A   1      38.424  28.608  28.650  1.00  0.00     0.029 A 
ATOM     49  N   UNL A   1      39.974  30.175  29.025  1.00  0.00    -0.354 N 
ATOM     50  C   UNL A   1      44.182  29.295  28.469  1.00  0.00     0.074 A 
ATOM     51  C   UNL A   1      44.366  27.972  27.914  1.00  0.00     0.031 C 
ATOM     52  C   UNL A   1      37.798  29.674  29.175  1.00  0.00     0.029 A 
ATOM     53  C   UNL A   1      38.784  30.707  29.469  1.00  0.00     0.049 A 
ATOM     54  H   UNL A   1      40.828  30.664  29.055  1.00  0.00     0.167 HD
ATOM     55  C   UNL A   1      45.196  30.140  28.768  1.00  0.00     0.034 A 
ATOM     56  C   UNL A   1      38.524  31.888  30.063  1.00  0.00     0.034 A 
ATOM     57  C   UNL A   1      44.998  31.485  29.230  1.00  0.00     0.049 A 
ATOM     58  C   UNL A   1      39.659  32.844  30.309  1.00  0.00     0.074 A 
ATOM     59  C   UNL A   1      45.944  32.473  29.432  1.00  0.00     0.029 A 
ATOM     60  N   UNL A   1      43.767  32.034  29.552  1.00  0.00    -0.354 N 
ATOM     61  N   UNL A   1      40.935  32.691  30.045  1.00  0.00    -0.248 NA
ATOM     62  C   UNL A   1      39.321  34.141  30.911  1.00  0.00     0.031 C 
ATOM     63  C   UNL A   1      45.283  33.619  29.888  1.00  0.00     0.029 A 
ATOM     64  C   UNL A   1      43.926  33.346  29.958  1.00  0.00     0.049 A 
ATOM     65  H   UNL A   1      42.906  31.560  29.499  1.00  0.00     0.167 HD
ATOM     66  C   UNL A   1      41.547  33.881  30.423  1.00  0.00     0.074 A 
ATOM     67  C   UNL A   1      40.498  34.753  30.911  1.00  0.00     0.031 C 
ATOM     68  C   UNL A   1      42.861  34.214  30.390  1.00  0.00     0.034 A 
BRANCH  55  69
ATOM     69  C   UNL A   1      46.603  29.659  28.532  1.00  0.00     0.023 A 
ATOM     70  C   UNL A   1      47.191  29.830  27.261  1.00  0.00     0.012 A 
ATOM     71  C   UNL A   1      47.360  29.077  29.568  1.00  0.00     0.148 A 
ATOM     72  C   UNL A   1      48.491  29.394  27.012  1.00  0.00     0.002 A 
ATOM     73  C   UNL A   1      48.671  28.684  29.324  1.00  0.00     0.091 A 
ATOM     74  F   UNL A   1      46.778  28.900  30.763  1.00  0.00    -0.205 F 
ATOM     75  C   UNL A   1      49.234  28.831  28.046  1.00  0.00     0.022 A 
BRANCH  73  76
ATOM     76  S   UNL A   1      49.738  28.018  30.608  1.00  0.00     0.127 S 
ATOM     77  O   UNL A   1      48.969  26.858  31.058  1.00  0.00    -0.237 OA
ATOM     78  O   UNL A   1      50.952  27.690  29.860  1.00  0.00    -0.237 OA
ATOM     79  O   UNL A   1      49.899  29.082  31.588  1.00  0.00    -0.744 OA
ENDBRANCH  73  76
ENDBRANCH  55  69
BRANCH  56  80
ATOM     80  C   UNL A   1      37.120  32.261  30.399  1.00  0.00     0.023 A 
ATOM     81  C   UNL A   1      36.633  31.995  31.694  1.00  0.00     0.012 A 
ATOM     82  C   UNL A   1      36.281  32.907  29.471  1.00  0.00     0.148 A 
ATOM     83  C   UNL A   1      35.330  32.340  32.052  1.00  0.00     0.002 A 
ATOM     84  C   UNL A   1      34.999  33.293  29.850  1.00  0.00     0.091 A 
ATOM     85  F   UNL A   1      36.757  33.141  28.240  1.00  0.00    -0.205 F 
ATOM     86  C   UNL A   1      34.517  32.998  31.134  1.00  0.00     0.022 A 
BRANCH  84  87
ATOM     87  S   UNL A   1      33.926  34.253  28.775  1.00  0.00     0.127 S 
ATOM     88  O   UNL A   1      34.809  35.342  28.367  1.00  0.00    -0.237 OA
ATOM     89  O   UNL A   1      33.612  33.287  27.721  1.00  0.00    -0.237 OA
ATOM     90  O   UNL A   1      32.788  34.633  29.601  1.00  0.00    -0.744 OA
ENDBRANCH  84  87
ENDBRANCH  56  80
BRANCH  68  91
ATOM     91  C   UNL A   1      43.245  35.583  30.879  1.00  0.00     0.023 A 
ATOM     92  C   UNL A   1      43.571  35.767  32.237  1.00  0.00     0.012 A 
ATOM     93  C   UNL A   1      43.384  36.657  29.979  1.00  0.00     0.148 A 
ATOM     94  C   UNL A   1      44.009  37.007  32.697  1.00  0.00     0.002 A 
ATOM     95  C   UNL A   1      43.865  37.878  30.436  1.00  0.00     0.091 A 
ATOM     96  F   UNL A   1      43.053  36.461  28.695  1.00  0.00    -0.205 F 
ATOM     97  C   UNL A   1      44.169  38.057  31.796  1.00  0.00     0.022 A 
BRANCH  95  98
ATOM     98  S   UNL A   1      44.195  39.257  29.334  1.00  0.00     0.127 S 
ATOM     99  O   UNL A   1      44.666  40.279  30.269  1.00  0.00    -0.237 OA
ATOM    100  O   UNL A   1      45.229  38.711  28.455  1.00  0.00    -0.237 OA
ATOM    101  O   UNL A   1      42.933  39.554  28.671  1.00  0.00    -0.744 OA
ENDBRANCH  95  98
ENDBRANCH  68  91
ENDBRANCH  42  43
ENDBRANCH  34  37
ENDBRANCH  32  33
ENDBRANCH  31  32
ENDBRANCH  30  31
ENDBRANCH   1  30
TORSDOF 21
ENDMDL
MODEL 3
REMARK VINA RESULT:     -11.5      5.240      8.822
REMARK SMILES CC(C)Oc1ccc(/C=C(\NC(=O)c2ccccc2)C(=O)NCCCCCCNC(=O)c2ccc(-c3c4nc(c(-c5cccc(S(=O)(=O)[O-])c5F)c5ccc([nH]5)c(-c5cccc(S(=O)(=O)[O-])c5F)c5nc(c(-c6cccc(S(=O)(=O)[O-])c6F)c6ccc3[nH]6)C=C5)C=C4)cc2)cc1
REMARK SMILES IDX 25 1 24 2 23 3 22 4 20 5 21 6 10 8 9 9 8 10 5 11 6 12 96 13
REMARK SMILES IDX 7 14 95 15 4 16 2 17 1 18 3 19 11 20 12 21 13 23 14 24 15 25
REMARK SMILES IDX 19 26 16 27 18 28 17 29 26 30 27 31 28 32 29 33 30 34 31 36
REMARK SMILES IDX 32 37 33 38 94 39 34 40 93 41 35 42 36 43 37 44 87 45 38 46
REMARK SMILES IDX 92 47 86 48 88 49 39 50 91 51 85 52 84 53 40 55 72 56 52 57
REMARK SMILES IDX 71 58 53 59 56 60 70 61 89 62 54 63 55 64 69 66 90 67 57 68
REMARK SMILES IDX 41 69 42 70 50 71 43 72 45 73 51 74 44 75 46 76 47 77 48 78
REMARK SMILES IDX 49 79 73 80 74 81 82 82 75 83 77 84 83 85 76 86 78 87 79 88
REMARK SMILES IDX 80 89 81 90 58 91 59 92 67 93 60 94 62 95 68 96 61 97 63 98
REMARK SMILES IDX 64 99 65 100 66 101
REMARK H PARENT 22 7 11 22 29 35 88 54 56 65
REMARK Flexibility Score: inf
ROOT
ATOM      1  C   UNL A   1      31.883  29.159  23.504  1.00  0.00     0.002 C 
ENDROOT
BRANCH   1   2
ATOM      2  C   UNL A   1      30.641  28.256  23.565  1.00  0.00     0.021 C 
BRANCH   2   3
ATOM      3  C   UNL A   1      30.785  26.813  23.063  1.00  0.00     0.116 C 
BRANCH   3   4
ATOM      4  N   UNL A   1      31.579  26.696  21.850  1.00  0.00    -0.351 N 
ATOM      5  C   UNL A   1      32.656  25.890  21.596  1.00  0.00     0.267 C 
ATOM      6  O   UNL A   1      33.250  25.986  20.522  1.00  0.00    -0.268 OA
ATOM      7  H   UNL A   1      31.304  27.280  21.107  1.00  0.00     0.163 HD
BRANCH   5   8
ATOM      8  C   UNL A   1      33.164  24.981  22.679  1.00  0.00     0.107 C 
ATOM      9  C   UNL A   1      32.743  23.710  22.533  1.00  0.00     0.040 C 
BRANCH   9  10
ATOM     10  C   UNL A   1      33.059  22.529  23.350  1.00  0.00    -0.023 A 
ATOM     11  C   UNL A   1      33.660  20.095  24.602  1.00  0.00     0.119 A 
ATOM     12  C   UNL A   1      34.659  21.047  24.411  1.00  0.00     0.047 A 
ATOM     13  C   UNL A   1      32.347  20.379  24.242  1.00  0.00     0.047 A 
ATOM     14  C   UNL A   1      34.365  22.253  23.771  1.00  0.00     0.012 A 
ATOM     15  C   UNL A   1      32.050  21.588  23.604  1.00  0.00     0.012 A 
BRANCH  11  16
ATOM     16  O   UNL A   1      33.997  18.921  25.208  1.00  0.00    -0.491 OA
BRANCH  16  17
ATOM     17  C   UNL A   1      33.391  17.726  24.678  1.00  0.00     0.167 C 
ATOM     18  C   UNL A   1      34.207  17.157  23.520  1.00  0.00     0.052 C 
ATOM     19  C   UNL A   1      33.024  16.647  25.701  1.00  0.00     0.052 C 
ENDBRANCH  16  17
ENDBRANCH  11  16
ENDBRANCH   9  10
BRANCH   8  20
ATOM     20  N   UNL A   1      33.988  25.402  23.699  1.00  0.00    -0.317 N 
ATOM     21  C   UNL A   1      33.773  25.502  25.057  1.00  0.00     0.255 C 
ATOM     22  H   UNL A   1      34.886  25.680  23.408  1.00  0.00     0.170 HD
ATOM     23  O   UNL A   1      34.550  26.134  25.767  1.00  0.00    -0.269 OA
BRANCH  21  24
ATOM     24  C   UNL A   1      32.639  24.807  25.687  1.00  0.00     0.040 A 
ATOM     25  C   UNL A   1      31.352  25.296  25.479  1.00  0.00     0.014 A 
ATOM     26  C   UNL A   1      32.847  23.680  26.483  1.00  0.00     0.014 A 
ATOM     27  C   UNL A   1      30.253  24.574  25.944  1.00  0.00     0.001 A 
ATOM     28  C   UNL A   1      31.747  22.985  26.987  1.00  0.00     0.001 A 
ATOM     29  C   UNL A   1      30.451  23.411  26.686  1.00  0.00     0.000 A 
ENDBRANCH  21  24
ENDBRANCH   8  20
ENDBRANCH   5   8
ENDBRANCH   3   4
ENDBRANCH   2   3
ENDBRANCH   1   2
BRANCH   1  30
ATOM     30  C   UNL A   1      32.902  29.035  24.637  1.00  0.00     0.002 C 
BRANCH  30  31
ATOM     31  C   UNL A   1      32.372  29.123  26.062  1.00  0.00     0.021 C 
BRANCH  31  32
ATOM     32  C   UNL A   1      33.455  29.261  27.122  1.00  0.00     0.116 C 
BRANCH  32  33
ATOM     33  N   UNL A   1      33.622  30.638  27.578  1.00  0.00    -0.352 N 
ATOM     34  C   UNL A   1      34.637  31.209  28.316  1.00  0.00     0.251 C 
ATOM     35  H   UNL A   1      32.899  31.254  27.318  1.00  0.00     0.163 HD
ATOM     36  O   UNL A   1      34.518  32.339  28.763  1.00  0.00    -0.269 OA
BRANCH  34  37
ATOM     37  C   UNL A   1      35.865  30.427  28.573  1.00  0.00     0.039 A 
ATOM     38  C   UNL A   1      36.967  30.565  27.724  1.00  0.00     0.014 A 
ATOM     39  C   UNL A   1      35.936  29.596  29.690  1.00  0.00     0.014 A 
ATOM     40  C   UNL A   1      38.176  29.948  28.060  1.00  0.00     0.010 A 
ATOM     41  C   UNL A   1      37.161  29.078  30.078  1.00  0.00     0.010 A 
ATOM     42  C   UNL A   1      38.295  29.245  29.269  1.00  0.00    -0.014 A 
BRANCH  42  43
ATOM     43  C   UNL A   1      39.583  28.677  29.745  1.00  0.00     0.031 A 
ATOM     44  C   UNL A   1      40.336  29.376  30.845  1.00  0.00     0.074 A 
ATOM     45  C   UNL A   1      40.146  27.646  29.083  1.00  0.00     0.049 A 
ATOM     46  N   UNL A   1      41.558  29.183  31.263  1.00  0.00    -0.248 NA
ATOM     47  C   UNL A   1      39.636  30.478  31.531  1.00  0.00     0.031 C 
ATOM     48  C   UNL A   1      39.557  26.947  27.937  1.00  0.00     0.029 A 
ATOM     49  N   UNL A   1      41.365  27.036  29.249  1.00  0.00    -0.354 N 
ATOM     50  C   UNL A   1      41.798  30.180  32.202  1.00  0.00     0.074 A 
ATOM     51  C   UNL A   1      40.605  30.996  32.269  1.00  0.00     0.031 C 
ATOM     52  C   UNL A   1      40.412  26.005  27.507  1.00  0.00     0.029 A 
ATOM     53  C   UNL A   1      41.624  26.057  28.316  1.00  0.00     0.049 A 
ATOM     54  H   UNL A   1      41.993  27.275  29.968  1.00  0.00     0.167 HD
ATOM     55  C   UNL A   1      42.897  30.377  32.968  1.00  0.00     0.034 A 
ATOM     56  C   UNL A   1      42.722  25.300  28.126  1.00  0.00     0.034 A 
ATOM     57  C   UNL A   1      44.037  29.505  32.960  1.00  0.00     0.049 A 
ATOM     58  C   UNL A   1      43.899  25.484  29.044  1.00  0.00     0.074 A 
ATOM     59  C   UNL A   1      45.144  29.528  33.788  1.00  0.00     0.029 A 
ATOM     60  N   UNL A   1      44.211  28.444  32.084  1.00  0.00    -0.354 N 
ATOM     61  N   UNL A   1      44.043  26.327  30.039  1.00  0.00    -0.248 NA
ATOM     62  C   UNL A   1      45.055  24.601  28.834  1.00  0.00     0.031 C 
ATOM     63  C   UNL A   1      45.994  28.486  33.404  1.00  0.00     0.029 A 
ATOM     64  C   UNL A   1      45.411  27.808  32.345  1.00  0.00     0.049 A 
ATOM     65  H   UNL A   1      43.575  28.183  31.380  1.00  0.00     0.167 HD
ATOM     66  C   UNL A   1      45.291  26.058  30.589  1.00  0.00     0.074 A 
ATOM     67  C   UNL A   1      45.852  24.958  29.831  1.00  0.00     0.031 C 
ATOM     68  C   UNL A   1      45.926  26.681  31.612  1.00  0.00     0.034 A 
BRANCH  55  69
ATOM     69  C   UNL A   1      42.883  31.537  33.929  1.00  0.00     0.023 A 
ATOM     70  C   UNL A   1      43.290  32.812  33.484  1.00  0.00     0.012 A 
ATOM     71  C   UNL A   1      42.430  31.381  35.254  1.00  0.00     0.148 A 
ATOM     72  C   UNL A   1      43.288  33.903  34.351  1.00  0.00     0.002 A 
ATOM     73  C   UNL A   1      42.389  32.483  36.100  1.00  0.00     0.091 A 
ATOM     74  F   UNL A   1      42.068  30.157  35.667  1.00  0.00    -0.205 F 
ATOM     75  C   UNL A   1      42.828  33.741  35.655  1.00  0.00     0.022 A 
BRANCH  73  76
ATOM     76  S   UNL A   1      41.743  32.396  37.775  1.00  0.00     0.127 S 
ATOM     77  O   UNL A   1      40.333  32.095  37.532  1.00  0.00    -0.237 OA
ATOM     78  O   UNL A   1      42.512  31.289  38.344  1.00  0.00    -0.237 OA
ATOM     79  O   UNL A   1      42.012  33.694  38.376  1.00  0.00    -0.744 OA
ENDBRANCH  73  76
ENDBRANCH  55  69
BRANCH  56  80
ATOM     80  C   UNL A   1      42.732  24.250  27.067  1.00  0.00     0.023 A 
ATOM     81  C   UNL A   1      43.430  24.495  25.868  1.00  0.00     0.012 A 
ATOM     82  C   UNL A   1      42.094  23.008  27.248  1.00  0.00     0.148 A 
ATOM     83  C   UNL A   1      43.474  23.534  24.859  1.00  0.00     0.002 A 
ATOM     84  C   UNL A   1      42.183  22.035  26.257  1.00  0.00     0.091 A 
ATOM     85  F   UNL A   1      41.423  22.798  28.389  1.00  0.00    -0.205 F 
ATOM     86  C   UNL A   1      42.859  22.300  25.057  1.00  0.00     0.022 A 
BRANCH  84  87
ATOM     87  S   UNL A   1      41.527  20.376  26.476  1.00  0.00     0.127 S 
ATOM     88  O   UNL A   1      42.151  19.660  25.367  1.00  0.00    -0.237 OA
ATOM     89  O   UNL A   1      42.037  20.023  27.802  1.00  0.00    -0.237 OA
ATOM     90  O   UNL A   1      40.079  20.518  26.406  1.00  0.00    -0.744 OA
ENDBRANCH  84  87
ENDBRANCH  56  80
BRANCH  68  91
ATOM     91  C   UNL A   1      47.293  26.181  31.991  1.00  0.00     0.023 A 
ATOM     92  C   UNL A   1      48.427  26.714  31.348  1.00  0.00     0.012 A 
ATOM     93  C   UNL A   1      47.459  25.267  33.050  1.00  0.00     0.148 A 
ATOM     94  C   UNL A   1      49.708  26.328  31.739  1.00  0.00     0.002 A 
ATOM     95  C   UNL A   1      48.739  24.921  33.464  1.00  0.00     0.091 A 
ATOM     96  F   UNL A   1      46.364  24.762  33.635  1.00  0.00    -0.205 F 
ATOM     97  C   UNL A   1      49.864  25.444  32.804  1.00  0.00     0.022 A 
BRANCH  95  98
ATOM     98  S   UNL A   1      49.040  23.867  34.886  1.00  0.00     0.127 S 
ATOM     99  O   UNL A   1      48.393  24.622  35.959  1.00  0.00    -0.237 OA
ATOM    100  O   UNL A   1      48.353  22.633  34.508  1.00  0.00    -0.237 OA
ATOM    101  O   UNL A   1      50.488  23.743  34.997  1.00  0.00    -0.744 OA
ENDBRANCH  95  98
ENDBRANCH  68  91
ENDBRANCH  42  43
ENDBRANCH  34  37
ENDBRANCH  32  33
ENDBRANCH  31  32
ENDBRANCH  30  31
ENDBRANCH   1  30
TORSDOF 21
ENDMDL
