MODEL 1
REMARK VINA RESULT:     -10.8      0.000      0.000
REMARK SMILES O=C(CSc1nc(-c2cccc(Br)c2)c[nH]1)NCCCCCCNC(=O)c1ccc(-c2c3nc(c(-c4cccc(S(=O)(=O)[O-])c4F)c4ccc([nH]4)c(-c4cccc(S(=O)(=O)[O-])c4F)c4nc(c(-c5cccc(S(=O)(=O)[O-])c5F)c5ccc2[nH]5)C=C4)C=C3)cc1
REMARK SMILES IDX 20 1 19 2 18 3 17 4 1 5 2 6 3 8 4 9 5 10 6 11 16 12 7 13
REMARK SMILES IDX 15 14 8 16 9 17 14 18 10 19 12 20 11 21 13 22 21 23 22 24
REMARK SMILES IDX 23 25 24 26 25 27 26 29 27 30 28 31 89 32 29 33 88 34 30 35
REMARK SMILES IDX 31 36 32 37 82 38 33 39 87 40 81 41 83 42 34 43 86 44 80 45
REMARK SMILES IDX 79 46 35 48 67 49 47 50 66 51 48 52 51 53 65 54 84 55 49 56
REMARK SMILES IDX 50 57 64 59 85 60 52 61 36 62 37 63 45 64 38 65 40 66 46 67
REMARK SMILES IDX 39 68 41 69 42 70 43 71 44 72 68 73 69 74 77 75 70 76 72 77
REMARK SMILES IDX 78 78 71 79 73 80 74 81 75 82 76 83 53 84 54 85 62 86 55 87
REMARK SMILES IDX 57 88 63 89 56 90 58 91 59 92 60 93 61 94
REMARK H PARENT 17 7 16 15 24 28 83 47 51 58
REMARK Flexibility Score: inf
ROOT
ATOM      1  C   UNL A   1      35.684  24.383  25.136  1.00  0.00     0.002 C 
ENDROOT
BRANCH   1   2
ATOM      2  C   UNL A   1      34.536  25.201  25.743  1.00  0.00     0.021 C 
BRANCH   2   3
ATOM      3  C   UNL A   1      34.029  26.336  24.858  1.00  0.00     0.116 C 
BRANCH   3   4
ATOM      4  N   UNL A   1      32.836  25.946  24.131  1.00  0.00    -0.355 N 
ATOM      5  O   UNL A   1      33.863  25.610  22.110  1.00  0.00    -0.274 OA
ATOM      6  C   UNL A   1      32.842  25.636  22.792  1.00  0.00     0.230 C 
ATOM      7  H   UNL A   1      31.983  25.901  24.620  1.00  0.00     0.163 HD
BRANCH   6   8
ATOM      8  C   UNL A   1      31.497  25.239  22.224  1.00  0.00     0.178 C 
BRANCH   8   9
ATOM      9  S   UNL A   1      30.450  24.494  23.496  1.00  0.00    -0.078 SA
BRANCH   9  10
ATOM     10  C   UNL A   1      31.349  23.119  24.031  1.00  0.00     0.166 A 
ATOM     11  N   UNL A   1      31.674  22.103  23.264  1.00  0.00    -0.223 NA
ATOM     12  N   UNL A   1      31.676  22.885  25.340  1.00  0.00    -0.339 N 
ATOM     13  C   UNL A   1      32.168  21.152  24.122  1.00  0.00     0.089 A 
ATOM     14  C   UNL A   1      32.189  21.619  25.416  1.00  0.00     0.113 A 
ATOM     15  H   UNL A   1      31.562  23.514  26.089  1.00  0.00     0.168 HD
BRANCH  13  16
ATOM     16  C   UNL A   1      32.579  19.834  23.703  1.00  0.00     0.003 A 
ATOM     17  C   UNL A   1      32.141  19.325  22.474  1.00  0.00     0.010 A 
ATOM     18  C   UNL A   1      33.398  19.052  24.526  1.00  0.00     0.026 A 
ATOM     19  C   UNL A   1      32.537  18.052  22.060  1.00  0.00     0.002 A 
ATOM     20  C   UNL A   1      33.776  17.776  24.113  1.00  0.00     0.018 A 
ATOM     21  C   UNL A   1      33.355  17.274  22.881  1.00  0.00     0.016 A 
ATOM     22  Br  UNL A   1      34.857  16.708  25.237  1.00  0.00    -0.051 Br
ENDBRANCH  13  16
ENDBRANCH   9  10
ENDBRANCH   8   9
ENDBRANCH   6   8
ENDBRANCH   3   4
ENDBRANCH   2   3
ENDBRANCH   1   2
BRANCH   1  23
ATOM     23  C   UNL A   1      35.255  23.257  24.189  1.00  0.00     0.002 C 
BRANCH  23  24
ATOM     24  C   UNL A   1      35.901  21.897  24.463  1.00  0.00     0.021 C 
BRANCH  24  25
ATOM     25  C   UNL A   1      36.564  21.763  25.831  1.00  0.00     0.116 C 
BRANCH  25  26
ATOM     26  N   UNL A   1      37.618  20.759  25.841  1.00  0.00    -0.352 N 
ATOM     27  C   UNL A   1      38.968  20.920  26.031  1.00  0.00     0.251 C 
ATOM     28  H   UNL A   1      37.320  19.833  25.689  1.00  0.00     0.163 HD
ATOM     29  O   UNL A   1      39.729  19.972  25.836  1.00  0.00    -0.269 OA
BRANCH  27  30
ATOM     30  C   UNL A   1      39.510  22.230  26.453  1.00  0.00     0.039 A 
ATOM     31  C   UNL A   1      40.481  22.268  27.458  1.00  0.00     0.014 A 
ATOM     32  C   UNL A   1      39.061  23.418  25.869  1.00  0.00     0.014 A 
ATOM     33  C   UNL A   1      41.034  23.492  27.840  1.00  0.00     0.010 A 
ATOM     34  C   UNL A   1      39.672  24.627  26.195  1.00  0.00     0.010 A 
ATOM     35  C   UNL A   1      40.656  24.681  27.192  1.00  0.00    -0.014 A 
BRANCH  35  36
ATOM     36  C   UNL A   1      41.274  25.984  27.553  1.00  0.00     0.031 A 
ATOM     37  C   UNL A   1      42.711  26.266  27.201  1.00  0.00     0.074 A 
ATOM     38  C   UNL A   1      40.563  26.891  28.252  1.00  0.00     0.049 A 
ATOM     39  N   UNL A   1      43.435  27.324  27.469  1.00  0.00    -0.248 NA
ATOM     40  C   UNL A   1      43.442  25.214  26.474  1.00  0.00     0.031 C 
ATOM     41  C   UNL A   1      39.187  26.710  28.721  1.00  0.00     0.029 A 
ATOM     42  N   UNL A   1      40.907  28.138  28.714  1.00  0.00    -0.354 N 
ATOM     43  C   UNL A   1      44.704  27.056  26.967  1.00  0.00     0.074 A 
ATOM     44  C   UNL A   1      44.666  25.717  26.422  1.00  0.00     0.031 C 
ATOM     45  C   UNL A   1      38.804  27.803  29.399  1.00  0.00     0.029 A 
ATOM     46  C   UNL A   1      39.913  28.752  29.441  1.00  0.00     0.049 A 
ATOM     47  H   UNL A   1      41.783  28.554  28.539  1.00  0.00     0.167 HD
ATOM     48  C   UNL A   1      45.792  27.861  26.930  1.00  0.00     0.034 A 
ATOM     49  C   UNL A   1      39.901  29.938  30.080  1.00  0.00     0.034 A 
ATOM     50  C   UNL A   1      45.820  29.203  27.448  1.00  0.00     0.049 A 
ATOM     51  C   UNL A   1      41.116  30.823  30.002  1.00  0.00     0.074 A 
ATOM     52  C   UNL A   1      46.857  30.119  27.408  1.00  0.00     0.029 A 
ATOM     53  N   UNL A   1      44.767  29.821  28.102  1.00  0.00    -0.354 N 
ATOM     54  N   UNL A   1      42.260  30.605  29.401  1.00  0.00    -0.248 NA
ATOM     55  C   UNL A   1      41.023  32.137  30.655  1.00  0.00     0.031 C 
ATOM     56  C   UNL A   1      46.437  31.284  28.059  1.00  0.00     0.029 A 
ATOM     57  C   UNL A   1      45.126  31.106  28.470  1.00  0.00     0.049 A 
ATOM     58  H   UNL A   1      43.891  29.407  28.278  1.00  0.00     0.167 HD
ATOM     59  C   UNL A   1      43.005  31.768  29.564  1.00  0.00     0.074 A 
ATOM     60  C   UNL A   1      42.173  32.695  30.302  1.00  0.00     0.031 C 
ATOM     61  C   UNL A   1      44.267  32.040  29.151  1.00  0.00     0.034 A 
BRANCH  48  62
ATOM     62  C   UNL A   1      47.031  27.331  26.251  1.00  0.00     0.023 A 
ATOM     63  C   UNL A   1      47.241  27.605  24.883  1.00  0.00     0.012 A 
ATOM     64  C   UNL A   1      48.009  26.617  26.969  1.00  0.00     0.148 A 
ATOM     65  C   UNL A   1      48.386  27.146  24.233  1.00  0.00     0.002 A 
ATOM     66  C   UNL A   1      49.170  26.204  26.326  1.00  0.00     0.091 A 
ATOM     67  F   UNL A   1      47.784  26.351  28.264  1.00  0.00    -0.205 F 
ATOM     68  C   UNL A   1      49.354  26.455  24.956  1.00  0.00     0.022 A 
BRANCH  66  69
ATOM     69  S   UNL A   1      50.516  25.378  27.183  1.00  0.00     0.127 S 
ATOM     70  O   UNL A   1      50.946  26.411  28.124  1.00  0.00    -0.237 OA
ATOM     71  O   UNL A   1      49.832  24.240  27.799  1.00  0.00    -0.237 OA
ATOM     72  O   UNL A   1      51.489  25.024  26.160  1.00  0.00    -0.744 OA
ENDBRANCH  66  69
ENDBRANCH  48  62
BRANCH  49  73
ATOM     73  C   UNL A   1      38.679  30.386  30.810  1.00  0.00     0.023 A 
ATOM     74  C   UNL A   1      38.539  30.094  32.181  1.00  0.00     0.012 A 
ATOM     75  C   UNL A   1      37.658  31.098  30.152  1.00  0.00     0.148 A 
ATOM     76  C   UNL A   1      37.383  30.459  32.871  1.00  0.00     0.002 A 
ATOM     77  C   UNL A   1      36.536  31.511  30.861  1.00  0.00     0.091 A 
ATOM     78  F   UNL A   1      37.804  31.359  28.845  1.00  0.00    -0.205 F 
ATOM     79  C   UNL A   1      36.386  31.174  32.214  1.00  0.00     0.022 A 
BRANCH  77  80
ATOM     80  S   UNL A   1      35.267  32.549  30.126  1.00  0.00     0.127 S 
ATOM     81  O   UNL A   1      34.771  31.697  29.048  1.00  0.00    -0.237 OA
ATOM     82  O   UNL A   1      34.341  32.731  31.244  1.00  0.00    -0.237 OA
ATOM     83  O   UNL A   1      35.948  33.766  29.710  1.00  0.00    -0.744 OA
ENDBRANCH  77  80
ENDBRANCH  49  73
BRANCH  61  84
ATOM     84  C   UNL A   1      44.811  33.418  29.430  1.00  0.00     0.023 A 
ATOM     85  C   UNL A   1      45.448  33.694  30.656  1.00  0.00     0.012 A 
ATOM     86  C   UNL A   1      44.738  34.425  28.448  1.00  0.00     0.148 A 
ATOM     87  C   UNL A   1      45.965  34.963  30.916  1.00  0.00     0.002 A 
ATOM     88  C   UNL A   1      45.303  35.671  28.692  1.00  0.00     0.091 A 
ATOM     89  F   UNL A   1      44.111  34.149  27.294  1.00  0.00    -0.205 F 
ATOM     90  C   UNL A   1      45.903  35.946  29.931  1.00  0.00     0.022 A 
BRANCH  88  91
ATOM     91  S   UNL A   1      45.358  36.964  27.447  1.00  0.00     0.127 S 
ATOM     92  O   UNL A   1      43.940  37.275  27.277  1.00  0.00    -0.237 OA
ATOM     93  O   UNL A   1      46.136  38.006  28.118  1.00  0.00    -0.237 OA
ATOM     94  O   UNL A   1      46.013  36.375  26.286  1.00  0.00    -0.744 OA
ENDBRANCH  88  91
ENDBRANCH  61  84
ENDBRANCH  35  36
ENDBRANCH  27  30
ENDBRANCH  25  26
ENDBRANCH  24  25
ENDBRANCH  23  24
ENDBRANCH   1  23
TORSDOF 19
ENDMDL
MODEL 2
REMARK VINA RESULT:     -10.8      1.606      2.117
REMARK SMILES O=C(CSc1nc(-c2cccc(Br)c2)c[nH]1)NCCCCCCNC(=O)c1ccc(-c2c3nc(c(-c4cccc(S(=O)(=O)[O-])c4F)c4ccc([nH]4)c(-c4cccc(S(=O)(=O)[O-])c4F)c4nc(c(-c5cccc(S(=O)(=O)[O-])c5F)c5ccc2[nH]5)C=C4)C=C3)cc1
REMARK SMILES IDX 20 1 19 2 18 3 17 4 1 5 2 6 3 8 4 9 5 10 6 11 16 12 7 13
REMARK SMILES IDX 15 14 8 16 9 17 14 18 10 19 12 20 11 21 13 22 21 23 22 24
REMARK SMILES IDX 23 25 24 26 25 27 26 29 27 30 28 31 89 32 29 33 88 34 30 35
REMARK SMILES IDX 31 36 32 37 82 38 33 39 87 40 81 41 83 42 34 43 86 44 80 45
REMARK SMILES IDX 79 46 35 48 67 49 47 50 66 51 48 52 51 53 65 54 84 55 49 56
REMARK SMILES IDX 50 57 64 59 85 60 52 61 36 62 37 63 45 64 38 65 40 66 46 67
REMARK SMILES IDX 39 68 41 69 42 70 43 71 44 72 68 73 69 74 77 75 70 76 72 77
REMARK SMILES IDX 78 78 71 79 73 80 74 81 75 82 76 83 53 84 54 85 62 86 55 87
REMARK SMILES IDX 57 88 63 89 56 90 58 91 59 92 60 93 61 94
REMARK H PARENT 17 7 16 15 24 28 83 47 51 58
REMARK Flexibility Score: inf
ROOT
ATOM      1  C   UNL A   1      35.584  23.958  25.068  1.00  0.00     0.002 C 
ENDROOT
BRANCH   1   2
ATOM      2  C   UNL A   1      34.778  25.200  24.666  1.00  0.00     0.021 C 
BRANCH   2   3
ATOM      3  C   UNL A   1      33.963  25.821  25.797  1.00  0.00     0.116 C 
BRANCH   3   4
ATOM      4  N   UNL A   1      32.648  26.227  25.339  1.00  0.00    -0.355 N 
ATOM      5  O   UNL A   1      33.329  28.119  24.240  1.00  0.00    -0.274 OA
ATOM      6  C   UNL A   1      32.429  27.372  24.611  1.00  0.00     0.230 C 
ATOM      7  H   UNL A   1      31.877  25.657  25.561  1.00  0.00     0.163 HD
BRANCH   6   8
ATOM      8  C   UNL A   1      30.987  27.610  24.217  1.00  0.00     0.178 C 
BRANCH   8   9
ATOM      9  S   UNL A   1      30.701  27.148  22.493  1.00  0.00    -0.078 SA
BRANCH   9  10
ATOM     10  C   UNL A   1      31.422  25.584  22.349  1.00  0.00     0.166 A 
ATOM     11  N   UNL A   1      31.157  24.572  23.143  1.00  0.00    -0.223 NA
ATOM     12  N   UNL A   1      32.450  25.295  21.492  1.00  0.00    -0.339 N 
ATOM     13  C   UNL A   1      32.094  23.619  22.831  1.00  0.00     0.089 A 
ATOM     14  C   UNL A   1      32.902  24.041  21.801  1.00  0.00     0.113 A 
ATOM     15  H   UNL A   1      32.799  25.884  20.784  1.00  0.00     0.168 HD
BRANCH  13  16
ATOM     16  C   UNL A   1      32.214  22.358  23.524  1.00  0.00     0.003 A 
ATOM     17  C   UNL A   1      32.322  22.337  24.919  1.00  0.00     0.010 A 
ATOM     18  C   UNL A   1      32.242  21.156  22.807  1.00  0.00     0.026 A 
ATOM     19  C   UNL A   1      32.435  21.122  25.597  1.00  0.00     0.002 A 
ATOM     20  C   UNL A   1      32.371  19.948  23.489  1.00  0.00     0.018 A 
ATOM     21  C   UNL A   1      32.461  19.924  24.881  1.00  0.00     0.016 A 
ATOM     22  Br  UNL A   1      32.439  18.326  22.520  1.00  0.00    -0.051 Br
ENDBRANCH  13  16
ENDBRANCH   9  10
ENDBRANCH   8   9
ENDBRANCH   6   8
ENDBRANCH   3   4
ENDBRANCH   2   3
ENDBRANCH   1   2
BRANCH   1  23
ATOM     23  C   UNL A   1      35.877  22.972  23.932  1.00  0.00     0.002 C 
BRANCH  23  24
ATOM     24  C   UNL A   1      36.979  21.952  24.226  1.00  0.00     0.021 C 
BRANCH  24  25
ATOM     25  C   UNL A   1      37.249  21.705  25.707  1.00  0.00     0.116 C 
BRANCH  25  26
ATOM     26  N   UNL A   1      38.323  20.747  25.924  1.00  0.00    -0.352 N 
ATOM     27  C   UNL A   1      39.628  20.973  26.283  1.00  0.00     0.251 C 
ATOM     28  H   UNL A   1      38.079  19.802  25.793  1.00  0.00     0.163 HD
ATOM     29  O   UNL A   1      40.439  20.047  26.253  1.00  0.00    -0.269 OA
BRANCH  27  30
ATOM     30  C   UNL A   1      40.066  22.327  26.690  1.00  0.00     0.039 A 
ATOM     31  C   UNL A   1      40.973  22.456  27.745  1.00  0.00     0.014 A 
ATOM     32  C   UNL A   1      39.580  23.466  26.041  1.00  0.00     0.014 A 
ATOM     33  C   UNL A   1      41.428  23.724  28.115  1.00  0.00     0.010 A 
ATOM     34  C   UNL A   1      40.096  24.720  26.359  1.00  0.00     0.010 A 
ATOM     35  C   UNL A   1      41.016  24.866  27.407  1.00  0.00    -0.014 A 
BRANCH  35  36
ATOM     36  C   UNL A   1      41.533  26.216  27.757  1.00  0.00     0.031 A 
ATOM     37  C   UNL A   1      42.960  26.586  27.449  1.00  0.00     0.074 A 
ATOM     38  C   UNL A   1      40.739  27.088  28.408  1.00  0.00     0.049 A 
ATOM     39  N   UNL A   1      43.601  27.696  27.716  1.00  0.00    -0.248 NA
ATOM     40  C   UNL A   1      43.785  25.570  26.774  1.00  0.00     0.031 C 
ATOM     41  C   UNL A   1      39.361  26.825  28.834  1.00  0.00     0.029 A 
ATOM     42  N   UNL A   1      40.982  28.365  28.851  1.00  0.00    -0.354 N 
ATOM     43  C   UNL A   1      44.903  27.503  27.266  1.00  0.00     0.074 A 
ATOM     44  C   UNL A   1      44.975  26.152  26.753  1.00  0.00     0.031 C 
ATOM     45  C   UNL A   1      38.882  27.905  29.470  1.00  0.00     0.029 A 
ATOM     46  C   UNL A   1      39.923  28.926  29.528  1.00  0.00     0.049 A 
ATOM     47  H   UNL A   1      41.833  28.835  28.697  1.00  0.00     0.167 HD
ATOM     48  C   UNL A   1      45.936  28.379  27.246  1.00  0.00     0.034 A 
ATOM     49  C   UNL A   1      39.808  30.123  30.137  1.00  0.00     0.034 A 
ATOM     50  C   UNL A   1      45.856  29.730  27.732  1.00  0.00     0.049 A 
ATOM     51  C   UNL A   1      40.964  31.086  30.080  1.00  0.00     0.074 A 
ATOM     52  C   UNL A   1      46.829  30.713  27.705  1.00  0.00     0.029 A 
ATOM     53  N   UNL A   1      44.740  30.291  28.333  1.00  0.00    -0.354 N 
ATOM     54  N   UNL A   1      42.142  30.932  29.525  1.00  0.00    -0.248 NA
ATOM     55  C   UNL A   1      40.760  32.405  30.696  1.00  0.00     0.031 C 
ATOM     56  C   UNL A   1      46.310  31.861  28.312  1.00  0.00     0.029 A 
ATOM     57  C   UNL A   1      44.999  31.604  28.682  1.00  0.00     0.049 A 
ATOM     58  H   UNL A   1      43.888  29.822  28.489  1.00  0.00     0.167 HD
ATOM     59  C   UNL A   1      42.800  32.146  29.685  1.00  0.00     0.074 A 
ATOM     60  C   UNL A   1      41.882  33.031  30.370  1.00  0.00     0.031 C 
ATOM     61  C   UNL A   1      44.056  32.494  29.310  1.00  0.00     0.034 A 
BRANCH  48  62
ATOM     62  C   UNL A   1      47.231  27.918  26.624  1.00  0.00     0.023 A 
ATOM     63  C   UNL A   1      48.270  27.449  27.454  1.00  0.00     0.012 A 
ATOM     64  C   UNL A   1      47.401  27.894  25.226  1.00  0.00     0.148 A 
ATOM     65  C   UNL A   1      49.470  26.998  26.907  1.00  0.00     0.002 A 
ATOM     66  C   UNL A   1      48.582  27.398  24.685  1.00  0.00     0.091 A 
ATOM     67  F   UNL A   1      46.410  28.360  24.453  1.00  0.00    -0.205 F 
ATOM     68  C   UNL A   1      49.623  26.963  25.524  1.00  0.00     0.022 A 
BRANCH  66  69
ATOM     69  S   UNL A   1      48.850  27.235  22.917  1.00  0.00     0.127 S 
ATOM     70  O   UNL A   1      48.284  25.913  22.653  1.00  0.00    -0.237 OA
ATOM     71  O   UNL A   1      48.064  28.350  22.385  1.00  0.00    -0.237 OA
ATOM     72  O   UNL A   1      50.287  27.350  22.713  1.00  0.00    -0.744 OA
ENDBRANCH  66  69
ENDBRANCH  48  62
BRANCH  49  73
ATOM     73  C   UNL A   1      38.534  30.504  30.812  1.00  0.00     0.023 A 
ATOM     74  C   UNL A   1      38.309  30.116  32.148  1.00  0.00     0.012 A 
ATOM     75  C   UNL A   1      37.546  31.246  30.138  1.00  0.00     0.148 A 
ATOM     76  C   UNL A   1      37.104  30.417  32.783  1.00  0.00     0.002 A 
ATOM     77  C   UNL A   1      36.372  31.595  30.796  1.00  0.00     0.091 A 
ATOM     78  F   UNL A   1      37.773  31.599  28.864  1.00  0.00    -0.205 F 
ATOM     79  C   UNL A   1      36.140  31.163  32.111  1.00  0.00     0.022 A 
BRANCH  77  80
ATOM     80  S   UNL A   1      35.137  32.664  30.051  1.00  0.00     0.127 S 
ATOM     81  O   UNL A   1      34.620  31.821  28.976  1.00  0.00    -0.237 OA
ATOM     82  O   UNL A   1      34.212  32.880  31.165  1.00  0.00    -0.237 OA
ATOM     83  O   UNL A   1      35.854  33.859  29.630  1.00  0.00    -0.744 OA
ENDBRANCH  77  80
ENDBRANCH  49  73
BRANCH  61  84
ATOM     84  C   UNL A   1      44.497  33.911  29.573  1.00  0.00     0.023 A 
ATOM     85  C   UNL A   1      45.057  34.259  30.818  1.00  0.00     0.012 A 
ATOM     86  C   UNL A   1      44.404  34.885  28.560  1.00  0.00     0.148 A 
ATOM     87  C   UNL A   1      45.478  35.565  31.065  1.00  0.00     0.002 A 
ATOM     88  C   UNL A   1      44.876  36.171  28.794  1.00  0.00     0.091 A 
ATOM     89  F   UNL A   1      43.850  34.540  27.389  1.00  0.00    -0.205 F 
ATOM     90  C   UNL A   1      45.399  36.517  30.051  1.00  0.00     0.022 A 
BRANCH  88  91
ATOM     91  S   UNL A   1      44.905  37.433  27.517  1.00  0.00     0.127 S 
ATOM     92  O   UNL A   1      45.394  38.595  28.257  1.00  0.00    -0.237 OA
ATOM     93  O   UNL A   1      45.856  36.877  26.554  1.00  0.00    -0.237 OA
ATOM     94  O   UNL A   1      43.537  37.536  27.024  1.00  0.00    -0.744 OA
ENDBRANCH  88  91
ENDBRANCH  61  84
ENDBRANCH  35  36
ENDBRANCH  27  30
ENDBRANCH  25  26
ENDBRANCH  24  25
ENDBRANCH  23  24
ENDBRANCH   1  23
TORSDOF 19
ENDMDL
MODEL 3
REMARK VINA RESULT:     -10.7      4.366      9.264
REMARK SMILES O=C(CSc1nc(-c2cccc(Br)c2)c[nH]1)NCCCCCCNC(=O)c1ccc(-c2c3nc(c(-c4cccc(S(=O)(=O)[O-])c4F)c4ccc([nH]4)c(-c4cccc(S(=O)(=O)[O-])c4F)c4nc(c(-c5cccc(S(=O)(=O)[O-])c5F)c5ccc2[nH]5)C=C4)C=C3)cc1
REMARK SMILES IDX 20 1 19 2 18 3 17 4 1 5 2 6 3 8 4 9 5 10 6 11 16 12 7 13
REMARK SMILES IDX 15 14 8 16 9 17 14 18 10 19 12 20 11 21 13 22 21 23 22 24
REMARK SMILES IDX 23 25 24 26 25 27 26 29 27 30 28 31 89 32 29 33 88 34 30 35
REMARK SMILES IDX 31 36 32 37 82 38 33 39 87 40 81 41 83 42 34 43 86 44 80 45
REMARK SMILES IDX 79 46 35 48 67 49 47 50 66 51 48 52 51 53 65 54 84 55 49 56
REMARK SMILES IDX 50 57 64 59 85 60 52 61 36 62 37 63 45 64 38 65 40 66 46 67
REMARK SMILES IDX 39 68 41 69 42 70 43 71 44 72 68 73 69 74 77 75 70 76 72 77
REMARK SMILES IDX 78 78 71 79 73 80 74 81 75 82 76 83 53 84 54 85 62 86 55 87
REMARK SMILES IDX 57 88 63 89 56 90 58 91 59 92 60 93 61 94
REMARK H PARENT 17 7 16 15 24 28 83 47 51 58
REMARK Flexibility Score: inf
ROOT
ATOM      1  C   UNL A   1      33.964  25.392  26.092  1.00  0.00     0.002 C 
ENDROOT
BRANCH   1   2
ATOM      2  C   UNL A   1      34.842  24.759  25.004  1.00  0.00     0.021 C 
BRANCH   2   3
ATOM      3  C   UNL A   1      35.768  23.652  25.502  1.00  0.00     0.116 C 
BRANCH   3   4
ATOM      4  N   UNL A   1      35.404  22.366  24.939  1.00  0.00    -0.355 N 
ATOM      5  O   UNL A   1      34.710  21.412  26.903  1.00  0.00    -0.274 OA
ATOM      6  C   UNL A   1      34.923  21.326  25.697  1.00  0.00     0.230 C 
ATOM      7  H   UNL A   1      35.507  22.233  23.970  1.00  0.00     0.163 HD
BRANCH   6   8
ATOM      8  C   UNL A   1      34.588  20.072  24.919  1.00  0.00     0.178 C 
BRANCH   8   9
ATOM      9  S   UNL A   1      32.830  19.672  25.060  1.00  0.00    -0.078 SA
BRANCH   9  10
ATOM     10  C   UNL A   1      32.034  21.196  24.884  1.00  0.00     0.166 A 
ATOM     11  N   UNL A   1      32.189  21.995  23.853  1.00  0.00    -0.223 NA
ATOM     12  N   UNL A   1      31.288  21.784  25.869  1.00  0.00    -0.339 N 
ATOM     13  C   UNL A   1      31.574  23.168  24.217  1.00  0.00     0.089 A 
ATOM     14  C   UNL A   1      30.998  23.057  25.461  1.00  0.00     0.113 A 
ATOM     15  H   UNL A   1      31.011  21.365  26.716  1.00  0.00     0.168 HD
BRANCH  13  16
ATOM     16  C   UNL A   1      31.570  24.356  23.397  1.00  0.00     0.003 A 
ATOM     17  C   UNL A   1      32.500  24.490  22.359  1.00  0.00     0.010 A 
ATOM     18  C   UNL A   1      30.654  25.385  23.645  1.00  0.00     0.026 A 
ATOM     19  C   UNL A   1      32.501  25.634  21.559  1.00  0.00     0.002 A 
ATOM     20  C   UNL A   1      30.671  26.531  22.853  1.00  0.00     0.018 A 
ATOM     21  C   UNL A   1      31.585  26.658  21.807  1.00  0.00     0.016 A 
ATOM     22  Br  UNL A   1      29.454  27.934  23.207  1.00  0.00    -0.051 Br
ENDBRANCH  13  16
ENDBRANCH   9  10
ENDBRANCH   8   9
ENDBRANCH   6   8
ENDBRANCH   3   4
ENDBRANCH   2   3
ENDBRANCH   1   2
BRANCH   1  23
ATOM     23  C   UNL A   1      33.250  26.685  25.685  1.00  0.00     0.002 C 
BRANCH  23  24
ATOM     24  C   UNL A   1      33.432  27.858  26.651  1.00  0.00     0.021 C 
BRANCH  24  25
ATOM     25  C   UNL A   1      34.324  28.983  26.136  1.00  0.00     0.116 C 
BRANCH  25  26
ATOM     26  N   UNL A   1      33.982  30.273  26.716  1.00  0.00    -0.352 N 
ATOM     27  C   UNL A   1      34.583  30.947  27.750  1.00  0.00     0.251 C 
ATOM     28  H   UNL A   1      33.209  30.727  26.309  1.00  0.00     0.163 HD
ATOM     29  O   UNL A   1      34.047  31.953  28.217  1.00  0.00    -0.269 OA
BRANCH  27  30
ATOM     30  C   UNL A   1      35.860  30.459  28.315  1.00  0.00     0.039 A 
ATOM     31  C   UNL A   1      35.831  29.655  29.458  1.00  0.00     0.014 A 
ATOM     32  C   UNL A   1      37.084  30.796  27.729  1.00  0.00     0.014 A 
ATOM     33  C   UNL A   1      37.023  29.152  29.982  1.00  0.00     0.010 A 
ATOM     34  C   UNL A   1      38.263  30.228  28.205  1.00  0.00     0.010 A 
ATOM     35  C   UNL A   1      38.249  29.410  29.344  1.00  0.00    -0.014 A 
BRANCH  35  36
ATOM     36  C   UNL A   1      39.521  28.837  29.860  1.00  0.00     0.031 A 
ATOM     37  C   UNL A   1      40.193  29.445  31.064  1.00  0.00     0.074 A 
ATOM     38  C   UNL A   1      40.105  27.811  29.211  1.00  0.00     0.049 A 
ATOM     39  N   UNL A   1      41.325  29.113  31.632  1.00  0.00    -0.248 NA
ATOM     40  C   UNL A   1      39.522  30.591  31.699  1.00  0.00     0.031 C 
ATOM     41  C   UNL A   1      39.596  27.182  27.989  1.00  0.00     0.029 A 
ATOM     42  N   UNL A   1      41.269  27.131  29.472  1.00  0.00    -0.354 N 
ATOM     43  C   UNL A   1      41.510  30.018  32.671  1.00  0.00     0.074 A 
ATOM     44  C   UNL A   1      40.401  30.945  32.625  1.00  0.00     0.031 C 
ATOM     45  C   UNL A   1      40.439  26.209  27.610  1.00  0.00     0.029 A 
ATOM     46  C   UNL A   1      41.564  26.163  28.539  1.00  0.00     0.049 A 
ATOM     47  H   UNL A   1      41.838  27.318  30.253  1.00  0.00     0.167 HD
ATOM     48  C   UNL A   1      42.494  30.057  33.602  1.00  0.00     0.034 A 
ATOM     49  C   UNL A   1      42.625  25.339  28.438  1.00  0.00     0.034 A 
ATOM     50  C   UNL A   1      43.582  29.119  33.664  1.00  0.00     0.049 A 
ATOM     51  C   UNL A   1      43.692  25.387  29.499  1.00  0.00     0.074 A 
ATOM     52  C   UNL A   1      44.597  29.038  34.601  1.00  0.00     0.029 A 
ATOM     53  N   UNL A   1      43.800  28.098  32.752  1.00  0.00    -0.354 N 
ATOM     54  N   UNL A   1      43.775  26.161  30.553  1.00  0.00    -0.248 NA
ATOM     55  C   UNL A   1      44.790  24.417  29.380  1.00  0.00     0.031 C 
ATOM     56  C   UNL A   1      45.442  27.984  34.242  1.00  0.00     0.029 A 
ATOM     57  C   UNL A   1      44.931  27.383  33.103  1.00  0.00     0.049 A 
ATOM     58  H   UNL A   1      43.233  27.909  31.970  1.00  0.00     0.167 HD
ATOM     59  C   UNL A   1      44.906  25.744  31.246  1.00  0.00     0.074 A 
ATOM     60  C   UNL A   1      45.463  24.634  30.502  1.00  0.00     0.031 C 
ATOM     61  C   UNL A   1      45.442  26.242  32.387  1.00  0.00     0.034 A 
BRANCH  48  62
ATOM     62  C   UNL A   1      42.404  31.118  34.670  1.00  0.00     0.023 A 
ATOM     63  C   UNL A   1      41.619  30.880  35.818  1.00  0.00     0.012 A 
ATOM     64  C   UNL A   1      43.133  32.318  34.571  1.00  0.00     0.148 A 
ATOM     65  C   UNL A   1      41.533  31.834  36.831  1.00  0.00     0.002 A 
ATOM     66  C   UNL A   1      43.081  33.244  35.607  1.00  0.00     0.091 A 
ATOM     67  F   UNL A   1      43.860  32.536  33.465  1.00  0.00    -0.205 F 
ATOM     68  C   UNL A   1      42.271  33.010  36.731  1.00  0.00     0.022 A 
BRANCH  66  69
ATOM     69  S   UNL A   1      44.054  34.754  35.614  1.00  0.00     0.127 S 
ATOM     70  O   UNL A   1      43.877  35.225  34.241  1.00  0.00    -0.237 OA
ATOM     71  O   UNL A   1      43.366  35.556  36.626  1.00  0.00    -0.237 OA
ATOM     72  O   UNL A   1      45.410  34.358  35.966  1.00  0.00    -0.744 OA
ENDBRANCH  66  69
ENDBRANCH  48  62
BRANCH  49  73
ATOM     73  C   UNL A   1      42.713  24.359  27.316  1.00  0.00     0.023 A 
ATOM     74  C   UNL A   1      43.376  24.718  26.126  1.00  0.00     0.012 A 
ATOM     75  C   UNL A   1      42.141  23.077  27.423  1.00  0.00     0.148 A 
ATOM     76  C   UNL A   1      43.425  23.837  25.046  1.00  0.00     0.002 A 
ATOM     77  C   UNL A   1      42.246  22.182  26.365  1.00  0.00     0.091 A 
ATOM     78  F   UNL A   1      41.505  22.756  28.559  1.00  0.00    -0.205 F 
ATOM     79  C   UNL A   1      42.869  22.567  25.168  1.00  0.00     0.022 A 
BRANCH  77  80
ATOM     80  S   UNL A   1      41.674  20.483  26.486  1.00  0.00     0.127 S 
ATOM     81  O   UNL A   1      40.232  20.640  26.315  1.00  0.00    -0.237 OA
ATOM     82  O   UNL A   1      42.364  19.852  25.360  1.00  0.00    -0.237 OA
ATOM     83  O   UNL A   1      42.111  20.014  27.793  1.00  0.00    -0.744 OA
ENDBRANCH  77  80
ENDBRANCH  49  73
BRANCH  61  84
ATOM     84  C   UNL A   1      46.662  25.554  32.943  1.00  0.00     0.023 A 
ATOM     85  C   UNL A   1      46.529  24.584  33.957  1.00  0.00     0.012 A 
ATOM     86  C   UNL A   1      47.939  25.832  32.417  1.00  0.00     0.148 A 
ATOM     87  C   UNL A   1      47.653  23.935  34.468  1.00  0.00     0.002 A 
ATOM     88  C   UNL A   1      49.048  25.142  32.892  1.00  0.00     0.091 A 
ATOM     89  F   UNL A   1      48.049  26.772  31.466  1.00  0.00    -0.205 F 
ATOM     90  C   UNL A   1      48.909  24.205  33.928  1.00  0.00     0.022 A 
BRANCH  88  91
ATOM     91  S   UNL A   1      50.687  25.352  32.189  1.00  0.00     0.127 S 
ATOM     92  O   UNL A   1      51.456  24.347  32.921  1.00  0.00    -0.237 OA
ATOM     93  O   UNL A   1      50.460  25.040  30.778  1.00  0.00    -0.237 OA
ATOM     94  O   UNL A   1      51.060  26.737  32.449  1.00  0.00    -0.744 OA
ENDBRANCH  88  91
ENDBRANCH  61  84
ENDBRANCH  35  36
ENDBRANCH  27  30
ENDBRANCH  25  26
ENDBRANCH  24  25
ENDBRANCH  23  24
ENDBRANCH   1  23
TORSDOF 19
ENDMDL
