MODEL 1
REMARK VINA RESULT:     -11.6      0.000      0.000
REMARK SMILES COc1ccc(Cl)c2sc(N3CC(C(=O)NCCCCCCNC(=O)c4ccc(-c5c6nc(c(-c7cccc(S(=O)(=O)[O-])c7F)c7ccc([nH]7)c(-c7cccc(S(=O)(=O)[O-])c7F)c7nc(c(-c8cccc(S(=O)(=O)[O-])c8F)c8ccc5[nH]8)C=C7)C=C6)cc4)C3)nc12
REMARK SMILES IDX 20 1 19 2 18 3 17 4 16 5 14 6 15 7 13 9 11 10 12 11 89 12
REMARK SMILES IDX 10 13 3 14 4 15 91 16 5 17 8 18 90 19 6 20 9 21 7 22 2 23
REMARK SMILES IDX 1 24 21 25 22 26 23 27 24 28 25 30 26 31 27 32 88 33 28 34
REMARK SMILES IDX 87 35 29 36 30 37 31 38 81 39 32 40 86 41 80 42 82 43 33 44
REMARK SMILES IDX 85 45 79 46 78 47 34 49 66 50 46 51 65 52 47 53 50 54 64 55
REMARK SMILES IDX 83 56 48 57 49 58 63 60 84 61 51 62 35 63 36 64 44 65 37 66
REMARK SMILES IDX 39 67 45 68 38 69 40 70 41 71 42 72 43 73 67 74 68 75 76 76
REMARK SMILES IDX 69 77 71 78 77 79 70 80 72 81 73 82 74 83 75 84 52 85 53 86
REMARK SMILES IDX 61 87 54 88 56 89 62 90 55 91 57 92 58 93 59 94 60 95
REMARK H PARENT 16 8 23 29 82 48 50 59
REMARK Flexibility Score: inf
ROOT
ATOM      1  C   UNL A   1      34.502  29.351  27.076  1.00  0.00     0.002 C 
ENDROOT
BRANCH   1   2
ATOM      2  C   UNL A   1      33.765  28.691  25.900  1.00  0.00     0.002 C 
BRANCH   2   3
ATOM      3  C   UNL A   1      32.929  29.631  25.021  1.00  0.00     0.021 C 
BRANCH   3   4
ATOM      4  C   UNL A   1      31.423  29.367  25.062  1.00  0.00     0.116 C 
BRANCH   4   5
ATOM      5  N   UNL A   1      30.808  29.618  23.773  1.00  0.00    -0.356 N 
ATOM      6  C   UNL A   1      30.658  28.823  22.667  1.00  0.00     0.226 C 
ATOM      7  O   UNL A   1      30.066  29.353  21.711  1.00  0.00    -0.275 OA
ATOM      8  H   UNL A   1      30.431  30.522  23.675  1.00  0.00     0.163 HD
BRANCH   6   9
ATOM      9  C   UNL A   1      31.147  27.378  22.597  1.00  0.00     0.117 C 
ATOM     10  N   UNL A   1      32.140  26.042  23.814  1.00  0.00    -0.346 N 
ATOM     11  C   UNL A   1      30.767  26.388  23.697  1.00  0.00     0.134 C 
ATOM     12  C   UNL A   1      32.601  26.977  22.833  1.00  0.00     0.134 C 
BRANCH  10  13
ATOM     13  C   UNL A   1      32.700  24.854  24.124  1.00  0.00     0.186 A 
ATOM     14  C   UNL A   1      35.241  22.750  25.583  1.00  0.00     0.146 A 
ATOM     15  C   UNL A   1      35.387  21.353  25.612  1.00  0.00     0.050 A 
ATOM     16  C   UNL A   1      34.129  23.319  24.897  1.00  0.00     0.127 A 
ATOM     17  C   UNL A   1      34.485  20.528  24.949  1.00  0.00     0.026 A 
ATOM     18  C   UNL A   1      33.204  22.462  24.290  1.00  0.00     0.079 A 
ATOM     19  N   UNL A   1      33.852  24.681  24.735  1.00  0.00    -0.216 NA
ATOM     20  C   UNL A   1      33.386  21.069  24.283  1.00  0.00     0.060 A 
ATOM     21  S   UNL A   1      31.912  23.402  23.653  1.00  0.00    -0.095 S 
ATOM     22  Cl  UNL A   1      32.296  20.006  23.483  1.00  0.00    -0.083 Cl
BRANCH  14  23
ATOM     23  O   UNL A   1      36.088  23.589  26.272  1.00  0.00    -0.494 OA
ATOM     24  C   UNL A   1      37.406  23.686  25.743  1.00  0.00     0.278 C 
ENDBRANCH  14  23
ENDBRANCH  10  13
ENDBRANCH   6   9
ENDBRANCH   4   5
ENDBRANCH   3   4
ENDBRANCH   2   3
ENDBRANCH   1   2
BRANCH   1  25
ATOM     25  C   UNL A   1      34.131  30.812  27.372  1.00  0.00     0.021 C 
BRANCH  25  26
ATOM     26  C   UNL A   1      35.294  31.631  27.902  1.00  0.00     0.116 C 
BRANCH  26  27
ATOM     27  N   UNL A   1      35.006  32.203  29.215  1.00  0.00    -0.352 N 
ATOM     28  C   UNL A   1      35.491  31.811  30.446  1.00  0.00     0.251 C 
ATOM     29  H   UNL A   1      34.384  32.966  29.223  1.00  0.00     0.163 HD
ATOM     30  O   UNL A   1      34.919  32.134  31.473  1.00  0.00    -0.269 OA
BRANCH  28  31
ATOM     31  C   UNL A   1      36.726  31.006  30.494  1.00  0.00     0.039 A 
ATOM     32  C   UNL A   1      36.674  29.609  30.514  1.00  0.00     0.014 A 
ATOM     33  C   UNL A   1      37.946  31.677  30.554  1.00  0.00     0.014 A 
ATOM     34  C   UNL A   1      37.867  28.898  30.563  1.00  0.00     0.010 A 
ATOM     35  C   UNL A   1      39.118  30.983  30.439  1.00  0.00     0.010 A 
ATOM     36  C   UNL A   1      39.079  29.600  30.529  1.00  0.00    -0.014 A 
BRANCH  36  37
ATOM     37  C   UNL A   1      40.351  28.905  30.571  1.00  0.00     0.031 A 
ATOM     38  C   UNL A   1      40.947  28.800  31.921  1.00  0.00     0.074 A 
ATOM     39  C   UNL A   1      40.817  28.223  29.503  1.00  0.00     0.049 A 
ATOM     40  N   UNL A   1      41.960  29.453  32.387  1.00  0.00    -0.248 NA
ATOM     41  C   UNL A   1      40.249  27.983  32.926  1.00  0.00     0.031 C 
ATOM     42  C   UNL A   1      40.113  27.936  28.242  1.00  0.00     0.029 A 
ATOM     43  N   UNL A   1      41.972  27.522  29.368  1.00  0.00    -0.354 N 
ATOM     44  C   UNL A   1      42.179  28.927  33.657  1.00  0.00     0.074 A 
ATOM     45  C   UNL A   1      40.984  28.210  34.017  1.00  0.00     0.031 C 
ATOM     46  C   UNL A   1      40.741  26.930  27.596  1.00  0.00     0.029 A 
ATOM     47  C   UNL A   1      41.983  26.646  28.287  1.00  0.00     0.049 A 
ATOM     48  H   UNL A   1      42.735  27.623  29.982  1.00  0.00     0.167 HD
ATOM     49  C   UNL A   1      43.433  28.856  34.182  1.00  0.00     0.034 A 
ATOM     50  C   UNL A   1      42.942  25.731  28.021  1.00  0.00     0.034 A 
ATOM     51  C   UNL A   1      44.386  29.543  33.354  1.00  0.00     0.049 A 
ATOM     52  C   UNL A   1      44.173  26.207  28.694  1.00  0.00     0.074 A 
ATOM     53  C   UNL A   1      44.768  30.846  33.126  1.00  0.00     0.029 A 
ATOM     54  N   UNL A   1      44.825  28.788  32.297  1.00  0.00    -0.354 N 
ATOM     55  N   UNL A   1      44.768  27.328  28.395  1.00  0.00    -0.248 NA
ATOM     56  C   UNL A   1      44.595  25.584  29.943  1.00  0.00     0.031 C 
ATOM     57  C   UNL A   1      45.298  30.874  31.801  1.00  0.00     0.029 A 
ATOM     58  C   UNL A   1      45.255  29.586  31.272  1.00  0.00     0.049 A 
ATOM     59  H   UNL A   1      44.830  27.803  32.279  1.00  0.00     0.167 HD
ATOM     60  C   UNL A   1      45.291  27.757  29.599  1.00  0.00     0.074 A 
ATOM     61  C   UNL A   1      45.326  26.577  30.452  1.00  0.00     0.031 C 
ATOM     62  C   UNL A   1      45.332  29.079  29.920  1.00  0.00     0.034 A 
BRANCH  49  63
ATOM     63  C   UNL A   1      43.902  27.823  35.174  1.00  0.00     0.023 A 
ATOM     64  C   UNL A   1      44.553  28.275  36.342  1.00  0.00     0.012 A 
ATOM     65  C   UNL A   1      43.962  26.439  34.897  1.00  0.00     0.148 A 
ATOM     66  C   UNL A   1      45.219  27.388  37.197  1.00  0.00     0.002 A 
ATOM     67  C   UNL A   1      44.554  25.553  35.789  1.00  0.00     0.091 A 
ATOM     68  F   UNL A   1      43.569  25.988  33.700  1.00  0.00    -0.205 F 
ATOM     69  C   UNL A   1      45.202  26.024  36.933  1.00  0.00     0.022 A 
BRANCH  67  70
ATOM     70  S   UNL A   1      44.520  23.779  35.515  1.00  0.00     0.127 S 
ATOM     71  O   UNL A   1      45.385  23.644  34.347  1.00  0.00    -0.237 OA
ATOM     72  O   UNL A   1      45.082  23.271  36.767  1.00  0.00    -0.237 OA
ATOM     73  O   UNL A   1      43.113  23.449  35.318  1.00  0.00    -0.744 OA
ENDBRANCH  67  70
ENDBRANCH  49  63
BRANCH  50  74
ATOM     74  C   UNL A   1      42.849  24.361  27.461  1.00  0.00     0.023 A 
ATOM     75  C   UNL A   1      41.581  23.745  27.406  1.00  0.00     0.012 A 
ATOM     76  C   UNL A   1      43.891  23.815  26.680  1.00  0.00     0.148 A 
ATOM     77  C   UNL A   1      41.327  22.690  26.525  1.00  0.00     0.002 A 
ATOM     78  C   UNL A   1      43.634  22.760  25.808  1.00  0.00     0.091 A 
ATOM     79  F   UNL A   1      45.098  24.394  26.712  1.00  0.00    -0.205 F 
ATOM     80  C   UNL A   1      42.348  22.211  25.710  1.00  0.00     0.022 A 
BRANCH  78  81
ATOM     81  S   UNL A   1      44.897  22.096  24.713  1.00  0.00     0.127 S 
ATOM     82  O   UNL A   1      45.107  23.206  23.782  1.00  0.00    -0.237 OA
ATOM     83  O   UNL A   1      46.001  21.854  25.637  1.00  0.00    -0.237 OA
ATOM     84  O   UNL A   1      44.304  20.912  24.104  1.00  0.00    -0.744 OA
ENDBRANCH  78  81
ENDBRANCH  50  74
BRANCH  62  85
ATOM     85  C   UNL A   1      45.279  30.073  28.801  1.00  0.00     0.023 A 
ATOM     86  C   UNL A   1      44.073  30.564  28.265  1.00  0.00     0.012 A 
ATOM     87  C   UNL A   1      46.497  30.626  28.377  1.00  0.00     0.148 A 
ATOM     88  C   UNL A   1      44.087  31.597  27.322  1.00  0.00     0.002 A 
ATOM     89  C   UNL A   1      46.506  31.676  27.471  1.00  0.00     0.091 A 
ATOM     90  F   UNL A   1      47.627  30.134  28.905  1.00  0.00    -0.205 F 
ATOM     91  C   UNL A   1      45.302  32.163  26.936  1.00  0.00     0.022 A 
BRANCH  89  92
ATOM     92  S   UNL A   1      48.024  32.512  27.015  1.00  0.00     0.127 S 
ATOM     93  O   UNL A   1      48.477  33.047  28.297  1.00  0.00    -0.237 OA
ATOM     94  O   UNL A   1      48.835  31.412  26.489  1.00  0.00    -0.237 OA
ATOM     95  O   UNL A   1      47.656  33.511  26.020  1.00  0.00    -0.744 OA
ENDBRANCH  89  92
ENDBRANCH  62  85
ENDBRANCH  36  37
ENDBRANCH  28  31
ENDBRANCH  26  27
ENDBRANCH  25  26
ENDBRANCH   1  25
TORSDOF 18
ENDMDL
MODEL 2
REMARK VINA RESULT:     -11.5      1.690      2.119
REMARK SMILES COc1ccc(Cl)c2sc(N3CC(C(=O)NCCCCCCNC(=O)c4ccc(-c5c6nc(c(-c7cccc(S(=O)(=O)[O-])c7F)c7ccc([nH]7)c(-c7cccc(S(=O)(=O)[O-])c7F)c7nc(c(-c8cccc(S(=O)(=O)[O-])c8F)c8ccc5[nH]8)C=C7)C=C6)cc4)C3)nc12
REMARK SMILES IDX 20 1 19 2 18 3 17 4 16 5 14 6 15 7 13 9 11 10 12 11 89 12
REMARK SMILES IDX 10 13 3 14 4 15 91 16 5 17 8 18 90 19 6 20 9 21 7 22 2 23
REMARK SMILES IDX 1 24 21 25 22 26 23 27 24 28 25 30 26 31 27 32 88 33 28 34
REMARK SMILES IDX 87 35 29 36 30 37 31 38 81 39 32 40 86 41 80 42 82 43 33 44
REMARK SMILES IDX 85 45 79 46 78 47 34 49 66 50 46 51 65 52 47 53 50 54 64 55
REMARK SMILES IDX 83 56 48 57 49 58 63 60 84 61 51 62 35 63 36 64 44 65 37 66
REMARK SMILES IDX 39 67 45 68 38 69 40 70 41 71 42 72 43 73 67 74 68 75 76 76
REMARK SMILES IDX 69 77 71 78 77 79 70 80 72 81 73 82 74 83 75 84 52 85 53 86
REMARK SMILES IDX 61 87 54 88 56 89 62 90 55 91 57 92 58 93 59 94 60 95
REMARK H PARENT 16 8 23 29 82 48 50 59
REMARK Flexibility Score: inf
ROOT
ATOM      1  C   UNL A   1      34.092  29.414  27.056  1.00  0.00     0.002 C 
ENDROOT
BRANCH   1   2
ATOM      2  C   UNL A   1      33.232  28.564  26.107  1.00  0.00     0.002 C 
BRANCH   2   3
ATOM      3  C   UNL A   1      31.990  29.256  25.528  1.00  0.00     0.021 C 
BRANCH   3   4
ATOM      4  C   UNL A   1      31.736  28.968  24.047  1.00  0.00     0.116 C 
BRANCH   4   5
ATOM      5  N   UNL A   1      30.342  28.649  23.805  1.00  0.00    -0.356 N 
ATOM      6  C   UNL A   1      29.697  27.450  23.648  1.00  0.00     0.226 C 
ATOM      7  O   UNL A   1      28.472  27.529  23.458  1.00  0.00    -0.275 OA
ATOM      8  H   UNL A   1      29.753  29.435  23.742  1.00  0.00     0.163 HD
BRANCH   6   9
ATOM      9  C   UNL A   1      30.405  26.098  23.726  1.00  0.00     0.117 C 
ATOM     10  N   UNL A   1      32.246  25.370  24.302  1.00  0.00    -0.346 N 
ATOM     11  C   UNL A   1      31.061  25.653  25.032  1.00  0.00     0.134 C 
ATOM     12  C   UNL A   1      31.738  25.814  23.039  1.00  0.00     0.134 C 
BRANCH  10  13
ATOM     13  C   UNL A   1      33.171  24.408  24.509  1.00  0.00     0.186 A 
ATOM     14  C   UNL A   1      34.316  20.992  24.670  1.00  0.00     0.146 A 
ATOM     15  C   UNL A   1      35.564  20.445  25.012  1.00  0.00     0.050 A 
ATOM     16  C   UNL A   1      34.138  22.405  24.720  1.00  0.00     0.127 A 
ATOM     17  C   UNL A   1      36.608  21.260  25.434  1.00  0.00     0.026 A 
ATOM     18  C   UNL A   1      35.225  23.206  25.090  1.00  0.00     0.079 A 
ATOM     19  N   UNL A   1      32.960  23.111  24.453  1.00  0.00    -0.216 NA
ATOM     20  C   UNL A   1      36.453  22.646  25.479  1.00  0.00     0.060 A 
ATOM     21  S   UNL A   1      34.771  24.858  24.944  1.00  0.00    -0.095 S 
ATOM     22  Cl  UNL A   1      37.776  23.611  26.003  1.00  0.00    -0.083 Cl
BRANCH  14  23
ATOM     23  O   UNL A   1      33.280  20.216  24.200  1.00  0.00    -0.494 OA
ATOM     24  C   UNL A   1      32.784  19.249  25.118  1.00  0.00     0.278 C 
ENDBRANCH  14  23
ENDBRANCH  10  13
ENDBRANCH   6   9
ENDBRANCH   4   5
ENDBRANCH   3   4
ENDBRANCH   2   3
ENDBRANCH   1   2
BRANCH   1  25
ATOM     25  C   UNL A   1      33.572  30.828  27.354  1.00  0.00     0.021 C 
BRANCH  25  26
ATOM     26  C   UNL A   1      34.680  31.825  27.646  1.00  0.00     0.116 C 
BRANCH  26  27
ATOM     27  N   UNL A   1      34.510  32.464  28.949  1.00  0.00    -0.352 N 
ATOM     28  C   UNL A   1      35.097  32.126  30.152  1.00  0.00     0.251 C 
ATOM     29  H   UNL A   1      33.898  33.234  28.973  1.00  0.00     0.163 HD
ATOM     30  O   UNL A   1      34.617  32.506  31.207  1.00  0.00    -0.269 OA
BRANCH  28  31
ATOM     31  C   UNL A   1      36.323  31.308  30.134  1.00  0.00     0.039 A 
ATOM     32  C   UNL A   1      36.260  29.914  30.207  1.00  0.00     0.014 A 
ATOM     33  C   UNL A   1      37.551  31.966  30.078  1.00  0.00     0.014 A 
ATOM     34  C   UNL A   1      37.447  29.190  30.190  1.00  0.00     0.010 A 
ATOM     35  C   UNL A   1      38.704  31.255  29.899  1.00  0.00     0.010 A 
ATOM     36  C   UNL A   1      38.660  29.877  30.039  1.00  0.00    -0.014 A 
BRANCH  36  37
ATOM     37  C   UNL A   1      39.924  29.168  30.009  1.00  0.00     0.031 A 
ATOM     38  C   UNL A   1      40.479  28.848  31.343  1.00  0.00     0.074 A 
ATOM     39  C   UNL A   1      40.417  28.654  28.862  1.00  0.00     0.049 A 
ATOM     40  N   UNL A   1      41.482  29.409  31.933  1.00  0.00    -0.248 NA
ATOM     41  C   UNL A   1      39.746  27.893  32.188  1.00  0.00     0.031 C 
ATOM     42  C   UNL A   1      39.749  28.575  27.553  1.00  0.00     0.029 A 
ATOM     43  N   UNL A   1      41.570  27.969  28.653  1.00  0.00    -0.354 N 
ATOM     44  C   UNL A   1      41.660  28.689  33.112  1.00  0.00     0.074 A 
ATOM     45  C   UNL A   1      40.449  27.940  33.322  1.00  0.00     0.031 C 
ATOM     46  C   UNL A   1      40.389  27.674  26.776  1.00  0.00     0.029 A 
ATOM     47  C   UNL A   1      41.607  27.271  27.450  1.00  0.00     0.049 A 
ATOM     48  H   UNL A   1      42.315  27.964  29.296  1.00  0.00     0.167 HD
ATOM     49  C   UNL A   1      42.896  28.522  33.655  1.00  0.00     0.034 A 
ATOM     50  C   UNL A   1      42.567  26.397  27.072  1.00  0.00     0.034 A 
ATOM     51  C   UNL A   1      43.879  29.319  32.971  1.00  0.00     0.049 A 
ATOM     52  C   UNL A   1      43.781  26.748  27.845  1.00  0.00     0.074 A 
ATOM     53  C   UNL A   1      44.277  30.636  32.959  1.00  0.00     0.029 A 
ATOM     54  N   UNL A   1      44.344  28.731  31.823  1.00  0.00    -0.354 N 
ATOM     55  N   UNL A   1      44.393  27.895  27.741  1.00  0.00    -0.248 NA
ATOM     56  C   UNL A   1      44.161  25.934  28.994  1.00  0.00     0.031 C 
ATOM     57  C   UNL A   1      44.847  30.863  31.670  1.00  0.00     0.029 A 
ATOM     58  C   UNL A   1      44.810  29.673  30.946  1.00  0.00     0.049 A 
ATOM     59  H   UNL A   1      44.342  27.761  31.652  1.00  0.00     0.167 HD
ATOM     60  C   UNL A   1      44.883  28.126  29.011  1.00  0.00     0.074 A 
ATOM     61  C   UNL A   1      44.884  26.828  29.672  1.00  0.00     0.031 C 
ATOM     62  C   UNL A   1      44.924  29.381  29.535  1.00  0.00     0.034 A 
BRANCH  49  63
ATOM     63  C   UNL A   1      43.328  27.343  34.488  1.00  0.00     0.023 A 
ATOM     64  C   UNL A   1      43.593  27.560  35.856  1.00  0.00     0.012 A 
ATOM     65  C   UNL A   1      43.728  26.102  33.943  1.00  0.00     0.148 A 
ATOM     66  C   UNL A   1      44.214  26.584  36.645  1.00  0.00     0.002 A 
ATOM     67  C   UNL A   1      44.270  25.106  34.746  1.00  0.00     0.091 A 
ATOM     68  F   UNL A   1      43.715  25.929  32.616  1.00  0.00    -0.205 F 
ATOM     69  C   UNL A   1      44.534  25.348  36.096  1.00  0.00     0.022 A 
BRANCH  67  70
ATOM     70  S   UNL A   1      44.658  23.479  34.093  1.00  0.00     0.127 S 
ATOM     71  O   UNL A   1      43.764  23.402  32.943  1.00  0.00    -0.237 OA
ATOM     72  O   UNL A   1      46.078  23.617  33.769  1.00  0.00    -0.237 OA
ATOM     73  O   UNL A   1      44.386  22.553  35.186  1.00  0.00    -0.744 OA
ENDBRANCH  67  70
ENDBRANCH  49  63
BRANCH  50  74
ATOM     74  C   UNL A   1      42.481  25.132  26.304  1.00  0.00     0.023 A 
ATOM     75  C   UNL A   1      43.322  24.970  25.182  1.00  0.00     0.012 A 
ATOM     76  C   UNL A   1      41.866  23.983  26.848  1.00  0.00     0.148 A 
ATOM     77  C   UNL A   1      43.628  23.700  24.686  1.00  0.00     0.002 A 
ATOM     78  C   UNL A   1      42.169  22.720  26.345  1.00  0.00     0.091 A 
ATOM     79  F   UNL A   1      41.072  24.117  27.919  1.00  0.00    -0.205 F 
ATOM     80  C   UNL A   1      43.069  22.573  25.280  1.00  0.00     0.022 A 
BRANCH  78  81
ATOM     81  S   UNL A   1      41.499  21.217  27.068  1.00  0.00     0.127 S 
ATOM     82  O   UNL A   1      40.071  21.527  27.150  1.00  0.00    -0.237 OA
ATOM     83  O   UNL A   1      41.852  20.216  26.066  1.00  0.00    -0.237 OA
ATOM     84  O   UNL A   1      42.154  21.080  28.364  1.00  0.00    -0.744 OA
ENDBRANCH  78  81
ENDBRANCH  50  74
BRANCH  62  85
ATOM     85  C   UNL A   1      44.912  30.538  28.583  1.00  0.00     0.023 A 
ATOM     86  C   UNL A   1      43.736  31.221  28.219  1.00  0.00     0.012 A 
ATOM     87  C   UNL A   1      46.155  31.028  28.155  1.00  0.00     0.148 A 
ATOM     88  C   UNL A   1      43.805  32.382  27.441  1.00  0.00     0.002 A 
ATOM     89  C   UNL A   1      46.222  32.199  27.416  1.00  0.00     0.091 A 
ATOM     90  F   UNL A   1      47.255  30.351  28.517  1.00  0.00    -0.205 F 
ATOM     91  C   UNL A   1      45.049  32.879  27.052  1.00  0.00     0.022 A 
BRANCH  89  92
ATOM     92  S   UNL A   1      47.793  32.944  26.976  1.00  0.00     0.127 S 
ATOM     93  O   UNL A   1      47.410  33.857  25.902  1.00  0.00    -0.237 OA
ATOM     94  O   UNL A   1      48.185  33.597  28.225  1.00  0.00    -0.237 OA
ATOM     95  O   UNL A   1      48.665  31.846  26.576  1.00  0.00    -0.744 OA
ENDBRANCH  89  92
ENDBRANCH  62  85
ENDBRANCH  36  37
ENDBRANCH  28  31
ENDBRANCH  26  27
ENDBRANCH  25  26
ENDBRANCH   1  25
TORSDOF 18
ENDMDL
MODEL 3
REMARK VINA RESULT:     -11.3      3.016      9.344
REMARK SMILES COc1ccc(Cl)c2sc(N3CC(C(=O)NCCCCCCNC(=O)c4ccc(-c5c6nc(c(-c7cccc(S(=O)(=O)[O-])c7F)c7ccc([nH]7)c(-c7cccc(S(=O)(=O)[O-])c7F)c7nc(c(-c8cccc(S(=O)(=O)[O-])c8F)c8ccc5[nH]8)C=C7)C=C6)cc4)C3)nc12
REMARK SMILES IDX 20 1 19 2 18 3 17 4 16 5 14 6 15 7 13 9 11 10 12 11 89 12
REMARK SMILES IDX 10 13 3 14 4 15 91 16 5 17 8 18 90 19 6 20 9 21 7 22 2 23
REMARK SMILES IDX 1 24 21 25 22 26 23 27 24 28 25 30 26 31 27 32 88 33 28 34
REMARK SMILES IDX 87 35 29 36 30 37 31 38 81 39 32 40 86 41 80 42 82 43 33 44
REMARK SMILES IDX 85 45 79 46 78 47 34 49 66 50 46 51 65 52 47 53 50 54 64 55
REMARK SMILES IDX 83 56 48 57 49 58 63 60 84 61 51 62 35 63 36 64 44 65 37 66
REMARK SMILES IDX 39 67 45 68 38 69 40 70 41 71 42 72 43 73 67 74 68 75 76 76
REMARK SMILES IDX 69 77 71 78 77 79 70 80 72 81 73 82 74 83 75 84 52 85 53 86
REMARK SMILES IDX 61 87 54 88 56 89 62 90 55 91 57 92 58 93 59 94 60 95
REMARK H PARENT 16 8 23 29 82 48 50 59
REMARK Flexibility Score: inf
ROOT
ATOM      1  C   UNL A   1      42.086  19.858  27.910  1.00  0.00     0.002 C 
ENDROOT
BRANCH   1   2
ATOM      2  C   UNL A   1      41.857  21.316  27.479  1.00  0.00     0.002 C 
BRANCH   2   3
ATOM      3  C   UNL A   1      40.442  21.867  27.705  1.00  0.00     0.021 C 
BRANCH   3   4
ATOM      4  C   UNL A   1      39.770  22.425  26.449  1.00  0.00     0.116 C 
BRANCH   4   5
ATOM      5  N   UNL A   1      39.232  21.362  25.624  1.00  0.00    -0.356 N 
ATOM      6  C   UNL A   1      37.946  21.053  25.262  1.00  0.00     0.226 C 
ATOM      7  O   UNL A   1      37.829  20.060  24.523  1.00  0.00    -0.275 OA
ATOM      8  H   UNL A   1      39.912  20.752  25.257  1.00  0.00     0.163 HD
BRANCH   6   9
ATOM      9  C   UNL A   1      36.731  21.870  25.696  1.00  0.00     0.117 C 
ATOM     10  N   UNL A   1      35.166  22.871  24.802  1.00  0.00    -0.346 N 
ATOM     11  C   UNL A   1      35.342  21.511  25.173  1.00  0.00     0.134 C 
ATOM     12  C   UNL A   1      36.470  23.296  25.215  1.00  0.00     0.134 C 
BRANCH  10  13
ATOM     13  C   UNL A   1      34.041  23.617  24.786  1.00  0.00     0.186 A 
ATOM     14  C   UNL A   1      30.810  24.637  26.023  1.00  0.00     0.146 A 
ATOM     15  C   UNL A   1      29.895  25.595  25.555  1.00  0.00     0.050 A 
ATOM     16  C   UNL A   1      32.022  24.423  25.305  1.00  0.00     0.127 A 
ATOM     17  C   UNL A   1      30.142  26.303  24.384  1.00  0.00     0.026 A 
ATOM     18  C   UNL A   1      32.271  25.193  24.163  1.00  0.00     0.079 A 
ATOM     19  N   UNL A   1      33.018  23.488  25.604  1.00  0.00    -0.216 NA
ATOM     20  C   UNL A   1      31.328  26.113  23.676  1.00  0.00     0.060 A 
ATOM     21  S   UNL A   1      33.844  24.819  23.575  1.00  0.00    -0.095 S 
ATOM     22  Cl  UNL A   1      31.588  27.017  22.236  1.00  0.00    -0.083 Cl
BRANCH  14  23
ATOM     23  O   UNL A   1      30.617  23.958  27.205  1.00  0.00    -0.494 OA
ATOM     24  C   UNL A   1      29.675  22.893  27.145  1.00  0.00     0.278 C 
ENDBRANCH  14  23
ENDBRANCH  10  13
ENDBRANCH   6   9
ENDBRANCH   4   5
ENDBRANCH   3   4
ENDBRANCH   2   3
ENDBRANCH   1   2
BRANCH   1  25
ATOM     25  C   UNL A   1      42.504  18.883  26.800  1.00  0.00     0.021 C 
BRANCH  25  26
ATOM     26  C   UNL A   1      42.497  19.509  25.417  1.00  0.00     0.116 C 
BRANCH  26  27
ATOM     27  N   UNL A   1      43.794  19.388  24.755  1.00  0.00    -0.352 N 
ATOM     28  C   UNL A   1      44.680  20.390  24.417  1.00  0.00     0.251 C 
ATOM     29  H   UNL A   1      44.071  18.473  24.519  1.00  0.00     0.163 HD
ATOM     30  O   UNL A   1      45.543  20.200  23.577  1.00  0.00    -0.269 OA
BRANCH  28  31
ATOM     31  C   UNL A   1      44.571  21.690  25.103  1.00  0.00     0.039 A 
ATOM     32  C   UNL A   1      43.701  22.680  24.636  1.00  0.00     0.014 A 
ATOM     33  C   UNL A   1      45.386  21.920  26.211  1.00  0.00     0.014 A 
ATOM     34  C   UNL A   1      43.638  23.890  25.319  1.00  0.00     0.010 A 
ATOM     35  C   UNL A   1      45.209  23.040  26.974  1.00  0.00     0.010 A 
ATOM     36  C   UNL A   1      44.402  24.054  26.483  1.00  0.00    -0.014 A 
BRANCH  36  37
ATOM     37  C   UNL A   1      44.368  25.293  27.234  1.00  0.00     0.031 A 
ATOM     38  C   UNL A   1      45.504  26.203  26.967  1.00  0.00     0.074 A 
ATOM     39  C   UNL A   1      43.273  25.665  27.932  1.00  0.00     0.049 A 
ATOM     40  N   UNL A   1      46.510  26.451  27.739  1.00  0.00    -0.248 NA
ATOM     41  C   UNL A   1      45.618  26.796  25.626  1.00  0.00     0.031 C 
ATOM     42  C   UNL A   1      41.949  25.021  27.937  1.00  0.00     0.029 A 
ATOM     43  N   UNL A   1      43.068  26.778  28.680  1.00  0.00    -0.354 N 
ATOM     44  C   UNL A   1      47.241  27.436  27.078  1.00  0.00     0.074 A 
ATOM     45  C   UNL A   1      46.785  27.439  25.713  1.00  0.00     0.031 C 
ATOM     46  C   UNL A   1      41.034  25.879  28.437  1.00  0.00     0.029 A 
ATOM     47  C   UNL A   1      41.730  27.037  28.962  1.00  0.00     0.049 A 
ATOM     48  H   UNL A   1      43.801  27.354  28.996  1.00  0.00     0.167 HD
ATOM     49  C   UNL A   1      47.935  28.379  27.770  1.00  0.00     0.034 A 
ATOM     50  C   UNL A   1      41.248  28.152  29.555  1.00  0.00     0.034 A 
ATOM     51  C   UNL A   1      47.949  28.090  29.178  1.00  0.00     0.049 A 
ATOM     52  C   UNL A   1      42.368  28.730  30.333  1.00  0.00     0.074 A 
ATOM     53  C   UNL A   1      48.631  27.248  30.027  1.00  0.00     0.029 A 
ATOM     54  N   UNL A   1      46.814  28.506  29.825  1.00  0.00    -0.354 N 
ATOM     55  N   UNL A   1      42.947  28.115  31.327  1.00  0.00    -0.248 NA
ATOM     56  C   UNL A   1      43.080  29.891  29.811  1.00  0.00     0.031 C 
ATOM     57  C   UNL A   1      47.768  27.031  31.143  1.00  0.00     0.029 A 
ATOM     58  C   UNL A   1      46.601  27.770  30.959  1.00  0.00     0.049 A 
ATOM     59  H   UNL A   1      46.229  29.234  29.514  1.00  0.00     0.167 HD
ATOM     60  C   UNL A   1      44.261  28.533  31.254  1.00  0.00     0.074 A 
ATOM     61  C   UNL A   1      44.243  29.746  30.450  1.00  0.00     0.031 C 
ATOM     62  C   UNL A   1      45.286  27.690  31.556  1.00  0.00     0.034 A 
BRANCH  49  63
ATOM     63  C   UNL A   1      48.224  29.776  27.284  1.00  0.00     0.023 A 
ATOM     64  C   UNL A   1      49.559  30.231  27.331  1.00  0.00     0.012 A 
ATOM     65  C   UNL A   1      47.223  30.740  27.026  1.00  0.00     0.148 A 
ATOM     66  C   UNL A   1      49.881  31.577  27.119  1.00  0.00     0.002 A 
ATOM     67  C   UNL A   1      47.554  32.059  26.737  1.00  0.00     0.091 A 
ATOM     68  F   UNL A   1      45.936  30.417  27.198  1.00  0.00    -0.205 F 
ATOM     69  C   UNL A   1      48.881  32.488  26.801  1.00  0.00     0.022 A 
BRANCH  67  70
ATOM     70  S   UNL A   1      46.303  33.262  26.278  1.00  0.00     0.127 S 
ATOM     71  O   UNL A   1      45.750  33.624  27.579  1.00  0.00    -0.237 OA
ATOM     72  O   UNL A   1      47.108  34.301  25.634  1.00  0.00    -0.237 OA
ATOM     73  O   UNL A   1      45.408  32.556  25.369  1.00  0.00    -0.744 OA
ENDBRANCH  67  70
ENDBRANCH  49  63
BRANCH  50  74
ATOM     74  C   UNL A   1      39.997  28.912  29.321  1.00  0.00     0.023 A 
ATOM     75  C   UNL A   1      39.357  28.780  28.071  1.00  0.00     0.012 A 
ATOM     76  C   UNL A   1      39.260  29.461  30.394  1.00  0.00     0.148 A 
ATOM     77  C   UNL A   1      38.000  29.083  27.918  1.00  0.00     0.002 A 
ATOM     78  C   UNL A   1      37.911  29.767  30.234  1.00  0.00     0.091 A 
ATOM     79  F   UNL A   1      39.849  29.584  31.591  1.00  0.00    -0.205 F 
ATOM     80  C   UNL A   1      37.272  29.555  29.005  1.00  0.00     0.022 A 
BRANCH  78  81
ATOM     81  S   UNL A   1      36.899  30.367  31.594  1.00  0.00     0.127 S 
ATOM     82  O   UNL A   1      37.747  31.413  32.168  1.00  0.00    -0.237 OA
ATOM     83  O   UNL A   1      35.713  30.854  30.895  1.00  0.00    -0.237 OA
ATOM     84  O   UNL A   1      36.696  29.218  32.468  1.00  0.00    -0.744 OA
ENDBRANCH  78  81
ENDBRANCH  50  74
BRANCH  62  85
ATOM     85  C   UNL A   1      44.988  26.506  32.423  1.00  0.00     0.023 A 
ATOM     86  C   UNL A   1      44.717  25.224  31.907  1.00  0.00     0.012 A 
ATOM     87  C   UNL A   1      45.125  26.677  33.809  1.00  0.00     0.148 A 
ATOM     88  C   UNL A   1      44.589  24.128  32.768  1.00  0.00     0.002 A 
ATOM     89  C   UNL A   1      45.036  25.582  34.656  1.00  0.00     0.091 A 
ATOM     90  F   UNL A   1      45.381  27.911  34.267  1.00  0.00    -0.205 F 
ATOM     91  C   UNL A   1      44.763  24.305  34.141  1.00  0.00     0.022 A 
BRANCH  89  92
ATOM     92  S   UNL A   1      45.352  25.726  36.415  1.00  0.00     0.127 S 
ATOM     93  O   UNL A   1      44.296  26.640  36.843  1.00  0.00    -0.237 OA
ATOM     94  O   UNL A   1      45.191  24.344  36.870  1.00  0.00    -0.237 OA
ATOM     95  O   UNL A   1      46.710  26.243  36.543  1.00  0.00    -0.744 OA
ENDBRANCH  89  92
ENDBRANCH  62  85
ENDBRANCH  36  37
ENDBRANCH  28  31
ENDBRANCH  26  27
ENDBRANCH  25  26
ENDBRANCH   1  25
TORSDOF 18
ENDMDL
