MODEL 1
REMARK VINA RESULT:     -11.1      0.000      0.000
REMARK SMILES O=C(CCNC(=O)C1CCCCC1)NCCCCCCNC(=O)c1ccc(-c2c3nc(c(-c4cccc(S(=O)(=O)[O-])c4F)c4ccc([nH]4)c(-c4cccc(S(=O)(=O)[O-])c4F)c4nc(c(-c5cccc(S(=O)(=O)[O-])c5F)c5ccc2[nH]5)C=C4)C=C3)cc1
REMARK SMILES IDX 17 1 16 2 15 3 14 4 1 5 2 6 3 8 4 9 5 10 6 11 7 13 8 14 9 15
REMARK SMILES IDX 13 16 10 17 12 18 11 19 18 20 19 21 20 22 21 23 22 24 23 26
REMARK SMILES IDX 24 27 25 28 86 29 26 30 85 31 27 32 28 33 29 34 79 35 30 36
REMARK SMILES IDX 84 37 78 38 80 39 31 40 83 41 77 42 76 43 32 45 64 46 44 47
REMARK SMILES IDX 63 48 45 49 48 50 62 51 81 52 46 53 47 54 61 56 82 57 49 58
REMARK SMILES IDX 33 59 34 60 42 61 35 62 37 63 43 64 36 65 38 66 39 67 40 68
REMARK SMILES IDX 41 69 65 70 66 71 74 72 67 73 69 74 75 75 68 76 70 77 71 78
REMARK SMILES IDX 72 79 73 80 50 81 51 82 59 83 52 84 54 85 60 86 53 87 55 88
REMARK SMILES IDX 56 89 57 90 58 91
REMARK H PARENT 14 7 5 12 21 25 80 44 48 55
REMARK Flexibility Score: inf
ROOT
ATOM      1  C   UNL A   1      32.597  29.569  27.267  1.00  0.00     0.002 C 
ENDROOT
BRANCH   1   2
ATOM      2  C   UNL A   1      31.996  28.172  27.485  1.00  0.00     0.021 C 
BRANCH   2   3
ATOM      3  C   UNL A   1      32.574  27.082  26.584  1.00  0.00     0.116 C 
BRANCH   3   4
ATOM      4  N   UNL A   1      31.685  26.809  25.475  1.00  0.00    -0.356 N 
ATOM      5  O   UNL A   1      30.526  25.064  26.431  1.00  0.00    -0.275 OA
ATOM      6  C   UNL A   1      30.745  25.810  25.485  1.00  0.00     0.221 C 
ATOM      7  H   UNL A   1      31.758  27.372  24.671  1.00  0.00     0.163 HD
BRANCH   6   8
ATOM      8  C   UNL A   1      29.979  25.710  24.190  1.00  0.00     0.121 C 
BRANCH   8   9
ATOM      9  C   UNL A   1      30.419  24.496  23.384  1.00  0.00     0.125 C 
BRANCH   9  10
ATOM     10  N   UNL A   1      31.522  24.785  22.469  1.00  0.00    -0.355 N 
ATOM     11  C   UNL A   1      32.861  24.550  22.558  1.00  0.00     0.223 C 
ATOM     12  H   UNL A   1      31.248  25.230  21.636  1.00  0.00     0.163 HD
ATOM     13  O   UNL A   1      33.573  24.951  21.634  1.00  0.00    -0.275 OA
BRANCH  11  14
ATOM     14  C   UNL A   1      33.478  23.819  23.748  1.00  0.00     0.078 C 
ATOM     15  C   UNL A   1      33.452  22.300  23.541  1.00  0.00     0.013 C 
ATOM     16  C   UNL A   1      34.834  24.436  24.134  1.00  0.00     0.013 C 
ATOM     17  C   UNL A   1      34.300  21.544  24.553  1.00  0.00     0.001 C 
ATOM     18  C   UNL A   1      35.687  23.562  25.046  1.00  0.00     0.001 C 
ATOM     19  C   UNL A   1      35.713  22.106  24.601  1.00  0.00     0.000 C 
ENDBRANCH  11  14
ENDBRANCH   9  10
ENDBRANCH   8   9
ENDBRANCH   6   8
ENDBRANCH   3   4
ENDBRANCH   2   3
ENDBRANCH   1   2
BRANCH   1  20
ATOM     20  C   UNL A   1      31.921  30.411  26.181  1.00  0.00     0.002 C 
BRANCH  20  21
ATOM     21  C   UNL A   1      31.627  31.859  26.576  1.00  0.00     0.021 C 
BRANCH  21  22
ATOM     22  C   UNL A   1      32.726  32.542  27.381  1.00  0.00     0.116 C 
BRANCH  22  23
ATOM     23  N   UNL A   1      32.475  33.963  27.581  1.00  0.00    -0.352 N 
ATOM     24  C   UNL A   1      33.098  34.826  28.450  1.00  0.00     0.251 C 
ATOM     25  H   UNL A   1      31.768  34.356  27.019  1.00  0.00     0.163 HD
ATOM     26  O   UNL A   1      32.676  35.969  28.601  1.00  0.00    -0.269 OA
BRANCH  24  27
ATOM     27  C   UNL A   1      34.266  34.356  29.225  1.00  0.00     0.039 A 
ATOM     28  C   UNL A   1      34.064  33.778  30.481  1.00  0.00     0.014 A 
ATOM     29  C   UNL A   1      35.556  34.459  28.696  1.00  0.00     0.014 A 
ATOM     30  C   UNL A   1      35.149  33.246  31.181  1.00  0.00     0.010 A 
ATOM     31  C   UNL A   1      36.624  33.869  29.364  1.00  0.00     0.010 A 
ATOM     32  C   UNL A   1      36.434  33.258  30.615  1.00  0.00    -0.014 A 
BRANCH  32  33
ATOM     33  C   UNL A   1      37.599  32.640  31.300  1.00  0.00     0.031 A 
ATOM     34  C   UNL A   1      38.330  31.496  30.649  1.00  0.00     0.074 A 
ATOM     35  C   UNL A   1      37.925  33.026  32.550  1.00  0.00     0.049 A 
ATOM     36  N   UNL A   1      39.285  30.745  31.134  1.00  0.00    -0.248 NA
ATOM     37  C   UNL A   1      37.913  31.126  29.286  1.00  0.00     0.031 C 
ATOM     38  C   UNL A   1      37.248  34.074  33.318  1.00  0.00     0.029 A 
ATOM     39  N   UNL A   1      38.885  32.554  33.413  1.00  0.00    -0.354 N 
ATOM     40  C   UNL A   1      39.544  29.786  30.162  1.00  0.00     0.074 A 
ATOM     41  C   UNL A   1      38.637  30.038  29.064  1.00  0.00     0.031 C 
ATOM     42  C   UNL A   1      37.806  34.158  34.538  1.00  0.00     0.029 A 
ATOM     43  C   UNL A   1      38.857  33.152  34.653  1.00  0.00     0.049 A 
ATOM     44  H   UNL A   1      39.532  31.854  33.166  1.00  0.00     0.167 HD
ATOM     45  C   UNL A   1      40.469  28.798  30.172  1.00  0.00     0.034 A 
ATOM     46  C   UNL A   1      39.584  32.906  35.761  1.00  0.00     0.034 A 
ATOM     47  C   UNL A   1      41.417  28.594  31.234  1.00  0.00     0.049 A 
ATOM     48  C   UNL A   1      40.645  31.836  35.718  1.00  0.00     0.074 A 
ATOM     49  C   UNL A   1      42.465  27.693  31.286  1.00  0.00     0.029 A 
ATOM     50  N   UNL A   1      41.432  29.297  32.427  1.00  0.00    -0.354 N 
ATOM     51  N   UNL A   1      40.989  31.054  34.724  1.00  0.00    -0.248 NA
ATOM     52  C   UNL A   1      41.444  31.639  36.937  1.00  0.00     0.031 C 
ATOM     53  C   UNL A   1      43.104  27.837  32.520  1.00  0.00     0.029 A 
ATOM     54  C   UNL A   1      42.467  28.846  33.226  1.00  0.00     0.049 A 
ATOM     55  H   UNL A   1      40.801  30.013  32.671  1.00  0.00     0.167 HD
ATOM     56  C   UNL A   1      42.070  30.309  35.181  1.00  0.00     0.074 A 
ATOM     57  C   UNL A   1      42.336  30.743  36.536  1.00  0.00     0.031 C 
ATOM     58  C   UNL A   1      42.771  29.342  34.541  1.00  0.00     0.034 A 
BRANCH  45  59
ATOM     59  C   UNL A   1      40.552  27.886  28.978  1.00  0.00     0.023 A 
ATOM     60  C   UNL A   1      39.589  26.872  28.810  1.00  0.00     0.012 A 
ATOM     61  C   UNL A   1      41.518  28.099  27.975  1.00  0.00     0.148 A 
ATOM     62  C   UNL A   1      39.597  26.070  27.670  1.00  0.00     0.002 A 
ATOM     63  C   UNL A   1      41.494  27.324  26.822  1.00  0.00     0.091 A 
ATOM     64  F   UNL A   1      42.435  29.059  28.165  1.00  0.00    -0.205 F 
ATOM     65  C   UNL A   1      40.539  26.303  26.672  1.00  0.00     0.022 A 
BRANCH  63  66
ATOM     66  S   UNL A   1      42.611  27.597  25.443  1.00  0.00     0.127 S 
ATOM     67  O   UNL A   1      42.469  26.347  24.697  1.00  0.00    -0.237 OA
ATOM     68  O   UNL A   1      42.016  28.765  24.793  1.00  0.00    -0.237 OA
ATOM     69  O   UNL A   1      43.925  27.826  26.027  1.00  0.00    -0.744 OA
ENDBRANCH  63  66
ENDBRANCH  45  59
BRANCH  46  70
ATOM     70  C   UNL A   1      39.383  33.720  36.993  1.00  0.00     0.023 A 
ATOM     71  C   UNL A   1      39.883  35.037  37.038  1.00  0.00     0.012 A 
ATOM     72  C   UNL A   1      38.713  33.204  38.119  1.00  0.00     0.148 A 
ATOM     73  C   UNL A   1      39.761  35.808  38.195  1.00  0.00     0.002 A 
ATOM     74  C   UNL A   1      38.546  33.997  39.249  1.00  0.00     0.091 A 
ATOM     75  F   UNL A   1      38.258  31.945  38.068  1.00  0.00    -0.205 F 
ATOM     76  C   UNL A   1      39.085  35.292  39.296  1.00  0.00     0.022 A 
BRANCH  74  77
ATOM     77  S   UNL A   1      37.576  33.453  40.660  1.00  0.00     0.127 S 
ATOM     78  O   UNL A   1      36.313  33.080  40.030  1.00  0.00    -0.237 OA
ATOM     79  O   UNL A   1      38.369  32.330  41.164  1.00  0.00    -0.237 OA
ATOM     80  O   UNL A   1      37.530  34.599  41.560  1.00  0.00    -0.744 OA
ENDBRANCH  74  77
ENDBRANCH  46  70
BRANCH  58  81
ATOM     81  C   UNL A   1      43.937  28.720  35.262  1.00  0.00     0.023 A 
ATOM     82  C   UNL A   1      45.230  29.252  35.097  1.00  0.00     0.012 A 
ATOM     83  C   UNL A   1      43.730  27.672  36.182  1.00  0.00     0.148 A 
ATOM     84  C   UNL A   1      46.305  28.734  35.818  1.00  0.00     0.002 A 
ATOM     85  C   UNL A   1      44.797  27.195  36.933  1.00  0.00     0.091 A 
ATOM     86  F   UNL A   1      42.494  27.169  36.310  1.00  0.00    -0.205 F 
ATOM     87  C   UNL A   1      46.087  27.717  36.745  1.00  0.00     0.022 A 
BRANCH  85  88
ATOM     88  S   UNL A   1      44.590  25.959  38.221  1.00  0.00     0.127 S 
ATOM     89  O   UNL A   1      43.934  24.875  37.490  1.00  0.00    -0.237 OA
ATOM     90  O   UNL A   1      45.973  25.682  38.610  1.00  0.00    -0.237 OA
ATOM     91  O   UNL A   1      43.785  26.590  39.257  1.00  0.00    -0.744 OA
ENDBRANCH  85  88
ENDBRANCH  58  81
ENDBRANCH  32  33
ENDBRANCH  24  27
ENDBRANCH  22  23
ENDBRANCH  21  22
ENDBRANCH  20  21
ENDBRANCH   1  20
TORSDOF 19
ENDMDL
MODEL 2
REMARK VINA RESULT:     -10.9      2.672      4.241
REMARK SMILES O=C(CCNC(=O)C1CCCCC1)NCCCCCCNC(=O)c1ccc(-c2c3nc(c(-c4cccc(S(=O)(=O)[O-])c4F)c4ccc([nH]4)c(-c4cccc(S(=O)(=O)[O-])c4F)c4nc(c(-c5cccc(S(=O)(=O)[O-])c5F)c5ccc2[nH]5)C=C4)C=C3)cc1
REMARK SMILES IDX 17 1 16 2 15 3 14 4 1 5 2 6 3 8 4 9 5 10 6 11 7 13 8 14 9 15
REMARK SMILES IDX 13 16 10 17 12 18 11 19 18 20 19 21 20 22 21 23 22 24 23 26
REMARK SMILES IDX 24 27 25 28 86 29 26 30 85 31 27 32 28 33 29 34 79 35 30 36
REMARK SMILES IDX 84 37 78 38 80 39 31 40 83 41 77 42 76 43 32 45 64 46 44 47
REMARK SMILES IDX 63 48 45 49 48 50 62 51 81 52 46 53 47 54 61 56 82 57 49 58
REMARK SMILES IDX 33 59 34 60 42 61 35 62 37 63 43 64 36 65 38 66 39 67 40 68
REMARK SMILES IDX 41 69 65 70 66 71 74 72 67 73 69 74 75 75 68 76 70 77 71 78
REMARK SMILES IDX 72 79 73 80 50 81 51 82 59 83 52 84 54 85 60 86 53 87 55 88
REMARK SMILES IDX 56 89 57 90 58 91
REMARK H PARENT 14 7 5 12 21 25 80 44 48 55
REMARK Flexibility Score: inf
ROOT
ATOM      1  C   UNL A   1      33.358  27.700  22.391  1.00  0.00     0.002 C 
ENDROOT
BRANCH   1   2
ATOM      2  C   UNL A   1      33.971  26.676  23.358  1.00  0.00     0.021 C 
BRANCH   2   3
ATOM      3  C   UNL A   1      33.113  25.435  23.600  1.00  0.00     0.116 C 
BRANCH   3   4
ATOM      4  N   UNL A   1      31.722  25.799  23.763  1.00  0.00    -0.356 N 
ATOM      5  O   UNL A   1      31.497  25.175  25.969  1.00  0.00    -0.275 OA
ATOM      6  C   UNL A   1      31.024  25.622  24.932  1.00  0.00     0.221 C 
ATOM      7  H   UNL A   1      31.251  26.195  22.995  1.00  0.00     0.163 HD
BRANCH   6   8
ATOM      8  C   UNL A   1      29.580  26.043  24.823  1.00  0.00     0.121 C 
BRANCH   8   9
ATOM      9  C   UNL A   1      29.384  27.045  23.694  1.00  0.00     0.125 C 
BRANCH   9  10
ATOM     10  N   UNL A   1      27.988  27.438  23.512  1.00  0.00    -0.355 N 
ATOM     11  C   UNL A   1      27.418  28.611  23.121  1.00  0.00     0.223 C 
ATOM     12  H   UNL A   1      27.340  26.724  23.708  1.00  0.00     0.163 HD
ATOM     13  O   UNL A   1      26.186  28.668  23.100  1.00  0.00    -0.275 OA
BRANCH  11  14
ATOM     14  C   UNL A   1      28.254  29.824  22.720  1.00  0.00     0.078 C 
ATOM     15  C   UNL A   1      28.011  30.205  21.255  1.00  0.00     0.013 C 
ATOM     16  C   UNL A   1      28.123  30.955  23.754  1.00  0.00     0.013 C 
ATOM     17  C   UNL A   1      28.595  31.562  20.885  1.00  0.00     0.001 C 
ATOM     18  C   UNL A   1      28.606  32.315  23.266  1.00  0.00     0.001 C 
ATOM     19  C   UNL A   1      28.126  32.634  21.857  1.00  0.00     0.000 C 
ENDBRANCH  11  14
ENDBRANCH   9  10
ENDBRANCH   8   9
ENDBRANCH   6   8
ENDBRANCH   3   4
ENDBRANCH   2   3
ENDBRANCH   1   2
BRANCH   1  20
ATOM     20  C   UNL A   1      32.771  28.952  23.049  1.00  0.00     0.002 C 
BRANCH  20  21
ATOM     21  C   UNL A   1      33.464  29.390  24.340  1.00  0.00     0.021 C 
BRANCH  21  22
ATOM     22  C   UNL A   1      32.593  29.326  25.590  1.00  0.00     0.116 C 
BRANCH  22  23
ATOM     23  N   UNL A   1      32.098  30.634  25.996  1.00  0.00    -0.352 N 
ATOM     24  C   UNL A   1      32.637  31.503  26.914  1.00  0.00     0.251 C 
ATOM     25  H   UNL A   1      31.271  30.935  25.555  1.00  0.00     0.163 HD
ATOM     26  O   UNL A   1      32.023  32.512  27.250  1.00  0.00    -0.269 OA
BRANCH  24  27
ATOM     27  C   UNL A   1      33.952  31.198  27.516  1.00  0.00     0.039 A 
ATOM     28  C   UNL A   1      34.900  32.218  27.637  1.00  0.00     0.014 A 
ATOM     29  C   UNL A   1      34.236  29.912  27.986  1.00  0.00     0.014 A 
ATOM     30  C   UNL A   1      36.110  31.964  28.289  1.00  0.00     0.010 A 
ATOM     31  C   UNL A   1      35.412  29.680  28.693  1.00  0.00     0.010 A 
ATOM     32  C   UNL A   1      36.363  30.701  28.850  1.00  0.00    -0.014 A 
BRANCH  32  33
ATOM     33  C   UNL A   1      37.608  30.417  29.609  1.00  0.00     0.031 A 
ATOM     34  C   UNL A   1      38.637  29.478  29.035  1.00  0.00     0.074 A 
ATOM     35  C   UNL A   1      37.761  30.905  30.857  1.00  0.00     0.049 A 
ATOM     36  N   UNL A   1      39.723  29.006  29.589  1.00  0.00    -0.248 NA
ATOM     37  C   UNL A   1      38.397  28.979  27.670  1.00  0.00     0.031 C 
ATOM     38  C   UNL A   1      36.803  31.767  31.554  1.00  0.00     0.029 A 
ATOM     39  N   UNL A   1      38.763  30.714  31.778  1.00  0.00    -0.354 N 
ATOM     40  C   UNL A   1      40.265  28.120  28.667  1.00  0.00     0.074 A 
ATOM     41  C   UNL A   1      39.383  28.105  27.522  1.00  0.00     0.031 C 
ATOM     42  C   UNL A   1      37.259  32.021  32.792  1.00  0.00     0.029 A 
ATOM     43  C   UNL A   1      38.521  31.317  32.992  1.00  0.00     0.049 A 
ATOM     44  H   UNL A   1      39.577  30.195  31.586  1.00  0.00     0.167 HD
ATOM     45  C   UNL A   1      41.408  27.399  28.756  1.00  0.00     0.034 A 
ATOM     46  C   UNL A   1      39.229  31.292  34.139  1.00  0.00     0.034 A 
ATOM     47  C   UNL A   1      42.321  27.470  29.865  1.00  0.00     0.049 A 
ATOM     48  C   UNL A   1      40.525  30.526  34.184  1.00  0.00     0.074 A 
ATOM     49  C   UNL A   1      43.557  26.865  29.996  1.00  0.00     0.029 A 
ATOM     50  N   UNL A   1      42.096  28.185  31.029  1.00  0.00    -0.354 N 
ATOM     51  N   UNL A   1      41.106  29.830  33.235  1.00  0.00    -0.248 NA
ATOM     52  C   UNL A   1      41.283  30.569  35.443  1.00  0.00     0.031 C 
ATOM     53  C   UNL A   1      44.074  27.199  31.251  1.00  0.00     0.029 A 
ATOM     54  C   UNL A   1      43.169  28.031  31.890  1.00  0.00     0.049 A 
ATOM     55  H   UNL A   1      41.293  28.723  31.218  1.00  0.00     0.167 HD
ATOM     56  C   UNL A   1      42.315  29.396  33.768  1.00  0.00     0.074 A 
ATOM     57  C   UNL A   1      42.392  29.918  35.116  1.00  0.00     0.031 C 
ATOM     58  C   UNL A   1      43.269  28.622  33.197  1.00  0.00     0.034 A 
BRANCH  45  59
ATOM     59  C   UNL A   1      41.780  26.508  27.602  1.00  0.00     0.023 A 
ATOM     60  C   UNL A   1      42.568  27.020  26.553  1.00  0.00     0.012 A 
ATOM     61  C   UNL A   1      41.437  25.141  27.608  1.00  0.00     0.148 A 
ATOM     62  C   UNL A   1      42.994  26.192  25.517  1.00  0.00     0.002 A 
ATOM     63  C   UNL A   1      41.901  24.312  26.594  1.00  0.00     0.091 A 
ATOM     64  F   UNL A   1      40.671  24.679  28.607  1.00  0.00    -0.205 F 
ATOM     65  C   UNL A   1      42.672  24.838  25.543  1.00  0.00     0.022 A 
BRANCH  63  66
ATOM     66  S   UNL A   1      41.611  22.540  26.577  1.00  0.00     0.127 S 
ATOM     67  O   UNL A   1      42.217  22.130  27.844  1.00  0.00    -0.237 OA
ATOM     68  O   UNL A   1      40.150  22.468  26.548  1.00  0.00    -0.237 OA
ATOM     69  O   UNL A   1      42.272  22.034  25.382  1.00  0.00    -0.744 OA
ENDBRANCH  63  66
ENDBRANCH  45  59
BRANCH  46  70
ATOM     70  C   UNL A   1      38.765  32.061  35.329  1.00  0.00     0.023 A 
ATOM     71  C   UNL A   1      38.901  33.464  35.339  1.00  0.00     0.012 A 
ATOM     72  C   UNL A   1      38.202  31.420  36.450  1.00  0.00     0.148 A 
ATOM     73  C   UNL A   1      38.528  34.209  36.459  1.00  0.00     0.002 A 
ATOM     74  C   UNL A   1      37.781  32.174  37.540  1.00  0.00     0.091 A 
ATOM     75  F   UNL A   1      38.094  30.084  36.433  1.00  0.00    -0.205 F 
ATOM     76  C   UNL A   1      37.960  33.566  37.554  1.00  0.00     0.022 A 
BRANCH  74  77
ATOM     77  S   UNL A   1      36.924  31.436  38.935  1.00  0.00     0.127 S 
ATOM     78  O   UNL A   1      35.692  32.218  38.979  1.00  0.00    -0.237 OA
ATOM     79  O   UNL A   1      36.758  30.049  38.497  1.00  0.00    -0.237 OA
ATOM     80  O   UNL A   1      37.826  31.596  40.069  1.00  0.00    -0.744 OA
ENDBRANCH  74  77
ENDBRANCH  46  70
BRANCH  58  81
ATOM     81  C   UNL A   1      44.515  28.334  33.991  1.00  0.00     0.023 A 
ATOM     82  C   UNL A   1      45.556  29.282  34.032  1.00  0.00     0.012 A 
ATOM     83  C   UNL A   1      44.606  27.169  34.778  1.00  0.00     0.148 A 
ATOM     84  C   UNL A   1      46.681  29.061  34.826  1.00  0.00     0.002 A 
ATOM     85  C   UNL A   1      45.707  26.980  35.603  1.00  0.00     0.091 A 
ATOM     86  F   UNL A   1      43.611  26.272  34.709  1.00  0.00    -0.205 F 
ATOM     87  C   UNL A   1      46.750  27.919  35.621  1.00  0.00     0.022 A 
BRANCH  85  88
ATOM     88  S   UNL A   1      45.833  25.591  36.736  1.00  0.00     0.127 S 
ATOM     89  O   UNL A   1      45.893  24.458  35.813  1.00  0.00    -0.237 OA
ATOM     90  O   UNL A   1      47.086  25.874  37.437  1.00  0.00    -0.237 OA
ATOM     91  O   UNL A   1      44.644  25.649  37.576  1.00  0.00    -0.744 OA
ENDBRANCH  85  88
ENDBRANCH  58  81
ENDBRANCH  32  33
ENDBRANCH  24  27
ENDBRANCH  22  23
ENDBRANCH  21  22
ENDBRANCH  20  21
ENDBRANCH   1  20
TORSDOF 19
ENDMDL
MODEL 3
REMARK VINA RESULT:     -10.8      2.618      3.513
REMARK SMILES O=C(CCNC(=O)C1CCCCC1)NCCCCCCNC(=O)c1ccc(-c2c3nc(c(-c4cccc(S(=O)(=O)[O-])c4F)c4ccc([nH]4)c(-c4cccc(S(=O)(=O)[O-])c4F)c4nc(c(-c5cccc(S(=O)(=O)[O-])c5F)c5ccc2[nH]5)C=C4)C=C3)cc1
REMARK SMILES IDX 17 1 16 2 15 3 14 4 1 5 2 6 3 8 4 9 5 10 6 11 7 13 8 14 9 15
REMARK SMILES IDX 13 16 10 17 12 18 11 19 18 20 19 21 20 22 21 23 22 24 23 26
REMARK SMILES IDX 24 27 25 28 86 29 26 30 85 31 27 32 28 33 29 34 79 35 30 36
REMARK SMILES IDX 84 37 78 38 80 39 31 40 83 41 77 42 76 43 32 45 64 46 44 47
REMARK SMILES IDX 63 48 45 49 48 50 62 51 81 52 46 53 47 54 61 56 82 57 49 58
REMARK SMILES IDX 33 59 34 60 42 61 35 62 37 63 43 64 36 65 38 66 39 67 40 68
REMARK SMILES IDX 41 69 65 70 66 71 74 72 67 73 69 74 75 75 68 76 70 77 71 78
REMARK SMILES IDX 72 79 73 80 50 81 51 82 59 83 52 84 54 85 60 86 53 87 55 88
REMARK SMILES IDX 56 89 57 90 58 91
REMARK H PARENT 14 7 5 12 21 25 80 44 48 55
REMARK Flexibility Score: inf
ROOT
ATOM      1  C   UNL A   1      33.028  27.306  26.454  1.00  0.00     0.002 C 
ENDROOT
BRANCH   1   2
ATOM      2  C   UNL A   1      32.485  26.812  25.105  1.00  0.00     0.021 C 
BRANCH   2   3
ATOM      3  C   UNL A   1      33.483  26.009  24.272  1.00  0.00     0.116 C 
BRANCH   3   4
ATOM      4  N   UNL A   1      32.885  24.776  23.806  1.00  0.00    -0.356 N 
ATOM      5  O   UNL A   1      34.707  23.967  22.652  1.00  0.00    -0.275 OA
ATOM      6  C   UNL A   1      33.543  23.864  23.019  1.00  0.00     0.221 C 
ATOM      7  H   UNL A   1      31.956  24.580  24.068  1.00  0.00     0.163 HD
BRANCH   6   8
ATOM      8  C   UNL A   1      32.681  22.687  22.637  1.00  0.00     0.121 C 
BRANCH   8   9
ATOM      9  C   UNL A   1      32.561  21.698  23.787  1.00  0.00     0.125 C 
BRANCH   9  10
ATOM     10  N   UNL A   1      33.841  21.411  24.432  1.00  0.00    -0.355 N 
ATOM     11  C   UNL A   1      34.440  20.238  24.778  1.00  0.00     0.223 C 
ATOM     12  H   UNL A   1      34.366  22.211  24.657  1.00  0.00     0.163 HD
ATOM     13  O   UNL A   1      35.524  20.302  25.363  1.00  0.00    -0.275 OA
BRANCH  11  14
ATOM     14  C   UNL A   1      33.811  18.883  24.464  1.00  0.00     0.078 C 
ATOM     15  C   UNL A   1      34.885  17.826  24.180  1.00  0.00     0.013 C 
ATOM     16  C   UNL A   1      32.743  18.513  25.508  1.00  0.00     0.013 C 
ATOM     17  C   UNL A   1      34.332  16.408  24.141  1.00  0.00     0.001 C 
ATOM     18  C   UNL A   1      32.334  17.044  25.498  1.00  0.00     0.001 C 
ATOM     19  C   UNL A   1      33.529  16.107  25.398  1.00  0.00     0.000 C 
ENDBRANCH  11  14
ENDBRANCH   9  10
ENDBRANCH   8   9
ENDBRANCH   6   8
ENDBRANCH   3   4
ENDBRANCH   2   3
ENDBRANCH   1   2
BRANCH   1  20
ATOM     20  C   UNL A   1      32.032  28.089  27.314  1.00  0.00     0.002 C 
BRANCH  20  21
ATOM     21  C   UNL A   1      31.455  29.343  26.656  1.00  0.00     0.021 C 
BRANCH  21  22
ATOM     22  C   UNL A   1      32.493  30.328  26.129  1.00  0.00     0.116 C 
BRANCH  22  23
ATOM     23  N   UNL A   1      32.181  31.709  26.474  1.00  0.00    -0.352 N 
ATOM     24  C   UNL A   1      32.875  32.561  27.299  1.00  0.00     0.251 C 
ATOM     25  H   UNL A   1      31.368  32.080  26.061  1.00  0.00     0.163 HD
ATOM     26  O   UNL A   1      32.406  33.655  27.600  1.00  0.00    -0.269 OA
BRANCH  24  27
ATOM     27  C   UNL A   1      34.182  32.136  27.844  1.00  0.00     0.039 A 
ATOM     28  C   UNL A   1      35.226  33.062  27.911  1.00  0.00     0.014 A 
ATOM     29  C   UNL A   1      34.363  30.833  28.317  1.00  0.00     0.014 A 
ATOM     30  C   UNL A   1      36.435  32.699  28.510  1.00  0.00     0.010 A 
ATOM     31  C   UNL A   1      35.543  30.496  28.973  1.00  0.00     0.010 A 
ATOM     32  C   UNL A   1      36.593  31.423  29.075  1.00  0.00    -0.014 A 
BRANCH  32  33
ATOM     33  C   UNL A   1      37.839  31.027  29.780  1.00  0.00     0.031 A 
ATOM     34  C   UNL A   1      38.759  30.009  29.160  1.00  0.00     0.074 A 
ATOM     35  C   UNL A   1      38.085  31.491  31.022  1.00  0.00     0.049 A 
ATOM     36  N   UNL A   1      39.823  29.441  29.667  1.00  0.00    -0.248 NA
ATOM     37  C   UNL A   1      38.422  29.542  27.804  1.00  0.00     0.031 C 
ATOM     38  C   UNL A   1      37.233  32.426  31.762  1.00  0.00     0.029 A 
ATOM     39  N   UNL A   1      39.103  31.208  31.901  1.00  0.00    -0.354 N 
ATOM     40  C   UNL A   1      40.249  28.518  28.719  1.00  0.00     0.074 A 
ATOM     41  C   UNL A   1      39.322  28.588  27.611  1.00  0.00     0.031 C 
ATOM     42  C   UNL A   1      37.759  32.630  32.982  1.00  0.00     0.029 A 
ATOM     43  C   UNL A   1      38.964  31.820  33.126  1.00  0.00     0.049 A 
ATOM     44  H   UNL A   1      39.861  30.622  31.673  1.00  0.00     0.167 HD
ATOM     45  C   UNL A   1      41.328  27.702  28.757  1.00  0.00     0.034 A 
ATOM     46  C   UNL A   1      39.713  31.726  34.242  1.00  0.00     0.034 A 
ATOM     47  C   UNL A   1      42.288  27.686  29.828  1.00  0.00     0.049 A 
ATOM     48  C   UNL A   1      40.940  30.851  34.230  1.00  0.00     0.074 A 
ATOM     49  C   UNL A   1      43.472  26.977  29.905  1.00  0.00     0.029 A 
ATOM     50  N   UNL A   1      42.173  28.408  31.004  1.00  0.00    -0.354 N 
ATOM     51  N   UNL A   1      41.419  30.115  33.256  1.00  0.00    -0.248 NA
ATOM     52  C   UNL A   1      41.750  30.819  35.457  1.00  0.00     0.031 C 
ATOM     53  C   UNL A   1      44.067  27.255  31.139  1.00  0.00     0.029 A 
ATOM     54  C   UNL A   1      43.263  28.157  31.818  1.00  0.00     0.049 A 
ATOM     55  H   UNL A   1      41.428  29.011  31.227  1.00  0.00     0.167 HD
ATOM     56  C   UNL A   1      42.607  29.575  33.736  1.00  0.00     0.074 A 
ATOM     57  C   UNL A   1      42.784  30.079  35.082  1.00  0.00     0.031 C 
ATOM     58  C   UNL A   1      43.467  28.727  33.123  1.00  0.00     0.034 A 
BRANCH  45  59
ATOM     59  C   UNL A   1      41.574  26.791  27.586  1.00  0.00     0.023 A 
ATOM     60  C   UNL A   1      42.282  27.273  26.467  1.00  0.00     0.012 A 
ATOM     61  C   UNL A   1      41.198  25.434  27.636  1.00  0.00     0.148 A 
ATOM     62  C   UNL A   1      42.594  26.425  25.406  1.00  0.00     0.002 A 
ATOM     63  C   UNL A   1      41.550  24.584  26.595  1.00  0.00     0.091 A 
ATOM     64  F   UNL A   1      40.510  25.001  28.703  1.00  0.00    -0.205 F 
ATOM     65  C   UNL A   1      42.240  25.080  25.475  1.00  0.00     0.022 A 
BRANCH  63  66
ATOM     66  S   UNL A   1      41.214  22.820  26.623  1.00  0.00     0.127 S 
ATOM     67  O   UNL A   1      41.922  22.366  25.427  1.00  0.00    -0.237 OA
ATOM     68  O   UNL A   1      41.826  22.411  27.887  1.00  0.00    -0.237 OA
ATOM     69  O   UNL A   1      39.765  22.685  26.574  1.00  0.00    -0.744 OA
ENDBRANCH  63  66
ENDBRANCH  45  59
BRANCH  46  70
ATOM     70  C   UNL A   1      39.366  32.522  35.454  1.00  0.00     0.023 A 
ATOM     71  C   UNL A   1      38.531  31.951  36.437  1.00  0.00     0.012 A 
ATOM     72  C   UNL A   1      39.844  33.833  35.640  1.00  0.00     0.148 A 
ATOM     73  C   UNL A   1      38.142  32.687  37.557  1.00  0.00     0.002 A 
ATOM     74  C   UNL A   1      39.497  34.541  36.786  1.00  0.00     0.091 A 
ATOM     75  F   UNL A   1      40.623  34.368  34.690  1.00  0.00    -0.205 F 
ATOM     76  C   UNL A   1      38.632  33.977  37.736  1.00  0.00     0.022 A 
BRANCH  74  77
ATOM     77  S   UNL A   1      40.188  36.158  37.152  1.00  0.00     0.127 S 
ATOM     78  O   UNL A   1      41.591  35.835  37.401  1.00  0.00    -0.237 OA
ATOM     79  O   UNL A   1      39.936  36.890  35.910  1.00  0.00    -0.237 OA
ATOM     80  O   UNL A   1      39.431  36.649  38.296  1.00  0.00    -0.744 OA
ENDBRANCH  74  77
ENDBRANCH  46  70
BRANCH  58  81
ATOM     81  C   UNL A   1      44.716  28.328  33.863  1.00  0.00     0.023 A 
ATOM     82  C   UNL A   1      45.827  29.192  33.884  1.00  0.00     0.012 A 
ATOM     83  C   UNL A   1      44.746  27.141  34.622  1.00  0.00     0.148 A 
ATOM     84  C   UNL A   1      46.959  28.869  34.630  1.00  0.00     0.002 A 
ATOM     85  C   UNL A   1      45.858  26.850  35.402  1.00  0.00     0.091 A 
ATOM     86  F   UNL A   1      43.683  26.323  34.574  1.00  0.00    -0.205 F 
ATOM     87  C   UNL A   1      46.970  27.707  35.399  1.00  0.00     0.022 A 
BRANCH  85  88
ATOM     88  S   UNL A   1      45.918  25.430  36.501  1.00  0.00     0.127 S 
ATOM     89  O   UNL A   1      46.371  24.373  35.598  1.00  0.00    -0.237 OA
ATOM     90  O   UNL A   1      46.907  25.848  37.495  1.00  0.00    -0.237 OA
ATOM     91  O   UNL A   1      44.568  25.269  37.023  1.00  0.00    -0.744 OA
ENDBRANCH  85  88
ENDBRANCH  58  81
ENDBRANCH  32  33
ENDBRANCH  24  27
ENDBRANCH  22  23
ENDBRANCH  21  22
ENDBRANCH  20  21
ENDBRANCH   1  20
TORSDOF 19
ENDMDL
