MODEL 1
REMARK VINA RESULT:     -12.0      0.000      0.000
REMARK SMILES Cc1cc(F)cc(N[C@H](C(=O)NCCCCCCNC(=O)c2ccc(-c3c4nc(c(-c5cccc(S(=O)(=O)[O-])c5F)c5ccc([nH]5)c(-c5cccc(S(=O)(=O)[O-])c5F)c5nc(c(-c6cccc(S(=O)(=O)[O-])c6F)c6ccc3[nH]6)C=C5)C=C4)cc2)c2cc(C)cc(C)c2)c1
REMARK SMILES IDX 16 1 15 2 14 3 13 4 12 5 10 6 11 7 9 9 8 10 7 12 1 13 2 14
REMARK SMILES IDX 3 15 93 16 4 17 5 18 6 19 85 20 86 21 92 22 87 23 90 24
REMARK SMILES IDX 88 25 89 26 91 27 17 28 18 29 19 30 20 31 21 33 22 34 23 35
REMARK SMILES IDX 84 36 24 37 83 38 25 39 26 40 27 41 77 42 28 43 82 44 76 45
REMARK SMILES IDX 78 46 29 47 81 48 75 49 74 50 30 52 62 53 42 54 61 55 43 56
REMARK SMILES IDX 46 57 60 58 79 59 44 60 45 61 59 63 80 64 47 65 31 66 32 67
REMARK SMILES IDX 40 68 33 69 35 70 41 71 34 72 36 73 37 74 38 75 39 76 63 77
REMARK SMILES IDX 64 78 72 79 65 80 67 81 73 82 66 83 68 84 69 85 70 86 71 87
REMARK SMILES IDX 48 88 49 89 57 90 50 91 52 92 58 93 51 94 53 95 54 96 55 97
REMARK SMILES IDX 56 98
REMARK H PARENT 12 8 8 11 19 32 78 51 46 62
REMARK Flexibility Score: inf
ROOT
ATOM      1  C   UNL A   1      32.708  26.167  26.099  1.00  0.00     0.002 C 
ENDROOT
BRANCH   1   2
ATOM      2  C   UNL A   1      31.299  25.564  26.131  1.00  0.00     0.002 C 
BRANCH   2   3
ATOM      3  C   UNL A   1      31.059  24.379  25.191  1.00  0.00     0.021 C 
BRANCH   3   4
ATOM      4  C   UNL A   1      30.710  23.064  25.881  1.00  0.00     0.116 C 
BRANCH   4   5
ATOM      5  N   UNL A   1      31.397  22.900  27.143  1.00  0.00    -0.354 N 
ATOM      6  C   UNL A   1      32.555  22.232  27.425  1.00  0.00     0.247 C 
ATOM      7  O   UNL A   1      32.908  22.275  28.612  1.00  0.00    -0.272 OA
ATOM      8  H   UNL A   1      30.966  23.336  27.914  1.00  0.00     0.163 HD
BRANCH   6   9
ATOM      9  C   UNL A   1      33.305  21.357  26.373  1.00  0.00     0.200 C 
BRANCH   9  10
ATOM     10  N   UNL A   1      32.463  20.408  25.596  1.00  0.00    -0.370 N 
ATOM     11  H   UNL A   1      31.495  20.557  25.702  1.00  0.00     0.161 HD
BRANCH  10  12
ATOM     12  C   UNL A   1      32.778  19.359  24.753  1.00  0.00     0.038 A 
ATOM     13  C   UNL A   1      34.598  15.978  25.043  1.00  0.00     0.044 C 
ATOM     14  C   UNL A   1      33.829  17.138  24.480  1.00  0.00    -0.046 A 
ATOM     15  C   UNL A   1      33.427  17.093  23.147  1.00  0.00     0.042 A 
ATOM     16  C   UNL A   1      33.528  18.278  25.257  1.00  0.00     0.029 A 
ATOM     17  C   UNL A   1      32.689  18.140  22.640  1.00  0.00     0.125 A 
ATOM     18  F   UNL A   1      32.282  18.116  21.363  1.00  0.00    -0.207 F 
ATOM     19  C   UNL A   1      32.342  19.225  23.440  1.00  0.00     0.065 A 
ENDBRANCH  10  12
ENDBRANCH   9  10
BRANCH   9  20
ATOM     20  C   UNL A   1      34.254  22.134  25.459  1.00  0.00    -0.016 A 
ATOM     21  C   UNL A   1      35.617  22.235  25.771  1.00  0.00     0.009 A 
ATOM     22  C   UNL A   1      33.764  22.902  24.392  1.00  0.00     0.009 A 
ATOM     23  C   UNL A   1      36.388  23.286  25.274  1.00  0.00    -0.051 A 
ATOM     24  C   UNL A   1      34.593  23.823  23.734  1.00  0.00    -0.051 A 
ATOM     25  C   UNL A   1      37.617  23.706  26.028  1.00  0.00     0.044 C 
ATOM     26  C   UNL A   1      35.879  24.062  24.235  1.00  0.00     0.006 A 
ATOM     27  C   UNL A   1      34.084  24.638  22.583  1.00  0.00     0.044 C 
ENDBRANCH   9  20
ENDBRANCH   6   9
ENDBRANCH   4   5
ENDBRANCH   3   4
ENDBRANCH   2   3
ENDBRANCH   1   2
BRANCH   1  28
ATOM     28  C   UNL A   1      32.778  27.667  25.808  1.00  0.00     0.021 C 
BRANCH  28  29
ATOM     29  C   UNL A   1      34.011  28.376  26.357  1.00  0.00     0.116 C 
BRANCH  29  30
ATOM     30  N   UNL A   1      33.775  29.787  26.618  1.00  0.00    -0.352 N 
ATOM     31  C   UNL A   1      34.486  30.646  27.416  1.00  0.00     0.251 C 
ATOM     32  H   UNL A   1      32.998  30.179  26.158  1.00  0.00     0.163 HD
ATOM     33  O   UNL A   1      34.052  31.775  27.644  1.00  0.00    -0.269 OA
BRANCH  31  34
ATOM     34  C   UNL A   1      35.760  30.205  28.018  1.00  0.00     0.039 A 
ATOM     35  C   UNL A   1      35.746  29.656  29.302  1.00  0.00     0.014 A 
ATOM     36  C   UNL A   1      36.963  30.321  27.315  1.00  0.00     0.014 A 
ATOM     37  C   UNL A   1      36.932  29.173  29.859  1.00  0.00     0.010 A 
ATOM     38  C   UNL A   1      38.128  29.768  27.839  1.00  0.00     0.010 A 
ATOM     39  C   UNL A   1      38.128  29.196  29.121  1.00  0.00    -0.014 A 
BRANCH  39  40
ATOM     40  C   UNL A   1      39.381  28.624  29.674  1.00  0.00     0.031 A 
ATOM     41  C   UNL A   1      40.022  29.231  30.893  1.00  0.00     0.074 A 
ATOM     42  C   UNL A   1      39.984  27.600  29.035  1.00  0.00     0.049 A 
ATOM     43  N   UNL A   1      41.131  28.889  31.498  1.00  0.00    -0.248 NA
ATOM     44  C   UNL A   1      39.343  30.389  31.498  1.00  0.00     0.031 C 
ATOM     45  C   UNL A   1      39.504  26.975  27.801  1.00  0.00     0.029 A 
ATOM     46  N   UNL A   1      41.140  26.919  29.324  1.00  0.00    -0.354 N 
ATOM     47  C   UNL A   1      41.299  29.806  32.529  1.00  0.00     0.074 A 
ATOM     48  C   UNL A   1      40.200  30.742  32.446  1.00  0.00     0.031 C 
ATOM     49  C   UNL A   1      40.353  25.999  27.444  1.00  0.00     0.029 A 
ATOM     50  C   UNL A   1      41.454  25.949  28.400  1.00  0.00     0.049 A 
ATOM     51  H   UNL A   1      41.693  27.108  30.116  1.00  0.00     0.167 HD
ATOM     52  C   UNL A   1      42.266  29.849  33.477  1.00  0.00     0.034 A 
ATOM     53  C   UNL A   1      42.512  25.119  28.327  1.00  0.00     0.034 A 
ATOM     54  C   UNL A   1      43.337  28.895  33.577  1.00  0.00     0.049 A 
ATOM     55  C   UNL A   1      43.557  25.169  29.410  1.00  0.00     0.074 A 
ATOM     56  C   UNL A   1      44.316  28.801  34.551  1.00  0.00     0.029 A 
ATOM     57  N   UNL A   1      43.580  27.879  32.666  1.00  0.00    -0.354 N 
ATOM     58  N   UNL A   1      43.615  25.944  30.465  1.00  0.00    -0.248 NA
ATOM     59  C   UNL A   1      44.662  24.204  29.311  1.00  0.00     0.031 C 
ATOM     60  C   UNL A   1      45.172  27.751  34.208  1.00  0.00     0.029 A 
ATOM     61  C   UNL A   1      44.703  27.163  33.045  1.00  0.00     0.049 A 
ATOM     62  H   UNL A   1      43.036  27.694  31.867  1.00  0.00     0.167 HD
ATOM     63  C   UNL A   1      44.736  25.535  31.177  1.00  0.00     0.074 A 
ATOM     64  C   UNL A   1      45.320  24.432  30.441  1.00  0.00     0.031 C 
ATOM     65  C   UNL A   1      45.244  26.034  32.331  1.00  0.00     0.034 A 
BRANCH  52  66
ATOM     66  C   UNL A   1      42.186  30.942  34.511  1.00  0.00     0.023 A 
ATOM     67  C   UNL A   1      41.555  30.692  35.747  1.00  0.00     0.012 A 
ATOM     68  C   UNL A   1      42.786  32.197  34.284  1.00  0.00     0.148 A 
ATOM     69  C   UNL A   1      41.488  31.683  36.725  1.00  0.00     0.002 A 
ATOM     70  C   UNL A   1      42.759  33.163  35.283  1.00  0.00     0.091 A 
ATOM     71  F   UNL A   1      43.364  32.424  33.096  1.00  0.00    -0.205 F 
ATOM     72  C   UNL A   1      42.099  32.913  36.498  1.00  0.00     0.022 A 
BRANCH  70  73
ATOM     73  S   UNL A   1      43.586  34.750  35.120  1.00  0.00     0.127 S 
ATOM     74  O   UNL A   1      42.847  35.354  34.013  1.00  0.00    -0.237 OA
ATOM     75  O   UNL A   1      43.336  35.360  36.426  1.00  0.00    -0.237 OA
ATOM     76  O   UNL A   1      44.984  34.448  34.846  1.00  0.00    -0.744 OA
ENDBRANCH  70  73
ENDBRANCH  52  66
BRANCH  53  77
ATOM     77  C   UNL A   1      42.611  24.132  27.214  1.00  0.00     0.023 A 
ATOM     78  C   UNL A   1      43.340  24.462  26.054  1.00  0.00     0.012 A 
ATOM     79  C   UNL A   1      42.008  22.864  27.309  1.00  0.00     0.148 A 
ATOM     80  C   UNL A   1      43.434  23.561  24.993  1.00  0.00     0.002 A 
ATOM     81  C   UNL A   1      42.155  21.948  26.274  1.00  0.00     0.091 A 
ATOM     82  F   UNL A   1      41.312  22.572  28.417  1.00  0.00    -0.205 F 
ATOM     83  C   UNL A   1      42.851  22.301  25.107  1.00  0.00     0.022 A 
BRANCH  81  84
ATOM     84  S   UNL A   1      41.553  20.260  26.390  1.00  0.00     0.127 S 
ATOM     85  O   UNL A   1      42.276  19.607  25.302  1.00  0.00    -0.237 OA
ATOM     86  O   UNL A   1      41.985  19.879  27.736  1.00  0.00    -0.237 OA
ATOM     87  O   UNL A   1      40.107  20.345  26.228  1.00  0.00    -0.744 OA
ENDBRANCH  81  84
ENDBRANCH  53  77
BRANCH  65  88
ATOM     88  C   UNL A   1      46.467  25.368  32.906  1.00  0.00     0.023 A 
ATOM     89  C   UNL A   1      47.752  25.838  32.573  1.00  0.00     0.012 A 
ATOM     90  C   UNL A   1      46.333  24.322  33.841  1.00  0.00     0.148 A 
ATOM     91  C   UNL A   1      48.887  25.255  33.135  1.00  0.00     0.002 A 
ATOM     92  C   UNL A   1      47.465  23.783  34.439  1.00  0.00     0.091 A 
ATOM     93  F   UNL A   1      45.102  23.878  34.132  1.00  0.00    -0.205 F 
ATOM     94  C   UNL A   1      48.743  24.237  34.077  1.00  0.00     0.022 A 
BRANCH  92  95
ATOM     95  S   UNL A   1      47.373  22.541  35.734  1.00  0.00     0.127 S 
ATOM     96  O   UNL A   1      48.167  21.454  35.161  1.00  0.00    -0.237 OA
ATOM     97  O   UNL A   1      48.003  23.226  36.863  1.00  0.00    -0.237 OA
ATOM     98  O   UNL A   1      45.958  22.250  35.914  1.00  0.00    -0.744 OA
ENDBRANCH  92  95
ENDBRANCH  65  88
ENDBRANCH  39  40
ENDBRANCH  31  34
ENDBRANCH  29  30
ENDBRANCH  28  29
ENDBRANCH   1  28
TORSDOF 19
ENDMDL
MODEL 2
REMARK VINA RESULT:     -12.0      5.092      8.573
REMARK SMILES Cc1cc(F)cc(N[C@H](C(=O)NCCCCCCNC(=O)c2ccc(-c3c4nc(c(-c5cccc(S(=O)(=O)[O-])c5F)c5ccc([nH]5)c(-c5cccc(S(=O)(=O)[O-])c5F)c5nc(c(-c6cccc(S(=O)(=O)[O-])c6F)c6ccc3[nH]6)C=C5)C=C4)cc2)c2cc(C)cc(C)c2)c1
REMARK SMILES IDX 16 1 15 2 14 3 13 4 12 5 10 6 11 7 9 9 8 10 7 12 1 13 2 14
REMARK SMILES IDX 3 15 93 16 4 17 5 18 6 19 85 20 86 21 92 22 87 23 90 24
REMARK SMILES IDX 88 25 89 26 91 27 17 28 18 29 19 30 20 31 21 33 22 34 23 35
REMARK SMILES IDX 84 36 24 37 83 38 25 39 26 40 27 41 77 42 28 43 82 44 76 45
REMARK SMILES IDX 78 46 29 47 81 48 75 49 74 50 30 52 62 53 42 54 61 55 43 56
REMARK SMILES IDX 46 57 60 58 79 59 44 60 45 61 59 63 80 64 47 65 31 66 32 67
REMARK SMILES IDX 40 68 33 69 35 70 41 71 34 72 36 73 37 74 38 75 39 76 63 77
REMARK SMILES IDX 64 78 72 79 65 80 67 81 73 82 66 83 68 84 69 85 70 86 71 87
REMARK SMILES IDX 48 88 49 89 57 90 50 91 52 92 58 93 51 94 53 95 54 96 55 97
REMARK SMILES IDX 56 98
REMARK H PARENT 12 8 8 11 19 32 78 51 46 62
REMARK Flexibility Score: inf
ROOT
ATOM      1  C   UNL A   1      35.708  20.710  24.809  1.00  0.00     0.002 C 
ENDROOT
BRANCH   1   2
ATOM      2  C   UNL A   1      34.349  20.026  24.622  1.00  0.00     0.002 C 
BRANCH   2   3
ATOM      3  C   UNL A   1      33.304  20.311  25.705  1.00  0.00     0.021 C 
BRANCH   3   4
ATOM      4  C   UNL A   1      32.109  21.142  25.251  1.00  0.00     0.116 C 
BRANCH   4   5
ATOM      5  N   UNL A   1      31.417  21.770  26.355  1.00  0.00    -0.354 N 
ATOM      6  C   UNL A   1      30.742  22.957  26.399  1.00  0.00     0.247 C 
ATOM      7  O   UNL A   1      30.237  23.231  27.496  1.00  0.00    -0.272 OA
ATOM      8  H   UNL A   1      31.435  21.267  27.201  1.00  0.00     0.163 HD
BRANCH   6   9
ATOM      9  C   UNL A   1      30.725  23.966  25.209  1.00  0.00     0.200 C 
BRANCH   9  10
ATOM     10  N   UNL A   1      30.030  25.258  25.460  1.00  0.00    -0.370 N 
ATOM     11  H   UNL A   1      29.297  25.194  26.115  1.00  0.00     0.161 HD
BRANCH  10  12
ATOM     12  C   UNL A   1      30.215  26.529  24.951  1.00  0.00     0.038 A 
ATOM     13  C   UNL A   1      32.317  29.629  25.848  1.00  0.00     0.044 C 
ATOM     14  C   UNL A   1      31.372  28.707  25.134  1.00  0.00    -0.046 A 
ATOM     15  C   UNL A   1      30.753  29.152  23.967  1.00  0.00     0.042 A 
ATOM     16  C   UNL A   1      31.075  27.417  25.628  1.00  0.00     0.029 A 
ATOM     17  C   UNL A   1      29.915  28.293  23.291  1.00  0.00     0.125 A 
ATOM     18  F   UNL A   1      29.315  28.694  22.161  1.00  0.00    -0.207 F 
ATOM     19  C   UNL A   1      29.686  27.001  23.756  1.00  0.00     0.065 A 
ENDBRANCH  10  12
ENDBRANCH   9  10
BRANCH   9  20
ATOM     20  C   UNL A   1      32.084  24.187  24.542  1.00  0.00    -0.016 A 
ATOM     21  C   UNL A   1      32.209  24.128  23.148  1.00  0.00     0.009 A 
ATOM     22  C   UNL A   1      33.258  24.283  25.305  1.00  0.00     0.009 A 
ATOM     23  C   UNL A   1      33.437  23.841  22.552  1.00  0.00    -0.051 A 
ATOM     24  C   UNL A   1      34.517  24.208  24.692  1.00  0.00    -0.051 A 
ATOM     25  C   UNL A   1      33.455  23.231  21.179  1.00  0.00     0.044 C 
ATOM     26  C   UNL A   1      34.594  23.908  23.326  1.00  0.00     0.006 A 
ATOM     27  C   UNL A   1      35.777  24.323  25.496  1.00  0.00     0.044 C 
ENDBRANCH   9  20
ENDBRANCH   6   9
ENDBRANCH   4   5
ENDBRANCH   3   4
ENDBRANCH   2   3
ENDBRANCH   1   2
BRANCH   1  28
ATOM     28  C   UNL A   1      36.903  19.772  24.974  1.00  0.00     0.021 C 
BRANCH  28  29
ATOM     29  C   UNL A   1      38.209  20.449  25.374  1.00  0.00     0.116 C 
BRANCH  29  30
ATOM     30  N   UNL A   1      39.262  19.496  25.684  1.00  0.00    -0.352 N 
ATOM     31  C   UNL A   1      40.541  19.735  26.117  1.00  0.00     0.251 C 
ATOM     32  H   UNL A   1      39.024  18.548  25.567  1.00  0.00     0.163 HD
ATOM     33  O   UNL A   1      41.352  18.812  26.183  1.00  0.00    -0.269 OA
BRANCH  31  34
ATOM     34  C   UNL A   1      40.948  21.108  26.483  1.00  0.00     0.039 A 
ATOM     35  C   UNL A   1      41.812  21.290  27.566  1.00  0.00     0.014 A 
ATOM     36  C   UNL A   1      40.489  22.210  25.755  1.00  0.00     0.014 A 
ATOM     37  C   UNL A   1      42.258  22.574  27.884  1.00  0.00     0.010 A 
ATOM     38  C   UNL A   1      40.997  23.477  26.024  1.00  0.00     0.010 A 
ATOM     39  C   UNL A   1      41.880  23.676  27.097  1.00  0.00    -0.014 A 
BRANCH  39  40
ATOM     40  C   UNL A   1      42.402  25.036  27.381  1.00  0.00     0.031 A 
ATOM     41  C   UNL A   1      41.528  26.062  28.050  1.00  0.00     0.074 A 
ATOM     42  C   UNL A   1      43.642  25.372  26.970  1.00  0.00     0.049 A 
ATOM     43  N   UNL A   1      41.798  27.307  28.348  1.00  0.00    -0.248 NA
ATOM     44  C   UNL A   1      40.162  25.645  28.409  1.00  0.00     0.031 C 
ATOM     45  C   UNL A   1      44.558  24.493  26.242  1.00  0.00     0.029 A 
ATOM     46  N   UNL A   1      44.337  26.550  27.088  1.00  0.00    -0.354 N 
ATOM     47  C   UNL A   1      40.632  27.828  28.896  1.00  0.00     0.074 A 
ATOM     48  C   UNL A   1      39.639  26.778  28.855  1.00  0.00     0.031 C 
ATOM     49  C   UNL A   1      45.696  25.157  25.987  1.00  0.00     0.029 A 
ATOM     50  C   UNL A   1      45.580  26.518  26.500  1.00  0.00     0.049 A 
ATOM     51  H   UNL A   1      43.979  27.343  27.549  1.00  0.00     0.167 HD
ATOM     52  C   UNL A   1      40.414  29.061  29.413  1.00  0.00     0.034 A 
ATOM     53  C   UNL A   1      46.517  27.478  26.380  1.00  0.00     0.034 A 
ATOM     54  C   UNL A   1      41.416  30.092  29.484  1.00  0.00     0.049 A 
ATOM     55  C   UNL A   1      46.261  28.831  26.988  1.00  0.00     0.074 A 
ATOM     56  C   UNL A   1      41.320  31.344  30.067  1.00  0.00     0.029 A 
ATOM     57  N   UNL A   1      42.689  29.997  28.944  1.00  0.00    -0.354 N 
ATOM     58  N   UNL A   1      45.206  29.255  27.642  1.00  0.00    -0.248 NA
ATOM     59  C   UNL A   1      47.338  29.825  26.876  1.00  0.00     0.031 C 
ATOM     60  C   UNL A   1      42.524  32.019  29.846  1.00  0.00     0.029 A 
ATOM     61  C   UNL A   1      43.384  31.174  29.165  1.00  0.00     0.049 A 
ATOM     62  H   UNL A   1      43.045  29.210  28.473  1.00  0.00     0.167 HD
ATOM     63  C   UNL A   1      45.508  30.548  28.053  1.00  0.00     0.074 A 
ATOM     64  C   UNL A   1      46.851  30.832  27.590  1.00  0.00     0.031 C 
ATOM     65  C   UNL A   1      44.739  31.426  28.743  1.00  0.00     0.034 A 
BRANCH  52  66
ATOM     66  C   UNL A   1      39.050  29.352  29.983  1.00  0.00     0.023 A 
ATOM     67  C   UNL A   1      38.736  28.939  31.295  1.00  0.00     0.012 A 
ATOM     68  C   UNL A   1      38.100  30.086  29.246  1.00  0.00     0.148 A 
ATOM     69  C   UNL A   1      37.488  29.216  31.849  1.00  0.00     0.002 A 
ATOM     70  C   UNL A   1      36.875  30.402  29.822  1.00  0.00     0.091 A 
ATOM     71  F   UNL A   1      38.407  30.454  27.994  1.00  0.00    -0.205 F 
ATOM     72  C   UNL A   1      36.562  29.956  31.118  1.00  0.00     0.022 A 
BRANCH  70  73
ATOM     73  S   UNL A   1      35.647  31.420  28.996  1.00  0.00     0.127 S 
ATOM     74  O   UNL A   1      34.984  30.440  28.137  1.00  0.00    -0.237 OA
ATOM     75  O   UNL A   1      34.838  31.894  30.118  1.00  0.00    -0.237 OA
ATOM     76  O   UNL A   1      36.390  32.460  28.298  1.00  0.00    -0.744 OA
ENDBRANCH  70  73
ENDBRANCH  52  66
BRANCH  53  77
ATOM     77  C   UNL A   1      47.808  27.180  25.697  1.00  0.00     0.023 A 
ATOM     78  C   UNL A   1      48.859  26.586  26.424  1.00  0.00     0.012 A 
ATOM     79  C   UNL A   1      47.991  27.458  24.330  1.00  0.00     0.148 A 
ATOM     80  C   UNL A   1      50.082  26.311  25.811  1.00  0.00     0.002 A 
ATOM     81  C   UNL A   1      49.191  27.127  23.710  1.00  0.00     0.091 A 
ATOM     82  F   UNL A   1      46.982  28.030  23.657  1.00  0.00    -0.205 F 
ATOM     83  C   UNL A   1      50.244  26.572  24.452  1.00  0.00     0.022 A 
BRANCH  81  84
ATOM     84  S   UNL A   1      49.439  27.305  21.940  1.00  0.00     0.127 S 
ATOM     85  O   UNL A   1      48.379  26.458  21.402  1.00  0.00    -0.237 OA
ATOM     86  O   UNL A   1      49.238  28.742  21.751  1.00  0.00    -0.237 OA
ATOM     87  O   UNL A   1      50.801  26.852  21.685  1.00  0.00    -0.744 OA
ENDBRANCH  81  84
ENDBRANCH  53  77
BRANCH  65  88
ATOM     88  C   UNL A   1      45.338  32.764  29.089  1.00  0.00     0.023 A 
ATOM     89  C   UNL A   1      46.089  32.919  30.269  1.00  0.00     0.012 A 
ATOM     90  C   UNL A   1      45.217  33.849  28.197  1.00  0.00     0.148 A 
ATOM     91  C   UNL A   1      46.684  34.143  30.574  1.00  0.00     0.002 A 
ATOM     92  C   UNL A   1      45.857  35.049  28.480  1.00  0.00     0.091 A 
ATOM     93  F   UNL A   1      44.483  33.686  27.087  1.00  0.00    -0.205 F 
ATOM     94  C   UNL A   1      46.579  35.203  29.675  1.00  0.00     0.022 A 
BRANCH  92  95
ATOM     95  S   UNL A   1      45.862  36.433  27.335  1.00  0.00     0.127 S 
ATOM     96  O   UNL A   1      46.638  37.428  28.076  1.00  0.00    -0.237 OA
ATOM     97  O   UNL A   1      46.547  35.868  26.172  1.00  0.00    -0.237 OA
ATOM     98  O   UNL A   1      44.465  36.775  27.110  1.00  0.00    -0.744 OA
ENDBRANCH  92  95
ENDBRANCH  65  88
ENDBRANCH  39  40
ENDBRANCH  31  34
ENDBRANCH  29  30
ENDBRANCH  28  29
ENDBRANCH   1  28
TORSDOF 19
ENDMDL
MODEL 3
REMARK VINA RESULT:     -12.0      4.767      9.889
REMARK SMILES Cc1cc(F)cc(N[C@H](C(=O)NCCCCCCNC(=O)c2ccc(-c3c4nc(c(-c5cccc(S(=O)(=O)[O-])c5F)c5ccc([nH]5)c(-c5cccc(S(=O)(=O)[O-])c5F)c5nc(c(-c6cccc(S(=O)(=O)[O-])c6F)c6ccc3[nH]6)C=C5)C=C4)cc2)c2cc(C)cc(C)c2)c1
REMARK SMILES IDX 16 1 15 2 14 3 13 4 12 5 10 6 11 7 9 9 8 10 7 12 1 13 2 14
REMARK SMILES IDX 3 15 93 16 4 17 5 18 6 19 85 20 86 21 92 22 87 23 90 24
REMARK SMILES IDX 88 25 89 26 91 27 17 28 18 29 19 30 20 31 21 33 22 34 23 35
REMARK SMILES IDX 84 36 24 37 83 38 25 39 26 40 27 41 77 42 28 43 82 44 76 45
REMARK SMILES IDX 78 46 29 47 81 48 75 49 74 50 30 52 62 53 42 54 61 55 43 56
REMARK SMILES IDX 46 57 60 58 79 59 44 60 45 61 59 63 80 64 47 65 31 66 32 67
REMARK SMILES IDX 40 68 33 69 35 70 41 71 34 72 36 73 37 74 38 75 39 76 63 77
REMARK SMILES IDX 64 78 72 79 65 80 67 81 73 82 66 83 68 84 69 85 70 86 71 87
REMARK SMILES IDX 48 88 49 89 57 90 50 91 52 92 58 93 51 94 53 95 54 96 55 97
REMARK SMILES IDX 56 98
REMARK H PARENT 12 8 8 11 19 32 78 51 46 62
REMARK Flexibility Score: inf
ROOT
ATOM      1  C   UNL A   1      34.947  21.615  24.225  1.00  0.00     0.002 C 
ENDROOT
BRANCH   1   2
ATOM      2  C   UNL A   1      33.491  21.142  24.179  1.00  0.00     0.002 C 
BRANCH   2   3
ATOM      3  C   UNL A   1      32.563  21.925  23.245  1.00  0.00     0.021 C 
BRANCH   3   4
ATOM      4  C   UNL A   1      33.266  22.866  22.272  1.00  0.00     0.116 C 
BRANCH   4   5
ATOM      5  N   UNL A   1      32.446  24.000  21.907  1.00  0.00    -0.354 N 
ATOM      6  C   UNL A   1      32.448  25.273  22.402  1.00  0.00     0.247 C 
ATOM      7  O   UNL A   1      31.628  26.040  21.878  1.00  0.00    -0.272 OA
ATOM      8  H   UNL A   1      31.788  23.829  21.194  1.00  0.00     0.163 HD
BRANCH   6   9
ATOM      9  C   UNL A   1      33.310  25.703  23.630  1.00  0.00     0.200 C 
BRANCH   9  10
ATOM     10  N   UNL A   1      33.596  27.158  23.749  1.00  0.00    -0.370 N 
ATOM     11  H   UNL A   1      34.424  27.439  23.296  1.00  0.00     0.161 HD
BRANCH  10  12
ATOM     12  C   UNL A   1      32.922  28.192  24.371  1.00  0.00     0.038 A 
ATOM     13  C   UNL A   1      29.709  30.221  23.747  1.00  0.00     0.044 C 
ATOM     14  C   UNL A   1      30.970  29.710  24.381  1.00  0.00    -0.046 A 
ATOM     15  C   UNL A   1      31.388  30.265  25.589  1.00  0.00     0.042 A 
ATOM     16  C   UNL A   1      31.754  28.704  23.773  1.00  0.00     0.029 A 
ATOM     17  C   UNL A   1      32.524  29.771  26.190  1.00  0.00     0.125 A 
ATOM     18  F   UNL A   1      32.941  30.281  27.357  1.00  0.00    -0.207 F 
ATOM     19  C   UNL A   1      33.247  28.732  25.609  1.00  0.00     0.065 A 
ENDBRANCH  10  12
ENDBRANCH   9  10
BRANCH   9  20
ATOM     20  C   UNL A   1      32.850  25.116  24.966  1.00  0.00    -0.016 A 
ATOM     21  C   UNL A   1      33.788  24.646  25.895  1.00  0.00     0.009 A 
ATOM     22  C   UNL A   1      31.492  24.878  25.223  1.00  0.00     0.009 A 
ATOM     23  C   UNL A   1      33.430  23.700  26.856  1.00  0.00    -0.051 A 
ATOM     24  C   UNL A   1      31.098  24.096  26.319  1.00  0.00    -0.051 A 
ATOM     25  C   UNL A   1      34.493  22.810  27.433  1.00  0.00     0.044 C 
ATOM     26  C   UNL A   1      32.078  23.448  27.081  1.00  0.00     0.006 A 
ATOM     27  C   UNL A   1      29.649  23.846  26.610  1.00  0.00     0.044 C 
ENDBRANCH   9  20
ENDBRANCH   6   9
ENDBRANCH   4   5
ENDBRANCH   3   4
ENDBRANCH   2   3
ENDBRANCH   1   2
BRANCH   1  28
ATOM     28  C   UNL A   1      35.917  20.700  24.973  1.00  0.00     0.021 C 
BRANCH  28  29
ATOM     29  C   UNL A   1      37.333  21.242  25.127  1.00  0.00     0.116 C 
BRANCH  29  30
ATOM     30  N   UNL A   1      38.284  20.219  25.530  1.00  0.00    -0.352 N 
ATOM     31  C   UNL A   1      39.525  20.369  26.094  1.00  0.00     0.251 C 
ATOM     32  H   UNL A   1      37.997  19.290  25.377  1.00  0.00     0.163 HD
ATOM     33  O   UNL A   1      40.262  19.393  26.229  1.00  0.00    -0.269 OA
BRANCH  31  34
ATOM     34  C   UNL A   1      39.981  21.709  26.517  1.00  0.00     0.039 A 
ATOM     35  C   UNL A   1      41.043  21.806  27.420  1.00  0.00     0.014 A 
ATOM     36  C   UNL A   1      39.373  22.865  26.018  1.00  0.00     0.014 A 
ATOM     37  C   UNL A   1      41.530  23.064  27.779  1.00  0.00     0.010 A 
ATOM     38  C   UNL A   1      39.912  24.113  26.315  1.00  0.00     0.010 A 
ATOM     39  C   UNL A   1      40.990  24.229  27.206  1.00  0.00    -0.014 A 
BRANCH  39  40
ATOM     40  C   UNL A   1      41.543  25.568  27.526  1.00  0.00     0.031 A 
ATOM     41  C   UNL A   1      42.952  25.923  27.135  1.00  0.00     0.074 A 
ATOM     42  C   UNL A   1      40.800  26.443  28.235  1.00  0.00     0.049 A 
ATOM     43  N   UNL A   1      43.616  27.028  27.358  1.00  0.00    -0.248 NA
ATOM     44  C   UNL A   1      43.727  24.894  26.423  1.00  0.00     0.031 C 
ATOM     45  C   UNL A   1      39.450  26.190  28.740  1.00  0.00     0.029 A 
ATOM     46  N   UNL A   1      41.084  27.713  28.672  1.00  0.00    -0.354 N 
ATOM     47  C   UNL A   1      44.890  26.816  26.847  1.00  0.00     0.074 A 
ATOM     48  C   UNL A   1      44.921  25.463  26.335  1.00  0.00     0.031 C 
ATOM     49  C   UNL A   1      39.019  27.271  29.408  1.00  0.00     0.029 A 
ATOM     50  C   UNL A   1      40.072  28.281  29.411  1.00  0.00     0.049 A 
ATOM     51  H   UNL A   1      41.931  28.174  28.475  1.00  0.00     0.167 HD
ATOM     52  C   UNL A   1      45.934  27.677  26.782  1.00  0.00     0.034 A 
ATOM     53  C   UNL A   1      40.003  29.477  30.028  1.00  0.00     0.034 A 
ATOM     54  C   UNL A   1      45.888  29.033  27.260  1.00  0.00     0.049 A 
ATOM     55  C   UNL A   1      41.166  30.426  29.916  1.00  0.00     0.074 A 
ATOM     56  C   UNL A   1      46.862  30.011  27.162  1.00  0.00     0.029 A 
ATOM     57  N   UNL A   1      44.819  29.598  27.937  1.00  0.00    -0.354 N 
ATOM     58  N   UNL A   1      42.307  30.263  29.291  1.00  0.00    -0.248 NA
ATOM     59  C   UNL A   1      41.017  31.739  30.561  1.00  0.00     0.031 C 
ATOM     60  C   UNL A   1      46.395  31.157  27.813  1.00  0.00     0.029 A 
ATOM     61  C   UNL A   1      45.114  30.907  28.278  1.00  0.00     0.049 A 
ATOM     62  H   UNL A   1      43.975  29.137  28.145  1.00  0.00     0.167 HD
ATOM     63  C   UNL A   1      42.994  31.462  29.433  1.00  0.00     0.074 A 
ATOM     64  C   UNL A   1      42.134  32.350  30.189  1.00  0.00     0.031 C 
ATOM     65  C   UNL A   1      44.230  31.797  28.986  1.00  0.00     0.034 A 
BRANCH  52  66
ATOM     66  C   UNL A   1      47.204  27.193  26.132  1.00  0.00     0.023 A 
ATOM     67  C   UNL A   1      47.453  27.485  24.775  1.00  0.00     0.012 A 
ATOM     68  C   UNL A   1      48.179  26.501  26.878  1.00  0.00     0.148 A 
ATOM     69  C   UNL A   1      48.631  27.064  24.160  1.00  0.00     0.002 A 
ATOM     70  C   UNL A   1      49.373  26.127  26.272  1.00  0.00     0.091 A 
ATOM     71  F   UNL A   1      47.918  26.214  28.161  1.00  0.00    -0.205 F 
ATOM     72  C   UNL A   1      49.595  26.396  24.910  1.00  0.00     0.022 A 
BRANCH  70  73
ATOM     73  S   UNL A   1      50.711  25.335  27.171  1.00  0.00     0.127 S 
ATOM     74  O   UNL A   1      51.128  26.403  28.078  1.00  0.00    -0.237 OA
ATOM     75  O   UNL A   1      50.026  24.218  27.819  1.00  0.00    -0.237 OA
ATOM     76  O   UNL A   1      51.695  24.949  26.169  1.00  0.00    -0.744 OA
ENDBRANCH  70  73
ENDBRANCH  52  66
BRANCH  53  77
ATOM     77  C   UNL A   1      38.767  29.866  30.765  1.00  0.00     0.023 A 
ATOM     78  C   UNL A   1      38.565  29.402  32.080  1.00  0.00     0.012 A 
ATOM     79  C   UNL A   1      37.805  30.710  30.179  1.00  0.00     0.148 A 
ATOM     80  C   UNL A   1      37.409  29.740  32.784  1.00  0.00     0.002 A 
ATOM     81  C   UNL A   1      36.684  31.092  30.907  1.00  0.00     0.091 A 
ATOM     82  F   UNL A   1      38.011  31.135  28.924  1.00  0.00    -0.205 F 
ATOM     83  C   UNL A   1      36.474  30.593  32.202  1.00  0.00     0.022 A 
BRANCH  81  84
ATOM     84  S   UNL A   1      35.497  32.290  30.288  1.00  0.00     0.127 S 
ATOM     85  O   UNL A   1      36.336  33.470  30.093  1.00  0.00    -0.237 OA
ATOM     86  O   UNL A   1      35.038  31.648  29.056  1.00  0.00    -0.237 OA
ATOM     87  O   UNL A   1      34.476  32.404  31.321  1.00  0.00    -0.744 OA
ENDBRANCH  81  84
ENDBRANCH  53  77
BRANCH  65  88
ATOM     88  C   UNL A   1      44.719  33.196  29.256  1.00  0.00     0.023 A 
ATOM     89  C   UNL A   1      45.393  33.492  30.456  1.00  0.00     0.012 A 
ATOM     90  C   UNL A   1      44.575  34.200  28.277  1.00  0.00     0.148 A 
ATOM     91  C   UNL A   1      45.887  34.774  30.693  1.00  0.00     0.002 A 
ATOM     92  C   UNL A   1      45.118  35.460  28.496  1.00  0.00     0.091 A 
ATOM     93  F   UNL A   1      43.916  33.903  27.148  1.00  0.00    -0.205 F 
ATOM     94  C   UNL A   1      45.761  35.753  29.710  1.00  0.00     0.022 A 
BRANCH  92  95
ATOM     95  S   UNL A   1      45.094  36.752  27.249  1.00  0.00     0.127 S 
ATOM     96  O   UNL A   1      45.733  37.861  27.956  1.00  0.00    -0.237 OA
ATOM     97  O   UNL A   1      45.902  36.163  26.180  1.00  0.00    -0.237 OA
ATOM     98  O   UNL A   1      43.694  36.956  26.907  1.00  0.00    -0.744 OA
ENDBRANCH  92  95
ENDBRANCH  65  88
ENDBRANCH  39  40
ENDBRANCH  31  34
ENDBRANCH  29  30
ENDBRANCH  28  29
ENDBRANCH   1  28
TORSDOF 19
ENDMDL
