MODEL 1
REMARK VINA RESULT:     -13.3      0.000      0.000
REMARK SMILES CC1=C(C)C[C@@H](C(=O)NNC(=O)c2ccccc2C)[C@@H](C(=O)NCCCCCCNC(=O)c2ccc(-c3c4nc(c(-c5cccc(S(=O)(=O)[O-])c5F)c5ccc([nH]5)c(-c5cccc(S(=O)(=O)[O-])c5F)c5nc(c(-c6cccc(S(=O)(=O)[O-])c6F)c6ccc3[nH]6)C=C5)C=C4)cc2)C1
REMARK SMILES IDX 26 1 25 2 24 3 23 4 21 5 22 6 20 8 1 9 2 10 3 11 96 12 4 13
REMARK SMILES IDX 5 14 6 15 7 16 8 17 9 18 10 20 11 21 12 23 13 24 14 25 18 26
REMARK SMILES IDX 15 27 17 28 19 29 16 30 27 31 28 32 29 33 30 34 31 35 32 37
REMARK SMILES IDX 33 38 34 39 95 40 35 41 94 42 36 43 37 44 38 45 88 46 39 47
REMARK SMILES IDX 93 48 87 49 89 50 40 51 92 52 86 53 85 54 41 56 73 57 53 58
REMARK SMILES IDX 72 59 54 60 57 61 71 62 90 63 55 64 56 65 70 67 91 68 58 69
REMARK SMILES IDX 42 70 43 71 51 72 44 73 46 74 52 75 45 76 47 77 48 78 49 79
REMARK SMILES IDX 50 80 74 81 75 82 83 83 76 84 78 85 84 86 77 87 79 88 80 89
REMARK SMILES IDX 81 90 82 91 59 92 60 93 68 94 61 95 63 96 69 97 62 98 64 99
REMARK SMILES IDX 65 100 66 101 67 102
REMARK H PARENT 23 7 9 19 10 22 30 36 89 55 57 66
REMARK Flexibility Score: inf
ROOT
ATOM      1  C   UNL A   1      33.529  29.051  23.763  1.00  0.00     0.002 C 
ENDROOT
BRANCH   1   2
ATOM      2  C   UNL A   1      32.660  28.435  22.649  1.00  0.00     0.021 C 
BRANCH   2   3
ATOM      3  C   UNL A   1      31.633  27.389  23.087  1.00  0.00     0.116 C 
BRANCH   3   4
ATOM      4  N   UNL A   1      31.990  26.095  22.561  1.00  0.00    -0.356 N 
ATOM      5  C   UNL A   1      33.186  25.482  22.738  1.00  0.00     0.224 C 
ATOM      6  O   UNL A   1      33.684  24.978  21.737  1.00  0.00    -0.275 OA
ATOM      7  H   UNL A   1      31.310  25.618  22.031  1.00  0.00     0.163 HD
BRANCH   5   8
ATOM      8  C   UNL A   1      33.774  25.419  24.155  1.00  0.00     0.095 C 
ATOM      9  C   UNL A   1      31.397  24.122  27.031  1.00  0.00     0.039 C 
ATOM     10  C   UNL A   1      32.700  24.281  26.283  1.00  0.00    -0.074 C 
ATOM     11  C   UNL A   1      33.831  23.595  26.537  1.00  0.00    -0.074 C 
ATOM     12  C   UNL A   1      32.618  25.313  25.182  1.00  0.00     0.045 C 
ATOM     13  C   UNL A   1      33.997  22.562  27.623  1.00  0.00     0.039 C 
ATOM     14  C   UNL A   1      35.086  23.831  25.734  1.00  0.00     0.045 C 
ATOM     15  C   UNL A   1      34.898  24.377  24.315  1.00  0.00     0.097 C 
BRANCH  15  16
ATOM     16  C   UNL A   1      35.027  23.258  23.270  1.00  0.00     0.242 C 
ATOM     17  O   UNL A   1      36.054  23.174  22.586  1.00  0.00    -0.273 OA
ATOM     18  N   UNL A   1      34.060  22.301  23.102  1.00  0.00    -0.267 N 
ATOM     19  H   UNL A   1      34.150  21.693  22.334  1.00  0.00     0.191 HD
BRANCH  18  20
ATOM     20  N   UNL A   1      32.974  22.127  23.925  1.00  0.00    -0.263 N 
ATOM     21  C   UNL A   1      32.562  20.946  24.492  1.00  0.00     0.269 C 
ATOM     22  H   UNL A   1      32.438  22.927  24.128  1.00  0.00     0.191 HD
ATOM     23  O   UNL A   1      31.532  20.940  25.168  1.00  0.00    -0.267 OA
BRANCH  21  24
ATOM     24  C   UNL A   1      33.248  19.653  24.222  1.00  0.00     0.044 A 
ATOM     25  C   UNL A   1      32.435  18.702  23.571  1.00  0.00     0.014 A 
ATOM     26  C   UNL A   1      34.556  19.294  24.600  1.00  0.00    -0.038 A 
ATOM     27  C   UNL A   1      32.913  17.430  23.261  1.00  0.00     0.001 A 
ATOM     28  C   UNL A   1      35.036  18.021  24.233  1.00  0.00     0.004 A 
ATOM     29  C   UNL A   1      35.495  20.164  25.384  1.00  0.00     0.045 C 
ATOM     30  C   UNL A   1      34.222  17.096  23.580  1.00  0.00     0.000 A 
ENDBRANCH  21  24
ENDBRANCH  18  20
ENDBRANCH  15  16
ENDBRANCH   5   8
ENDBRANCH   3   4
ENDBRANCH   2   3
ENDBRANCH   1   2
BRANCH   1  31
ATOM     31  C   UNL A   1      32.838  29.481  25.065  1.00  0.00     0.002 C 
BRANCH  31  32
ATOM     32  C   UNL A   1      33.686  29.470  26.328  1.00  0.00     0.021 C 
BRANCH  32  33
ATOM     33  C   UNL A   1      33.184  30.389  27.424  1.00  0.00     0.116 C 
BRANCH  33  34
ATOM     34  N   UNL A   1      34.108  31.476  27.671  1.00  0.00    -0.352 N 
ATOM     35  C   UNL A   1      35.236  31.481  28.465  1.00  0.00     0.251 C 
ATOM     36  H   UNL A   1      33.906  32.323  27.211  1.00  0.00     0.163 HD
ATOM     37  O   UNL A   1      35.634  32.539  28.953  1.00  0.00    -0.269 OA
BRANCH  35  38
ATOM     38  C   UNL A   1      36.061  30.251  28.513  1.00  0.00     0.039 A 
ATOM     39  C   UNL A   1      36.327  29.765  29.800  1.00  0.00     0.014 A 
ATOM     40  C   UNL A   1      36.865  29.887  27.441  1.00  0.00     0.014 A 
ATOM     41  C   UNL A   1      37.562  29.193  30.071  1.00  0.00     0.010 A 
ATOM     42  C   UNL A   1      38.123  29.410  27.717  1.00  0.00     0.010 A 
ATOM     43  C   UNL A   1      38.490  29.145  29.043  1.00  0.00    -0.014 A 
BRANCH  43  44
ATOM     44  C   UNL A   1      39.880  28.775  29.198  1.00  0.00     0.031 A 
ATOM     45  C   UNL A   1      40.233  27.358  29.028  1.00  0.00     0.074 A 
ATOM     46  C   UNL A   1      40.801  29.763  29.159  1.00  0.00     0.049 A 
ATOM     47  N   UNL A   1      41.416  26.883  29.198  1.00  0.00    -0.248 NA
ATOM     48  C   UNL A   1      39.243  26.340  28.684  1.00  0.00     0.031 C 
ATOM     49  C   UNL A   1      42.190  29.653  28.736  1.00  0.00     0.029 A 
ATOM     50  N   UNL A   1      40.704  31.059  29.682  1.00  0.00    -0.354 N 
ATOM     51  C   UNL A   1      41.414  25.614  28.665  1.00  0.00     0.074 A 
ATOM     52  C   UNL A   1      40.026  25.272  28.511  1.00  0.00     0.031 C 
ATOM     53  C   UNL A   1      42.878  30.690  29.238  1.00  0.00     0.029 A 
ATOM     54  C   UNL A   1      41.989  31.381  30.156  1.00  0.00     0.049 A 
ATOM     55  H   UNL A   1      39.901  31.628  29.712  1.00  0.00     0.167 HD
ATOM     56  C   UNL A   1      42.603  25.087  28.265  1.00  0.00     0.034 A 
ATOM     57  C   UNL A   1      42.267  31.612  31.473  1.00  0.00     0.034 A 
ATOM     58  C   UNL A   1      43.716  25.887  28.805  1.00  0.00     0.049 A 
ATOM     59  C   UNL A   1      43.233  30.594  32.062  1.00  0.00     0.074 A 
ATOM     60  C   UNL A   1      44.574  26.824  28.256  1.00  0.00     0.029 A 
ATOM     61  N   UNL A   1      43.851  26.001  30.188  1.00  0.00    -0.354 N 
ATOM     62  N   UNL A   1      43.666  29.537  31.429  1.00  0.00    -0.248 NA
ATOM     63  C   UNL A   1      43.781  30.679  33.413  1.00  0.00     0.031 C 
ATOM     64  C   UNL A   1      45.109  27.600  29.325  1.00  0.00     0.029 A 
ATOM     65  C   UNL A   1      44.621  27.104  30.524  1.00  0.00     0.049 A 
ATOM     66  H   UNL A   1      43.451  25.381  30.840  1.00  0.00     0.167 HD
ATOM     67  C   UNL A   1      44.402  28.746  32.272  1.00  0.00     0.074 A 
ATOM     68  C   UNL A   1      44.513  29.551  33.478  1.00  0.00     0.031 C 
ATOM     69  C   UNL A   1      44.801  27.478  31.929  1.00  0.00     0.034 A 
BRANCH  56  70
ATOM     70  C   UNL A   1      42.787  23.987  27.229  1.00  0.00     0.023 A 
ATOM     71  C   UNL A   1      43.454  24.343  26.034  1.00  0.00     0.012 A 
ATOM     72  C   UNL A   1      42.265  22.667  27.268  1.00  0.00     0.148 A 
ATOM     73  C   UNL A   1      43.581  23.465  24.950  1.00  0.00     0.002 A 
ATOM     74  C   UNL A   1      42.440  21.771  26.207  1.00  0.00     0.091 A 
ATOM     75  F   UNL A   1      41.514  22.266  28.294  1.00  0.00    -0.205 F 
ATOM     76  C   UNL A   1      43.084  22.173  25.038  1.00  0.00     0.022 A 
BRANCH  74  77
ATOM     77  S   UNL A   1      41.849  20.065  26.269  1.00  0.00     0.127 S 
ATOM     78  O   UNL A   1      42.323  19.624  27.581  1.00  0.00    -0.237 OA
ATOM     79  O   UNL A   1      40.399  20.232  26.170  1.00  0.00    -0.237 OA
ATOM     80  O   UNL A   1      42.454  19.379  25.133  1.00  0.00    -0.744 OA
ENDBRANCH  74  77
ENDBRANCH  56  70
BRANCH  57  81
ATOM     81  C   UNL A   1      41.177  32.326  32.199  1.00  0.00     0.023 A 
ATOM     82  C   UNL A   1      40.925  33.659  31.793  1.00  0.00     0.012 A 
ATOM     83  C   UNL A   1      40.172  31.623  32.888  1.00  0.00     0.148 A 
ATOM     84  C   UNL A   1      39.662  34.232  31.950  1.00  0.00     0.002 A 
ATOM     85  C   UNL A   1      38.907  32.193  33.018  1.00  0.00     0.091 A 
ATOM     86  F   UNL A   1      40.433  30.372  33.289  1.00  0.00    -0.205 F 
ATOM     87  C   UNL A   1      38.643  33.484  32.525  1.00  0.00     0.022 A 
BRANCH  85  88
ATOM     88  S   UNL A   1      37.484  31.278  33.625  1.00  0.00     0.127 S 
ATOM     89  O   UNL A   1      37.899  29.897  33.397  1.00  0.00    -0.237 OA
ATOM     90  O   UNL A   1      37.449  31.684  35.028  1.00  0.00    -0.237 OA
ATOM     91  O   UNL A   1      36.356  31.741  32.830  1.00  0.00    -0.744 OA
ENDBRANCH  85  88
ENDBRANCH  57  81
BRANCH  69  92
ATOM     92  C   UNL A   1      45.382  26.459  32.900  1.00  0.00     0.023 A 
ATOM     93  C   UNL A   1      46.765  26.207  32.992  1.00  0.00     0.012 A 
ATOM     94  C   UNL A   1      44.561  25.822  33.868  1.00  0.00     0.148 A 
ATOM     95  C   UNL A   1      47.301  25.318  33.932  1.00  0.00     0.002 A 
ATOM     96  C   UNL A   1      45.113  25.038  34.879  1.00  0.00     0.091 A 
ATOM     97  F   UNL A   1      43.228  25.958  33.809  1.00  0.00    -0.205 F 
ATOM     98  C   UNL A   1      46.478  24.750  34.892  1.00  0.00     0.022 A 
BRANCH  96  99
ATOM     99  S   UNL A   1      44.120  24.522  36.289  1.00  0.00     0.127 S 
ATOM    100  O   UNL A   1      45.086  23.769  37.086  1.00  0.00    -0.237 OA
ATOM    101  O   UNL A   1      43.712  25.801  36.874  1.00  0.00    -0.237 OA
ATOM    102  O   UNL A   1      43.023  23.759  35.710  1.00  0.00    -0.744 OA
ENDBRANCH  96  99
ENDBRANCH  69  92
ENDBRANCH  43  44
ENDBRANCH  35  38
ENDBRANCH  33  34
ENDBRANCH  32  33
ENDBRANCH  31  32
ENDBRANCH   1  31
TORSDOF 19
ENDMDL
MODEL 2
REMARK VINA RESULT:     -13.2      2.354      3.050
REMARK SMILES CC1=C(C)C[C@@H](C(=O)NNC(=O)c2ccccc2C)[C@@H](C(=O)NCCCCCCNC(=O)c2ccc(-c3c4nc(c(-c5cccc(S(=O)(=O)[O-])c5F)c5ccc([nH]5)c(-c5cccc(S(=O)(=O)[O-])c5F)c5nc(c(-c6cccc(S(=O)(=O)[O-])c6F)c6ccc3[nH]6)C=C5)C=C4)cc2)C1
REMARK SMILES IDX 26 1 25 2 24 3 23 4 21 5 22 6 20 8 1 9 2 10 3 11 96 12 4 13
REMARK SMILES IDX 5 14 6 15 7 16 8 17 9 18 10 20 11 21 12 23 13 24 14 25 18 26
REMARK SMILES IDX 15 27 17 28 19 29 16 30 27 31 28 32 29 33 30 34 31 35 32 37
REMARK SMILES IDX 33 38 34 39 95 40 35 41 94 42 36 43 37 44 38 45 88 46 39 47
REMARK SMILES IDX 93 48 87 49 89 50 40 51 92 52 86 53 85 54 41 56 73 57 53 58
REMARK SMILES IDX 72 59 54 60 57 61 71 62 90 63 55 64 56 65 70 67 91 68 58 69
REMARK SMILES IDX 42 70 43 71 51 72 44 73 46 74 52 75 45 76 47 77 48 78 49 79
REMARK SMILES IDX 50 80 74 81 75 82 83 83 76 84 78 85 84 86 77 87 79 88 80 89
REMARK SMILES IDX 81 90 82 91 59 92 60 93 68 94 61 95 63 96 69 97 62 98 64 99
REMARK SMILES IDX 65 100 66 101 67 102
REMARK H PARENT 23 7 9 19 10 22 30 36 89 55 57 66
REMARK Flexibility Score: inf
ROOT
ATOM      1  C   UNL A   1      33.108  29.558  25.060  1.00  0.00     0.002 C 
ENDROOT
BRANCH   1   2
ATOM      2  C   UNL A   1      32.433  28.714  23.962  1.00  0.00     0.021 C 
BRANCH   2   3
ATOM      3  C   UNL A   1      33.359  28.098  22.911  1.00  0.00     0.116 C 
BRANCH   3   4
ATOM      4  N   UNL A   1      32.911  26.769  22.576  1.00  0.00    -0.356 N 
ATOM      5  C   UNL A   1      33.559  25.621  22.896  1.00  0.00     0.224 C 
ATOM      6  O   UNL A   1      33.661  24.793  21.997  1.00  0.00    -0.275 OA
ATOM      7  H   UNL A   1      32.067  26.687  22.075  1.00  0.00     0.163 HD
BRANCH   5   8
ATOM      8  C   UNL A   1      34.048  25.435  24.339  1.00  0.00     0.095 C 
ATOM      9  C   UNL A   1      31.400  24.174  26.986  1.00  0.00     0.039 C 
ATOM     10  C   UNL A   1      32.757  24.271  26.328  1.00  0.00    -0.074 C 
ATOM     11  C   UNL A   1      33.814  23.485  26.609  1.00  0.00    -0.074 C 
ATOM     12  C   UNL A   1      32.824  25.365  25.288  1.00  0.00     0.045 C 
ATOM     13  C   UNL A   1      33.832  22.383  27.639  1.00  0.00     0.039 C 
ATOM     14  C   UNL A   1      35.133  23.664  25.898  1.00  0.00     0.045 C 
ATOM     15  C   UNL A   1      35.078  24.300  24.505  1.00  0.00     0.097 C 
BRANCH  15  16
ATOM     16  C   UNL A   1      35.189  23.233  23.404  1.00  0.00     0.242 C 
ATOM     17  O   UNL A   1      36.233  23.138  22.747  1.00  0.00    -0.273 OA
ATOM     18  N   UNL A   1      34.186  22.333  23.157  1.00  0.00    -0.267 N 
ATOM     19  H   UNL A   1      34.273  21.762  22.360  1.00  0.00     0.191 HD
BRANCH  18  20
ATOM     20  N   UNL A   1      33.068  22.166  23.937  1.00  0.00    -0.263 N 
ATOM     21  C   UNL A   1      32.605  20.982  24.457  1.00  0.00     0.269 C 
ATOM     22  H   UNL A   1      32.547  22.975  24.144  1.00  0.00     0.191 HD
ATOM     23  O   UNL A   1      31.552  20.986  25.096  1.00  0.00    -0.267 OA
BRANCH  21  24
ATOM     24  C   UNL A   1      33.266  19.678  24.173  1.00  0.00     0.044 A 
ATOM     25  C   UNL A   1      32.446  18.764  23.479  1.00  0.00     0.014 A 
ATOM     26  C   UNL A   1      34.554  19.278  24.575  1.00  0.00    -0.038 A 
ATOM     27  C   UNL A   1      32.901  17.488  23.151  1.00  0.00     0.001 A 
ATOM     28  C   UNL A   1      35.011  18.002  24.191  1.00  0.00     0.004 A 
ATOM     29  C   UNL A   1      35.494  20.105  25.404  1.00  0.00     0.045 C 
ATOM     30  C   UNL A   1      34.192  17.113  23.495  1.00  0.00     0.000 A 
ENDBRANCH  21  24
ENDBRANCH  18  20
ENDBRANCH  15  16
ENDBRANCH   5   8
ENDBRANCH   3   4
ENDBRANCH   2   3
ENDBRANCH   1   2
BRANCH   1  31
ATOM     31  C   UNL A   1      34.067  28.851  26.029  1.00  0.00     0.002 C 
BRANCH  31  32
ATOM     32  C   UNL A   1      34.130  29.393  27.449  1.00  0.00     0.021 C 
BRANCH  32  33
ATOM     33  C   UNL A   1      35.166  30.480  27.656  1.00  0.00     0.116 C 
BRANCH  33  34
ATOM     34  N   UNL A   1      34.569  31.799  27.605  1.00  0.00    -0.352 N 
ATOM     35  C   UNL A   1      34.545  32.769  28.585  1.00  0.00     0.251 C 
ATOM     36  H   UNL A   1      34.122  32.034  26.760  1.00  0.00     0.163 HD
ATOM     37  O   UNL A   1      33.639  33.602  28.598  1.00  0.00    -0.269 OA
BRANCH  35  38
ATOM     38  C   UNL A   1      35.739  32.916  29.452  1.00  0.00     0.039 A 
ATOM     39  C   UNL A   1      36.889  33.384  28.804  1.00  0.00     0.014 A 
ATOM     40  C   UNL A   1      35.837  32.231  30.656  1.00  0.00     0.014 A 
ATOM     41  C   UNL A   1      38.131  32.892  29.179  1.00  0.00     0.010 A 
ATOM     42  C   UNL A   1      37.047  31.666  30.975  1.00  0.00     0.010 A 
ATOM     43  C   UNL A   1      38.170  31.936  30.182  1.00  0.00    -0.014 A 
BRANCH  43  44
ATOM     44  C   UNL A   1      39.341  31.175  30.555  1.00  0.00     0.031 A 
ATOM     45  C   UNL A   1      39.493  29.829  29.982  1.00  0.00     0.074 A 
ATOM     46  C   UNL A   1      40.370  31.842  31.123  1.00  0.00     0.049 A 
ATOM     47  N   UNL A   1      40.451  29.023  30.275  1.00  0.00    -0.248 NA
ATOM     48  C   UNL A   1      38.526  29.265  29.042  1.00  0.00     0.031 C 
ATOM     49  C   UNL A   1      41.782  31.488  31.074  1.00  0.00     0.029 A 
ATOM     50  N   UNL A   1      40.315  32.904  32.036  1.00  0.00    -0.354 N 
ATOM     51  C   UNL A   1      40.422  28.015  29.337  1.00  0.00     0.074 A 
ATOM     52  C   UNL A   1      39.134  28.123  28.707  1.00  0.00     0.031 C 
ATOM     53  C   UNL A   1      42.417  32.105  32.082  1.00  0.00     0.029 A 
ATOM     54  C   UNL A   1      41.394  32.711  32.917  1.00  0.00     0.049 A 
ATOM     55  H   UNL A   1      39.656  33.635  32.056  1.00  0.00     0.167 HD
ATOM     56  C   UNL A   1      41.572  27.327  29.105  1.00  0.00     0.034 A 
ATOM     57  C   UNL A   1      41.240  32.463  34.251  1.00  0.00     0.034 A 
ATOM     58  C   UNL A   1      42.549  27.600  30.172  1.00  0.00     0.049 A 
ATOM     59  C   UNL A   1      41.764  31.095  34.664  1.00  0.00     0.074 A 
ATOM     60  C   UNL A   1      43.685  28.386  30.250  1.00  0.00     0.029 A 
ATOM     61  N   UNL A   1      42.219  27.263  31.485  1.00  0.00    -0.354 N 
ATOM     62  N   UNL A   1      42.207  30.192  33.829  1.00  0.00    -0.248 NA
ATOM     63  C   UNL A   1      41.823  30.628  36.047  1.00  0.00     0.031 C 
ATOM     64  C   UNL A   1      43.942  28.640  31.629  1.00  0.00     0.029 A 
ATOM     65  C   UNL A   1      42.999  27.967  32.391  1.00  0.00     0.049 A 
ATOM     66  H   UNL A   1      41.524  26.612  31.736  1.00  0.00     0.167 HD
ATOM     67  C   UNL A   1      42.469  29.021  34.490  1.00  0.00     0.074 A 
ATOM     68  C   UNL A   1      42.292  29.377  35.889  1.00  0.00     0.031 C 
ATOM     69  C   UNL A   1      42.747  27.851  33.829  1.00  0.00     0.034 A 
BRANCH  56  70
ATOM     70  C   UNL A   1      41.916  26.571  27.828  1.00  0.00     0.023 A 
ATOM     71  C   UNL A   1      42.128  27.347  26.666  1.00  0.00     0.012 A 
ATOM     72  C   UNL A   1      41.936  25.164  27.635  1.00  0.00     0.148 A 
ATOM     73  C   UNL A   1      42.328  26.776  25.402  1.00  0.00     0.002 A 
ATOM     74  C   UNL A   1      42.191  24.592  26.384  1.00  0.00     0.091 A 
ATOM     75  F   UNL A   1      41.627  24.339  28.637  1.00  0.00    -0.205 F 
ATOM     76  C   UNL A   1      42.371  25.398  25.260  1.00  0.00     0.022 A 
BRANCH  74  77
ATOM     77  S   UNL A   1      42.295  22.806  26.134  1.00  0.00     0.127 S 
ATOM     78  O   UNL A   1      42.879  22.718  24.795  1.00  0.00    -0.237 OA
ATOM     79  O   UNL A   1      43.189  22.391  27.216  1.00  0.00    -0.237 OA
ATOM     80  O   UNL A   1      40.935  22.294  26.249  1.00  0.00    -0.744 OA
ENDBRANCH  74  77
ENDBRANCH  56  70
BRANCH  57  81
ATOM     81  C   UNL A   1      40.100  33.200  34.869  1.00  0.00     0.023 A 
ATOM     82  C   UNL A   1      38.843  32.551  34.833  1.00  0.00     0.012 A 
ATOM     83  C   UNL A   1      40.313  34.219  35.816  1.00  0.00     0.148 A 
ATOM     84  C   UNL A   1      37.869  32.814  35.797  1.00  0.00     0.002 A 
ATOM     85  C   UNL A   1      39.345  34.458  36.790  1.00  0.00     0.091 A 
ATOM     86  F   UNL A   1      41.497  34.843  35.822  1.00  0.00    -0.205 F 
ATOM     87  C   UNL A   1      38.137  33.737  36.799  1.00  0.00     0.022 A 
BRANCH  85  88
ATOM     88  S   UNL A   1      39.632  35.530  38.204  1.00  0.00     0.127 S 
ATOM     89  O   UNL A   1      40.967  35.118  38.625  1.00  0.00    -0.237 OA
ATOM     90  O   UNL A   1      39.563  36.853  37.589  1.00  0.00    -0.237 OA
ATOM     91  O   UNL A   1      38.553  35.238  39.138  1.00  0.00    -0.744 OA
ENDBRANCH  85  88
ENDBRANCH  57  81
BRANCH  69  92
ATOM     92  C   UNL A   1      42.785  26.475  34.479  1.00  0.00     0.023 A 
ATOM     93  C   UNL A   1      41.717  25.974  35.250  1.00  0.00     0.012 A 
ATOM     94  C   UNL A   1      43.844  25.569  34.210  1.00  0.00     0.148 A 
ATOM     95  C   UNL A   1      41.728  24.682  35.791  1.00  0.00     0.002 A 
ATOM     96  C   UNL A   1      43.791  24.245  34.644  1.00  0.00     0.091 A 
ATOM     97  F   UNL A   1      44.928  25.986  33.539  1.00  0.00    -0.205 F 
ATOM     98  C   UNL A   1      42.755  23.808  35.469  1.00  0.00     0.022 A 
BRANCH  96  99
ATOM     99  S   UNL A   1      44.953  23.023  34.016  1.00  0.00     0.127 S 
ATOM    100  O   UNL A   1      46.218  23.482  34.583  1.00  0.00    -0.237 OA
ATOM    101  O   UNL A   1      44.444  21.776  34.592  1.00  0.00    -0.237 OA
ATOM    102  O   UNL A   1      44.826  23.101  32.567  1.00  0.00    -0.744 OA
ENDBRANCH  96  99
ENDBRANCH  69  92
ENDBRANCH  43  44
ENDBRANCH  35  38
ENDBRANCH  33  34
ENDBRANCH  32  33
ENDBRANCH  31  32
ENDBRANCH   1  31
TORSDOF 19
ENDMDL
MODEL 3
REMARK VINA RESULT:     -13.1      3.779      9.270
REMARK SMILES CC1=C(C)C[C@@H](C(=O)NNC(=O)c2ccccc2C)[C@@H](C(=O)NCCCCCCNC(=O)c2ccc(-c3c4nc(c(-c5cccc(S(=O)(=O)[O-])c5F)c5ccc([nH]5)c(-c5cccc(S(=O)(=O)[O-])c5F)c5nc(c(-c6cccc(S(=O)(=O)[O-])c6F)c6ccc3[nH]6)C=C5)C=C4)cc2)C1
REMARK SMILES IDX 26 1 25 2 24 3 23 4 21 5 22 6 20 8 1 9 2 10 3 11 96 12 4 13
REMARK SMILES IDX 5 14 6 15 7 16 8 17 9 18 10 20 11 21 12 23 13 24 14 25 18 26
REMARK SMILES IDX 15 27 17 28 19 29 16 30 27 31 28 32 29 33 30 34 31 35 32 37
REMARK SMILES IDX 33 38 34 39 95 40 35 41 94 42 36 43 37 44 38 45 88 46 39 47
REMARK SMILES IDX 93 48 87 49 89 50 40 51 92 52 86 53 85 54 41 56 73 57 53 58
REMARK SMILES IDX 72 59 54 60 57 61 71 62 90 63 55 64 56 65 70 67 91 68 58 69
REMARK SMILES IDX 42 70 43 71 51 72 44 73 46 74 52 75 45 76 47 77 48 78 49 79
REMARK SMILES IDX 50 80 74 81 75 82 83 83 76 84 78 85 84 86 77 87 79 88 80 89
REMARK SMILES IDX 81 90 82 91 59 92 60 93 68 94 61 95 63 96 69 97 62 98 64 99
REMARK SMILES IDX 65 100 66 101 67 102
REMARK H PARENT 23 7 9 19 10 22 30 36 89 55 57 66
REMARK Flexibility Score: inf
ROOT
ATOM      1  C   UNL A   1      34.622  21.170  25.724  1.00  0.00     0.002 C 
ENDROOT
BRANCH   1   2
ATOM      2  C   UNL A   1      33.943  20.636  24.447  1.00  0.00     0.021 C 
BRANCH   2   3
ATOM      3  C   UNL A   1      33.283  21.678  23.541  1.00  0.00     0.116 C 
BRANCH   3   4
ATOM      4  N   UNL A   1      34.207  22.750  23.264  1.00  0.00    -0.356 N 
ATOM      5  C   UNL A   1      33.990  24.060  23.541  1.00  0.00     0.224 C 
ATOM      6  O   UNL A   1      34.273  24.851  22.648  1.00  0.00    -0.275 OA
ATOM      7  H   UNL A   1      35.064  22.512  22.842  1.00  0.00     0.163 HD
BRANCH   5   8
ATOM      8  C   UNL A   1      33.477  24.438  24.937  1.00  0.00     0.095 C 
ATOM      9  C   UNL A   1      34.192  28.119  26.180  1.00  0.00     0.039 C 
ATOM     10  C   UNL A   1      33.390  26.850  26.010  1.00  0.00    -0.074 C 
ATOM     11  C   UNL A   1      32.091  26.702  26.338  1.00  0.00    -0.074 C 
ATOM     12  C   UNL A   1      34.201  25.722  25.417  1.00  0.00     0.045 C 
ATOM     13  C   UNL A   1      31.219  27.772  26.945  1.00  0.00     0.039 C 
ATOM     14  C   UNL A   1      31.378  25.388  26.134  1.00  0.00     0.045 C 
ATOM     15  C   UNL A   1      31.939  24.467  25.047  1.00  0.00     0.097 C 
BRANCH  15  16
ATOM     16  C   UNL A   1      31.105  24.558  23.759  1.00  0.00     0.242 C 
ATOM     17  O   UNL A   1      30.306  23.656  23.483  1.00  0.00    -0.273 OA
ATOM     18  N   UNL A   1      31.171  25.641  22.923  1.00  0.00    -0.267 N 
ATOM     19  H   UNL A   1      30.707  25.577  22.058  1.00  0.00     0.191 HD
BRANCH  18  20
ATOM     20  N   UNL A   1      31.837  26.810  23.199  1.00  0.00    -0.263 N 
ATOM     21  C   UNL A   1      31.270  28.047  23.386  1.00  0.00     0.269 C 
ATOM     22  H   UNL A   1      32.817  26.756  23.271  1.00  0.00     0.191 HD
ATOM     23  O   UNL A   1      32.008  29.015  23.575  1.00  0.00    -0.267 OA
BRANCH  21  24
ATOM     24  C   UNL A   1      29.805  28.278  23.249  1.00  0.00     0.044 A 
ATOM     25  C   UNL A   1      29.013  27.325  23.921  1.00  0.00     0.014 A 
ATOM     26  C   UNL A   1      29.176  29.281  22.488  1.00  0.00    -0.038 A 
ATOM     27  C   UNL A   1      27.621  27.381  23.879  1.00  0.00     0.001 A 
ATOM     28  C   UNL A   1      27.769  29.349  22.499  1.00  0.00     0.004 A 
ATOM     29  C   UNL A   1      29.889  30.297  21.643  1.00  0.00     0.045 C 
ATOM     30  C   UNL A   1      26.999  28.405  23.178  1.00  0.00     0.000 A 
ENDBRANCH  21  24
ENDBRANCH  18  20
ENDBRANCH  15  16
ENDBRANCH   5   8
ENDBRANCH   3   4
ENDBRANCH   2   3
ENDBRANCH   1   2
BRANCH   1  31
ATOM     31  C   UNL A   1      36.156  21.157  25.786  1.00  0.00     0.002 C 
BRANCH  31  32
ATOM     32  C   UNL A   1      36.859  22.499  25.649  1.00  0.00     0.021 C 
BRANCH  32  33
ATOM     33  C   UNL A   1      38.258  22.415  25.071  1.00  0.00     0.116 C 
BRANCH  33  34
ATOM     34  N   UNL A   1      39.247  22.186  26.105  1.00  0.00    -0.352 N 
ATOM     35  C   UNL A   1      40.154  23.079  26.637  1.00  0.00     0.251 C 
ATOM     36  H   UNL A   1      39.276  21.275  26.477  1.00  0.00     0.163 HD
ATOM     37  O   UNL A   1      41.205  22.663  27.126  1.00  0.00    -0.269 OA
BRANCH  35  38
ATOM     38  C   UNL A   1      39.727  24.488  26.811  1.00  0.00     0.039 A 
ATOM     39  C   UNL A   1      40.530  25.435  26.163  1.00  0.00     0.014 A 
ATOM     40  C   UNL A   1      38.909  24.862  27.869  1.00  0.00     0.014 A 
ATOM     41  C   UNL A   1      40.761  26.663  26.768  1.00  0.00     0.010 A 
ATOM     42  C   UNL A   1      39.203  26.033  28.523  1.00  0.00     0.010 A 
ATOM     43  C   UNL A   1      40.189  26.886  28.010  1.00  0.00    -0.014 A 
BRANCH  43  44
ATOM     44  C   UNL A   1      40.485  28.012  28.868  1.00  0.00     0.031 A 
ATOM     45  C   UNL A   1      39.619  29.197  28.766  1.00  0.00     0.074 A 
ATOM     46  C   UNL A   1      41.305  27.801  29.921  1.00  0.00     0.049 A 
ATOM     47  N   UNL A   1      39.806  30.286  29.421  1.00  0.00    -0.248 NA
ATOM     48  C   UNL A   1      38.473  29.252  27.860  1.00  0.00     0.031 C 
ATOM     49  C   UNL A   1      41.321  28.529  31.183  1.00  0.00     0.029 A 
ATOM     50  N   UNL A   1      42.439  26.981  29.985  1.00  0.00    -0.354 N 
ATOM     51  C   UNL A   1      38.652  31.027  29.296  1.00  0.00     0.074 A 
ATOM     52  C   UNL A   1      37.934  30.425  28.204  1.00  0.00     0.031 C 
ATOM     53  C   UNL A   1      42.510  28.342  31.774  1.00  0.00     0.029 A 
ATOM     54  C   UNL A   1      43.355  27.653  30.814  1.00  0.00     0.049 A 
ATOM     55  H   UNL A   1      42.568  26.112  29.541  1.00  0.00     0.167 HD
ATOM     56  C   UNL A   1      38.380  31.954  30.254  1.00  0.00     0.034 A 
ATOM     57  C   UNL A   1      44.564  28.116  30.378  1.00  0.00     0.034 A 
ATOM     58  C   UNL A   1      39.580  32.199  31.073  1.00  0.00     0.049 A 
ATOM     59  C   UNL A   1      44.682  29.632  30.458  1.00  0.00     0.074 A 
ATOM     60  C   UNL A   1      39.968  31.807  32.342  1.00  0.00     0.029 A 
ATOM     61  N   UNL A   1      40.727  32.690  30.451  1.00  0.00    -0.354 N 
ATOM     62  N   UNL A   1      43.703  30.430  30.790  1.00  0.00    -0.248 NA
ATOM     63  C   UNL A   1      45.906  30.370  30.160  1.00  0.00     0.031 C 
ATOM     64  C   UNL A   1      41.386  31.927  32.418  1.00  0.00     0.029 A 
ATOM     65  C   UNL A   1      41.855  32.443  31.220  1.00  0.00     0.049 A 
ATOM     66  H   UNL A   1      40.736  33.151  29.580  1.00  0.00     0.167 HD
ATOM     67  C   UNL A   1      44.080  31.738  30.629  1.00  0.00     0.074 A 
ATOM     68  C   UNL A   1      45.497  31.643  30.314  1.00  0.00     0.031 C 
ATOM     69  C   UNL A   1      43.186  32.776  30.706  1.00  0.00     0.034 A 
BRANCH  56  70
ATOM     70  C   UNL A   1      37.001  32.496  30.604  1.00  0.00     0.023 A 
ATOM     71  C   UNL A   1      36.510  32.199  31.896  1.00  0.00     0.012 A 
ATOM     72  C   UNL A   1      36.094  33.171  29.745  1.00  0.00     0.148 A 
ATOM     73  C   UNL A   1      35.210  32.529  32.304  1.00  0.00     0.002 A 
ATOM     74  C   UNL A   1      34.816  33.550  30.169  1.00  0.00     0.091 A 
ATOM     75  F   UNL A   1      36.408  33.392  28.468  1.00  0.00    -0.205 F 
ATOM     76  C   UNL A   1      34.364  33.215  31.445  1.00  0.00     0.022 A 
BRANCH  74  77
ATOM     77  S   UNL A   1      33.676  34.475  29.116  1.00  0.00     0.127 S 
ATOM     78  O   UNL A   1      32.635  34.870  30.065  1.00  0.00    -0.237 OA
ATOM     79  O   UNL A   1      34.514  35.576  28.640  1.00  0.00    -0.237 OA
ATOM     80  O   UNL A   1      33.242  33.555  28.072  1.00  0.00    -0.744 OA
ENDBRANCH  74  77
ENDBRANCH  56  70
BRANCH  57  81
ATOM     81  C   UNL A   1      45.220  27.226  29.377  1.00  0.00     0.023 A 
ATOM     82  C   UNL A   1      45.569  25.930  29.828  1.00  0.00     0.012 A 
ATOM     83  C   UNL A   1      45.087  27.452  27.995  1.00  0.00     0.148 A 
ATOM     84  C   UNL A   1      45.654  24.857  28.940  1.00  0.00     0.002 A 
ATOM     85  C   UNL A   1      45.148  26.371  27.117  1.00  0.00     0.091 A 
ATOM     86  F   UNL A   1      44.782  28.688  27.580  1.00  0.00    -0.205 F 
ATOM     87  C   UNL A   1      45.402  25.071  27.590  1.00  0.00     0.022 A 
BRANCH  85  88
ATOM     88  S   UNL A   1      44.714  26.503  25.378  1.00  0.00     0.127 S 
ATOM     89  O   UNL A   1      44.072  25.216  25.132  1.00  0.00    -0.237 OA
ATOM     90  O   UNL A   1      43.807  27.649  25.388  1.00  0.00    -0.237 OA
ATOM     91  O   UNL A   1      45.972  26.730  24.680  1.00  0.00    -0.744 OA
ENDBRANCH  85  88
ENDBRANCH  57  81
BRANCH  69  92
ATOM     92  C   UNL A   1      43.480  34.208  30.280  1.00  0.00     0.023 A 
ATOM     93  C   UNL A   1      43.751  35.231  31.210  1.00  0.00     0.012 A 
ATOM     94  C   UNL A   1      43.643  34.543  28.910  1.00  0.00     0.148 A 
ATOM     95  C   UNL A   1      44.086  36.532  30.811  1.00  0.00     0.002 A 
ATOM     96  C   UNL A   1      44.099  35.803  28.524  1.00  0.00     0.091 A 
ATOM     97  F   UNL A   1      43.342  33.645  27.960  1.00  0.00    -0.205 F 
ATOM     98  C   UNL A   1      44.283  36.813  29.468  1.00  0.00     0.022 A 
BRANCH  96  99
ATOM     99  S   UNL A   1      44.630  36.110  26.832  1.00  0.00     0.127 S 
ATOM    100  O   UNL A   1      45.652  35.085  26.639  1.00  0.00    -0.237 OA
ATOM    101  O   UNL A   1      43.398  35.894  26.069  1.00  0.00    -0.237 OA
ATOM    102  O   UNL A   1      45.089  37.493  26.833  1.00  0.00    -0.744 OA
ENDBRANCH  96  99
ENDBRANCH  69  92
ENDBRANCH  43  44
ENDBRANCH  35  38
ENDBRANCH  33  34
ENDBRANCH  32  33
ENDBRANCH  31  32
ENDBRANCH   1  31
TORSDOF 19
ENDMDL
