MODEL 1
REMARK VINA RESULT:     -11.4      0.000      0.000
REMARK SMILES CC(C)[C@H](C)CNC(=O)N1CC(n2cc(C(=O)NCCCCCCNC(=O)c3ccc(-c4c5nc(c(-c6cccc(S(=O)(=O)[O-])c6F)c6ccc([nH]6)c(-c6cccc(S(=O)(=O)[O-])c6F)c6nc(c(-c7cccc(S(=O)(=O)[O-])c7F)c7ccc4[nH]7)C=C6)C=C5)cc3)nn2)C1
REMARK SMILES IDX 21 1 20 2 19 3 18 4 16 5 17 6 15 8 13 9 14 10 92 11 91 12
REMARK SMILES IDX 12 13 7 14 8 15 9 17 10 18 11 19 93 20 6 21 4 22 5 23 2 24
REMARK SMILES IDX 1 25 3 26 22 27 23 28 24 29 25 30 26 31 27 33 28 34 29 35
REMARK SMILES IDX 90 36 30 37 89 38 31 39 32 40 33 41 83 42 34 43 88 44 82 45
REMARK SMILES IDX 84 46 35 47 87 48 81 49 80 50 36 52 68 53 48 54 67 55 49 56
REMARK SMILES IDX 52 57 66 58 85 59 50 60 51 61 65 63 86 64 53 65 37 66 38 67
REMARK SMILES IDX 46 68 39 69 41 70 47 71 40 72 42 73 43 74 44 75 45 76 69 77
REMARK SMILES IDX 70 78 78 79 71 80 73 81 79 82 72 83 74 84 75 85 76 86 77 87
REMARK SMILES IDX 54 88 55 89 63 90 56 91 58 92 64 93 57 94 59 95 60 96 61 97
REMARK SMILES IDX 62 98
REMARK H PARENT 18 7 7 16 25 32 84 51 52 62
REMARK Flexibility Score: inf
ROOT
ATOM      1  C   UNL A   1      33.135  28.321  27.286  1.00  0.00     0.002 C 
ENDROOT
BRANCH   1   2
ATOM      2  C   UNL A   1      31.629  28.045  27.203  1.00  0.00     0.021 C 
BRANCH   2   3
ATOM      3  C   UNL A   1      31.226  27.179  26.012  1.00  0.00     0.116 C 
BRANCH   3   4
ATOM      4  N   UNL A   1      31.401  27.892  24.762  1.00  0.00    -0.351 N 
ATOM      5  C   UNL A   1      32.179  27.628  23.663  1.00  0.00     0.273 C 
ATOM      6  O   UNL A   1      31.999  28.349  22.674  1.00  0.00    -0.267 OA
ATOM      7  H   UNL A   1      30.865  28.715  24.689  1.00  0.00     0.163 HD
BRANCH   5   8
ATOM      8  C   UNL A   1      33.113  26.508  23.637  1.00  0.00     0.170 A 
ATOM      9  N   UNL A   1      34.477  24.865  24.040  1.00  0.00    -0.245 N 
ATOM     10  C   UNL A   1      33.905  25.960  24.628  1.00  0.00     0.145 A 
ATOM     11  N   UNL A   1      34.131  24.774  22.747  1.00  0.00    -0.066 NA
ATOM     12  N   UNL A   1      33.330  25.794  22.476  1.00  0.00    -0.125 NA
BRANCH   9  13
ATOM     13  C   UNL A   1      35.201  23.865  24.767  1.00  0.00     0.148 C 
ATOM     14  N   UNL A   1      35.757  19.719  25.134  1.00  0.00    -0.338 N 
ATOM     15  C   UNL A   1      36.463  20.854  24.893  1.00  0.00     0.317 C 
ATOM     16  H   UNL A   1      36.155  19.113  25.799  1.00  0.00     0.165 HD
ATOM     17  O   UNL A   1      37.671  20.848  25.124  1.00  0.00    -0.249 OA
ATOM     18  N   UNL A   1      35.826  21.940  24.389  1.00  0.00    -0.320 N 
ATOM     19  C   UNL A   1      36.401  23.239  24.042  1.00  0.00     0.150 C 
ATOM     20  C   UNL A   1      34.505  22.492  24.626  1.00  0.00     0.150 C 
BRANCH  14  21
ATOM     21  C   UNL A   1      34.501  19.266  24.558  1.00  0.00     0.121 C 
BRANCH  21  22
ATOM     22  C   UNL A   1      33.958  18.017  25.286  1.00  0.00     0.008 C 
ATOM     23  C   UNL A   1      32.455  18.189  25.579  1.00  0.00     0.010 C 
BRANCH  22  24
ATOM     24  C   UNL A   1      34.171  16.659  24.542  1.00  0.00    -0.013 C 
ATOM     25  C   UNL A   1      33.230  15.525  24.952  1.00  0.00     0.008 C 
ATOM     26  C   UNL A   1      34.061  16.872  23.025  1.00  0.00     0.008 C 
ENDBRANCH  22  24
ENDBRANCH  21  22
ENDBRANCH  14  21
ENDBRANCH   9  13
ENDBRANCH   5   8
ENDBRANCH   3   4
ENDBRANCH   2   3
ENDBRANCH   1   2
BRANCH   1  27
ATOM     27  C   UNL A   1      33.545  29.804  27.272  1.00  0.00     0.002 C 
BRANCH  27  28
ATOM     28  C   UNL A   1      35.014  30.108  27.603  1.00  0.00     0.021 C 
BRANCH  28  29
ATOM     29  C   UNL A   1      35.326  31.595  27.638  1.00  0.00     0.116 C 
BRANCH  29  30
ATOM     30  N   UNL A   1      34.884  32.219  28.891  1.00  0.00    -0.352 N 
ATOM     31  C   UNL A   1      35.226  31.881  30.181  1.00  0.00     0.251 C 
ATOM     32  H   UNL A   1      34.263  32.978  28.796  1.00  0.00     0.163 HD
ATOM     33  O   UNL A   1      34.521  32.231  31.132  1.00  0.00    -0.269 OA
BRANCH  31  34
ATOM     34  C   UNL A   1      36.461  31.120  30.410  1.00  0.00     0.039 A 
ATOM     35  C   UNL A   1      36.460  29.747  30.675  1.00  0.00     0.014 A 
ATOM     36  C   UNL A   1      37.654  31.832  30.340  1.00  0.00     0.014 A 
ATOM     37  C   UNL A   1      37.682  29.093  30.818  1.00  0.00     0.010 A 
ATOM     38  C   UNL A   1      38.838  31.162  30.267  1.00  0.00     0.010 A 
ATOM     39  C   UNL A   1      38.863  29.818  30.608  1.00  0.00    -0.014 A 
BRANCH  39  40
ATOM     40  C   UNL A   1      40.176  29.191  30.618  1.00  0.00     0.031 A 
ATOM     41  C   UNL A   1      40.794  29.186  31.970  1.00  0.00     0.074 A 
ATOM     42  C   UNL A   1      40.586  28.435  29.573  1.00  0.00     0.049 A 
ATOM     43  N   UNL A   1      41.794  29.887  32.393  1.00  0.00    -0.248 NA
ATOM     44  C   UNL A   1      40.068  28.489  33.049  1.00  0.00     0.031 C 
ATOM     45  C   UNL A   1      39.814  28.096  28.362  1.00  0.00     0.029 A 
ATOM     46  N   UNL A   1      41.697  27.666  29.428  1.00  0.00    -0.354 N 
ATOM     47  C   UNL A   1      41.992  29.467  33.709  1.00  0.00     0.074 A 
ATOM     48  C   UNL A   1      40.750  28.883  34.127  1.00  0.00     0.031 C 
ATOM     49  C   UNL A   1      40.352  27.008  27.769  1.00  0.00     0.029 A 
ATOM     50  C   UNL A   1      41.590  26.681  28.444  1.00  0.00     0.049 A 
ATOM     51  H   UNL A   1      42.509  27.791  29.972  1.00  0.00     0.167 HD
ATOM     52  C   UNL A   1      43.251  29.278  34.197  1.00  0.00     0.034 A 
ATOM     53  C   UNL A   1      42.435  25.638  28.240  1.00  0.00     0.034 A 
ATOM     54  C   UNL A   1      44.222  29.856  33.298  1.00  0.00     0.049 A 
ATOM     55  C   UNL A   1      43.690  25.964  28.946  1.00  0.00     0.074 A 
ATOM     56  C   UNL A   1      44.530  31.115  32.834  1.00  0.00     0.029 A 
ATOM     57  N   UNL A   1      44.769  28.953  32.421  1.00  0.00    -0.354 N 
ATOM     58  N   UNL A   1      44.466  26.958  28.615  1.00  0.00    -0.248 NA
ATOM     59  C   UNL A   1      43.881  25.436  30.288  1.00  0.00     0.031 C 
ATOM     60  C   UNL A   1      44.984  30.922  31.496  1.00  0.00     0.029 A 
ATOM     61  C   UNL A   1      45.010  29.553  31.220  1.00  0.00     0.049 A 
ATOM     62  H   UNL A   1      44.960  28.010  32.629  1.00  0.00     0.167 HD
ATOM     63  C   UNL A   1      44.889  27.472  29.831  1.00  0.00     0.074 A 
ATOM     64  C   UNL A   1      44.639  26.408  30.800  1.00  0.00     0.031 C 
ATOM     65  C   UNL A   1      45.095  28.813  29.979  1.00  0.00     0.034 A 
BRANCH  52  66
ATOM     66  C   UNL A   1      43.680  28.174  35.160  1.00  0.00     0.023 A 
ATOM     67  C   UNL A   1      44.469  28.575  36.266  1.00  0.00     0.012 A 
ATOM     68  C   UNL A   1      43.624  26.784  34.905  1.00  0.00     0.148 A 
ATOM     69  C   UNL A   1      45.214  27.660  37.019  1.00  0.00     0.002 A 
ATOM     70  C   UNL A   1      44.311  25.869  35.698  1.00  0.00     0.091 A 
ATOM     71  F   UNL A   1      43.009  26.317  33.820  1.00  0.00    -0.205 F 
ATOM     72  C   UNL A   1      45.135  26.304  36.736  1.00  0.00     0.022 A 
BRANCH  70  73
ATOM     73  S   UNL A   1      44.218  24.097  35.393  1.00  0.00     0.127 S 
ATOM     74  O   UNL A   1      44.932  23.983  34.125  1.00  0.00    -0.237 OA
ATOM     75  O   UNL A   1      44.923  23.562  36.557  1.00  0.00    -0.237 OA
ATOM     76  O   UNL A   1      42.797  23.773  35.354  1.00  0.00    -0.744 OA
ENDBRANCH  70  73
ENDBRANCH  52  66
BRANCH  53  77
ATOM     77  C   UNL A   1      42.183  24.274  27.714  1.00  0.00     0.023 A 
ATOM     78  C   UNL A   1      40.882  23.732  27.755  1.00  0.00     0.012 A 
ATOM     79  C   UNL A   1      43.146  23.630  26.906  1.00  0.00     0.148 A 
ATOM     80  C   UNL A   1      40.540  22.607  26.991  1.00  0.00     0.002 A 
ATOM     81  C   UNL A   1      42.803  22.512  26.149  1.00  0.00     0.091 A 
ATOM     82  F   UNL A   1      44.368  24.170  26.814  1.00  0.00    -0.205 F 
ATOM     83  C   UNL A   1      41.497  22.005  26.180  1.00  0.00     0.022 A 
BRANCH  81  84
ATOM     84  S   UNL A   1      43.969  21.701  25.045  1.00  0.00     0.127 S 
ATOM     85  O   UNL A   1      45.211  21.777  25.813  1.00  0.00    -0.237 OA
ATOM     86  O   UNL A   1      43.398  20.361  24.931  1.00  0.00    -0.237 OA
ATOM     87  O   UNL A   1      43.969  22.487  23.816  1.00  0.00    -0.744 OA
ENDBRANCH  81  84
ENDBRANCH  53  77
BRANCH  65  88
ATOM     88  C   UNL A   1      45.268  29.635  28.731  1.00  0.00     0.023 A 
ATOM     89  C   UNL A   1      44.193  30.148  27.978  1.00  0.00     0.012 A 
ATOM     90  C   UNL A   1      46.575  30.042  28.427  1.00  0.00     0.148 A 
ATOM     91  C   UNL A   1      44.428  31.051  26.936  1.00  0.00     0.002 A 
ATOM     92  C   UNL A   1      46.799  30.980  27.432  1.00  0.00     0.091 A 
ATOM     93  F   UNL A   1      47.579  29.531  29.156  1.00  0.00    -0.205 F 
ATOM     94  C   UNL A   1      45.729  31.482  26.676  1.00  0.00     0.022 A 
BRANCH  92  95
ATOM     95  S   UNL A   1      48.430  31.669  27.162  1.00  0.00     0.127 S 
ATOM     96  O   UNL A   1      48.162  32.709  26.171  1.00  0.00    -0.237 OA
ATOM     97  O   UNL A   1      48.784  32.165  28.493  1.00  0.00    -0.237 OA
ATOM     98  O   UNL A   1      49.262  30.564  26.701  1.00  0.00    -0.744 OA
ENDBRANCH  92  95
ENDBRANCH  65  88
ENDBRANCH  39  40
ENDBRANCH  31  34
ENDBRANCH  29  30
ENDBRANCH  28  29
ENDBRANCH  27  28
ENDBRANCH   1  27
TORSDOF 20
ENDMDL
MODEL 2
REMARK VINA RESULT:     -11.3      2.235      3.081
REMARK SMILES CC(C)[C@H](C)CNC(=O)N1CC(n2cc(C(=O)NCCCCCCNC(=O)c3ccc(-c4c5nc(c(-c6cccc(S(=O)(=O)[O-])c6F)c6ccc([nH]6)c(-c6cccc(S(=O)(=O)[O-])c6F)c6nc(c(-c7cccc(S(=O)(=O)[O-])c7F)c7ccc4[nH]7)C=C6)C=C5)cc3)nn2)C1
REMARK SMILES IDX 21 1 20 2 19 3 18 4 16 5 17 6 15 8 13 9 14 10 92 11 91 12
REMARK SMILES IDX 12 13 7 14 8 15 9 17 10 18 11 19 93 20 6 21 4 22 5 23 2 24
REMARK SMILES IDX 1 25 3 26 22 27 23 28 24 29 25 30 26 31 27 33 28 34 29 35
REMARK SMILES IDX 90 36 30 37 89 38 31 39 32 40 33 41 83 42 34 43 88 44 82 45
REMARK SMILES IDX 84 46 35 47 87 48 81 49 80 50 36 52 68 53 48 54 67 55 49 56
REMARK SMILES IDX 52 57 66 58 85 59 50 60 51 61 65 63 86 64 53 65 37 66 38 67
REMARK SMILES IDX 46 68 39 69 41 70 47 71 40 72 42 73 43 74 44 75 45 76 69 77
REMARK SMILES IDX 70 78 78 79 71 80 73 81 79 82 72 83 74 84 75 85 76 86 77 87
REMARK SMILES IDX 54 88 55 89 63 90 56 91 58 92 64 93 57 94 59 95 60 96 61 97
REMARK SMILES IDX 62 98
REMARK H PARENT 18 7 7 16 25 32 84 51 52 62
REMARK Flexibility Score: inf
ROOT
ATOM      1  C   UNL A   1      32.802  29.784  27.047  1.00  0.00     0.002 C 
ENDROOT
BRANCH   1   2
ATOM      2  C   UNL A   1      31.997  29.929  25.748  1.00  0.00     0.021 C 
BRANCH   2   3
ATOM      3  C   UNL A   1      32.626  29.221  24.551  1.00  0.00     0.116 C 
BRANCH   3   4
ATOM      4  N   UNL A   1      31.729  29.219  23.412  1.00  0.00    -0.351 N 
ATOM      5  C   UNL A   1      30.894  28.252  22.912  1.00  0.00     0.273 C 
ATOM      6  O   UNL A   1      30.128  28.600  22.005  1.00  0.00    -0.267 OA
ATOM      7  H   UNL A   1      31.718  30.063  22.906  1.00  0.00     0.163 HD
BRANCH   5   8
ATOM      8  C   UNL A   1      30.857  26.906  23.472  1.00  0.00     0.170 A 
ATOM      9  N   UNL A   1      31.062  24.798  23.961  1.00  0.00    -0.245 N 
ATOM     10  C   UNL A   1      31.203  25.684  22.927  1.00  0.00     0.145 A 
ATOM     11  N   UNL A   1      30.586  25.407  25.058  1.00  0.00    -0.066 NA
ATOM     12  N   UNL A   1      30.417  26.687  24.761  1.00  0.00    -0.125 NA
BRANCH   9  13
ATOM     13  C   UNL A   1      31.531  23.446  23.913  1.00  0.00     0.148 C 
ATOM     14  N   UNL A   1      34.144  20.726  25.759  1.00  0.00    -0.338 N 
ATOM     15  C   UNL A   1      32.830  20.872  25.451  1.00  0.00     0.317 C 
ATOM     16  H   UNL A   1      34.531  19.850  25.535  1.00  0.00     0.165 HD
ATOM     17  O   UNL A   1      32.137  19.859  25.364  1.00  0.00    -0.249 OA
ATOM     18  N   UNL A   1      32.321  22.117  25.272  1.00  0.00    -0.320 N 
ATOM     19  C   UNL A   1      30.942  22.488  24.959  1.00  0.00     0.150 C 
ATOM     20  C   UNL A   1      32.872  23.317  24.670  1.00  0.00     0.150 C 
BRANCH  14  21
ATOM     21  C   UNL A   1      35.065  21.671  26.372  1.00  0.00     0.121 C 
BRANCH  21  22
ATOM     22  C   UNL A   1      36.477  21.572  25.753  1.00  0.00     0.008 C 
ATOM     23  C   UNL A   1      36.579  20.311  24.874  1.00  0.00     0.010 C 
BRANCH  22  24
ATOM     24  C   UNL A   1      36.930  22.808  24.910  1.00  0.00    -0.013 C 
ATOM     25  C   UNL A   1      36.565  22.767  23.425  1.00  0.00     0.008 C 
ATOM     26  C   UNL A   1      36.363  24.096  25.526  1.00  0.00     0.008 C 
ENDBRANCH  22  24
ENDBRANCH  21  22
ENDBRANCH  14  21
ENDBRANCH   9  13
ENDBRANCH   5   8
ENDBRANCH   3   4
ENDBRANCH   2   3
ENDBRANCH   1   2
BRANCH   1  27
ATOM     27  C   UNL A   1      33.575  31.035  27.498  1.00  0.00     0.002 C 
BRANCH  27  28
ATOM     28  C   UNL A   1      35.108  30.931  27.480  1.00  0.00     0.021 C 
BRANCH  28  29
ATOM     29  C   UNL A   1      35.801  32.205  27.933  1.00  0.00     0.116 C 
BRANCH  29  30
ATOM     30  N   UNL A   1      35.569  32.480  29.356  1.00  0.00    -0.352 N 
ATOM     31  C   UNL A   1      36.232  31.962  30.446  1.00  0.00     0.251 C 
ATOM     32  H   UNL A   1      34.845  33.118  29.556  1.00  0.00     0.163 HD
ATOM     33  O   UNL A   1      35.715  31.985  31.567  1.00  0.00    -0.269 OA
BRANCH  31  34
ATOM     34  C   UNL A   1      37.578  31.407  30.257  1.00  0.00     0.039 A 
ATOM     35  C   UNL A   1      38.729  32.201  30.281  1.00  0.00     0.014 A 
ATOM     36  C   UNL A   1      37.665  30.032  30.063  1.00  0.00     0.014 A 
ATOM     37  C   UNL A   1      39.971  31.582  30.156  1.00  0.00     0.010 A 
ATOM     38  C   UNL A   1      38.874  29.411  30.155  1.00  0.00     0.010 A 
ATOM     39  C   UNL A   1      40.024  30.183  30.096  1.00  0.00    -0.014 A 
BRANCH  39  40
ATOM     40  C   UNL A   1      41.280  29.449  30.086  1.00  0.00     0.031 A 
ATOM     41  C   UNL A   1      41.737  29.084  31.453  1.00  0.00     0.074 A 
ATOM     42  C   UNL A   1      41.754  28.911  28.938  1.00  0.00     0.049 A 
ATOM     43  N   UNL A   1      42.728  29.575  32.121  1.00  0.00    -0.248 NA
ATOM     44  C   UNL A   1      40.845  28.235  32.266  1.00  0.00     0.031 C 
ATOM     45  C   UNL A   1      41.104  28.925  27.613  1.00  0.00     0.029 A 
ATOM     46  N   UNL A   1      42.818  28.092  28.726  1.00  0.00    -0.354 N 
ATOM     47  C   UNL A   1      42.744  28.854  33.316  1.00  0.00     0.074 A 
ATOM     48  C   UNL A   1      41.424  28.311  33.466  1.00  0.00     0.031 C 
ATOM     49  C   UNL A   1      41.630  27.951  26.838  1.00  0.00     0.029 A 
ATOM     50  C   UNL A   1      42.757  27.366  27.534  1.00  0.00     0.049 A 
ATOM     51  H   UNL A   1      43.568  28.015  29.359  1.00  0.00     0.167 HD
ATOM     52  C   UNL A   1      43.922  28.443  33.865  1.00  0.00     0.034 A 
ATOM     53  C   UNL A   1      43.544  26.321  27.175  1.00  0.00     0.034 A 
ATOM     54  C   UNL A   1      45.028  29.114  33.223  1.00  0.00     0.049 A 
ATOM     55  C   UNL A   1      44.729  26.361  28.056  1.00  0.00     0.074 A 
ATOM     56  C   UNL A   1      45.474  30.409  33.096  1.00  0.00     0.029 A 
ATOM     57  N   UNL A   1      45.607  28.381  32.217  1.00  0.00    -0.354 N 
ATOM     58  N   UNL A   1      45.605  27.326  28.040  1.00  0.00    -0.248 NA
ATOM     59  C   UNL A   1      44.728  25.531  29.250  1.00  0.00     0.031 C 
ATOM     60  C   UNL A   1      46.065  30.478  31.800  1.00  0.00     0.029 A 
ATOM     61  C   UNL A   1      46.026  29.209  31.217  1.00  0.00     0.049 A 
ATOM     62  H   UNL A   1      45.707  27.403  32.218  1.00  0.00     0.167 HD
ATOM     63  C   UNL A   1      45.921  27.512  29.377  1.00  0.00     0.074 A 
ATOM     64  C   UNL A   1      45.488  26.288  30.044  1.00  0.00     0.031 C 
ATOM     65  C   UNL A   1      46.202  28.761  29.852  1.00  0.00     0.034 A 
BRANCH  52  66
ATOM     66  C   UNL A   1      44.158  27.117  34.582  1.00  0.00     0.023 A 
ATOM     67  C   UNL A   1      43.670  25.955  33.934  1.00  0.00     0.012 A 
ATOM     68  C   UNL A   1      44.539  26.962  35.936  1.00  0.00     0.148 A 
ATOM     69  C   UNL A   1      43.500  24.741  34.612  1.00  0.00     0.002 A 
ATOM     70  C   UNL A   1      44.433  25.737  36.588  1.00  0.00     0.091 A 
ATOM     71  F   UNL A   1      44.895  28.018  36.665  1.00  0.00    -0.205 F 
ATOM     72  C   UNL A   1      43.883  24.631  35.941  1.00  0.00     0.022 A 
BRANCH  70  73
ATOM     73  S   UNL A   1      44.944  25.532  38.302  1.00  0.00     0.127 S 
ATOM     74  O   UNL A   1      46.305  26.057  38.264  1.00  0.00    -0.237 OA
ATOM     75  O   UNL A   1      43.971  26.372  39.000  1.00  0.00    -0.237 OA
ATOM     76  O   UNL A   1      44.819  24.108  38.589  1.00  0.00    -0.744 OA
ENDBRANCH  70  73
ENDBRANCH  52  66
BRANCH  53  77
ATOM     77  C   UNL A   1      43.260  25.139  26.325  1.00  0.00     0.023 A 
ATOM     78  C   UNL A   1      44.074  24.862  25.207  1.00  0.00     0.012 A 
ATOM     79  C   UNL A   1      42.386  24.126  26.778  1.00  0.00     0.148 A 
ATOM     80  C   UNL A   1      44.046  23.607  24.583  1.00  0.00     0.002 A 
ATOM     81  C   UNL A   1      42.360  22.881  26.154  1.00  0.00     0.091 A 
ATOM     82  F   UNL A   1      41.651  24.358  27.873  1.00  0.00    -0.205 F 
ATOM     83  C   UNL A   1      43.199  22.614  25.063  1.00  0.00     0.022 A 
BRANCH  81  84
ATOM     84  S   UNL A   1      41.324  21.531  26.739  1.00  0.00     0.127 S 
ATOM     85  O   UNL A   1      41.617  20.484  25.762  1.00  0.00    -0.237 OA
ATOM     86  O   UNL A   1      41.863  21.292  28.076  1.00  0.00    -0.237 OA
ATOM     87  O   UNL A   1      39.955  22.031  26.698  1.00  0.00    -0.744 OA
ENDBRANCH  81  84
ENDBRANCH  53  77
BRANCH  65  88
ATOM     88  C   UNL A   1      46.574  29.821  28.852  1.00  0.00     0.023 A 
ATOM     89  C   UNL A   1      47.866  29.964  28.307  1.00  0.00     0.012 A 
ATOM     90  C   UNL A   1      45.518  30.579  28.323  1.00  0.00     0.148 A 
ATOM     91  C   UNL A   1      48.093  30.854  27.252  1.00  0.00     0.002 A 
ATOM     92  C   UNL A   1      45.736  31.417  27.242  1.00  0.00     0.091 A 
ATOM     93  F   UNL A   1      44.301  30.429  28.868  1.00  0.00    -0.205 F 
ATOM     94  C   UNL A   1      47.025  31.567  26.708  1.00  0.00     0.022 A 
BRANCH  92  95
ATOM     95  S   UNL A   1      44.372  32.238  26.419  1.00  0.00     0.127 S 
ATOM     96  O   UNL A   1      45.023  32.802  25.240  1.00  0.00    -0.237 OA
ATOM     97  O   UNL A   1      43.459  31.126  26.145  1.00  0.00    -0.237 OA
ATOM     98  O   UNL A   1      43.852  33.209  27.374  1.00  0.00    -0.744 OA
ENDBRANCH  92  95
ENDBRANCH  65  88
ENDBRANCH  39  40
ENDBRANCH  31  34
ENDBRANCH  29  30
ENDBRANCH  28  29
ENDBRANCH  27  28
ENDBRANCH   1  27
TORSDOF 20
ENDMDL
MODEL 3
REMARK VINA RESULT:     -10.9      5.349     13.017
REMARK SMILES CC(C)[C@H](C)CNC(=O)N1CC(n2cc(C(=O)NCCCCCCNC(=O)c3ccc(-c4c5nc(c(-c6cccc(S(=O)(=O)[O-])c6F)c6ccc([nH]6)c(-c6cccc(S(=O)(=O)[O-])c6F)c6nc(c(-c7cccc(S(=O)(=O)[O-])c7F)c7ccc4[nH]7)C=C6)C=C5)cc3)nn2)C1
REMARK SMILES IDX 21 1 20 2 19 3 18 4 16 5 17 6 15 8 13 9 14 10 92 11 91 12
REMARK SMILES IDX 12 13 7 14 8 15 9 17 10 18 11 19 93 20 6 21 4 22 5 23 2 24
REMARK SMILES IDX 1 25 3 26 22 27 23 28 24 29 25 30 26 31 27 33 28 34 29 35
REMARK SMILES IDX 90 36 30 37 89 38 31 39 32 40 33 41 83 42 34 43 88 44 82 45
REMARK SMILES IDX 84 46 35 47 87 48 81 49 80 50 36 52 68 53 48 54 67 55 49 56
REMARK SMILES IDX 52 57 66 58 85 59 50 60 51 61 65 63 86 64 53 65 37 66 38 67
REMARK SMILES IDX 46 68 39 69 41 70 47 71 40 72 42 73 43 74 44 75 45 76 69 77
REMARK SMILES IDX 70 78 78 79 71 80 73 81 79 82 72 83 74 84 75 85 76 86 77 87
REMARK SMILES IDX 54 88 55 89 63 90 56 91 58 92 64 93 57 94 59 95 60 96 61 97
REMARK SMILES IDX 62 98
REMARK H PARENT 18 7 7 16 25 32 84 51 52 62
REMARK Flexibility Score: inf
ROOT
ATOM      1  C   UNL A   1      35.323  35.213  33.091  1.00  0.00     0.002 C 
ENDROOT
BRANCH   1   2
ATOM      2  C   UNL A   1      36.094  33.979  33.577  1.00  0.00     0.021 C 
BRANCH   2   3
ATOM      3  C   UNL A   1      37.461  34.303  34.176  1.00  0.00     0.116 C 
BRANCH   3   4
ATOM      4  N   UNL A   1      37.621  33.688  35.479  1.00  0.00    -0.351 N 
ATOM      5  C   UNL A   1      38.498  33.939  36.504  1.00  0.00     0.273 C 
ATOM      6  O   UNL A   1      38.290  33.342  37.567  1.00  0.00    -0.267 OA
ATOM      7  H   UNL A   1      36.987  32.957  35.660  1.00  0.00     0.163 HD
BRANCH   5   8
ATOM      8  C   UNL A   1      39.573  34.916  36.371  1.00  0.00     0.170 A 
ATOM      9  N   UNL A   1      41.395  36.036  35.982  1.00  0.00    -0.245 N 
ATOM     10  C   UNL A   1      40.916  34.759  36.085  1.00  0.00     0.145 A 
ATOM     11  N   UNL A   1      40.438  36.935  36.261  1.00  0.00    -0.066 NA
ATOM     12  N   UNL A   1      39.330  36.263  36.540  1.00  0.00    -0.125 NA
BRANCH   9  13
ATOM     13  C   UNL A   1      42.695  36.355  35.473  1.00  0.00     0.148 C 
ATOM     14  N   UNL A   1      44.884  39.325  33.468  1.00  0.00    -0.338 N 
ATOM     15  C   UNL A   1      44.897  38.615  34.625  1.00  0.00     0.317 C 
ATOM     16  H   UNL A   1      45.747  39.376  32.999  1.00  0.00     0.165 HD
ATOM     17  O   UNL A   1      45.967  38.491  35.220  1.00  0.00    -0.249 OA
ATOM     18  N   UNL A   1      43.739  38.089  35.097  1.00  0.00    -0.320 N 
ATOM     19  C   UNL A   1      43.536  37.317  36.323  1.00  0.00     0.150 C 
ATOM     20  C   UNL A   1      42.596  37.492  34.430  1.00  0.00     0.150 C 
BRANCH  14  21
ATOM     21  C   UNL A   1      43.785  40.022  32.818  1.00  0.00     0.121 C 
BRANCH  21  22
ATOM     22  C   UNL A   1      43.658  41.478  33.320  1.00  0.00     0.008 C 
ATOM     23  C   UNL A   1      44.933  42.269  32.968  1.00  0.00     0.010 C 
BRANCH  22  24
ATOM     24  C   UNL A   1      42.417  42.267  32.789  1.00  0.00    -0.013 C 
ATOM     25  C   UNL A   1      42.570  43.788  32.741  1.00  0.00     0.008 C 
ATOM     26  C   UNL A   1      42.036  41.760  31.391  1.00  0.00     0.008 C 
ENDBRANCH  22  24
ENDBRANCH  21  22
ENDBRANCH  14  21
ENDBRANCH   9  13
ENDBRANCH   5   8
ENDBRANCH   3   4
ENDBRANCH   2   3
ENDBRANCH   1   2
BRANCH   1  27
ATOM     27  C   UNL A   1      33.798  35.044  32.972  1.00  0.00     0.002 C 
BRANCH  27  28
ATOM     28  C   UNL A   1      33.025  36.237  32.390  1.00  0.00     0.021 C 
BRANCH  28  29
ATOM     29  C   UNL A   1      33.419  36.567  30.959  1.00  0.00     0.116 C 
BRANCH  29  30
ATOM     30  N   UNL A   1      32.667  35.766  29.986  1.00  0.00    -0.352 N 
ATOM     31  C   UNL A   1      33.130  34.765  29.162  1.00  0.00     0.251 C 
ATOM     32  H   UNL A   1      31.706  35.971  29.913  1.00  0.00     0.163 HD
ATOM     33  O   UNL A   1      32.498  34.433  28.154  1.00  0.00    -0.269 OA
BRANCH  31  34
ATOM     34  C   UNL A   1      34.379  34.077  29.517  1.00  0.00     0.039 A 
ATOM     35  C   UNL A   1      34.405  32.937  30.327  1.00  0.00     0.014 A 
ATOM     36  C   UNL A   1      35.553  34.607  28.995  1.00  0.00     0.014 A 
ATOM     37  C   UNL A   1      35.627  32.311  30.561  1.00  0.00     0.010 A 
ATOM     38  C   UNL A   1      36.706  33.882  29.048  1.00  0.00     0.010 A 
ATOM     39  C   UNL A   1      36.769  32.798  29.911  1.00  0.00    -0.014 A 
BRANCH  39  40
ATOM     40  C   UNL A   1      38.062  32.136  30.002  1.00  0.00     0.031 A 
ATOM     41  C   UNL A   1      38.033  30.755  29.455  1.00  0.00     0.074 A 
ATOM     42  C   UNL A   1      39.184  32.849  30.257  1.00  0.00     0.049 A 
ATOM     43  N   UNL A   1      38.095  29.638  30.103  1.00  0.00    -0.248 NA
ATOM     44  C   UNL A   1      37.659  30.590  28.037  1.00  0.00     0.031 C 
ATOM     45  C   UNL A   1      39.292  34.312  30.418  1.00  0.00     0.029 A 
ATOM     46  N   UNL A   1      40.487  32.464  30.258  1.00  0.00    -0.354 N 
ATOM     47  C   UNL A   1      38.075  28.651  29.115  1.00  0.00     0.074 A 
ATOM     48  C   UNL A   1      37.498  29.267  27.955  1.00  0.00     0.031 C 
ATOM     49  C   UNL A   1      40.572  34.697  30.227  1.00  0.00     0.029 A 
ATOM     50  C   UNL A   1      41.397  33.513  30.106  1.00  0.00     0.049 A 
ATOM     51  H   UNL A   1      40.767  31.525  30.356  1.00  0.00     0.167 HD
ATOM     52  C   UNL A   1      38.883  27.557  29.209  1.00  0.00     0.034 A 
ATOM     53  C   UNL A   1      42.724  33.408  29.843  1.00  0.00     0.034 A 
ATOM     54  C   UNL A   1      39.440  27.466  30.538  1.00  0.00     0.049 A 
ATOM     55  C   UNL A   1      43.113  32.021  30.166  1.00  0.00     0.074 A 
ATOM     56  C   UNL A   1      38.959  27.291  31.815  1.00  0.00     0.029 A 
ATOM     57  N   UNL A   1      40.697  28.008  30.646  1.00  0.00    -0.354 N 
ATOM     58  N   UNL A   1      43.077  31.525  31.371  1.00  0.00    -0.248 NA
ATOM     59  C   UNL A   1      43.152  31.048  29.085  1.00  0.00     0.031 C 
ATOM     60  C   UNL A   1      39.831  28.046  32.653  1.00  0.00     0.029 A 
ATOM     61  C   UNL A   1      40.853  28.589  31.870  1.00  0.00     0.049 A 
ATOM     62  H   UNL A   1      41.385  27.980  29.943  1.00  0.00     0.167 HD
ATOM     63  C   UNL A   1      42.617  30.230  31.186  1.00  0.00     0.074 A 
ATOM     64  C   UNL A   1      42.842  29.945  29.771  1.00  0.00     0.031 C 
ATOM     65  C   UNL A   1      41.812  29.645  32.119  1.00  0.00     0.034 A 
BRANCH  52  66
ATOM     66  C   UNL A   1      39.588  26.865  28.046  1.00  0.00     0.023 A 
ATOM     67  C   UNL A   1      39.333  25.481  27.889  1.00  0.00     0.012 A 
ATOM     68  C   UNL A   1      40.678  27.386  27.310  1.00  0.00     0.148 A 
ATOM     69  C   UNL A   1      40.156  24.656  27.111  1.00  0.00     0.002 A 
ATOM     70  C   UNL A   1      41.453  26.578  26.483  1.00  0.00     0.091 A 
ATOM     71  F   UNL A   1      41.073  28.647  27.482  1.00  0.00    -0.205 F 
ATOM     72  C   UNL A   1      41.218  25.205  26.406  1.00  0.00     0.022 A 
BRANCH  70  73
ATOM     73  S   UNL A   1      42.822  27.245  25.524  1.00  0.00     0.127 S 
ATOM     74  O   UNL A   1      43.688  27.766  26.577  1.00  0.00    -0.237 OA
ATOM     75  O   UNL A   1      43.316  26.046  24.846  1.00  0.00    -0.237 OA
ATOM     76  O   UNL A   1      42.238  28.238  24.630  1.00  0.00    -0.744 OA
ENDBRANCH  70  73
ENDBRANCH  52  66
BRANCH  53  77
ATOM     77  C   UNL A   1      43.639  34.308  29.097  1.00  0.00     0.023 A 
ATOM     78  C   UNL A   1      43.811  34.143  27.707  1.00  0.00     0.012 A 
ATOM     79  C   UNL A   1      44.105  35.503  29.688  1.00  0.00     0.148 A 
ATOM     80  C   UNL A   1      44.396  35.149  26.925  1.00  0.00     0.002 A 
ATOM     81  C   UNL A   1      44.686  36.500  28.907  1.00  0.00     0.091 A 
ATOM     82  F   UNL A   1      43.894  35.694  30.996  1.00  0.00    -0.205 F 
ATOM     83  C   UNL A   1      44.822  36.331  27.522  1.00  0.00     0.022 A 
BRANCH  81  84
ATOM     84  S   UNL A   1      45.224  38.072  29.597  1.00  0.00     0.127 S 
ATOM     85  O   UNL A   1      43.984  38.847  29.580  1.00  0.00    -0.237 OA
ATOM     86  O   UNL A   1      45.685  37.678  30.927  1.00  0.00    -0.237 OA
ATOM     87  O   UNL A   1      46.260  38.569  28.699  1.00  0.00    -0.744 OA
ENDBRANCH  81  84
ENDBRANCH  53  77
BRANCH  65  88
ATOM     88  C   UNL A   1      41.788  30.245  33.498  1.00  0.00     0.023 A 
ATOM     89  C   UNL A   1      40.736  31.048  33.983  1.00  0.00     0.012 A 
ATOM     90  C   UNL A   1      42.793  29.823  34.381  1.00  0.00     0.148 A 
ATOM     91  C   UNL A   1      40.697  31.421  35.331  1.00  0.00     0.002 A 
ATOM     92  C   UNL A   1      42.721  30.148  35.725  1.00  0.00     0.091 A 
ATOM     93  F   UNL A   1      43.787  29.067  33.888  1.00  0.00    -0.205 F 
ATOM     94  C   UNL A   1      41.679  30.956  36.206  1.00  0.00     0.022 A 
BRANCH  92  95
ATOM     95  S   UNL A   1      43.874  29.454  36.907  1.00  0.00     0.127 S 
ATOM     96  O   UNL A   1      43.389  28.082  37.039  1.00  0.00    -0.237 OA
ATOM     97  O   UNL A   1      45.154  29.589  36.210  1.00  0.00    -0.237 OA
ATOM     98  O   UNL A   1      43.764  30.275  38.107  1.00  0.00    -0.744 OA
ENDBRANCH  92  95
ENDBRANCH  65  88
ENDBRANCH  39  40
ENDBRANCH  31  34
ENDBRANCH  29  30
ENDBRANCH  28  29
ENDBRANCH  27  28
ENDBRANCH   1  27
TORSDOF 20
ENDMDL
