MODEL 1
REMARK VINA RESULT:     -11.7      0.000      0.000
REMARK SMILES NC(=O)CC[N@@H+]1[C@@H](C(=O)NCCCCCCNC(=O)c2ccc(-c3c4nc(c(-c5cccc(S(=O)(=O)[O-])c5F)c5ccc([nH]5)c(-c5cccc(S(=O)(=O)[O-])c5F)c5nc(c(-c6cccc(S(=O)(=O)[O-])c6F)c6ccc3[nH]6)C=C5)C=C4)cc2)CC[C@@H]2CCCC[C@H]21
REMARK SMILES IDX 13 1 12 2 11 3 10 4 8 5 9 6 7 8 6 9 90 10 83 12 85 13 89 14
REMARK SMILES IDX 84 15 86 16 88 17 87 18 5 19 4 20 2 21 1 22 3 25 14 26 15 27
REMARK SMILES IDX 16 28 17 29 18 30 19 32 20 33 21 34 82 35 22 36 81 37 23 38
REMARK SMILES IDX 24 39 25 40 75 41 26 42 80 43 74 44 76 45 27 46 79 47 73 48
REMARK SMILES IDX 72 49 28 51 60 52 40 53 59 54 41 55 44 56 58 57 77 58 42 59
REMARK SMILES IDX 43 60 57 62 78 63 45 64 29 65 30 66 38 67 31 68 33 69 39 70
REMARK SMILES IDX 32 71 34 72 35 73 36 74 37 75 61 76 62 77 70 78 63 79 65 80
REMARK SMILES IDX 71 81 64 82 66 83 67 84 68 85 69 86 46 87 47 88 55 89 48 90
REMARK SMILES IDX 50 91 56 92 49 93 51 94 52 95 53 96 54 97
REMARK H PARENT 10 7 6 11 1 23 1 24 17 31 76 50 44 61
REMARK Flexibility Score: inf
ROOT
ATOM      1  C   UNL A   1      30.679  27.615  24.501  1.00  0.00     0.002 C 
ENDROOT
BRANCH   1   2
ATOM      2  C   UNL A   1      29.527  26.713  24.034  1.00  0.00     0.021 C 
BRANCH   2   3
ATOM      3  C   UNL A   1      29.828  25.219  24.184  1.00  0.00     0.116 C 
BRANCH   3   4
ATOM      4  N   UNL A   1      30.107  24.935  25.574  1.00  0.00    -0.351 N 
ATOM      5  C   UNL A   1      31.177  24.293  26.111  1.00  0.00     0.278 C 
ATOM      6  O   UNL A   1      31.058  23.850  27.259  1.00  0.00    -0.268 OA
ATOM      7  H   UNL A   1      29.431  25.250  26.218  1.00  0.00     0.163 HD
BRANCH   5   8
ATOM      8  C   UNL A   1      32.514  24.167  25.344  1.00  0.00     0.274 C 
ATOM      9  N   UNL A   1      33.120  22.829  25.579  1.00  0.00    -0.322 N 
ATOM     10  C   UNL A   1      34.550  22.656  25.260  1.00  0.00     0.187 C 
ATOM     11  H   UNL A   1      33.137  22.805  26.599  1.00  0.00     0.349 HD
ATOM     12  C   UNL A   1      33.424  25.378  25.577  1.00  0.00     0.076 C 
ATOM     13  C   UNL A   1      35.412  23.904  25.571  1.00  0.00     0.048 C 
ATOM     14  C   UNL A   1      35.190  21.466  26.022  1.00  0.00     0.065 C 
ATOM     15  C   UNL A   1      34.798  25.163  24.966  1.00  0.00     0.016 C 
ATOM     16  C   UNL A   1      36.849  23.699  25.067  1.00  0.00     0.010 C 
ATOM     17  C   UNL A   1      36.629  21.227  25.556  1.00  0.00     0.006 C 
ATOM     18  C   UNL A   1      37.495  22.470  25.705  1.00  0.00     0.001 C 
BRANCH   9  19
ATOM     19  C   UNL A   1      32.269  21.689  25.147  1.00  0.00     0.273 C 
BRANCH  19  20
ATOM     20  C   UNL A   1      32.822  20.518  24.319  1.00  0.00     0.161 C 
BRANCH  20  21
ATOM     21  C   UNL A   1      32.615  19.118  24.854  1.00  0.00     0.223 C 
ATOM     22  N   UNL A   1      32.902  18.887  26.160  1.00  0.00    -0.369 N 
ATOM     23  H   UNL A   1      32.778  17.987  26.540  1.00  0.00     0.159 HD
ATOM     24  H   UNL A   1      33.234  19.619  26.728  1.00  0.00     0.159 HD
ATOM     25  O   UNL A   1      32.291  18.177  24.132  1.00  0.00    -0.275 OA
ENDBRANCH  20  21
ENDBRANCH  19  20
ENDBRANCH   9  19
ENDBRANCH   5   8
ENDBRANCH   3   4
ENDBRANCH   2   3
ENDBRANCH   1   2
BRANCH   1  26
ATOM     26  C   UNL A   1      31.826  27.747  23.496  1.00  0.00     0.002 C 
BRANCH  26  27
ATOM     27  C   UNL A   1      32.749  28.940  23.751  1.00  0.00     0.021 C 
BRANCH  27  28
ATOM     28  C   UNL A   1      33.071  29.168  25.221  1.00  0.00     0.116 C 
BRANCH  28  29
ATOM     29  N   UNL A   1      32.495  30.411  25.709  1.00  0.00    -0.352 N 
ATOM     30  C   UNL A   1      32.871  31.163  26.794  1.00  0.00     0.251 C 
ATOM     31  H   UNL A   1      31.733  30.760  25.191  1.00  0.00     0.163 HD
ATOM     32  O   UNL A   1      32.147  32.057  27.210  1.00  0.00    -0.269 OA
BRANCH  30  33
ATOM     33  C   UNL A   1      34.157  30.864  27.459  1.00  0.00     0.039 A 
ATOM     34  C   UNL A   1      35.081  31.894  27.639  1.00  0.00     0.014 A 
ATOM     35  C   UNL A   1      34.435  29.571  27.913  1.00  0.00     0.014 A 
ATOM     36  C   UNL A   1      36.271  31.635  28.322  1.00  0.00     0.010 A 
ATOM     37  C   UNL A   1      35.581  29.337  28.663  1.00  0.00     0.010 A 
ATOM     38  C   UNL A   1      36.518  30.362  28.862  1.00  0.00    -0.014 A 
BRANCH  38  39
ATOM     39  C   UNL A   1      37.749  30.085  29.642  1.00  0.00     0.031 A 
ATOM     40  C   UNL A   1      38.804  29.163  29.090  1.00  0.00     0.074 A 
ATOM     41  C   UNL A   1      37.884  30.600  30.879  1.00  0.00     0.049 A 
ATOM     42  N   UNL A   1      39.924  28.772  29.637  1.00  0.00    -0.248 NA
ATOM     43  C   UNL A   1      38.552  28.584  27.759  1.00  0.00     0.031 C 
ATOM     44  C   UNL A   1      36.895  31.445  31.555  1.00  0.00     0.029 A 
ATOM     45  N   UNL A   1      38.894  30.472  31.798  1.00  0.00    -0.354 N 
ATOM     46  C   UNL A   1      40.494  27.878  28.739  1.00  0.00     0.074 A 
ATOM     47  C   UNL A   1      39.576  27.753  27.628  1.00  0.00     0.031 C 
ATOM     48  C   UNL A   1      37.354  31.767  32.775  1.00  0.00     0.029 A 
ATOM     49  C   UNL A   1      38.649  31.127  32.982  1.00  0.00     0.049 A 
ATOM     50  H   UNL A   1      39.718  29.960  31.626  1.00  0.00     0.167 HD
ATOM     51  C   UNL A   1      41.687  27.241  28.815  1.00  0.00     0.034 A 
ATOM     52  C   UNL A   1      39.381  31.198  34.111  1.00  0.00     0.034 A 
ATOM     53  C   UNL A   1      42.610  27.394  29.907  1.00  0.00     0.049 A 
ATOM     54  C   UNL A   1      40.714  30.502  34.162  1.00  0.00     0.074 A 
ATOM     55  C   UNL A   1      43.880  26.862  30.041  1.00  0.00     0.029 A 
ATOM     56  N   UNL A   1      42.358  28.121  31.060  1.00  0.00    -0.354 N 
ATOM     57  N   UNL A   1      41.308  29.788  33.237  1.00  0.00    -0.248 NA
ATOM     58  C   UNL A   1      41.493  30.650  35.398  1.00  0.00     0.031 C 
ATOM     59  C   UNL A   1      44.381  27.239  31.291  1.00  0.00     0.029 A 
ATOM     60  C   UNL A   1      43.441  28.038  31.919  1.00  0.00     0.049 A 
ATOM     61  H   UNL A   1      41.530  28.623  31.241  1.00  0.00     0.167 HD
ATOM     62  C   UNL A   1      42.544  29.431  33.764  1.00  0.00     0.074 A 
ATOM     63  C   UNL A   1      42.620  30.027  35.082  1.00  0.00     0.031 C 
ATOM     64  C   UNL A   1      43.521  28.672  33.212  1.00  0.00     0.034 A 
BRANCH  51  65
ATOM     65  C   UNL A   1      42.076  26.350  27.664  1.00  0.00     0.023 A 
ATOM     66  C   UNL A   1      42.750  26.898  26.550  1.00  0.00     0.012 A 
ATOM     67  C   UNL A   1      41.815  24.966  27.697  1.00  0.00     0.148 A 
ATOM     68  C   UNL A   1      43.115  26.093  25.472  1.00  0.00     0.002 A 
ATOM     69  C   UNL A   1      42.227  24.162  26.640  1.00  0.00     0.091 A 
ATOM     70  F   UNL A   1      41.157  24.465  28.751  1.00  0.00    -0.205 F 
ATOM     71  C   UNL A   1      42.863  24.725  25.522  1.00  0.00     0.022 A 
BRANCH  69  72
ATOM     72  S   UNL A   1      42.024  22.377  26.646  1.00  0.00     0.127 S 
ATOM     73  O   UNL A   1      42.625  22.009  25.364  1.00  0.00    -0.237 OA
ATOM     74  O   UNL A   1      42.802  21.983  27.820  1.00  0.00    -0.237 OA
ATOM     75  O   UNL A   1      40.592  22.136  26.756  1.00  0.00    -0.744 OA
ENDBRANCH  69  72
ENDBRANCH  51  65
BRANCH  52  76
ATOM     76  C   UNL A   1      38.896  32.011  35.261  1.00  0.00     0.023 A 
ATOM     77  C   UNL A   1      38.966  33.416  35.195  1.00  0.00     0.012 A 
ATOM     78  C   UNL A   1      38.335  31.404  36.402  1.00  0.00     0.148 A 
ATOM     79  C   UNL A   1      38.516  34.201  36.257  1.00  0.00     0.002 A 
ATOM     80  C   UNL A   1      37.837  32.193  37.431  1.00  0.00     0.091 A 
ATOM     81  F   UNL A   1      38.283  30.065  36.446  1.00  0.00    -0.205 F 
ATOM     82  C   UNL A   1      37.943  33.592  37.370  1.00  0.00     0.022 A 
BRANCH  80  83
ATOM     83  S   UNL A   1      36.966  31.502  38.841  1.00  0.00     0.127 S 
ATOM     84  O   UNL A   1      37.942  31.682  39.914  1.00  0.00    -0.237 OA
ATOM     85  O   UNL A   1      35.791  32.371  38.923  1.00  0.00    -0.237 OA
ATOM     86  O   UNL A   1      36.669  30.121  38.486  1.00  0.00    -0.744 OA
ENDBRANCH  80  83
ENDBRANCH  52  76
BRANCH  64  87
ATOM     87  C   UNL A   1      44.781  28.465  34.012  1.00  0.00     0.023 A 
ATOM     88  C   UNL A   1      45.844  29.383  33.906  1.00  0.00     0.012 A 
ATOM     89  C   UNL A   1      44.881  27.394  34.924  1.00  0.00     0.148 A 
ATOM     90  C   UNL A   1      47.000  29.221  34.668  1.00  0.00     0.002 A 
ATOM     91  C   UNL A   1      46.015  27.269  35.719  1.00  0.00     0.091 A 
ATOM     92  F   UNL A   1      43.867  26.520  34.998  1.00  0.00    -0.205 F 
ATOM     93  C   UNL A   1      47.081  28.172  35.582  1.00  0.00     0.022 A 
BRANCH  91  94
ATOM     94  S   UNL A   1      46.165  26.011  36.991  1.00  0.00     0.127 S 
ATOM     95  O   UNL A   1      47.235  26.557  37.824  1.00  0.00    -0.237 OA
ATOM     96  O   UNL A   1      44.838  26.035  37.608  1.00  0.00    -0.237 OA
ATOM     97  O   UNL A   1      46.487  24.771  36.297  1.00  0.00    -0.744 OA
ENDBRANCH  91  94
ENDBRANCH  64  87
ENDBRANCH  38  39
ENDBRANCH  30  33
ENDBRANCH  28  29
ENDBRANCH  27  28
ENDBRANCH  26  27
ENDBRANCH   1  26
TORSDOF 19
ENDMDL
MODEL 2
REMARK VINA RESULT:     -11.6      1.628      7.650
REMARK SMILES NC(=O)CC[N@@H+]1[C@@H](C(=O)NCCCCCCNC(=O)c2ccc(-c3c4nc(c(-c5cccc(S(=O)(=O)[O-])c5F)c5ccc([nH]5)c(-c5cccc(S(=O)(=O)[O-])c5F)c5nc(c(-c6cccc(S(=O)(=O)[O-])c6F)c6ccc3[nH]6)C=C5)C=C4)cc2)CC[C@@H]2CCCC[C@H]21
REMARK SMILES IDX 13 1 12 2 11 3 10 4 8 5 9 6 7 8 6 9 90 10 83 12 85 13 89 14
REMARK SMILES IDX 84 15 86 16 88 17 87 18 5 19 4 20 2 21 1 22 3 25 14 26 15 27
REMARK SMILES IDX 16 28 17 29 18 30 19 32 20 33 21 34 82 35 22 36 81 37 23 38
REMARK SMILES IDX 24 39 25 40 75 41 26 42 80 43 74 44 76 45 27 46 79 47 73 48
REMARK SMILES IDX 72 49 28 51 60 52 40 53 59 54 41 55 44 56 58 57 77 58 42 59
REMARK SMILES IDX 43 60 57 62 78 63 45 64 29 65 30 66 38 67 31 68 33 69 39 70
REMARK SMILES IDX 32 71 34 72 35 73 36 74 37 75 61 76 62 77 70 78 63 79 65 80
REMARK SMILES IDX 71 81 64 82 66 83 67 84 68 85 69 86 46 87 47 88 55 89 48 90
REMARK SMILES IDX 50 91 56 92 49 93 51 94 52 95 53 96 54 97
REMARK H PARENT 10 7 6 11 1 23 1 24 17 31 76 50 44 61
REMARK Flexibility Score: inf
ROOT
ATOM      1  C   UNL A   1      30.575  27.029  24.977  1.00  0.00     0.002 C 
ENDROOT
BRANCH   1   2
ATOM      2  C   UNL A   1      30.933  26.184  23.745  1.00  0.00     0.021 C 
BRANCH   2   3
ATOM      3  C   UNL A   1      30.278  24.800  23.747  1.00  0.00     0.116 C 
BRANCH   3   4
ATOM      4  N   UNL A   1      30.474  24.192  25.045  1.00  0.00    -0.351 N 
ATOM      5  C   UNL A   1      31.402  23.275  25.421  1.00  0.00     0.278 C 
ATOM      6  O   UNL A   1      31.183  22.634  26.455  1.00  0.00    -0.268 OA
ATOM      7  H   UNL A   1      29.849  24.481  25.749  1.00  0.00     0.163 HD
BRANCH   5   8
ATOM      8  C   UNL A   1      32.713  23.076  24.625  1.00  0.00     0.274 C 
ATOM      9  N   UNL A   1      33.297  21.739  24.917  1.00  0.00    -0.322 N 
ATOM     10  C   UNL A   1      34.713  21.516  24.566  1.00  0.00     0.187 C 
ATOM     11  H   UNL A   1      33.343  21.771  25.935  1.00  0.00     0.349 HD
ATOM     12  C   UNL A   1      33.655  24.277  24.763  1.00  0.00     0.076 C 
ATOM     13  C   UNL A   1      35.609  22.759  24.783  1.00  0.00     0.048 C 
ATOM     14  C   UNL A   1      35.349  20.356  25.376  1.00  0.00     0.065 C 
ATOM     15  C   UNL A   1      35.006  23.997  24.126  1.00  0.00     0.016 C 
ATOM     16  C   UNL A   1      37.026  22.493  24.250  1.00  0.00     0.010 C 
ATOM     17  C   UNL A   1      36.768  20.058  24.883  1.00  0.00     0.006 C 
ATOM     18  C   UNL A   1      37.664  21.287  24.937  1.00  0.00     0.001 C 
BRANCH   9  19
ATOM     19  C   UNL A   1      32.408  20.598  24.574  1.00  0.00     0.273 C 
BRANCH  19  20
ATOM     20  C   UNL A   1      32.381  19.971  23.170  1.00  0.00     0.161 C 
BRANCH  20  21
ATOM     21  C   UNL A   1      32.331  18.462  23.073  1.00  0.00     0.223 C 
ATOM     22  N   UNL A   1      32.153  17.756  24.218  1.00  0.00    -0.369 N 
ATOM     23  H   UNL A   1      32.115  16.773  24.191  1.00  0.00     0.159 HD
ATOM     24  H   UNL A   1      32.063  18.228  25.078  1.00  0.00     0.159 HD
ATOM     25  O   UNL A   1      32.536  17.862  22.020  1.00  0.00    -0.275 OA
ENDBRANCH  20  21
ENDBRANCH  19  20
ENDBRANCH   9  19
ENDBRANCH   5   8
ENDBRANCH   3   4
ENDBRANCH   2   3
ENDBRANCH   1   2
BRANCH   1  26
ATOM     26  C   UNL A   1      31.767  27.383  25.870  1.00  0.00     0.002 C 
BRANCH  26  27
ATOM     27  C   UNL A   1      31.721  28.799  26.445  1.00  0.00     0.021 C 
BRANCH  27  28
ATOM     28  C   UNL A   1      32.834  29.707  25.941  1.00  0.00     0.116 C 
BRANCH  28  29
ATOM     29  N   UNL A   1      32.593  31.096  26.293  1.00  0.00    -0.352 N 
ATOM     30  C   UNL A   1      33.222  31.862  27.243  1.00  0.00     0.251 C 
ATOM     31  H   UNL A   1      31.883  31.549  25.782  1.00  0.00     0.163 HD
ATOM     32  O   UNL A   1      32.754  32.941  27.580  1.00  0.00    -0.269 OA
BRANCH  30  33
ATOM     33  C   UNL A   1      34.466  31.355  27.860  1.00  0.00     0.039 A 
ATOM     34  C   UNL A   1      35.553  32.219  28.001  1.00  0.00     0.014 A 
ATOM     35  C   UNL A   1      34.545  30.033  28.309  1.00  0.00     0.014 A 
ATOM     36  C   UNL A   1      36.709  31.767  28.639  1.00  0.00     0.010 A 
ATOM     37  C   UNL A   1      35.664  29.612  29.016  1.00  0.00     0.010 A 
ATOM     38  C   UNL A   1      36.764  30.468  29.176  1.00  0.00    -0.014 A 
BRANCH  38  39
ATOM     39  C   UNL A   1      37.961  29.992  29.910  1.00  0.00     0.031 A 
ATOM     40  C   UNL A   1      38.238  30.483  31.306  1.00  0.00     0.074 A 
ATOM     41  C   UNL A   1      38.840  29.178  29.294  1.00  0.00     0.049 A 
ATOM     42  N   UNL A   1      39.249  30.211  32.089  1.00  0.00    -0.248 NA
ATOM     43  C   UNL A   1      37.267  31.425  31.886  1.00  0.00     0.031 C 
ATOM     44  C   UNL A   1      38.722  28.695  27.915  1.00  0.00     0.029 A 
ATOM     45  N   UNL A   1      40.018  28.631  29.736  1.00  0.00    -0.354 N 
ATOM     46  C   UNL A   1      39.055  30.970  33.236  1.00  0.00     0.074 A 
ATOM     47  C   UNL A   1      37.851  31.746  33.031  1.00  0.00     0.031 C 
ATOM     48  C   UNL A   1      39.777  27.915  27.631  1.00  0.00     0.029 A 
ATOM     49  C   UNL A   1      40.662  27.871  28.790  1.00  0.00     0.049 A 
ATOM     50  H   UNL A   1      40.368  28.770  30.646  1.00  0.00     0.167 HD
ATOM     51  C   UNL A   1      39.794  30.998  34.371  1.00  0.00     0.034 A 
ATOM     52  C   UNL A   1      41.839  27.216  28.845  1.00  0.00     0.034 A 
ATOM     53  C   UNL A   1      40.972  30.201  34.582  1.00  0.00     0.049 A 
ATOM     54  C   UNL A   1      42.629  27.243  30.126  1.00  0.00     0.074 A 
ATOM     55  C   UNL A   1      41.743  30.090  35.726  1.00  0.00     0.029 A 
ATOM     56  N   UNL A   1      41.559  29.388  33.625  1.00  0.00    -0.354 N 
ATOM     57  N   UNL A   1      42.348  27.843  31.257  1.00  0.00    -0.248 NA
ATOM     58  C   UNL A   1      43.881  26.475  30.149  1.00  0.00     0.031 C 
ATOM     59  C   UNL A   1      42.816  29.238  35.448  1.00  0.00     0.029 A 
ATOM     60  C   UNL A   1      42.692  28.786  34.144  1.00  0.00     0.049 A 
ATOM     61  H   UNL A   1      41.219  29.258  32.710  1.00  0.00     0.167 HD
ATOM     62  C   UNL A   1      43.367  27.496  32.137  1.00  0.00     0.074 A 
ATOM     63  C   UNL A   1      44.260  26.617  31.411  1.00  0.00     0.031 C 
ATOM     64  C   UNL A   1      43.551  27.879  33.424  1.00  0.00     0.034 A 
BRANCH  51  65
ATOM     65  C   UNL A   1      39.323  31.895  35.488  1.00  0.00     0.023 A 
ATOM     66  C   UNL A   1      38.407  31.403  36.442  1.00  0.00     0.012 A 
ATOM     67  C   UNL A   1      39.814  33.209  35.618  1.00  0.00     0.148 A 
ATOM     68  C   UNL A   1      37.955  32.216  37.480  1.00  0.00     0.002 A 
ATOM     69  C   UNL A   1      39.396  33.997  36.685  1.00  0.00     0.091 A 
ATOM     70  F   UNL A   1      40.667  33.668  34.692  1.00  0.00    -0.205 F 
ATOM     71  C   UNL A   1      38.457  33.507  37.607  1.00  0.00     0.022 A 
BRANCH  69  72
ATOM     72  S   UNL A   1      40.046  35.645  36.984  1.00  0.00     0.127 S 
ATOM     73  O   UNL A   1      41.480  35.379  37.099  1.00  0.00    -0.237 OA
ATOM     74  O   UNL A   1      39.653  36.355  35.767  1.00  0.00    -0.237 OA
ATOM     75  O   UNL A   1      39.399  36.117  38.200  1.00  0.00    -0.744 OA
ENDBRANCH  69  72
ENDBRANCH  51  65
BRANCH  52  76
ATOM     76  C   UNL A   1      42.307  26.429  27.671  1.00  0.00     0.023 A 
ATOM     77  C   UNL A   1      43.146  27.039  26.718  1.00  0.00     0.012 A 
ATOM     78  C   UNL A   1      41.956  25.075  27.510  1.00  0.00     0.148 A 
ATOM     79  C   UNL A   1      43.601  26.324  25.609  1.00  0.00     0.002 A 
ATOM     80  C   UNL A   1      42.459  24.353  26.434  1.00  0.00     0.091 A 
ATOM     81  F   UNL A   1      41.152  24.516  28.425  1.00  0.00    -0.205 F 
ATOM     82  C   UNL A   1      43.266  24.980  25.472  1.00  0.00     0.022 A 
BRANCH  80  83
ATOM     83  S   UNL A   1      42.188  22.587  26.246  1.00  0.00     0.127 S 
ATOM     84  O   UNL A   1      42.907  22.305  25.006  1.00  0.00    -0.237 OA
ATOM     85  O   UNL A   1      42.814  22.057  27.458  1.00  0.00    -0.237 OA
ATOM     86  O   UNL A   1      40.743  22.412  26.191  1.00  0.00    -0.744 OA
ENDBRANCH  80  83
ENDBRANCH  52  76
BRANCH  64  87
ATOM     87  C   UNL A   1      44.747  27.324  34.153  1.00  0.00     0.023 A 
ATOM     88  C   UNL A   1      45.962  28.038  34.161  1.00  0.00     0.012 A 
ATOM     89  C   UNL A   1      44.644  26.127  34.891  1.00  0.00     0.148 A 
ATOM     90  C   UNL A   1      47.065  27.552  34.862  1.00  0.00     0.002 A 
ATOM     91  C   UNL A   1      45.731  25.677  35.630  1.00  0.00     0.091 A 
ATOM     92  F   UNL A   1      43.485  25.454  34.858  1.00  0.00    -0.205 F 
ATOM     93  C   UNL A   1      46.947  26.379  35.605  1.00  0.00     0.022 A 
BRANCH  91  94
ATOM     94  S   UNL A   1      45.641  24.234  36.695  1.00  0.00     0.127 S 
ATOM     95  O   UNL A   1      46.993  24.190  37.252  1.00  0.00    -0.237 OA
ATOM     96  O   UNL A   1      44.600  24.619  37.649  1.00  0.00    -0.237 OA
ATOM     97  O   UNL A   1      45.287  23.116  35.830  1.00  0.00    -0.744 OA
ENDBRANCH  91  94
ENDBRANCH  64  87
ENDBRANCH  38  39
ENDBRANCH  30  33
ENDBRANCH  28  29
ENDBRANCH  27  28
ENDBRANCH  26  27
ENDBRANCH   1  26
TORSDOF 19
ENDMDL
MODEL 3
REMARK VINA RESULT:     -11.6      5.397     10.574
REMARK SMILES NC(=O)CC[N@@H+]1[C@@H](C(=O)NCCCCCCNC(=O)c2ccc(-c3c4nc(c(-c5cccc(S(=O)(=O)[O-])c5F)c5ccc([nH]5)c(-c5cccc(S(=O)(=O)[O-])c5F)c5nc(c(-c6cccc(S(=O)(=O)[O-])c6F)c6ccc3[nH]6)C=C5)C=C4)cc2)CC[C@@H]2CCCC[C@H]21
REMARK SMILES IDX 13 1 12 2 11 3 10 4 8 5 9 6 7 8 6 9 90 10 83 12 85 13 89 14
REMARK SMILES IDX 84 15 86 16 88 17 87 18 5 19 4 20 2 21 1 22 3 25 14 26 15 27
REMARK SMILES IDX 16 28 17 29 18 30 19 32 20 33 21 34 82 35 22 36 81 37 23 38
REMARK SMILES IDX 24 39 25 40 75 41 26 42 80 43 74 44 76 45 27 46 79 47 73 48
REMARK SMILES IDX 72 49 28 51 60 52 40 53 59 54 41 55 44 56 58 57 77 58 42 59
REMARK SMILES IDX 43 60 57 62 78 63 45 64 29 65 30 66 38 67 31 68 33 69 39 70
REMARK SMILES IDX 32 71 34 72 35 73 36 74 37 75 61 76 62 77 70 78 63 79 65 80
REMARK SMILES IDX 71 81 64 82 66 83 67 84 68 85 69 86 46 87 47 88 55 89 48 90
REMARK SMILES IDX 50 91 56 92 49 93 51 94 52 95 53 96 54 97
REMARK H PARENT 10 7 6 11 1 23 1 24 17 31 76 50 44 61
REMARK Flexibility Score: inf
ROOT
ATOM      1  C   UNL A   1      36.543  22.068  25.779  1.00  0.00     0.002 C 
ENDROOT
BRANCH   1   2
ATOM      2  C   UNL A   1      35.272  22.731  26.331  1.00  0.00     0.021 C 
BRANCH   2   3
ATOM      3  C   UNL A   1      35.085  24.175  25.855  1.00  0.00     0.116 C 
BRANCH   3   4
ATOM      4  N   UNL A   1      35.017  24.186  24.410  1.00  0.00    -0.351 N 
ATOM      5  C   UNL A   1      34.127  24.823  23.607  1.00  0.00     0.278 C 
ATOM      6  O   UNL A   1      34.029  24.429  22.440  1.00  0.00    -0.268 OA
ATOM      7  H   UNL A   1      35.710  23.660  23.948  1.00  0.00     0.163 HD
BRANCH   5   8
ATOM      8  C   UNL A   1      33.307  26.035  24.108  1.00  0.00     0.274 C 
ATOM      9  N   UNL A   1      31.851  25.779  23.942  1.00  0.00    -0.322 N 
ATOM     10  C   UNL A   1      30.939  26.937  23.998  1.00  0.00     0.187 C 
ATOM     11  H   UNL A   1      31.814  25.539  22.952  1.00  0.00     0.349 HD
ATOM     12  C   UNL A   1      33.836  27.358  23.542  1.00  0.00     0.076 C 
ATOM     13  C   UNL A   1      31.523  28.220  23.360  1.00  0.00     0.048 C 
ATOM     14  C   UNL A   1      29.585  26.660  23.292  1.00  0.00     0.065 C 
ATOM     15  C   UNL A   1      32.920  28.517  23.897  1.00  0.00     0.016 C 
ATOM     16  C   UNL A   1      30.581  29.410  23.597  1.00  0.00     0.010 C 
ATOM     17  C   UNL A   1      28.612  27.825  23.497  1.00  0.00     0.006 C 
ATOM     18  C   UNL A   1      29.193  29.148  23.017  1.00  0.00     0.001 C 
BRANCH   9  19
ATOM     19  C   UNL A   1      31.354  24.588  24.681  1.00  0.00     0.273 C 
BRANCH  19  20
ATOM     20  C   UNL A   1      31.428  24.483  26.213  1.00  0.00     0.161 C 
BRANCH  20  21
ATOM     21  C   UNL A   1      31.272  23.111  26.833  1.00  0.00     0.223 C 
ATOM     22  N   UNL A   1      30.201  22.364  26.463  1.00  0.00    -0.369 N 
ATOM     23  H   UNL A   1      30.070  21.467  26.848  1.00  0.00     0.159 HD
ATOM     24  H   UNL A   1      29.554  22.720  25.811  1.00  0.00     0.159 HD
ATOM     25  O   UNL A   1      32.020  22.698  27.716  1.00  0.00    -0.275 OA
ENDBRANCH  20  21
ENDBRANCH  19  20
ENDBRANCH   9  19
ENDBRANCH   5   8
ENDBRANCH   3   4
ENDBRANCH   2   3
ENDBRANCH   1   2
BRANCH   1  26
ATOM     26  C   UNL A   1      36.294  20.775  24.998  1.00  0.00     0.002 C 
BRANCH  26  27
ATOM     27  C   UNL A   1      37.496  19.830  24.951  1.00  0.00     0.021 C 
BRANCH  27  28
ATOM     28  C   UNL A   1      38.753  20.398  25.595  1.00  0.00     0.116 C 
BRANCH  28  29
ATOM     29  N   UNL A   1      39.708  19.351  25.918  1.00  0.00    -0.352 N 
ATOM     30  C   UNL A   1      41.046  19.469  26.204  1.00  0.00     0.251 C 
ATOM     31  H   UNL A   1      39.348  18.435  25.935  1.00  0.00     0.163 HD
ATOM     32  O   UNL A   1      41.765  18.479  26.228  1.00  0.00    -0.269 OA
BRANCH  30  33
ATOM     33  C   UNL A   1      41.605  20.811  26.467  1.00  0.00     0.039 A 
ATOM     34  C   UNL A   1      41.813  21.680  25.395  1.00  0.00     0.014 A 
ATOM     35  C   UNL A   1      41.905  21.209  27.773  1.00  0.00     0.014 A 
ATOM     36  C   UNL A   1      42.281  22.972  25.641  1.00  0.00     0.010 A 
ATOM     37  C   UNL A   1      42.292  22.520  28.022  1.00  0.00     0.010 A 
ATOM     38  C   UNL A   1      42.498  23.411  26.958  1.00  0.00    -0.014 A 
BRANCH  38  39
ATOM     39  C   UNL A   1      42.937  24.799  27.242  1.00  0.00     0.031 A 
ATOM     40  C   UNL A   1      41.991  25.775  27.888  1.00  0.00     0.074 A 
ATOM     41  C   UNL A   1      44.160  25.204  26.849  1.00  0.00     0.049 A 
ATOM     42  N   UNL A   1      42.179  27.036  28.178  1.00  0.00    -0.248 NA
ATOM     43  C   UNL A   1      40.646  25.277  28.226  1.00  0.00     0.031 C 
ATOM     44  C   UNL A   1      45.140  24.373  26.143  1.00  0.00     0.029 A 
ATOM     45  N   UNL A   1      44.781  26.422  26.964  1.00  0.00    -0.354 N 
ATOM     46  C   UNL A   1      40.974  27.490  28.699  1.00  0.00     0.074 A 
ATOM     47  C   UNL A   1      40.046  26.380  28.648  1.00  0.00     0.031 C 
ATOM     48  C   UNL A   1      46.241  25.102  25.901  1.00  0.00     0.029 A 
ATOM     49  C   UNL A   1      46.034  26.458  26.399  1.00  0.00     0.049 A 
ATOM     50  H   UNL A   1      44.368  27.198  27.409  1.00  0.00     0.167 HD
ATOM     51  C   UNL A   1      40.672  28.710  29.204  1.00  0.00     0.034 A 
ATOM     52  C   UNL A   1      46.916  27.471  26.288  1.00  0.00     0.034 A 
ATOM     53  C   UNL A   1      41.606  29.800  29.281  1.00  0.00     0.049 A 
ATOM     54  C   UNL A   1      46.566  28.811  26.878  1.00  0.00     0.074 A 
ATOM     55  C   UNL A   1      41.428  31.048  29.852  1.00  0.00     0.029 A 
ATOM     56  N   UNL A   1      42.891  29.779  28.761  1.00  0.00    -0.354 N 
ATOM     57  N   UNL A   1      45.477  29.175  27.509  1.00  0.00    -0.248 NA
ATOM     58  C   UNL A   1      47.581  29.867  26.771  1.00  0.00     0.031 C 
ATOM     59  C   UNL A   1      42.593  31.793  29.645  1.00  0.00     0.029 A 
ATOM     60  C   UNL A   1      43.512  30.997  28.981  1.00  0.00     0.049 A 
ATOM     61  H   UNL A   1      43.302  29.010  28.303  1.00  0.00     0.167 HD
ATOM     62  C   UNL A   1      45.689  30.491  27.907  1.00  0.00     0.074 A 
ATOM     63  C   UNL A   1      47.020  30.850  27.461  1.00  0.00     0.031 C 
ATOM     64  C   UNL A   1      44.854  31.328  28.570  1.00  0.00     0.034 A 
BRANCH  51  65
ATOM     65  C   UNL A   1      39.281  28.916  29.746  1.00  0.00     0.023 A 
ATOM     66  C   UNL A   1      38.985  28.543  31.075  1.00  0.00     0.012 A 
ATOM     67  C   UNL A   1      38.276  29.512  28.960  1.00  0.00     0.148 A 
ATOM     68  C   UNL A   1      37.705  28.720  31.596  1.00  0.00     0.002 A 
ATOM     69  C   UNL A   1      37.015  29.731  29.503  1.00  0.00     0.091 A 
ATOM     70  F   UNL A   1      38.566  29.841  27.694  1.00  0.00    -0.205 F 
ATOM     71  C   UNL A   1      36.724  29.323  30.815  1.00  0.00     0.022 A 
BRANCH  69  72
ATOM     72  S   UNL A   1      35.707  30.575  28.606  1.00  0.00     0.127 S 
ATOM     73  O   UNL A   1      34.985  29.450  28.012  1.00  0.00    -0.237 OA
ATOM     74  O   UNL A   1      34.990  31.261  29.682  1.00  0.00    -0.237 OA
ATOM     75  O   UNL A   1      36.374  31.458  27.660  1.00  0.00    -0.744 OA
ENDBRANCH  69  72
ENDBRANCH  51  65
BRANCH  52  76
ATOM     76  C   UNL A   1      48.238  27.237  25.645  1.00  0.00     0.023 A 
ATOM     77  C   UNL A   1      49.310  26.754  26.421  1.00  0.00     0.012 A 
ATOM     78  C   UNL A   1      48.432  27.456  24.267  1.00  0.00     0.148 A 
ATOM     79  C   UNL A   1      50.559  26.524  25.843  1.00  0.00     0.002 A 
ATOM     80  C   UNL A   1      49.662  27.170  23.687  1.00  0.00     0.091 A 
ATOM     81  F   UNL A   1      47.401  27.920  23.548  1.00  0.00    -0.205 F 
ATOM     82  C   UNL A   1      50.733  26.722  24.476  1.00  0.00     0.022 A 
BRANCH  80  83
ATOM     83  S   UNL A   1      49.940  27.271  21.916  1.00  0.00     0.127 S 
ATOM     84  O   UNL A   1      49.799  28.705  21.671  1.00  0.00    -0.237 OA
ATOM     85  O   UNL A   1      51.305  26.756  21.797  1.00  0.00    -0.237 OA
ATOM     86  O   UNL A   1      48.923  26.425  21.306  1.00  0.00    -0.744 OA
ENDBRANCH  80  83
ENDBRANCH  52  76
BRANCH  64  87
ATOM     87  C   UNL A   1      45.360  32.710  28.891  1.00  0.00     0.023 A 
ATOM     88  C   UNL A   1      46.161  32.920  30.032  1.00  0.00     0.012 A 
ATOM     89  C   UNL A   1      45.100  33.788  28.021  1.00  0.00     0.148 A 
ATOM     90  C   UNL A   1      46.664  34.189  30.320  1.00  0.00     0.002 A 
ATOM     91  C   UNL A   1      45.649  35.037  28.286  1.00  0.00     0.091 A 
ATOM     92  F   UNL A   1      44.322  33.572  26.951  1.00  0.00    -0.205 F 
ATOM     93  C   UNL A   1      46.419  35.242  29.442  1.00  0.00     0.022 A 
BRANCH  91  94
ATOM     94  S   UNL A   1      45.471  36.426  27.163  1.00  0.00     0.127 S 
ATOM     95  O   UNL A   1      46.105  37.504  27.920  1.00  0.00    -0.237 OA
ATOM     96  O   UNL A   1      46.226  35.976  25.993  1.00  0.00    -0.237 OA
ATOM     97  O   UNL A   1      44.040  36.581  26.937  1.00  0.00    -0.744 OA
ENDBRANCH  91  94
ENDBRANCH  64  87
ENDBRANCH  38  39
ENDBRANCH  30  33
ENDBRANCH  28  29
ENDBRANCH  27  28
ENDBRANCH  26  27
ENDBRANCH   1  26
TORSDOF 19
ENDMDL
