MODEL 1
REMARK VINA RESULT:     -12.2      0.000      0.000
REMARK SMILES O=C(NCCCCCCNC(=O)[C@@H]1[C@H](C(=O)Nc2cccc(Cl)c2F)[C@@H]2C=C[C@H]1C2)c1ccc(-c2c3nc(c(-c4cccc(S(=O)(=O)[O-])c4F)c4ccc([nH]4)c(-c4cccc(S(=O)(=O)[O-])c4F)c4nc(c(-c5cccc(S(=O)(=O)[O-])c5F)c5ccc2[nH]5)C=C4)C=C3)cc1
REMARK SMILES IDX 6 1 5 2 4 3 3 4 1 5 2 6 31 8 32 9 93 10 33 11 92 12 34 13
REMARK SMILES IDX 35 14 36 15 86 16 37 17 91 18 85 19 87 20 38 21 90 22 84 23
REMARK SMILES IDX 83 24 39 26 71 27 51 28 70 29 52 30 55 31 69 32 88 33 53 34
REMARK SMILES IDX 54 35 68 37 89 38 56 39 40 40 41 41 49 42 42 43 44 44 50 45
REMARK SMILES IDX 43 46 45 47 46 48 47 49 48 50 72 51 73 52 81 53 74 54 76 55
REMARK SMILES IDX 82 56 75 57 77 58 78 59 79 60 80 61 57 62 58 63 66 64 59 65
REMARK SMILES IDX 61 66 67 67 60 68 62 69 63 70 64 71 65 72 7 73 8 74 9 75
REMARK SMILES IDX 10 76 11 77 12 79 13 80 14 81 29 82 26 83 28 84 30 85 27 86
REMARK SMILES IDX 15 87 16 88 17 89 18 91 19 92 24 93 20 94 22 95 25 96 21 97
REMARK SMILES IDX 23 98
REMARK H PARENT 3 7 87 25 55 36 10 78 17 90
REMARK Flexibility Score: inf
ROOT
ATOM      1  C   UNL A   1      31.745  26.794  26.303  1.00  0.00     0.002 C 
ENDROOT
BRANCH   1   2
ATOM      2  C   UNL A   1      31.460  28.293  26.242  1.00  0.00     0.021 C 
BRANCH   2   3
ATOM      3  C   UNL A   1      32.690  29.190  26.234  1.00  0.00     0.116 C 
BRANCH   3   4
ATOM      4  N   UNL A   1      32.385  30.600  26.406  1.00  0.00    -0.352 N 
ATOM      5  O   UNL A   1      32.651  32.680  27.250  1.00  0.00    -0.269 OA
ATOM      6  C   UNL A   1      33.094  31.542  27.118  1.00  0.00     0.251 C 
ATOM      7  H   UNL A   1      31.570  30.923  25.958  1.00  0.00     0.163 HD
BRANCH   6   8
ATOM      8  C   UNL A   1      34.374  31.155  27.755  1.00  0.00     0.039 A 
ATOM      9  C   UNL A   1      34.585  29.842  28.181  1.00  0.00     0.014 A 
ATOM     10  C   UNL A   1      35.358  32.126  27.962  1.00  0.00     0.014 A 
ATOM     11  C   UNL A   1      35.703  29.536  28.949  1.00  0.00     0.010 A 
ATOM     12  C   UNL A   1      36.528  31.791  28.653  1.00  0.00     0.010 A 
ATOM     13  C   UNL A   1      36.696  30.502  29.182  1.00  0.00    -0.014 A 
BRANCH  13  14
ATOM     14  C   UNL A   1      37.930  30.106  29.910  1.00  0.00     0.031 A 
ATOM     15  C   UNL A   1      38.220  30.600  31.302  1.00  0.00     0.074 A 
ATOM     16  C   UNL A   1      38.791  29.268  29.296  1.00  0.00     0.049 A 
ATOM     17  N   UNL A   1      39.235  30.313  32.078  1.00  0.00    -0.248 NA
ATOM     18  C   UNL A   1      37.258  31.539  31.900  1.00  0.00     0.031 C 
ATOM     19  C   UNL A   1      38.640  28.765  27.928  1.00  0.00     0.029 A 
ATOM     20  N   UNL A   1      39.953  28.690  29.735  1.00  0.00    -0.354 N 
ATOM     21  C   UNL A   1      39.051  31.052  33.242  1.00  0.00     0.074 A 
ATOM     22  C   UNL A   1      37.834  31.815  33.064  1.00  0.00     0.031 C 
ATOM     23  C   UNL A   1      39.653  27.934  27.649  1.00  0.00     0.029 A 
ATOM     24  C   UNL A   1      40.554  27.887  28.793  1.00  0.00     0.049 A 
ATOM     25  H   UNL A   1      40.323  28.835  30.636  1.00  0.00     0.167 HD
ATOM     26  C   UNL A   1      39.815  31.075  34.361  1.00  0.00     0.034 A 
ATOM     27  C   UNL A   1      41.712  27.203  28.834  1.00  0.00     0.034 A 
ATOM     28  C   UNL A   1      41.014  30.295  34.538  1.00  0.00     0.049 A 
ATOM     29  C   UNL A   1      42.525  27.232  30.096  1.00  0.00     0.074 A 
ATOM     30  C   UNL A   1      41.839  30.224  35.649  1.00  0.00     0.029 A 
ATOM     31  N   UNL A   1      41.562  29.453  33.583  1.00  0.00    -0.354 N 
ATOM     32  N   UNL A   1      42.270  27.847  31.226  1.00  0.00    -0.248 NA
ATOM     33  C   UNL A   1      43.768  26.450  30.101  1.00  0.00     0.031 C 
ATOM     34  C   UNL A   1      42.892  29.350  35.358  1.00  0.00     0.029 A 
ATOM     35  C   UNL A   1      42.712  28.859  34.076  1.00  0.00     0.049 A 
ATOM     36  H   UNL A   1      41.188  29.300  32.685  1.00  0.00     0.167 HD
ATOM     37  C   UNL A   1      43.308  27.507  32.084  1.00  0.00     0.074 A 
ATOM     38  C   UNL A   1      44.175  26.605  31.354  1.00  0.00     0.031 C 
ATOM     39  C   UNL A   1      43.538  27.924  33.354  1.00  0.00     0.034 A 
BRANCH  26  40
ATOM     40  C   UNL A   1      39.355  31.934  35.513  1.00  0.00     0.023 A 
ATOM     41  C   UNL A   1      39.630  33.317  35.496  1.00  0.00     0.012 A 
ATOM     42  C   UNL A   1      38.586  31.398  36.565  1.00  0.00     0.148 A 
ATOM     43  C   UNL A   1      39.170  34.147  36.518  1.00  0.00     0.002 A 
ATOM     44  C   UNL A   1      38.098  32.238  37.560  1.00  0.00     0.091 A 
ATOM     45  F   UNL A   1      38.346  30.078  36.575  1.00  0.00    -0.205 F 
ATOM     46  C   UNL A   1      38.396  33.610  37.543  1.00  0.00     0.022 A 
BRANCH  44  47
ATOM     47  S   UNL A   1      37.029  31.662  38.885  1.00  0.00     0.127 S 
ATOM     48  O   UNL A   1      36.772  30.281  38.478  1.00  0.00    -0.237 OA
ATOM     49  O   UNL A   1      37.891  31.800  40.060  1.00  0.00    -0.237 OA
ATOM     50  O   UNL A   1      35.868  32.541  38.877  1.00  0.00    -0.744 OA
ENDBRANCH  44  47
ENDBRANCH  26  40
BRANCH  27  51
ATOM     51  C   UNL A   1      42.146  26.409  27.651  1.00  0.00     0.023 A 
ATOM     52  C   UNL A   1      42.965  27.004  26.673  1.00  0.00     0.012 A 
ATOM     53  C   UNL A   1      41.783  25.055  27.512  1.00  0.00     0.148 A 
ATOM     54  C   UNL A   1      43.387  26.274  25.562  1.00  0.00     0.002 A 
ATOM     55  C   UNL A   1      42.260  24.317  26.436  1.00  0.00     0.091 A 
ATOM     56  F   UNL A   1      40.988  24.510  28.444  1.00  0.00    -0.205 F 
ATOM     57  C   UNL A   1      43.046  24.929  25.450  1.00  0.00     0.022 A 
BRANCH  55  58
ATOM     58  S   UNL A   1      41.989  22.546  26.307  1.00  0.00     0.127 S 
ATOM     59  O   UNL A   1      40.531  22.469  26.273  1.00  0.00    -0.237 OA
ATOM     60  O   UNL A   1      42.653  22.226  25.043  1.00  0.00    -0.237 OA
ATOM     61  O   UNL A   1      42.633  21.972  27.480  1.00  0.00    -0.744 OA
ENDBRANCH  55  58
ENDBRANCH  27  51
BRANCH  39  62
ATOM     62  C   UNL A   1      44.762  27.384  34.043  1.00  0.00     0.023 A 
ATOM     63  C   UNL A   1      45.977  28.095  33.970  1.00  0.00     0.012 A 
ATOM     64  C   UNL A   1      44.700  26.196  34.796  1.00  0.00     0.148 A 
ATOM     65  C   UNL A   1      47.120  27.612  34.603  1.00  0.00     0.002 A 
ATOM     66  C   UNL A   1      45.831  25.745  35.465  1.00  0.00     0.091 A 
ATOM     67  F   UNL A   1      43.541  25.521  34.834  1.00  0.00    -0.205 F 
ATOM     68  C   UNL A   1      47.045  26.443  35.359  1.00  0.00     0.022 A 
BRANCH  66  69
ATOM     69  S   UNL A   1      45.803  24.301  36.532  1.00  0.00     0.127 S 
ATOM     70  O   UNL A   1      44.742  24.647  37.475  1.00  0.00    -0.237 OA
ATOM     71  O   UNL A   1      45.461  23.229  35.596  1.00  0.00    -0.237 OA
ATOM     72  O   UNL A   1      47.140  24.199  37.101  1.00  0.00    -0.744 OA
ENDBRANCH  66  69
ENDBRANCH  39  62
ENDBRANCH  13  14
ENDBRANCH   6   8
ENDBRANCH   3   4
ENDBRANCH   2   3
ENDBRANCH   1   2
BRANCH   1  73
ATOM     73  C   UNL A   1      30.518  25.882  26.242  1.00  0.00     0.002 C 
BRANCH  73  74
ATOM     74  C   UNL A   1      30.779  24.407  25.895  1.00  0.00     0.021 C 
BRANCH  74  75
ATOM     75  C   UNL A   1      31.668  23.636  26.871  1.00  0.00     0.116 C 
BRANCH  75  76
ATOM     76  N   UNL A   1      32.058  22.360  26.325  1.00  0.00    -0.356 N 
ATOM     77  C   UNL A   1      33.274  21.851  26.037  1.00  0.00     0.224 C 
ATOM     78  H   UNL A   1      31.306  21.755  26.127  1.00  0.00     0.163 HD
ATOM     79  O   UNL A   1      33.293  20.648  25.751  1.00  0.00    -0.275 OA
BRANCH  77  80
ATOM     80  C   UNL A   1      34.515  22.700  25.851  1.00  0.00     0.098 C 
ATOM     81  C   UNL A   1      34.458  23.635  24.608  1.00  0.00     0.099 C 
ATOM     82  C   UNL A   1      36.014  22.303  25.888  1.00  0.00     0.025 C 
ATOM     83  C   UNL A   1      35.950  23.833  24.234  1.00  0.00     0.025 C 
ATOM     84  C   UNL A   1      36.539  21.659  24.627  1.00  0.00    -0.027 C 
ATOM     85  C   UNL A   1      36.622  23.702  25.614  1.00  0.00     0.017 C 
ATOM     86  C   UNL A   1      36.521  22.578  23.649  1.00  0.00    -0.027 C 
BRANCH  81  87
ATOM     87  C   UNL A   1      33.467  23.442  23.450  1.00  0.00     0.228 C 
ATOM     88  O   UNL A   1      33.217  22.265  23.123  1.00  0.00    -0.274 OA
ATOM     89  N   UNL A   1      32.672  24.345  22.823  1.00  0.00    -0.323 N 
ATOM     90  H   UNL A   1      32.045  23.895  22.212  1.00  0.00     0.170 HD
BRANCH  89  91
ATOM     91  C   UNL A   1      32.484  25.738  22.794  1.00  0.00     0.078 A 
ATOM     92  C   UNL A   1      33.653  26.511  22.868  1.00  0.00     0.029 A 
ATOM     93  C   UNL A   1      31.268  26.416  22.765  1.00  0.00     0.165 A 
ATOM     94  C   UNL A   1      33.607  27.907  22.777  1.00  0.00     0.004 A 
ATOM     95  C   UNL A   1      31.214  27.812  22.666  1.00  0.00     0.078 A 
ATOM     96  F   UNL A   1      30.120  25.753  22.894  1.00  0.00    -0.203 F 
ATOM     97  C   UNL A   1      32.385  28.560  22.651  1.00  0.00     0.024 A 
ATOM     98  Cl  UNL A   1      29.703  28.630  22.538  1.00  0.00    -0.081 Cl
ENDBRANCH  89  91
ENDBRANCH  81  87
ENDBRANCH  77  80
ENDBRANCH  75  76
ENDBRANCH  74  75
ENDBRANCH  73  74
ENDBRANCH   1  73
TORSDOF 18
ENDMDL
MODEL 2
REMARK VINA RESULT:     -12.2      2.375      8.019
REMARK SMILES O=C(NCCCCCCNC(=O)[C@@H]1[C@H](C(=O)Nc2cccc(Cl)c2F)[C@@H]2C=C[C@H]1C2)c1ccc(-c2c3nc(c(-c4cccc(S(=O)(=O)[O-])c4F)c4ccc([nH]4)c(-c4cccc(S(=O)(=O)[O-])c4F)c4nc(c(-c5cccc(S(=O)(=O)[O-])c5F)c5ccc2[nH]5)C=C4)C=C3)cc1
REMARK SMILES IDX 6 1 5 2 4 3 3 4 1 5 2 6 31 8 32 9 93 10 33 11 92 12 34 13
REMARK SMILES IDX 35 14 36 15 86 16 37 17 91 18 85 19 87 20 38 21 90 22 84 23
REMARK SMILES IDX 83 24 39 26 71 27 51 28 70 29 52 30 55 31 69 32 88 33 53 34
REMARK SMILES IDX 54 35 68 37 89 38 56 39 40 40 41 41 49 42 42 43 44 44 50 45
REMARK SMILES IDX 43 46 45 47 46 48 47 49 48 50 72 51 73 52 81 53 74 54 76 55
REMARK SMILES IDX 82 56 75 57 77 58 78 59 79 60 80 61 57 62 58 63 66 64 59 65
REMARK SMILES IDX 61 66 67 67 60 68 62 69 63 70 64 71 65 72 7 73 8 74 9 75
REMARK SMILES IDX 10 76 11 77 12 79 13 80 14 81 29 82 26 83 28 84 30 85 27 86
REMARK SMILES IDX 15 87 16 88 17 89 18 91 19 92 24 93 20 94 22 95 25 96 21 97
REMARK SMILES IDX 23 98
REMARK H PARENT 3 7 87 25 55 36 10 78 17 90
REMARK Flexibility Score: inf
ROOT
ATOM      1  C   UNL A   1      31.726  30.703  26.488  1.00  0.00     0.002 C 
ENDROOT
BRANCH   1   2
ATOM      2  C   UNL A   1      31.597  32.208  26.714  1.00  0.00     0.021 C 
BRANCH   2   3
ATOM      3  C   UNL A   1      32.765  32.861  27.440  1.00  0.00     0.116 C 
BRANCH   3   4
ATOM      4  N   UNL A   1      32.520  34.242  27.819  1.00  0.00    -0.352 N 
ATOM      5  O   UNL A   1      32.753  36.111  29.068  1.00  0.00    -0.269 OA
ATOM      6  C   UNL A   1      33.143  34.977  28.802  1.00  0.00     0.251 C 
ATOM      7  H   UNL A   1      31.821  34.710  27.309  1.00  0.00     0.163 HD
BRANCH   6   8
ATOM      8  C   UNL A   1      34.261  34.370  29.561  1.00  0.00     0.039 A 
ATOM      9  C   UNL A   1      35.583  34.571  29.157  1.00  0.00     0.014 A 
ATOM     10  C   UNL A   1      33.981  33.558  30.663  1.00  0.00     0.014 A 
ATOM     11  C   UNL A   1      36.605  33.842  29.753  1.00  0.00     0.010 A 
ATOM     12  C   UNL A   1      35.024  32.899  31.324  1.00  0.00     0.010 A 
ATOM     13  C   UNL A   1      36.342  33.009  30.854  1.00  0.00    -0.014 A 
BRANCH  13  14
ATOM     14  C   UNL A   1      37.478  32.335  31.535  1.00  0.00     0.031 A 
ATOM     15  C   UNL A   1      38.234  31.207  30.886  1.00  0.00     0.074 A 
ATOM     16  C   UNL A   1      37.835  32.771  32.761  1.00  0.00     0.049 A 
ATOM     17  N   UNL A   1      39.269  30.546  31.340  1.00  0.00    -0.248 NA
ATOM     18  C   UNL A   1      37.772  30.756  29.564  1.00  0.00     0.031 C 
ATOM     19  C   UNL A   1      37.143  33.822  33.512  1.00  0.00     0.029 A 
ATOM     20  N   UNL A   1      38.861  32.395  33.588  1.00  0.00    -0.354 N 
ATOM     21  C   UNL A   1      39.566  29.587  30.378  1.00  0.00     0.074 A 
ATOM     22  C   UNL A   1      38.590  29.741  29.320  1.00  0.00     0.031 C 
ATOM     23  C   UNL A   1      37.779  34.027  34.674  1.00  0.00     0.029 A 
ATOM     24  C   UNL A   1      38.886  33.086  34.778  1.00  0.00     0.049 A 
ATOM     25  H   UNL A   1      39.517  31.699  33.354  1.00  0.00     0.167 HD
ATOM     26  C   UNL A   1      40.571  28.677  30.370  1.00  0.00     0.034 A 
ATOM     27  C   UNL A   1      39.697  32.966  35.845  1.00  0.00     0.034 A 
ATOM     28  C   UNL A   1      41.552  28.546  31.417  1.00  0.00     0.049 A 
ATOM     29  C   UNL A   1      40.814  31.964  35.795  1.00  0.00     0.074 A 
ATOM     30  C   UNL A   1      42.629  27.677  31.484  1.00  0.00     0.029 A 
ATOM     31  N   UNL A   1      41.577  29.298  32.581  1.00  0.00    -0.354 N 
ATOM     32  N   UNL A   1      41.145  31.147  34.824  1.00  0.00    -0.248 NA
ATOM     33  C   UNL A   1      41.687  31.886  36.974  1.00  0.00     0.031 C 
ATOM     34  C   UNL A   1      43.295  27.897  32.695  1.00  0.00     0.029 A 
ATOM     35  C   UNL A   1      42.648  28.917  33.372  1.00  0.00     0.049 A 
ATOM     36  H   UNL A   1      40.928  30.002  32.811  1.00  0.00     0.167 HD
ATOM     37  C   UNL A   1      42.279  30.476  35.264  1.00  0.00     0.074 A 
ATOM     38  C   UNL A   1      42.596  31.008  36.574  1.00  0.00     0.031 C 
ATOM     39  C   UNL A   1      42.979  29.490  34.651  1.00  0.00     0.034 A 
BRANCH  26  40
ATOM     40  C   UNL A   1      40.701  27.779  29.164  1.00  0.00     0.023 A 
ATOM     41  C   UNL A   1      39.874  26.642  29.058  1.00  0.00     0.012 A 
ATOM     42  C   UNL A   1      41.572  28.098  28.103  1.00  0.00     0.148 A 
ATOM     43  C   UNL A   1      39.931  25.823  27.931  1.00  0.00     0.002 A 
ATOM     44  C   UNL A   1      41.594  27.298  26.965  1.00  0.00     0.091 A 
ATOM     45  F   UNL A   1      42.362  29.174  28.226  1.00  0.00    -0.205 F 
ATOM     46  C   UNL A   1      40.782  26.156  26.881  1.00  0.00     0.022 A 
BRANCH  44  47
ATOM     47  S   UNL A   1      42.599  27.680  25.525  1.00  0.00     0.127 S 
ATOM     48  O   UNL A   1      42.333  26.528  24.665  1.00  0.00    -0.237 OA
ATOM     49  O   UNL A   1      42.009  28.937  25.061  1.00  0.00    -0.237 OA
ATOM     50  O   UNL A   1      43.968  27.794  26.009  1.00  0.00    -0.744 OA
ENDBRANCH  44  47
ENDBRANCH  26  40
BRANCH  27  51
ATOM     51  C   UNL A   1      39.496  33.844  37.031  1.00  0.00     0.023 A 
ATOM     52  C   UNL A   1      39.901  35.191  36.980  1.00  0.00     0.012 A 
ATOM     53  C   UNL A   1      38.869  33.359  38.195  1.00  0.00     0.148 A 
ATOM     54  C   UNL A   1      39.714  36.030  38.079  1.00  0.00     0.002 A 
ATOM     55  C   UNL A   1      38.629  34.216  39.261  1.00  0.00     0.091 A 
ATOM     56  F   UNL A   1      38.506  32.068  38.232  1.00  0.00    -0.205 F 
ATOM     57  C   UNL A   1      39.067  35.546  39.214  1.00  0.00     0.022 A 
BRANCH  55  58
ATOM     58  S   UNL A   1      37.667  33.706  40.690  1.00  0.00     0.127 S 
ATOM     59  O   UNL A   1      38.573  32.761  41.338  1.00  0.00    -0.237 OA
ATOM     60  O   UNL A   1      37.481  34.970  41.402  1.00  0.00    -0.237 OA
ATOM     61  O   UNL A   1      36.438  33.143  40.146  1.00  0.00    -0.744 OA
ENDBRANCH  55  58
ENDBRANCH  27  51
BRANCH  39  62
ATOM     62  C   UNL A   1      44.177  28.943  35.381  1.00  0.00     0.023 A 
ATOM     63  C   UNL A   1      45.458  29.466  35.114  1.00  0.00     0.012 A 
ATOM     64  C   UNL A   1      44.029  27.943  36.361  1.00  0.00     0.148 A 
ATOM     65  C   UNL A   1      46.578  28.974  35.781  1.00  0.00     0.002 A 
ATOM     66  C   UNL A   1      45.143  27.491  37.057  1.00  0.00     0.091 A 
ATOM     67  F   UNL A   1      42.805  27.441  36.585  1.00  0.00    -0.205 F 
ATOM     68  C   UNL A   1      46.420  27.995  36.759  1.00  0.00     0.022 A 
BRANCH  66  69
ATOM     69  S   UNL A   1      45.021  26.298  38.394  1.00  0.00     0.127 S 
ATOM     70  O   UNL A   1      44.861  25.044  37.661  1.00  0.00    -0.237 OA
ATOM     71  O   UNL A   1      46.312  26.450  39.066  1.00  0.00    -0.237 OA
ATOM     72  O   UNL A   1      43.874  26.709  39.192  1.00  0.00    -0.744 OA
ENDBRANCH  66  69
ENDBRANCH  39  62
ENDBRANCH  13  14
ENDBRANCH   6   8
ENDBRANCH   3   4
ENDBRANCH   2   3
ENDBRANCH   1   2
BRANCH   1  73
ATOM     73  C   UNL A   1      32.760  29.987  27.360  1.00  0.00     0.002 C 
BRANCH  73  74
ATOM     74  C   UNL A   1      32.641  28.456  27.443  1.00  0.00     0.021 C 
BRANCH  74  75
ATOM     75  C   UNL A   1      31.830  27.787  26.334  1.00  0.00     0.116 C 
BRANCH  75  76
ATOM     76  N   UNL A   1      31.365  26.484  26.742  1.00  0.00    -0.356 N 
ATOM     77  C   UNL A   1      31.946  25.268  26.666  1.00  0.00     0.224 C 
ATOM     78  H   UNL A   1      30.466  26.481  27.146  1.00  0.00     0.163 HD
ATOM     79  O   UNL A   1      31.365  24.363  27.276  1.00  0.00    -0.275 OA
BRANCH  77  80
ATOM     80  C   UNL A   1      33.098  24.947  25.736  1.00  0.00     0.098 C 
ATOM     81  C   UNL A   1      32.660  24.636  24.275  1.00  0.00     0.099 C 
ATOM     82  C   UNL A   1      34.298  23.984  25.925  1.00  0.00     0.025 C 
ATOM     83  C   UNL A   1      33.788  23.714  23.746  1.00  0.00     0.025 C 
ATOM     84  C   UNL A   1      33.993  22.524  25.687  1.00  0.00    -0.027 C 
ATOM     85  C   UNL A   1      34.993  24.222  24.561  1.00  0.00     0.017 C 
ATOM     86  C   UNL A   1      33.712  22.361  24.385  1.00  0.00    -0.027 C 
BRANCH  81  87
ATOM     87  C   UNL A   1      31.219  24.271  23.883  1.00  0.00     0.228 C 
ATOM     88  O   UNL A   1      30.886  23.079  24.040  1.00  0.00    -0.274 OA
ATOM     89  N   UNL A   1      30.176  25.073  23.552  1.00  0.00    -0.323 N 
ATOM     90  H   UNL A   1      29.342  24.553  23.487  1.00  0.00     0.170 HD
BRANCH  89  91
ATOM     91  C   UNL A   1      29.941  26.431  23.276  1.00  0.00     0.078 A 
ATOM     92  C   UNL A   1      31.041  27.149  22.780  1.00  0.00     0.029 A 
ATOM     93  C   UNL A   1      28.763  27.138  23.501  1.00  0.00     0.165 A 
ATOM     94  C   UNL A   1      30.919  28.490  22.398  1.00  0.00     0.004 A 
ATOM     95  C   UNL A   1      28.631  28.477  23.115  1.00  0.00     0.078 A 
ATOM     96  F   UNL A   1      27.748  26.571  24.151  1.00  0.00    -0.203 F 
ATOM     97  C   UNL A   1      29.704  29.151  22.543  1.00  0.00     0.024 A 
ATOM     98  Cl  UNL A   1      27.138  29.311  23.317  1.00  0.00    -0.081 Cl
ENDBRANCH  89  91
ENDBRANCH  81  87
ENDBRANCH  77  80
ENDBRANCH  75  76
ENDBRANCH  74  75
ENDBRANCH  73  74
ENDBRANCH   1  73
TORSDOF 18
ENDMDL
MODEL 3
REMARK VINA RESULT:     -12.1      2.427      2.879
REMARK SMILES O=C(NCCCCCCNC(=O)[C@@H]1[C@H](C(=O)Nc2cccc(Cl)c2F)[C@@H]2C=C[C@H]1C2)c1ccc(-c2c3nc(c(-c4cccc(S(=O)(=O)[O-])c4F)c4ccc([nH]4)c(-c4cccc(S(=O)(=O)[O-])c4F)c4nc(c(-c5cccc(S(=O)(=O)[O-])c5F)c5ccc2[nH]5)C=C4)C=C3)cc1
REMARK SMILES IDX 6 1 5 2 4 3 3 4 1 5 2 6 31 8 32 9 93 10 33 11 92 12 34 13
REMARK SMILES IDX 35 14 36 15 86 16 37 17 91 18 85 19 87 20 38 21 90 22 84 23
REMARK SMILES IDX 83 24 39 26 71 27 51 28 70 29 52 30 55 31 69 32 88 33 53 34
REMARK SMILES IDX 54 35 68 37 89 38 56 39 40 40 41 41 49 42 42 43 44 44 50 45
REMARK SMILES IDX 43 46 45 47 46 48 47 49 48 50 72 51 73 52 81 53 74 54 76 55
REMARK SMILES IDX 82 56 75 57 77 58 78 59 79 60 80 61 57 62 58 63 66 64 59 65
REMARK SMILES IDX 61 66 67 67 60 68 62 69 63 70 64 71 65 72 7 73 8 74 9 75
REMARK SMILES IDX 10 76 11 77 12 79 13 80 14 81 29 82 26 83 28 84 30 85 27 86
REMARK SMILES IDX 15 87 16 88 17 89 18 91 19 92 24 93 20 94 22 95 25 96 21 97
REMARK SMILES IDX 23 98
REMARK H PARENT 3 7 87 25 55 36 10 78 17 90
REMARK Flexibility Score: inf
ROOT
ATOM      1  C   UNL A   1      32.174  26.411  26.281  1.00  0.00     0.002 C 
ENDROOT
BRANCH   1   2
ATOM      2  C   UNL A   1      32.178  27.847  26.802  1.00  0.00     0.021 C 
BRANCH   2   3
ATOM      3  C   UNL A   1      33.541  28.525  26.831  1.00  0.00     0.116 C 
BRANCH   3   4
ATOM      4  N   UNL A   1      33.474  29.964  27.016  1.00  0.00    -0.352 N 
ATOM      5  O   UNL A   1      34.149  31.980  27.783  1.00  0.00    -0.269 OA
ATOM      6  C   UNL A   1      34.398  30.789  27.617  1.00  0.00     0.251 C 
ATOM      7  H   UNL A   1      32.665  30.406  26.668  1.00  0.00     0.163 HD
BRANCH   6   8
ATOM      8  C   UNL A   1      35.677  30.214  28.095  1.00  0.00     0.039 A 
ATOM      9  C   UNL A   1      35.765  29.639  29.365  1.00  0.00     0.014 A 
ATOM     10  C   UNL A   1      36.809  30.287  27.279  1.00  0.00     0.014 A 
ATOM     11  C   UNL A   1      37.007  29.283  29.877  1.00  0.00     0.010 A 
ATOM     12  C   UNL A   1      38.043  29.838  27.763  1.00  0.00     0.010 A 
ATOM     13  C   UNL A   1      38.159  29.363  29.078  1.00  0.00    -0.014 A 
BRANCH  13  14
ATOM     14  C   UNL A   1      39.450  28.866  29.623  1.00  0.00     0.031 A 
ATOM     15  C   UNL A   1      40.078  29.473  30.849  1.00  0.00     0.074 A 
ATOM     16  C   UNL A   1      40.050  27.832  28.997  1.00  0.00     0.049 A 
ATOM     17  N   UNL A   1      41.180  29.124  31.463  1.00  0.00    -0.248 NA
ATOM     18  C   UNL A   1      39.390  30.620  31.463  1.00  0.00     0.031 C 
ATOM     19  C   UNL A   1      39.561  27.197  27.770  1.00  0.00     0.029 A 
ATOM     20  N   UNL A   1      41.189  27.133  29.301  1.00  0.00    -0.354 N 
ATOM     21  C   UNL A   1      41.335  30.019  32.516  1.00  0.00     0.074 A 
ATOM     22  C   UNL A   1      40.220  30.940  32.448  1.00  0.00     0.031 C 
ATOM     23  C   UNL A   1      40.377  26.186  27.442  1.00  0.00     0.029 A 
ATOM     24  C   UNL A   1      41.476  26.135  28.398  1.00  0.00     0.049 A 
ATOM     25  H   UNL A   1      41.748  27.326  30.088  1.00  0.00     0.167 HD
ATOM     26  C   UNL A   1      42.304  30.056  33.462  1.00  0.00     0.034 A 
ATOM     27  C   UNL A   1      42.516  25.284  28.332  1.00  0.00     0.034 A 
ATOM     28  C   UNL A   1      43.399  29.121  33.536  1.00  0.00     0.049 A 
ATOM     29  C   UNL A   1      43.562  25.337  29.407  1.00  0.00     0.074 A 
ATOM     30  C   UNL A   1      44.413  29.055  34.477  1.00  0.00     0.029 A 
ATOM     31  N   UNL A   1      43.626  28.092  32.636  1.00  0.00    -0.354 N 
ATOM     32  N   UNL A   1      43.624  26.117  30.459  1.00  0.00    -0.248 NA
ATOM     33  C   UNL A   1      44.665  24.372  29.305  1.00  0.00     0.031 C 
ATOM     34  C   UNL A   1      45.260  27.994  34.136  1.00  0.00     0.029 A 
ATOM     35  C   UNL A   1      44.762  27.386  32.996  1.00  0.00     0.049 A 
ATOM     36  H   UNL A   1      43.062  27.892  31.853  1.00  0.00     0.167 HD
ATOM     37  C   UNL A   1      44.758  25.723  31.156  1.00  0.00     0.074 A 
ATOM     38  C   UNL A   1      45.332  24.611  30.426  1.00  0.00     0.031 C 
ATOM     39  C   UNL A   1      45.292  26.250  32.286  1.00  0.00     0.034 A 
BRANCH  26  40
ATOM     40  C   UNL A   1      42.204  31.112  34.536  1.00  0.00     0.023 A 
ATOM     41  C   UNL A   1      41.414  30.863  35.677  1.00  0.00     0.012 A 
ATOM     42  C   UNL A   1      42.947  32.307  34.460  1.00  0.00     0.148 A 
ATOM     43  C   UNL A   1      41.345  31.795  36.712  1.00  0.00     0.002 A 
ATOM     44  C   UNL A   1      42.904  33.214  35.514  1.00  0.00     0.091 A 
ATOM     45  F   UNL A   1      43.681  32.535  33.361  1.00  0.00    -0.205 F 
ATOM     46  C   UNL A   1      42.097  32.964  36.635  1.00  0.00     0.022 A 
BRANCH  44  47
ATOM     47  S   UNL A   1      43.892  34.715  35.549  1.00  0.00     0.127 S 
ATOM     48  O   UNL A   1      43.497  35.298  36.831  1.00  0.00    -0.237 OA
ATOM     49  O   UNL A   1      45.256  34.187  35.514  1.00  0.00    -0.237 OA
ATOM     50  O   UNL A   1      43.505  35.478  34.371  1.00  0.00    -0.744 OA
ENDBRANCH  44  47
ENDBRANCH  26  40
BRANCH  27  51
ATOM     51  C   UNL A   1      42.593  24.293  27.223  1.00  0.00     0.023 A 
ATOM     52  C   UNL A   1      43.320  24.603  26.059  1.00  0.00     0.012 A 
ATOM     53  C   UNL A   1      41.981  23.029  27.335  1.00  0.00     0.148 A 
ATOM     54  C   UNL A   1      43.409  23.684  25.013  1.00  0.00     0.002 A 
ATOM     55  C   UNL A   1      42.128  22.096  26.317  1.00  0.00     0.091 A 
ATOM     56  F   UNL A   1      41.278  22.758  28.444  1.00  0.00    -0.205 F 
ATOM     57  C   UNL A   1      42.825  22.427  25.147  1.00  0.00     0.022 A 
BRANCH  55  58
ATOM     58  S   UNL A   1      41.535  20.408  26.485  1.00  0.00     0.127 S 
ATOM     59  O   UNL A   1      40.090  20.587  26.368  1.00  0.00    -0.237 OA
ATOM     60  O   UNL A   1      42.169  19.746  25.345  1.00  0.00    -0.237 OA
ATOM     61  O   UNL A   1      42.021  19.957  27.782  1.00  0.00    -0.744 OA
ENDBRANCH  55  58
ENDBRANCH  27  51
BRANCH  39  62
ATOM     62  C   UNL A   1      46.546  25.609  32.816  1.00  0.00     0.023 A 
ATOM     63  C   UNL A   1      47.806  26.102  32.420  1.00  0.00     0.012 A 
ATOM     64  C   UNL A   1      46.479  24.547  33.739  1.00  0.00     0.148 A 
ATOM     65  C   UNL A   1      48.978  25.522  32.901  1.00  0.00     0.002 A 
ATOM     66  C   UNL A   1      47.651  24.006  34.253  1.00  0.00     0.091 A 
ATOM     67  F   UNL A   1      45.272  24.077  34.087  1.00  0.00    -0.205 F 
ATOM     68  C   UNL A   1      48.901  24.482  33.825  1.00  0.00     0.022 A 
BRANCH  66  69
ATOM     69  S   UNL A   1      47.645  22.726  35.512  1.00  0.00     0.127 S 
ATOM     70  O   UNL A   1      46.798  23.324  36.542  1.00  0.00    -0.237 OA
ATOM     71  O   UNL A   1      47.039  21.596  34.806  1.00  0.00    -0.237 OA
ATOM     72  O   UNL A   1      49.039  22.526  35.884  1.00  0.00    -0.744 OA
ENDBRANCH  66  69
ENDBRANCH  39  62
ENDBRANCH  13  14
ENDBRANCH   6   8
ENDBRANCH   3   4
ENDBRANCH   2   3
ENDBRANCH   1   2
BRANCH   1  73
ATOM     73  C   UNL A   1      30.835  25.677  26.372  1.00  0.00     0.002 C 
BRANCH  73  74
ATOM     74  C   UNL A   1      30.807  24.237  25.833  1.00  0.00     0.021 C 
BRANCH  74  75
ATOM     75  C   UNL A   1      31.339  23.158  26.777  1.00  0.00     0.116 C 
BRANCH  75  76
ATOM     76  N   UNL A   1      31.816  22.012  26.042  1.00  0.00    -0.356 N 
ATOM     77  C   UNL A   1      33.068  21.616  25.728  1.00  0.00     0.224 C 
ATOM     78  H   UNL A   1      31.105  21.416  25.712  1.00  0.00     0.163 HD
ATOM     79  O   UNL A   1      33.160  20.481  25.246  1.00  0.00    -0.275 OA
BRANCH  77  80
ATOM     80  C   UNL A   1      34.267  22.541  25.743  1.00  0.00     0.098 C 
ATOM     81  C   UNL A   1      34.258  23.604  24.606  1.00  0.00     0.099 C 
ATOM     82  C   UNL A   1      35.778  22.217  25.870  1.00  0.00     0.025 C 
ATOM     83  C   UNL A   1      35.761  23.915  24.387  1.00  0.00     0.025 C 
ATOM     84  C   UNL A   1      36.442  21.743  24.599  1.00  0.00    -0.027 C 
ATOM     85  C   UNL A   1      36.324  23.666  25.799  1.00  0.00     0.017 C 
ATOM     86  C   UNL A   1      36.451  22.762  23.725  1.00  0.00    -0.027 C 
BRANCH  81  87
ATOM     87  C   UNL A   1      33.378  23.492  23.351  1.00  0.00     0.228 C 
ATOM     88  O   UNL A   1      33.161  22.339  22.926  1.00  0.00    -0.274 OA
ATOM     89  N   UNL A   1      32.643  24.437  22.713  1.00  0.00    -0.323 N 
ATOM     90  H   UNL A   1      32.076  24.031  22.019  1.00  0.00     0.170 HD
BRANCH  89  91
ATOM     91  C   UNL A   1      32.457  25.830  22.759  1.00  0.00     0.078 A 
ATOM     92  C   UNL A   1      33.631  26.600  22.774  1.00  0.00     0.029 A 
ATOM     93  C   UNL A   1      31.244  26.508  22.852  1.00  0.00     0.165 A 
ATOM     94  C   UNL A   1      33.581  27.999  22.746  1.00  0.00     0.004 A 
ATOM     95  C   UNL A   1      31.186  27.906  22.817  1.00  0.00     0.078 A 
ATOM     96  F   UNL A   1      30.108  25.839  23.042  1.00  0.00    -0.203 F 
ATOM     97  C   UNL A   1      32.355  28.655  22.743  1.00  0.00     0.024 A 
ATOM     98  Cl  UNL A   1      29.673  28.728  22.841  1.00  0.00    -0.081 Cl
ENDBRANCH  89  91
ENDBRANCH  81  87
ENDBRANCH  77  80
ENDBRANCH  75  76
ENDBRANCH  74  75
ENDBRANCH  73  74
ENDBRANCH   1  73
TORSDOF 18
ENDMDL
