MODEL 1
REMARK VINA RESULT:     -12.2      0.000      0.000
REMARK SMILES CC[C@](C)(NC(=O)N1Cc2ccccc2C1)C(=O)NCCCCCCNC(=O)c1ccc(-c2c3nc(c(-c4cccc(S(=O)(=O)[O-])c4F)c4ccc([nH]4)c(-c4cccc(S(=O)(=O)[O-])c4F)c4nc(c(-c5cccc(S(=O)(=O)[O-])c5F)c5ccc2[nH]5)C=C4)C=C3)cc1
REMARK SMILES IDX 23 1 22 2 21 3 20 4 19 5 17 6 18 7 3 9 4 10 2 11 1 12 5 13
REMARK SMILES IDX 6 14 7 16 8 17 9 18 16 19 10 20 15 21 11 22 14 23 12 24
REMARK SMILES IDX 13 25 24 26 25 27 26 28 27 29 28 31 29 32 30 33 91 34 31 35
REMARK SMILES IDX 90 36 32 37 33 38 34 39 84 40 35 41 89 42 83 43 85 44 36 45
REMARK SMILES IDX 88 46 82 47 81 48 37 50 69 51 49 52 68 53 50 54 53 55 67 56
REMARK SMILES IDX 86 57 51 58 52 59 66 61 87 62 54 63 38 64 39 65 47 66 40 67
REMARK SMILES IDX 42 68 48 69 41 70 43 71 44 72 45 73 46 74 70 75 71 76 79 77
REMARK SMILES IDX 72 78 74 79 80 80 73 81 75 82 76 83 77 84 78 85 55 86 56 87
REMARK SMILES IDX 64 88 57 89 59 90 65 91 58 92 60 93 61 94 62 95 63 96
REMARK H PARENT 19 8 5 15 26 30 85 49 53 60
REMARK Flexibility Score: inf
ROOT
ATOM      1  C   UNL A   1      31.413  28.594  24.964  1.00  0.00     0.002 C 
ENDROOT
BRANCH   1   2
ATOM      2  C   UNL A   1      30.416  28.184  23.886  1.00  0.00     0.002 C 
BRANCH   2   3
ATOM      3  C   UNL A   1      29.557  26.953  24.185  1.00  0.00     0.021 C 
BRANCH   3   4
ATOM      4  C   UNL A   1      30.231  25.578  24.147  1.00  0.00     0.116 C 
BRANCH   4   5
ATOM      5  N   UNL A   1      30.283  24.846  25.403  1.00  0.00    -0.354 N 
ATOM      6  C   UNL A   1      31.319  24.362  26.156  1.00  0.00     0.245 C 
ATOM      7  O   UNL A   1      31.021  23.856  27.246  1.00  0.00    -0.272 OA
ATOM      8  H   UNL A   1      29.397  24.661  25.788  1.00  0.00     0.163 HD
BRANCH   6   9
ATOM      9  C   UNL A   1      32.807  24.509  25.729  1.00  0.00     0.117 C 
ATOM     10  C   UNL A   1      33.374  25.925  25.975  1.00  0.00     0.045 C 
BRANCH   9  11
ATOM     11  C   UNL A   1      32.839  24.239  24.185  1.00  0.00     0.035 C 
ATOM     12  C   UNL A   1      34.112  24.705  23.467  1.00  0.00     0.007 C 
ENDBRANCH   9  11
BRANCH   9  13
ATOM     13  N   UNL A   1      33.701  23.547  26.428  1.00  0.00    -0.324 N 
ATOM     14  C   UNL A   1      33.704  22.209  26.633  1.00  0.00     0.318 C 
ATOM     15  H   UNL A   1      34.477  23.991  26.842  1.00  0.00     0.166 HD
ATOM     16  O   UNL A   1      34.342  21.827  27.620  1.00  0.00    -0.249 OA
ATOM     17  N   UNL A   1      33.111  21.314  25.800  1.00  0.00    -0.316 N 
ATOM     18  C   UNL A   1      33.305  19.872  26.039  1.00  0.00     0.157 C 
ATOM     19  C   UNL A   1      32.494  21.529  24.502  1.00  0.00     0.157 C 
ATOM     20  C   UNL A   1      32.935  19.224  24.735  1.00  0.00    -0.023 A 
ATOM     21  C   UNL A   1      32.469  20.193  23.851  1.00  0.00    -0.023 A 
ATOM     22  C   UNL A   1      33.057  17.911  24.320  1.00  0.00     0.006 A 
ATOM     23  C   UNL A   1      32.154  19.908  22.533  1.00  0.00     0.006 A 
ATOM     24  C   UNL A   1      32.733  17.600  22.990  1.00  0.00     0.000 A 
ATOM     25  C   UNL A   1      32.295  18.593  22.099  1.00  0.00     0.000 A 
ENDBRANCH   9  13
ENDBRANCH   6   9
ENDBRANCH   4   5
ENDBRANCH   3   4
ENDBRANCH   2   3
ENDBRANCH   1   2
BRANCH   1  26
ATOM     26  C   UNL A   1      31.364  30.065  25.365  1.00  0.00     0.021 C 
BRANCH  26  27
ATOM     27  C   UNL A   1      32.332  30.464  26.473  1.00  0.00     0.116 C 
BRANCH  27  28
ATOM     28  N   UNL A   1      32.302  31.890  26.757  1.00  0.00    -0.352 N 
ATOM     29  C   UNL A   1      33.194  32.638  27.497  1.00  0.00     0.251 C 
ATOM     30  H   UNL A   1      31.545  32.388  26.371  1.00  0.00     0.163 HD
ATOM     31  O   UNL A   1      32.957  33.801  27.777  1.00  0.00    -0.269 OA
BRANCH  29  32
ATOM     32  C   UNL A   1      34.436  31.988  27.971  1.00  0.00     0.039 A 
ATOM     33  C   UNL A   1      35.590  32.760  28.117  1.00  0.00     0.014 A 
ATOM     34  C   UNL A   1      34.431  30.638  28.332  1.00  0.00     0.014 A 
ATOM     35  C   UNL A   1      36.724  32.192  28.706  1.00  0.00     0.010 A 
ATOM     36  C   UNL A   1      35.535  30.099  28.984  1.00  0.00     0.010 A 
ATOM     37  C   UNL A   1      36.689  30.871  29.183  1.00  0.00    -0.014 A 
BRANCH  37  38
ATOM     38  C   UNL A   1      37.832  30.291  29.934  1.00  0.00     0.031 A 
ATOM     39  C   UNL A   1      38.130  30.746  31.335  1.00  0.00     0.074 A 
ATOM     40  C   UNL A   1      38.667  29.436  29.311  1.00  0.00     0.049 A 
ATOM     41  N   UNL A   1      39.122  30.408  32.117  1.00  0.00    -0.248 NA
ATOM     42  C   UNL A   1      37.211  31.733  31.922  1.00  0.00     0.031 C 
ATOM     43  C   UNL A   1      38.542  28.994  27.921  1.00  0.00     0.029 A 
ATOM     44  N   UNL A   1      39.810  28.817  29.754  1.00  0.00    -0.354 N 
ATOM     45  C   UNL A   1      38.965  31.160  33.274  1.00  0.00     0.074 A 
ATOM     46  C   UNL A   1      37.806  32.003  33.075  1.00  0.00     0.031 C 
ATOM     47  C   UNL A   1      39.570  28.187  27.621  1.00  0.00     0.029 A 
ATOM     48  C   UNL A   1      40.443  28.072  28.786  1.00  0.00     0.049 A 
ATOM     49  H   UNL A   1      40.144  28.897  30.677  1.00  0.00     0.167 HD
ATOM     50  C   UNL A   1      39.698  31.129  34.413  1.00  0.00     0.034 A 
ATOM     51  C   UNL A   1      41.603  27.388  28.823  1.00  0.00     0.034 A 
ATOM     52  C   UNL A   1      40.831  30.267  34.618  1.00  0.00     0.049 A 
ATOM     53  C   UNL A   1      42.379  27.333  30.110  1.00  0.00     0.074 A 
ATOM     54  C   UNL A   1      41.580  30.089  35.767  1.00  0.00     0.029 A 
ATOM     55  N   UNL A   1      41.387  29.448  33.647  1.00  0.00    -0.354 N 
ATOM     56  N   UNL A   1      42.113  27.911  31.257  1.00  0.00    -0.248 NA
ATOM     57  C   UNL A   1      43.593  26.505  30.123  1.00  0.00     0.031 C 
ATOM     58  C   UNL A   1      42.604  29.179  35.485  1.00  0.00     0.029 A 
ATOM     59  C   UNL A   1      42.480  28.772  34.166  1.00  0.00     0.049 A 
ATOM     60  H   UNL A   1      41.055  29.360  32.726  1.00  0.00     0.167 HD
ATOM     61  C   UNL A   1      43.112  27.502  32.133  1.00  0.00     0.074 A 
ATOM     62  C   UNL A   1      43.974  26.603  31.390  1.00  0.00     0.031 C 
ATOM     63  C   UNL A   1      43.308  27.851  33.429  1.00  0.00     0.034 A 
BRANCH  50  64
ATOM     64  C   UNL A   1      39.254  32.020  35.545  1.00  0.00     0.023 A 
ATOM     65  C   UNL A   1      38.331  31.527  36.491  1.00  0.00     0.012 A 
ATOM     66  C   UNL A   1      39.767  33.322  35.696  1.00  0.00     0.148 A 
ATOM     67  C   UNL A   1      37.890  32.330  37.542  1.00  0.00     0.002 A 
ATOM     68  C   UNL A   1      39.358  34.101  36.773  1.00  0.00     0.091 A 
ATOM     69  F   UNL A   1      40.626  33.784  34.777  1.00  0.00    -0.205 F 
ATOM     70  C   UNL A   1      38.410  33.612  37.688  1.00  0.00     0.022 A 
BRANCH  68  71
ATOM     71  S   UNL A   1      40.030  35.737  37.091  1.00  0.00     0.127 S 
ATOM     72  O   UNL A   1      39.651  36.453  35.874  1.00  0.00    -0.237 OA
ATOM     73  O   UNL A   1      39.298  36.145  38.290  1.00  0.00    -0.237 OA
ATOM     74  O   UNL A   1      41.459  35.547  37.291  1.00  0.00    -0.744 OA
ENDBRANCH  68  71
ENDBRANCH  50  64
BRANCH  51  75
ATOM     75  C   UNL A   1      42.062  26.656  27.610  1.00  0.00     0.023 A 
ATOM     76  C   UNL A   1      42.827  27.331  26.639  1.00  0.00     0.012 A 
ATOM     77  C   UNL A   1      41.799  25.282  27.444  1.00  0.00     0.148 A 
ATOM     78  C   UNL A   1      43.303  26.656  25.514  1.00  0.00     0.002 A 
ATOM     79  C   UNL A   1      42.325  24.603  26.353  1.00  0.00     0.091 A 
ATOM     80  F   UNL A   1      41.060  24.661  28.375  1.00  0.00    -0.205 F 
ATOM     81  C   UNL A   1      43.064  25.291  25.377  1.00  0.00     0.022 A 
BRANCH  79  82
ATOM     82  S   UNL A   1      42.189  22.821  26.170  1.00  0.00     0.127 S 
ATOM     83  O   UNL A   1      42.860  22.343  27.375  1.00  0.00    -0.237 OA
ATOM     84  O   UNL A   1      40.738  22.629  26.155  1.00  0.00    -0.237 OA
ATOM     85  O   UNL A   1      42.847  22.501  24.910  1.00  0.00    -0.744 OA
ENDBRANCH  79  82
ENDBRANCH  51  75
BRANCH  63  86
ATOM     86  C   UNL A   1      44.495  27.258  34.140  1.00  0.00     0.023 A 
ATOM     87  C   UNL A   1      45.702  27.983  34.202  1.00  0.00     0.012 A 
ATOM     88  C   UNL A   1      44.393  26.025  34.812  1.00  0.00     0.148 A 
ATOM     89  C   UNL A   1      46.798  27.477  34.902  1.00  0.00     0.002 A 
ATOM     90  C   UNL A   1      45.474  25.548  35.546  1.00  0.00     0.091 A 
ATOM     91  F   UNL A   1      43.242  25.342  34.726  1.00  0.00    -0.205 F 
ATOM     92  C   UNL A   1      46.680  26.267  35.582  1.00  0.00     0.022 A 
BRANCH  90  93
ATOM     93  S   UNL A   1      45.386  24.047  36.530  1.00  0.00     0.127 S 
ATOM     94  O   UNL A   1      46.766  23.917  36.997  1.00  0.00    -0.237 OA
ATOM     95  O   UNL A   1      44.423  24.413  37.569  1.00  0.00    -0.237 OA
ATOM     96  O   UNL A   1      44.933  23.000  35.625  1.00  0.00    -0.744 OA
ENDBRANCH  90  93
ENDBRANCH  63  86
ENDBRANCH  37  38
ENDBRANCH  29  32
ENDBRANCH  27  28
ENDBRANCH  26  27
ENDBRANCH   1  26
TORSDOF 18
ENDMDL
MODEL 2
REMARK VINA RESULT:     -12.1      5.570      8.687
REMARK SMILES CC[C@](C)(NC(=O)N1Cc2ccccc2C1)C(=O)NCCCCCCNC(=O)c1ccc(-c2c3nc(c(-c4cccc(S(=O)(=O)[O-])c4F)c4ccc([nH]4)c(-c4cccc(S(=O)(=O)[O-])c4F)c4nc(c(-c5cccc(S(=O)(=O)[O-])c5F)c5ccc2[nH]5)C=C4)C=C3)cc1
REMARK SMILES IDX 23 1 22 2 21 3 20 4 19 5 17 6 18 7 3 9 4 10 2 11 1 12 5 13
REMARK SMILES IDX 6 14 7 16 8 17 9 18 16 19 10 20 15 21 11 22 14 23 12 24
REMARK SMILES IDX 13 25 24 26 25 27 26 28 27 29 28 31 29 32 30 33 91 34 31 35
REMARK SMILES IDX 90 36 32 37 33 38 34 39 84 40 35 41 89 42 83 43 85 44 36 45
REMARK SMILES IDX 88 46 82 47 81 48 37 50 69 51 49 52 68 53 50 54 53 55 67 56
REMARK SMILES IDX 86 57 51 58 52 59 66 61 87 62 54 63 38 64 39 65 47 66 40 67
REMARK SMILES IDX 42 68 48 69 41 70 43 71 44 72 45 73 46 74 70 75 71 76 79 77
REMARK SMILES IDX 72 78 74 79 80 80 73 81 75 82 76 83 77 84 78 85 55 86 56 87
REMARK SMILES IDX 64 88 57 89 59 90 65 91 58 92 60 93 61 94 62 95 63 96
REMARK H PARENT 19 8 5 15 26 30 85 49 53 60
REMARK Flexibility Score: inf
ROOT
ATOM      1  C   UNL A   1      36.825  21.696  25.489  1.00  0.00     0.002 C 
ENDROOT
BRANCH   1   2
ATOM      2  C   UNL A   1      36.800  23.007  24.711  1.00  0.00     0.002 C 
BRANCH   2   3
ATOM      3  C   UNL A   1      35.699  23.154  23.659  1.00  0.00     0.021 C 
BRANCH   3   4
ATOM      4  C   UNL A   1      34.820  24.407  23.708  1.00  0.00     0.116 C 
BRANCH   4   5
ATOM      5  N   UNL A   1      33.465  24.270  23.195  1.00  0.00    -0.354 N 
ATOM      6  C   UNL A   1      32.236  24.283  23.797  1.00  0.00     0.245 C 
ATOM      7  O   UNL A   1      31.252  24.234  23.047  1.00  0.00    -0.272 OA
ATOM      8  H   UNL A   1      33.424  24.141  22.220  1.00  0.00     0.163 HD
BRANCH   6   9
ATOM      9  C   UNL A   1      32.056  24.444  25.333  1.00  0.00     0.117 C 
ATOM     10  C   UNL A   1      30.693  23.927  25.845  1.00  0.00     0.045 C 
BRANCH   9  11
ATOM     11  C   UNL A   1      32.124  25.984  25.614  1.00  0.00     0.035 C 
ATOM     12  C   UNL A   1      30.865  26.589  26.249  1.00  0.00     0.007 C 
ENDBRANCH   9  11
BRANCH   9  13
ATOM     13  N   UNL A   1      33.114  23.742  26.110  1.00  0.00    -0.324 N 
ATOM     14  C   UNL A   1      33.354  22.459  26.469  1.00  0.00     0.318 C 
ATOM     15  H   UNL A   1      33.805  24.360  26.444  1.00  0.00     0.166 HD
ATOM     16  O   UNL A   1      34.062  22.314  27.472  1.00  0.00    -0.249 OA
ATOM     17  N   UNL A   1      32.917  21.381  25.765  1.00  0.00    -0.316 N 
ATOM     18  C   UNL A   1      33.365  20.034  26.164  1.00  0.00     0.157 C 
ATOM     19  C   UNL A   1      32.257  21.329  24.472  1.00  0.00     0.157 C 
ATOM     20  C   UNL A   1      33.099  19.180  24.956  1.00  0.00    -0.023 A 
ATOM     21  C   UNL A   1      32.459  19.940  23.982  1.00  0.00    -0.023 A 
ATOM     22  C   UNL A   1      33.444  17.867  24.693  1.00  0.00     0.006 A 
ATOM     23  C   UNL A   1      32.183  19.448  22.717  1.00  0.00     0.006 A 
ATOM     24  C   UNL A   1      33.164  17.348  23.421  1.00  0.00     0.000 A 
ATOM     25  C   UNL A   1      32.547  18.136  22.435  1.00  0.00     0.000 A 
ENDBRANCH   9  13
ENDBRANCH   6   9
ENDBRANCH   4   5
ENDBRANCH   3   4
ENDBRANCH   2   3
ENDBRANCH   1   2
BRANCH   1  26
ATOM     26  C   UNL A   1      37.982  20.762  25.147  1.00  0.00     0.021 C 
BRANCH  26  27
ATOM     27  C   UNL A   1      39.185  20.860  26.077  1.00  0.00     0.116 C 
BRANCH  27  28
ATOM     28  N   UNL A   1      40.036  19.681  26.020  1.00  0.00    -0.352 N 
ATOM     29  C   UNL A   1      41.412  19.609  26.084  1.00  0.00     0.251 C 
ATOM     30  H   UNL A   1      39.567  18.820  25.924  1.00  0.00     0.163 HD
ATOM     31  O   UNL A   1      41.996  18.561  25.871  1.00  0.00    -0.269 OA
BRANCH  29  32
ATOM     32  C   UNL A   1      42.168  20.844  26.389  1.00  0.00     0.039 A 
ATOM     33  C   UNL A   1      42.575  21.666  25.336  1.00  0.00     0.014 A 
ATOM     34  C   UNL A   1      42.409  21.213  27.715  1.00  0.00     0.014 A 
ATOM     35  C   UNL A   1      43.155  22.906  25.619  1.00  0.00     0.010 A 
ATOM     36  C   UNL A   1      42.918  22.477  27.993  1.00  0.00     0.010 A 
ATOM     37  C   UNL A   1      43.289  23.338  26.949  1.00  0.00    -0.014 A 
BRANCH  37  38
ATOM     38  C   UNL A   1      43.775  24.705  27.272  1.00  0.00     0.031 A 
ATOM     39  C   UNL A   1      42.816  25.758  27.751  1.00  0.00     0.074 A 
ATOM     40  C   UNL A   1      45.060  25.027  27.024  1.00  0.00     0.049 A 
ATOM     41  N   UNL A   1      43.041  27.019  28.011  1.00  0.00    -0.248 NA
ATOM     42  C   UNL A   1      41.415  25.347  27.932  1.00  0.00     0.031 C 
ATOM     43  C   UNL A   1      46.065  24.120  26.464  1.00  0.00     0.029 A 
ATOM     44  N   UNL A   1      45.732  26.214  27.173  1.00  0.00    -0.354 N 
ATOM     45  C   UNL A   1      41.810  27.561  28.357  1.00  0.00     0.074 A 
ATOM     46  C   UNL A   1      40.834  26.499  28.233  1.00  0.00     0.031 C 
ATOM     47  C   UNL A   1      47.219  24.786  26.307  1.00  0.00     0.029 A 
ATOM     48  C   UNL A   1      47.032  26.171  26.727  1.00  0.00     0.049 A 
ATOM     49  H   UNL A   1      45.321  27.021  27.562  1.00  0.00     0.167 HD
ATOM     50  C   UNL A   1      41.521  28.817  28.773  1.00  0.00     0.034 A 
ATOM     51  C   UNL A   1      47.966  27.140  26.650  1.00  0.00     0.034 A 
ATOM     52  C   UNL A   1      42.499  29.860  28.925  1.00  0.00     0.049 A 
ATOM     53  C   UNL A   1      47.636  28.517  27.156  1.00  0.00     0.074 A 
ATOM     54  C   UNL A   1      42.326  31.136  29.431  1.00  0.00     0.029 A 
ATOM     55  N   UNL A   1      43.832  29.752  28.559  1.00  0.00    -0.354 N 
ATOM     56  N   UNL A   1      46.508  28.963  27.652  1.00  0.00    -0.248 NA
ATOM     57  C   UNL A   1      48.715  29.515  27.126  1.00  0.00     0.031 C 
ATOM     58  C   UNL A   1      43.550  31.808  29.350  1.00  0.00     0.029 A 
ATOM     59  C   UNL A   1      44.492  30.944  28.814  1.00  0.00     0.049 A 
ATOM     60  H   UNL A   1      44.248  28.948  28.174  1.00  0.00     0.167 HD
ATOM     61  C   UNL A   1      46.744  30.285  28.013  1.00  0.00     0.074 A 
ATOM     62  C   UNL A   1      48.133  30.558  27.704  1.00  0.00     0.031 C 
ATOM     63  C   UNL A   1      45.884  31.193  28.537  1.00  0.00     0.034 A 
BRANCH  50  64
ATOM     64  C   UNL A   1      40.090  29.109  29.147  1.00  0.00     0.023 A 
ATOM     65  C   UNL A   1      39.150  29.377  28.129  1.00  0.00     0.012 A 
ATOM     66  C   UNL A   1      39.665  29.086  30.489  1.00  0.00     0.148 A 
ATOM     67  C   UNL A   1      37.823  29.665  28.442  1.00  0.00     0.002 A 
ATOM     68  C   UNL A   1      38.329  29.328  30.791  1.00  0.00     0.091 A 
ATOM     69  F   UNL A   1      40.574  28.852  31.446  1.00  0.00    -0.205 F 
ATOM     70  C   UNL A   1      37.411  29.630  29.771  1.00  0.00     0.022 A 
BRANCH  68  71
ATOM     71  S   UNL A   1      37.685  29.229  32.465  1.00  0.00     0.127 S 
ATOM     72  O   UNL A   1      38.575  30.145  33.177  1.00  0.00    -0.237 OA
ATOM     73  O   UNL A   1      36.315  29.717  32.300  1.00  0.00    -0.237 OA
ATOM     74  O   UNL A   1      37.786  27.828  32.847  1.00  0.00    -0.744 OA
ENDBRANCH  68  71
ENDBRANCH  50  64
BRANCH  51  75
ATOM     75  C   UNL A   1      49.319  26.813  26.118  1.00  0.00     0.023 A 
ATOM     76  C   UNL A   1      50.201  26.034  26.891  1.00  0.00     0.012 A 
ATOM     77  C   UNL A   1      49.711  27.216  24.826  1.00  0.00     0.148 A 
ATOM     78  C   UNL A   1      51.457  25.680  26.396  1.00  0.00     0.002 A 
ATOM     79  C   UNL A   1      50.938  26.812  24.317  1.00  0.00     0.091 A 
ATOM     80  F   UNL A   1      48.860  27.967  24.111  1.00  0.00    -0.205 F 
ATOM     81  C   UNL A   1      51.820  26.057  25.106  1.00  0.00     0.022 A 
BRANCH  79  82
ATOM     82  S   UNL A   1      51.428  27.129  22.618  1.00  0.00     0.127 S 
ATOM     83  O   UNL A   1      50.242  26.706  21.879  1.00  0.00    -0.237 OA
ATOM     84  O   UNL A   1      51.661  28.574  22.636  1.00  0.00    -0.237 OA
ATOM     85  O   UNL A   1      52.628  26.333  22.398  1.00  0.00    -0.744 OA
ENDBRANCH  79  82
ENDBRANCH  51  75
BRANCH  63  86
ATOM     86  C   UNL A   1      46.415  32.573  28.822  1.00  0.00     0.023 A 
ATOM     87  C   UNL A   1      46.981  32.855  30.081  1.00  0.00     0.012 A 
ATOM     88  C   UNL A   1      46.427  33.564  27.821  1.00  0.00     0.148 A 
ATOM     89  C   UNL A   1      47.527  34.111  30.348  1.00  0.00     0.002 A 
ATOM     90  C   UNL A   1      47.014  34.797  28.078  1.00  0.00     0.091 A 
ATOM     91  F   UNL A   1      45.867  33.282  26.635  1.00  0.00    -0.205 F 
ATOM     92  C   UNL A   1      47.554  35.076  29.344  1.00  0.00     0.022 A 
BRANCH  90  93
ATOM     93  S   UNL A   1      47.179  36.070  26.821  1.00  0.00     0.127 S 
ATOM     94  O   UNL A   1      48.089  37.013  27.469  1.00  0.00    -0.237 OA
ATOM     95  O   UNL A   1      47.764  35.328  25.703  1.00  0.00    -0.237 OA
ATOM     96  O   UNL A   1      45.833  36.571  26.577  1.00  0.00    -0.744 OA
ENDBRANCH  90  93
ENDBRANCH  63  86
ENDBRANCH  37  38
ENDBRANCH  29  32
ENDBRANCH  27  28
ENDBRANCH  26  27
ENDBRANCH   1  26
TORSDOF 18
ENDMDL
MODEL 3
REMARK VINA RESULT:     -12.0      5.411      9.007
REMARK SMILES CC[C@](C)(NC(=O)N1Cc2ccccc2C1)C(=O)NCCCCCCNC(=O)c1ccc(-c2c3nc(c(-c4cccc(S(=O)(=O)[O-])c4F)c4ccc([nH]4)c(-c4cccc(S(=O)(=O)[O-])c4F)c4nc(c(-c5cccc(S(=O)(=O)[O-])c5F)c5ccc2[nH]5)C=C4)C=C3)cc1
REMARK SMILES IDX 23 1 22 2 21 3 20 4 19 5 17 6 18 7 3 9 4 10 2 11 1 12 5 13
REMARK SMILES IDX 6 14 7 16 8 17 9 18 16 19 10 20 15 21 11 22 14 23 12 24
REMARK SMILES IDX 13 25 24 26 25 27 26 28 27 29 28 31 29 32 30 33 91 34 31 35
REMARK SMILES IDX 90 36 32 37 33 38 34 39 84 40 35 41 89 42 83 43 85 44 36 45
REMARK SMILES IDX 88 46 82 47 81 48 37 50 69 51 49 52 68 53 50 54 53 55 67 56
REMARK SMILES IDX 86 57 51 58 52 59 66 61 87 62 54 63 38 64 39 65 47 66 40 67
REMARK SMILES IDX 42 68 48 69 41 70 43 71 44 72 45 73 46 74 70 75 71 76 79 77
REMARK SMILES IDX 72 78 74 79 80 80 73 81 75 82 76 83 77 84 78 85 55 86 56 87
REMARK SMILES IDX 64 88 57 89 59 90 65 91 58 92 60 93 61 94 62 95 63 96
REMARK H PARENT 19 8 5 15 26 30 85 49 53 60
REMARK Flexibility Score: inf
ROOT
ATOM      1  C   UNL A   1      36.091  20.291  24.941  1.00  0.00     0.002 C 
ENDROOT
BRANCH   1   2
ATOM      2  C   UNL A   1      34.818  21.067  25.264  1.00  0.00     0.002 C 
BRANCH   2   3
ATOM      3  C   UNL A   1      33.678  20.957  24.249  1.00  0.00     0.021 C 
BRANCH   3   4
ATOM      4  C   UNL A   1      32.730  22.152  24.099  1.00  0.00     0.116 C 
BRANCH   4   5
ATOM      5  N   UNL A   1      33.062  23.117  23.062  1.00  0.00    -0.354 N 
ATOM      6  C   UNL A   1      33.355  24.454  23.094  1.00  0.00     0.245 C 
ATOM      7  O   UNL A   1      33.692  24.972  22.020  1.00  0.00    -0.272 OA
ATOM      8  H   UNL A   1      33.077  22.732  22.156  1.00  0.00     0.163 HD
BRANCH   6   9
ATOM      9  C   UNL A   1      33.361  25.280  24.411  1.00  0.00     0.117 C 
ATOM     10  C   UNL A   1      34.310  24.706  25.486  1.00  0.00     0.045 C 
BRANCH   9  11
ATOM     11  C   UNL A   1      31.899  25.207  24.970  1.00  0.00     0.035 C 
ATOM     12  C   UNL A   1      31.788  24.987  26.484  1.00  0.00     0.007 C 
ENDBRANCH   9  11
BRANCH   9  13
ATOM     13  N   UNL A   1      33.748  26.701  24.194  1.00  0.00    -0.324 N 
ATOM     14  C   UNL A   1      33.278  27.722  23.440  1.00  0.00     0.318 C 
ATOM     15  H   UNL A   1      34.536  26.959  24.726  1.00  0.00     0.166 HD
ATOM     16  O   UNL A   1      34.102  28.604  23.172  1.00  0.00    -0.249 OA
ATOM     17  N   UNL A   1      31.984  27.836  23.041  1.00  0.00    -0.316 N 
ATOM     18  C   UNL A   1      31.551  29.066  22.352  1.00  0.00     0.157 C 
ATOM     19  C   UNL A   1      30.831  27.034  23.410  1.00  0.00     0.157 C 
ATOM     20  C   UNL A   1      30.054  29.057  22.479  1.00  0.00    -0.023 A 
ATOM     21  C   UNL A   1      29.647  27.877  23.095  1.00  0.00    -0.023 A 
ATOM     22  C   UNL A   1      29.120  30.022  22.151  1.00  0.00     0.006 A 
ATOM     23  C   UNL A   1      28.328  27.634  23.442  1.00  0.00     0.006 A 
ATOM     24  C   UNL A   1      27.778  29.791  22.486  1.00  0.00     0.000 A 
ATOM     25  C   UNL A   1      27.385  28.611  23.137  1.00  0.00     0.000 A 
ENDBRANCH   9  13
ENDBRANCH   6   9
ENDBRANCH   4   5
ENDBRANCH   3   4
ENDBRANCH   2   3
ENDBRANCH   1   2
BRANCH   1  26
ATOM     26  C   UNL A   1      37.311  21.151  24.628  1.00  0.00     0.021 C 
BRANCH  26  27
ATOM     27  C   UNL A   1      38.335  21.250  25.752  1.00  0.00     0.116 C 
BRANCH  27  28
ATOM     28  N   UNL A   1      39.154  20.053  25.871  1.00  0.00    -0.352 N 
ATOM     29  C   UNL A   1      40.502  19.957  26.144  1.00  0.00     0.251 C 
ATOM     30  H   UNL A   1      38.683  19.198  25.740  1.00  0.00     0.163 HD
ATOM     31  O   UNL A   1      41.085  18.889  26.063  1.00  0.00    -0.269 OA
BRANCH  29  32
ATOM     32  C   UNL A   1      41.237  21.189  26.510  1.00  0.00     0.039 A 
ATOM     33  C   UNL A   1      41.849  21.936  25.502  1.00  0.00     0.014 A 
ATOM     34  C   UNL A   1      41.254  21.630  27.836  1.00  0.00     0.014 A 
ATOM     35  C   UNL A   1      42.413  23.176  25.815  1.00  0.00     0.010 A 
ATOM     36  C   UNL A   1      41.751  22.896  28.130  1.00  0.00     0.010 A 
ATOM     37  C   UNL A   1      42.328  23.684  27.122  1.00  0.00    -0.014 A 
BRANCH  37  38
ATOM     38  C   UNL A   1      42.797  25.055  27.450  1.00  0.00     0.031 A 
ATOM     39  C   UNL A   1      41.856  26.053  28.062  1.00  0.00     0.074 A 
ATOM     40  C   UNL A   1      44.040  25.434  27.091  1.00  0.00     0.049 A 
ATOM     41  N   UNL A   1      42.062  27.312  28.349  1.00  0.00    -0.248 NA
ATOM     42  C   UNL A   1      40.493  25.584  28.362  1.00  0.00     0.031 C 
ATOM     43  C   UNL A   1      45.015  24.586  26.401  1.00  0.00     0.029 A 
ATOM     44  N   UNL A   1      44.683  26.639  27.221  1.00  0.00    -0.354 N 
ATOM     45  C   UNL A   1      40.853  27.794  28.835  1.00  0.00     0.074 A 
ATOM     46  C   UNL A   1      39.906  26.702  28.764  1.00  0.00     0.031 C 
ATOM     47  C   UNL A   1      46.124  25.300  26.158  1.00  0.00     0.029 A 
ATOM     48  C   UNL A   1      45.933  26.661  26.650  1.00  0.00     0.049 A 
ATOM     49  H   UNL A   1      44.285  27.415  27.681  1.00  0.00     0.167 HD
ATOM     50  C   UNL A   1      40.565  29.022  29.327  1.00  0.00     0.034 A 
ATOM     51  C   UNL A   1      46.822  27.666  26.521  1.00  0.00     0.034 A 
ATOM     52  C   UNL A   1      41.518  30.095  29.424  1.00  0.00     0.049 A 
ATOM     53  C   UNL A   1      46.497  29.010  27.111  1.00  0.00     0.074 A 
ATOM     54  C   UNL A   1      41.353  31.344  29.995  1.00  0.00     0.029 A 
ATOM     55  N   UNL A   1      42.811  30.051  28.926  1.00  0.00    -0.354 N 
ATOM     56  N   UNL A   1      45.409  29.396  27.732  1.00  0.00    -0.248 NA
ATOM     57  C   UNL A   1      47.534  30.049  27.016  1.00  0.00     0.031 C 
ATOM     58  C   UNL A   1      42.540  32.064  29.823  1.00  0.00     0.029 A 
ATOM     59  C   UNL A   1      43.452  31.256  29.163  1.00  0.00     0.049 A 
ATOM     60  H   UNL A   1      43.214  29.278  28.471  1.00  0.00     0.167 HD
ATOM     61  C   UNL A   1      45.635  30.711  28.121  1.00  0.00     0.074 A 
ATOM     62  C   UNL A   1      46.977  31.048  27.690  1.00  0.00     0.031 C 
ATOM     63  C   UNL A   1      44.802  31.568  28.763  1.00  0.00     0.034 A 
BRANCH  50  64
ATOM     64  C   UNL A   1      39.169  29.247  29.850  1.00  0.00     0.023 A 
ATOM     65  C   UNL A   1      38.843  28.822  31.155  1.00  0.00     0.012 A 
ATOM     66  C   UNL A   1      38.193  29.902  29.074  1.00  0.00     0.148 A 
ATOM     67  C   UNL A   1      37.558  29.003  31.663  1.00  0.00     0.002 A 
ATOM     68  C   UNL A   1      36.927  30.121  29.605  1.00  0.00     0.091 A 
ATOM     69  F   UNL A   1      38.512  30.280  27.828  1.00  0.00    -0.205 F 
ATOM     70  C   UNL A   1      36.603  29.660  30.892  1.00  0.00     0.022 A 
BRANCH  68  71
ATOM     71  S   UNL A   1      35.653  31.027  28.719  1.00  0.00     0.127 S 
ATOM     72  O   UNL A   1      34.858  31.569  29.820  1.00  0.00    -0.237 OA
ATOM     73  O   UNL A   1      36.434  32.022  27.984  1.00  0.00    -0.237 OA
ATOM     74  O   UNL A   1      34.980  30.047  27.879  1.00  0.00    -0.744 OA
ENDBRANCH  68  71
ENDBRANCH  50  64
BRANCH  51  75
ATOM     75  C   UNL A   1      48.126  27.409  25.847  1.00  0.00     0.023 A 
ATOM     76  C   UNL A   1      49.219  26.944  26.602  1.00  0.00     0.012 A 
ATOM     77  C   UNL A   1      48.268  27.564  24.454  1.00  0.00     0.148 A 
ATOM     78  C   UNL A   1      50.438  26.657  25.985  1.00  0.00     0.002 A 
ATOM     79  C   UNL A   1      49.466  27.221  23.838  1.00  0.00     0.091 A 
ATOM     80  F   UNL A   1      47.218  28.019  23.755  1.00  0.00    -0.205 F 
ATOM     81  C   UNL A   1      50.557  26.783  24.604  1.00  0.00     0.022 A 
BRANCH  79  82
ATOM     82  S   UNL A   1      49.663  27.215  22.052  1.00  0.00     0.127 S 
ATOM     83  O   UNL A   1      49.438  28.619  21.720  1.00  0.00    -0.237 OA
ATOM     84  O   UNL A   1      51.046  26.761  21.904  1.00  0.00    -0.237 OA
ATOM     85  O   UNL A   1      48.668  26.278  21.548  1.00  0.00    -0.744 OA
ENDBRANCH  79  82
ENDBRANCH  51  75
BRANCH  63  86
ATOM     86  C   UNL A   1      45.311  32.955  29.049  1.00  0.00     0.023 A 
ATOM     87  C   UNL A   1      45.999  33.209  30.252  1.00  0.00     0.012 A 
ATOM     88  C   UNL A   1      45.180  33.984  28.096  1.00  0.00     0.148 A 
ATOM     89  C   UNL A   1      46.527  34.474  30.514  1.00  0.00     0.002 A 
ATOM     90  C   UNL A   1      45.748  35.229  28.343  1.00  0.00     0.091 A 
ATOM     91  F   UNL A   1      44.506  33.727  26.966  1.00  0.00    -0.205 F 
ATOM     92  C   UNL A   1      46.411  35.478  29.556  1.00  0.00     0.022 A 
BRANCH  90  93
ATOM     93  S   UNL A   1      45.731  36.556  27.132  1.00  0.00     0.127 S 
ATOM     94  O   UNL A   1      46.346  35.909  25.974  1.00  0.00    -0.237 OA
ATOM     95  O   UNL A   1      44.301  36.828  26.990  1.00  0.00    -0.237 OA
ATOM     96  O   UNL A   1      46.500  37.645  27.718  1.00  0.00    -0.744 OA
ENDBRANCH  90  93
ENDBRANCH  63  86
ENDBRANCH  37  38
ENDBRANCH  29  32
ENDBRANCH  27  28
ENDBRANCH  26  27
ENDBRANCH   1  26
TORSDOF 18
ENDMDL
