MODEL 1
REMARK VINA RESULT:     -12.8      0.000      0.000
REMARK SMILES C[C@H]1CC[C@H]([NH2+]Cc2c(C(=O)NCCCCCCNC(=O)c3ccc(-c4c5nc(c(-c6cccc(S(=O)(=O)[O-])c6F)c6ccc([nH]6)c(-c6cccc(S(=O)(=O)[O-])c6F)c6nc(c(-c7cccc(S(=O)(=O)[O-])c7F)c7ccc4[nH]7)C=C6)C=C5)cc3)n(Cc3ccccc3F)c3ccccc23)CC1
REMARK SMILES IDX 15 1 14 2 13 3 12 4 10 5 11 6 9 8 8 9 99 10 85 11 94 12
REMARK SMILES IDX 98 13 95 14 97 15 96 16 7 17 6 18 5 21 1 22 2 23 3 24 101 25
REMARK SMILES IDX 4 26 100 27 86 28 87 29 88 30 92 31 89 32 91 33 93 34 90 35
REMARK SMILES IDX 16 36 17 37 18 38 19 39 20 40 21 42 22 43 23 44 84 45 24 46
REMARK SMILES IDX 83 47 25 48 26 49 27 50 77 51 28 52 82 53 76 54 78 55 29 56
REMARK SMILES IDX 81 57 75 58 74 59 30 61 62 62 42 63 61 64 43 65 46 66 60 67
REMARK SMILES IDX 79 68 44 69 45 70 59 72 80 73 47 74 31 75 32 76 40 77 33 78
REMARK SMILES IDX 35 79 41 80 34 81 36 82 37 83 38 84 39 85 63 86 64 87 72 88
REMARK SMILES IDX 65 89 67 90 73 91 66 92 68 93 69 94 70 95 71 96 48 97 49 98
REMARK SMILES IDX 57 99 50 100 52 101 58 102 51 103 53 104 54 105 55 106
REMARK SMILES IDX 56 107
REMARK H PARENT 12 7 6 19 6 20 19 41 78 60 46 71
REMARK Flexibility Score: inf
ROOT
ATOM      1  C   UNL A   1      31.617  27.555  26.501  1.00  0.00     0.002 C 
ENDROOT
BRANCH   1   2
ATOM      2  C   UNL A   1      31.963  26.080  26.234  1.00  0.00     0.021 C 
BRANCH   2   3
ATOM      3  C   UNL A   1      30.765  25.146  26.116  1.00  0.00     0.116 C 
BRANCH   3   4
ATOM      4  N   UNL A   1      30.282  24.828  24.798  1.00  0.00    -0.351 N 
ATOM      5  C   UNL A   1      30.793  23.950  23.863  1.00  0.00     0.268 C 
ATOM      6  O   UNL A   1      30.040  23.770  22.901  1.00  0.00    -0.268 OA
ATOM      7  H   UNL A   1      29.468  25.307  24.523  1.00  0.00     0.163 HD
BRANCH   5   8
ATOM      8  C   UNL A   1      32.129  23.323  23.933  1.00  0.00     0.117 A 
ATOM      9  C   UNL A   1      32.620  22.102  24.445  1.00  0.00     0.045 A 
ATOM     10  C   UNL A   1      34.029  22.295  24.626  1.00  0.00     0.009 A 
ATOM     11  N   UNL A   1      33.259  23.847  23.243  1.00  0.00    -0.331 N 
ATOM     12  C   UNL A   1      34.418  23.204  23.660  1.00  0.00     0.049 A 
ATOM     13  C   UNL A   1      35.017  21.634  25.388  1.00  0.00     0.011 A 
ATOM     14  C   UNL A   1      35.768  23.308  23.276  1.00  0.00     0.027 A 
ATOM     15  C   UNL A   1      36.366  21.886  25.141  1.00  0.00     0.001 A 
ATOM     16  C   UNL A   1      36.735  22.677  24.062  1.00  0.00     0.002 A 
BRANCH   9  17
ATOM     17  C   UNL A   1      32.043  20.758  24.805  1.00  0.00     0.300 C 
BRANCH  17  18
ATOM     18  N   UNL A   1      32.084  19.712  23.804  1.00  0.00    -0.340 N 
ATOM     19  H   UNL A   1      31.165  19.718  23.361  1.00  0.00     0.346 HD
ATOM     20  H   UNL A   1      32.919  19.978  23.282  1.00  0.00     0.346 HD
BRANCH  18  21
ATOM     21  C   UNL A   1      32.375  18.307  24.095  1.00  0.00     0.182 C 
ATOM     22  C   UNL A   1      35.253  15.082  25.084  1.00  0.00     0.007 C 
ATOM     23  C   UNL A   1      34.570  16.419  24.839  1.00  0.00    -0.014 C 
ATOM     24  C   UNL A   1      33.323  16.575  25.713  1.00  0.00     0.009 C 
ATOM     25  C   UNL A   1      34.175  16.588  23.372  1.00  0.00     0.009 C 
ATOM     26  C   UNL A   1      32.748  17.975  25.540  1.00  0.00     0.065 C 
ATOM     27  C   UNL A   1      33.536  17.951  23.135  1.00  0.00     0.065 C 
ENDBRANCH  18  21
ENDBRANCH  17  18
ENDBRANCH   9  17
BRANCH  11  28
ATOM     28  C   UNL A   1      33.263  24.841  22.153  1.00  0.00     0.161 C 
BRANCH  28  29
ATOM     29  C   UNL A   1      33.133  26.279  22.606  1.00  0.00     0.008 A 
ATOM     30  C   UNL A   1      34.157  26.951  23.298  1.00  0.00     0.008 A 
ATOM     31  C   UNL A   1      31.995  27.025  22.291  1.00  0.00     0.128 A 
ATOM     32  C   UNL A   1      34.023  28.277  23.714  1.00  0.00     0.001 A 
ATOM     33  C   UNL A   1      31.846  28.350  22.710  1.00  0.00     0.039 A 
ATOM     34  F   UNL A   1      31.028  26.497  21.530  1.00  0.00    -0.207 F 
ATOM     35  C   UNL A   1      32.857  28.974  23.435  1.00  0.00     0.003 A 
ENDBRANCH  28  29
ENDBRANCH  11  28
ENDBRANCH   5   8
ENDBRANCH   3   4
ENDBRANCH   2   3
ENDBRANCH   1   2
BRANCH   1  36
ATOM     36  C   UNL A   1      32.363  28.292  27.631  1.00  0.00     0.002 C 
BRANCH  36  37
ATOM     37  C   UNL A   1      33.830  28.694  27.414  1.00  0.00     0.021 C 
BRANCH  37  38
ATOM     38  C   UNL A   1      34.062  30.132  26.957  1.00  0.00     0.116 C 
BRANCH  38  39
ATOM     39  N   UNL A   1      34.020  31.098  28.033  1.00  0.00    -0.352 N 
ATOM     40  C   UNL A   1      34.884  31.568  28.976  1.00  0.00     0.251 C 
ATOM     41  H   UNL A   1      33.136  31.527  28.102  1.00  0.00     0.163 HD
ATOM     42  O   UNL A   1      34.456  32.509  29.652  1.00  0.00    -0.269 OA
BRANCH  40  43
ATOM     43  C   UNL A   1      36.231  31.020  29.283  1.00  0.00     0.039 A 
ATOM     44  C   UNL A   1      37.449  31.641  29.009  1.00  0.00     0.014 A 
ATOM     45  C   UNL A   1      36.244  29.721  29.833  1.00  0.00     0.014 A 
ATOM     46  C   UNL A   1      38.642  30.944  29.190  1.00  0.00     0.010 A 
ATOM     47  C   UNL A   1      37.431  29.026  30.022  1.00  0.00     0.010 A 
ATOM     48  C   UNL A   1      38.627  29.621  29.647  1.00  0.00    -0.014 A 
BRANCH  48  49
ATOM     49  C   UNL A   1      39.905  28.937  29.825  1.00  0.00     0.031 A 
ATOM     50  C   UNL A   1      40.426  28.991  31.220  1.00  0.00     0.074 A 
ATOM     51  C   UNL A   1      40.528  28.241  28.851  1.00  0.00     0.049 A 
ATOM     52  N   UNL A   1      41.473  29.616  31.655  1.00  0.00    -0.248 NA
ATOM     53  C   UNL A   1      39.592  28.407  32.283  1.00  0.00     0.031 C 
ATOM     54  C   UNL A   1      40.015  27.879  27.527  1.00  0.00     0.029 A 
ATOM     55  N   UNL A   1      41.734  27.604  28.889  1.00  0.00    -0.354 N 
ATOM     56  C   UNL A   1      41.556  29.301  33.011  1.00  0.00     0.074 A 
ATOM     57  C   UNL A   1      40.293  28.717  33.375  1.00  0.00     0.031 C 
ATOM     58  C   UNL A   1      40.786  26.899  26.998  1.00  0.00     0.029 A 
ATOM     59  C   UNL A   1      41.921  26.670  27.871  1.00  0.00     0.049 A 
ATOM     60  H   UNL A   1      42.415  27.789  29.576  1.00  0.00     0.167 HD
ATOM     61  C   UNL A   1      42.745  29.308  33.673  1.00  0.00     0.034 A 
ATOM     62  C   UNL A   1      42.910  25.740  27.801  1.00  0.00     0.034 A 
ATOM     63  C   UNL A   1      43.749  30.062  32.974  1.00  0.00     0.049 A 
ATOM     64  C   UNL A   1      44.006  26.225  28.669  1.00  0.00     0.074 A 
ATOM     65  C   UNL A   1      43.876  31.370  32.553  1.00  0.00     0.029 A 
ATOM     66  N   UNL A   1      44.682  29.347  32.268  1.00  0.00    -0.354 N 
ATOM     67  N   UNL A   1      44.704  27.297  28.423  1.00  0.00    -0.248 NA
ATOM     68  C   UNL A   1      44.062  25.731  30.034  1.00  0.00     0.031 C 
ATOM     69  C   UNL A   1      44.524  31.284  31.287  1.00  0.00     0.029 A 
ATOM     70  C   UNL A   1      44.805  29.939  31.041  1.00  0.00     0.049 A 
ATOM     71  H   UNL A   1      45.173  28.554  32.586  1.00  0.00     0.167 HD
ATOM     72  C   UNL A   1      44.913  27.861  29.673  1.00  0.00     0.074 A 
ATOM     73  C   UNL A   1      44.589  26.804  30.629  1.00  0.00     0.031 C 
ATOM     74  C   UNL A   1      45.054  29.209  29.820  1.00  0.00     0.034 A 
BRANCH  61  75
ATOM     75  C   UNL A   1      43.111  28.312  34.748  1.00  0.00     0.023 A 
ATOM     76  C   UNL A   1      43.595  28.810  35.977  1.00  0.00     0.012 A 
ATOM     77  C   UNL A   1      43.279  26.928  34.505  1.00  0.00     0.148 A 
ATOM     78  C   UNL A   1      44.239  27.978  36.900  1.00  0.00     0.002 A 
ATOM     79  C   UNL A   1      43.852  26.095  35.455  1.00  0.00     0.091 A 
ATOM     80  F   UNL A   1      43.017  26.427  33.294  1.00  0.00    -0.205 F 
ATOM     81  C   UNL A   1      44.359  26.618  36.646  1.00  0.00     0.022 A 
BRANCH  79  82
ATOM     82  S   UNL A   1      44.008  24.326  35.175  1.00  0.00     0.127 S 
ATOM     83  O   UNL A   1      44.858  24.296  33.989  1.00  0.00    -0.237 OA
ATOM     84  O   UNL A   1      44.650  23.884  36.414  1.00  0.00    -0.237 OA
ATOM     85  O   UNL A   1      42.645  23.841  35.007  1.00  0.00    -0.744 OA
ENDBRANCH  79  82
ENDBRANCH  61  75
BRANCH  62  86
ATOM     86  C   UNL A   1      42.899  24.339  27.298  1.00  0.00     0.023 A 
ATOM     87  C   UNL A   1      41.691  23.605  27.346  1.00  0.00     0.012 A 
ATOM     88  C   UNL A   1      43.942  23.836  26.491  1.00  0.00     0.148 A 
ATOM     89  C   UNL A   1      41.503  22.460  26.563  1.00  0.00     0.002 A 
ATOM     90  C   UNL A   1      43.753  22.688  25.721  1.00  0.00     0.091 A 
ATOM     91  F   UNL A   1      45.081  24.532  26.396  1.00  0.00    -0.205 F 
ATOM     92  C   UNL A   1      42.529  22.010  25.738  1.00  0.00     0.022 A 
BRANCH  90  93
ATOM     93  S   UNL A   1      45.035  22.052  24.631  1.00  0.00     0.127 S 
ATOM     94  O   UNL A   1      45.292  23.203  23.761  1.00  0.00    -0.237 OA
ATOM     95  O   UNL A   1      46.114  21.754  25.576  1.00  0.00    -0.237 OA
ATOM     96  O   UNL A   1      44.451  20.911  23.955  1.00  0.00    -0.744 OA
ENDBRANCH  90  93
ENDBRANCH  62  86
BRANCH  74  97
ATOM     97  C   UNL A   1      45.232  30.044  28.579  1.00  0.00     0.023 A 
ATOM     98  C   UNL A   1      44.135  30.521  27.829  1.00  0.00     0.012 A 
ATOM     99  C   UNL A   1      46.519  30.521  28.291  1.00  0.00     0.148 A 
ATOM    100  C   UNL A   1      44.326  31.461  26.811  1.00  0.00     0.002 A 
ATOM    101  C   UNL A   1      46.699  31.483  27.307  1.00  0.00     0.091 A 
ATOM    102  F   UNL A   1      47.541  30.059  29.028  1.00  0.00    -0.205 F 
ATOM    103  C   UNL A   1      45.606  31.954  26.562  1.00  0.00     0.022 A 
BRANCH 101 104
ATOM    104  S   UNL A   1      48.297  32.242  27.010  1.00  0.00     0.127 S 
ATOM    105  O   UNL A   1      48.637  32.767  28.331  1.00  0.00    -0.237 OA
ATOM    106  O   UNL A   1      49.103  31.101  26.577  1.00  0.00    -0.237 OA
ATOM    107  O   UNL A   1      48.083  33.250  25.979  1.00  0.00    -0.744 OA
ENDBRANCH 101 104
ENDBRANCH  74  97
ENDBRANCH  48  49
ENDBRANCH  40  43
ENDBRANCH  38  39
ENDBRANCH  37  38
ENDBRANCH  36  37
ENDBRANCH   1  36
TORSDOF 21
ENDMDL
MODEL 2
REMARK VINA RESULT:     -12.3      1.340      2.617
REMARK SMILES C[C@H]1CC[C@H]([NH2+]Cc2c(C(=O)NCCCCCCNC(=O)c3ccc(-c4c5nc(c(-c6cccc(S(=O)(=O)[O-])c6F)c6ccc([nH]6)c(-c6cccc(S(=O)(=O)[O-])c6F)c6nc(c(-c7cccc(S(=O)(=O)[O-])c7F)c7ccc4[nH]7)C=C6)C=C5)cc3)n(Cc3ccccc3F)c3ccccc23)CC1
REMARK SMILES IDX 15 1 14 2 13 3 12 4 10 5 11 6 9 8 8 9 99 10 85 11 94 12
REMARK SMILES IDX 98 13 95 14 97 15 96 16 7 17 6 18 5 21 1 22 2 23 3 24 101 25
REMARK SMILES IDX 4 26 100 27 86 28 87 29 88 30 92 31 89 32 91 33 93 34 90 35
REMARK SMILES IDX 16 36 17 37 18 38 19 39 20 40 21 42 22 43 23 44 84 45 24 46
REMARK SMILES IDX 83 47 25 48 26 49 27 50 77 51 28 52 82 53 76 54 78 55 29 56
REMARK SMILES IDX 81 57 75 58 74 59 30 61 62 62 42 63 61 64 43 65 46 66 60 67
REMARK SMILES IDX 79 68 44 69 45 70 59 72 80 73 47 74 31 75 32 76 40 77 33 78
REMARK SMILES IDX 35 79 41 80 34 81 36 82 37 83 38 84 39 85 63 86 64 87 72 88
REMARK SMILES IDX 65 89 67 90 73 91 66 92 68 93 69 94 70 95 71 96 48 97 49 98
REMARK SMILES IDX 57 99 50 100 52 101 58 102 51 103 53 104 54 105 55 106
REMARK SMILES IDX 56 107
REMARK H PARENT 12 7 6 19 6 20 19 41 78 60 46 71
REMARK Flexibility Score: inf
ROOT
ATOM      1  C   UNL A   1      33.716  28.193  24.976  1.00  0.00     0.002 C 
ENDROOT
BRANCH   1   2
ATOM      2  C   UNL A   1      33.912  28.028  23.459  1.00  0.00     0.021 C 
BRANCH   2   3
ATOM      3  C   UNL A   1      32.875  27.152  22.765  1.00  0.00     0.116 C 
BRANCH   3   4
ATOM      4  N   UNL A   1      33.344  26.128  21.869  1.00  0.00    -0.351 N 
ATOM      5  C   UNL A   1      33.255  24.755  21.981  1.00  0.00     0.268 C 
ATOM      6  O   UNL A   1      33.592  24.160  20.953  1.00  0.00    -0.268 OA
ATOM      7  H   UNL A   1      33.795  26.455  21.058  1.00  0.00     0.163 HD
BRANCH   5   8
ATOM      8  C   UNL A   1      32.868  24.030  23.209  1.00  0.00     0.117 A 
ATOM      9  C   UNL A   1      31.920  23.026  23.504  1.00  0.00     0.045 A 
ATOM     10  C   UNL A   1      31.718  23.088  24.922  1.00  0.00     0.009 A 
ATOM     11  N   UNL A   1      33.616  24.116  24.417  1.00  0.00    -0.331 N 
ATOM     12  C   UNL A   1      32.914  23.524  25.460  1.00  0.00     0.049 A 
ATOM     13  C   UNL A   1      30.700  22.628  25.786  1.00  0.00     0.011 A 
ATOM     14  C   UNL A   1      33.211  23.306  26.818  1.00  0.00     0.027 A 
ATOM     15  C   UNL A   1      30.922  22.596  27.162  1.00  0.00     0.001 A 
ATOM     16  C   UNL A   1      32.182  22.885  27.666  1.00  0.00     0.002 A 
BRANCH   9  17
ATOM     17  C   UNL A   1      31.146  21.992  22.728  1.00  0.00     0.300 C 
BRANCH  17  18
ATOM     18  N   UNL A   1      31.828  20.768  22.363  1.00  0.00    -0.340 N 
ATOM     19  H   UNL A   1      31.257  20.341  21.634  1.00  0.00     0.346 HD
ATOM     20  H   UNL A   1      32.762  21.123  22.156  1.00  0.00     0.346 HD
BRANCH  18  21
ATOM     21  C   UNL A   1      32.142  19.691  23.304  1.00  0.00     0.182 C 
ATOM     22  C   UNL A   1      34.835  16.469  24.728  1.00  0.00     0.007 C 
ATOM     23  C   UNL A   1      34.227  17.675  24.027  1.00  0.00    -0.014 C 
ATOM     24  C   UNL A   1      33.745  18.719  25.036  1.00  0.00     0.009 C 
ATOM     25  C   UNL A   1      33.058  17.272  23.129  1.00  0.00     0.009 C 
ATOM     26  C   UNL A   1      33.271  19.965  24.298  1.00  0.00     0.065 C 
ATOM     27  C   UNL A   1      32.491  18.485  22.400  1.00  0.00     0.065 C 
ENDBRANCH  18  21
ENDBRANCH  17  18
ENDBRANCH   9  17
BRANCH  11  28
ATOM     28  C   UNL A   1      34.986  24.635  24.590  1.00  0.00     0.161 C 
BRANCH  28  29
ATOM     29  C   UNL A   1      36.047  23.571  24.776  1.00  0.00     0.008 A 
ATOM     30  C   UNL A   1      36.096  22.405  23.991  1.00  0.00     0.008 A 
ATOM     31  C   UNL A   1      37.074  23.744  25.707  1.00  0.00     0.128 A 
ATOM     32  C   UNL A   1      37.078  21.430  24.175  1.00  0.00     0.001 A 
ATOM     33  C   UNL A   1      38.056  22.771  25.906  1.00  0.00     0.039 A 
ATOM     34  F   UNL A   1      37.168  24.882  26.407  1.00  0.00    -0.207 F 
ATOM     35  C   UNL A   1      38.051  21.604  25.148  1.00  0.00     0.003 A 
ENDBRANCH  28  29
ENDBRANCH  11  28
ENDBRANCH   5   8
ENDBRANCH   3   4
ENDBRANCH   2   3
ENDBRANCH   1   2
BRANCH   1  36
ATOM     36  C   UNL A   1      32.585  29.114  25.474  1.00  0.00     0.002 C 
BRANCH  36  37
ATOM     37  C   UNL A   1      32.695  29.734  26.876  1.00  0.00     0.021 C 
BRANCH  37  38
ATOM     38  C   UNL A   1      34.109  30.081  27.339  1.00  0.00     0.116 C 
BRANCH  38  39
ATOM     39  N   UNL A   1      34.152  31.120  28.344  1.00  0.00    -0.352 N 
ATOM     40  C   UNL A   1      35.067  31.602  29.232  1.00  0.00     0.251 C 
ATOM     41  H   UNL A   1      33.297  31.605  28.402  1.00  0.00     0.163 HD
ATOM     42  O   UNL A   1      34.712  32.613  29.848  1.00  0.00    -0.269 OA
BRANCH  40  43
ATOM     43  C   UNL A   1      36.387  30.998  29.547  1.00  0.00     0.039 A 
ATOM     44  C   UNL A   1      37.629  31.609  29.377  1.00  0.00     0.014 A 
ATOM     45  C   UNL A   1      36.349  29.657  29.985  1.00  0.00     0.014 A 
ATOM     46  C   UNL A   1      38.797  30.870  29.548  1.00  0.00     0.010 A 
ATOM     47  C   UNL A   1      37.511  28.920  30.164  1.00  0.00     0.010 A 
ATOM     48  C   UNL A   1      38.735  29.514  29.890  1.00  0.00    -0.014 A 
BRANCH  48  49
ATOM     49  C   UNL A   1      39.989  28.786  30.063  1.00  0.00     0.031 A 
ATOM     50  C   UNL A   1      40.544  28.865  31.444  1.00  0.00     0.074 A 
ATOM     51  C   UNL A   1      40.561  28.035  29.100  1.00  0.00     0.049 A 
ATOM     52  N   UNL A   1      41.624  29.462  31.834  1.00  0.00    -0.248 NA
ATOM     53  C   UNL A   1      39.713  28.350  32.544  1.00  0.00     0.031 C 
ATOM     54  C   UNL A   1      40.003  27.650  27.800  1.00  0.00     0.029 A 
ATOM     55  N   UNL A   1      41.742  27.352  29.132  1.00  0.00    -0.354 N 
ATOM     56  C   UNL A   1      41.726  29.189  33.198  1.00  0.00     0.074 A 
ATOM     57  C   UNL A   1      40.451  28.667  33.609  1.00  0.00     0.031 C 
ATOM     58  C   UNL A   1      40.723  26.623  27.288  1.00  0.00     0.029 A 
ATOM     59  C   UNL A   1      41.869  26.378  28.143  1.00  0.00     0.049 A 
ATOM     60  H   UNL A   1      42.446  27.532  29.798  1.00  0.00     0.167 HD
ATOM     61  C   UNL A   1      42.930  29.170  33.833  1.00  0.00     0.034 A 
ATOM     62  C   UNL A   1      42.819  25.408  28.083  1.00  0.00     0.034 A 
ATOM     63  C   UNL A   1      43.946  29.861  33.086  1.00  0.00     0.049 A 
ATOM     64  C   UNL A   1      43.953  25.877  28.909  1.00  0.00     0.074 A 
ATOM     65  C   UNL A   1      44.114  31.148  32.619  1.00  0.00     0.029 A 
ATOM     66  N   UNL A   1      44.834  29.086  32.385  1.00  0.00    -0.354 N 
ATOM     67  N   UNL A   1      44.687  26.913  28.612  1.00  0.00    -0.248 NA
ATOM     68  C   UNL A   1      44.022  25.427  30.288  1.00  0.00     0.031 C 
ATOM     69  C   UNL A   1      44.729  30.995  31.342  1.00  0.00     0.029 A 
ATOM     70  C   UNL A   1      44.951  29.632  31.136  1.00  0.00     0.049 A 
ATOM     71  H   UNL A   1      45.301  28.285  32.718  1.00  0.00     0.167 HD
ATOM     72  C   UNL A   1      44.947  27.508  29.837  1.00  0.00     0.074 A 
ATOM     73  C   UNL A   1      44.603  26.496  30.835  1.00  0.00     0.031 C 
ATOM     74  C   UNL A   1      45.143  28.853  29.935  1.00  0.00     0.034 A 
BRANCH  61  75
ATOM     75  C   UNL A   1      43.283  28.196  34.932  1.00  0.00     0.023 A 
ATOM     76  C   UNL A   1      43.804  28.716  36.137  1.00  0.00     0.012 A 
ATOM     77  C   UNL A   1      43.401  26.801  34.730  1.00  0.00     0.148 A 
ATOM     78  C   UNL A   1      44.437  27.892  37.075  1.00  0.00     0.002 A 
ATOM     79  C   UNL A   1      43.963  25.978  35.697  1.00  0.00     0.091 A 
ATOM     80  F   UNL A   1      43.101  26.272  33.540  1.00  0.00    -0.205 F 
ATOM     81  C   UNL A   1      44.508  26.521  36.862  1.00  0.00     0.022 A 
BRANCH  79  82
ATOM     82  S   UNL A   1      44.056  24.198  35.470  1.00  0.00     0.127 S 
ATOM     83  O   UNL A   1      44.562  23.768  36.769  1.00  0.00    -0.237 OA
ATOM     84  O   UNL A   1      42.658  23.858  35.203  1.00  0.00    -0.237 OA
ATOM     85  O   UNL A   1      44.944  24.000  34.333  1.00  0.00    -0.744 OA
ENDBRANCH  79  82
ENDBRANCH  61  75
BRANCH  62  86
ATOM     86  C   UNL A   1      42.742  23.993  27.627  1.00  0.00     0.023 A 
ATOM     87  C   UNL A   1      41.542  23.273  27.833  1.00  0.00     0.012 A 
ATOM     88  C   UNL A   1      43.684  23.455  26.723  1.00  0.00     0.148 A 
ATOM     89  C   UNL A   1      41.259  22.107  27.112  1.00  0.00     0.002 A 
ATOM     90  C   UNL A   1      43.401  22.287  26.016  1.00  0.00     0.091 A 
ATOM     91  F   UNL A   1      44.810  24.136  26.480  1.00  0.00    -0.205 F 
ATOM     92  C   UNL A   1      42.182  21.622  26.191  1.00  0.00     0.022 A 
BRANCH  90  93
ATOM     93  S   UNL A   1      44.548  21.605  24.809  1.00  0.00     0.127 S 
ATOM     94  O   UNL A   1      44.031  20.244  24.635  1.00  0.00    -0.237 OA
ATOM     95  O   UNL A   1      44.332  22.485  23.658  1.00  0.00    -0.237 OA
ATOM     96  O   UNL A   1      45.858  21.672  25.423  1.00  0.00    -0.744 OA
ENDBRANCH  90  93
ENDBRANCH  62  86
BRANCH  74  97
ATOM     97  C   UNL A   1      45.324  29.639  28.663  1.00  0.00     0.023 A 
ATOM     98  C   UNL A   1      44.231  30.049  27.869  1.00  0.00     0.012 A 
ATOM     99  C   UNL A   1      46.602  30.145  28.384  1.00  0.00     0.148 A 
ATOM    100  C   UNL A   1      44.416  30.950  26.815  1.00  0.00     0.002 A 
ATOM    101  C   UNL A   1      46.775  31.070  27.363  1.00  0.00     0.091 A 
ATOM    102  F   UNL A   1      47.620  29.748  29.163  1.00  0.00    -0.205 F 
ATOM    103  C   UNL A   1      45.686  31.472  26.573  1.00  0.00     0.022 A 
BRANCH 101 104
ATOM    104  S   UNL A   1      48.355  31.866  27.068  1.00  0.00     0.127 S 
ATOM    105  O   UNL A   1      48.693  32.376  28.396  1.00  0.00    -0.237 OA
ATOM    106  O   UNL A   1      49.182  30.749  26.612  1.00  0.00    -0.237 OA
ATOM    107  O   UNL A   1      48.114  32.887  26.056  1.00  0.00    -0.744 OA
ENDBRANCH 101 104
ENDBRANCH  74  97
ENDBRANCH  48  49
ENDBRANCH  40  43
ENDBRANCH  38  39
ENDBRANCH  37  38
ENDBRANCH  36  37
ENDBRANCH   1  36
TORSDOF 21
ENDMDL
MODEL 3
REMARK VINA RESULT:     -12.2      2.762      8.165
REMARK SMILES C[C@H]1CC[C@H]([NH2+]Cc2c(C(=O)NCCCCCCNC(=O)c3ccc(-c4c5nc(c(-c6cccc(S(=O)(=O)[O-])c6F)c6ccc([nH]6)c(-c6cccc(S(=O)(=O)[O-])c6F)c6nc(c(-c7cccc(S(=O)(=O)[O-])c7F)c7ccc4[nH]7)C=C6)C=C5)cc3)n(Cc3ccccc3F)c3ccccc23)CC1
REMARK SMILES IDX 15 1 14 2 13 3 12 4 10 5 11 6 9 8 8 9 99 10 85 11 94 12
REMARK SMILES IDX 98 13 95 14 97 15 96 16 7 17 6 18 5 21 1 22 2 23 3 24 101 25
REMARK SMILES IDX 4 26 100 27 86 28 87 29 88 30 92 31 89 32 91 33 93 34 90 35
REMARK SMILES IDX 16 36 17 37 18 38 19 39 20 40 21 42 22 43 23 44 84 45 24 46
REMARK SMILES IDX 83 47 25 48 26 49 27 50 77 51 28 52 82 53 76 54 78 55 29 56
REMARK SMILES IDX 81 57 75 58 74 59 30 61 62 62 42 63 61 64 43 65 46 66 60 67
REMARK SMILES IDX 79 68 44 69 45 70 59 72 80 73 47 74 31 75 32 76 40 77 33 78
REMARK SMILES IDX 35 79 41 80 34 81 36 82 37 83 38 84 39 85 63 86 64 87 72 88
REMARK SMILES IDX 65 89 67 90 73 91 66 92 68 93 69 94 70 95 71 96 48 97 49 98
REMARK SMILES IDX 57 99 50 100 52 101 58 102 51 103 53 104 54 105 55 106
REMARK SMILES IDX 56 107
REMARK H PARENT 12 7 6 19 6 20 19 41 78 60 46 71
REMARK Flexibility Score: inf
ROOT
ATOM      1  C   UNL A   1      35.400  23.578  24.614  1.00  0.00     0.002 C 
ENDROOT
BRANCH   1   2
ATOM      2  C   UNL A   1      34.649  22.683  25.615  1.00  0.00     0.021 C 
BRANCH   2   3
ATOM      3  C   UNL A   1      34.359  23.326  26.966  1.00  0.00     0.116 C 
BRANCH   3   4
ATOM      4  N   UNL A   1      32.994  23.365  27.419  1.00  0.00    -0.351 N 
ATOM      5  C   UNL A   1      31.852  23.737  26.738  1.00  0.00     0.268 C 
ATOM      6  O   UNL A   1      30.812  23.482  27.353  1.00  0.00    -0.268 OA
ATOM      7  H   UNL A   1      32.854  23.085  28.352  1.00  0.00     0.163 HD
BRANCH   5   8
ATOM      8  C   UNL A   1      31.834  24.435  25.435  1.00  0.00     0.117 A 
ATOM      9  C   UNL A   1      31.758  24.012  24.091  1.00  0.00     0.045 A 
ATOM     10  C   UNL A   1      32.248  25.109  23.310  1.00  0.00     0.009 A 
ATOM     11  N   UNL A   1      31.694  25.847  25.325  1.00  0.00    -0.331 N 
ATOM     12  C   UNL A   1      31.934  26.254  24.017  1.00  0.00     0.049 A 
ATOM     13  C   UNL A   1      32.746  25.227  21.993  1.00  0.00     0.011 A 
ATOM     14  C   UNL A   1      31.888  27.504  23.374  1.00  0.00     0.027 A 
ATOM     15  C   UNL A   1      32.889  26.490  21.418  1.00  0.00     0.001 A 
ATOM     16  C   UNL A   1      32.417  27.611  22.086  1.00  0.00     0.002 A 
BRANCH   9  17
ATOM     17  C   UNL A   1      31.310  22.773  23.359  1.00  0.00     0.300 C 
BRANCH  17  18
ATOM     18  N   UNL A   1      32.311  21.776  23.038  1.00  0.00    -0.340 N 
ATOM     19  H   UNL A   1      32.284  21.676  22.023  1.00  0.00     0.346 HD
ATOM     20  H   UNL A   1      33.129  22.168  23.505  1.00  0.00     0.346 HD
BRANCH  18  21
ATOM     21  C   UNL A   1      32.313  20.413  23.572  1.00  0.00     0.182 C 
ATOM     22  C   UNL A   1      33.917  16.279  23.605  1.00  0.00     0.007 C 
ATOM     23  C   UNL A   1      33.687  17.766  23.377  1.00  0.00    -0.014 C 
ATOM     24  C   UNL A   1      33.606  18.525  24.703  1.00  0.00     0.009 C 
ATOM     25  C   UNL A   1      32.411  18.022  22.576  1.00  0.00     0.009 C 
ATOM     26  C   UNL A   1      33.514  20.022  24.433  1.00  0.00     0.065 C 
ATOM     27  C   UNL A   1      32.222  19.512  22.317  1.00  0.00     0.065 C 
ENDBRANCH  18  21
ENDBRANCH  17  18
ENDBRANCH   9  17
BRANCH  11  28
ATOM     28  C   UNL A   1      31.249  26.790  26.369  1.00  0.00     0.161 C 
BRANCH  28  29
ATOM     29  C   UNL A   1      32.201  27.937  26.634  1.00  0.00     0.008 A 
ATOM     30  C   UNL A   1      31.755  29.226  26.975  1.00  0.00     0.008 A 
ATOM     31  C   UNL A   1      33.583  27.736  26.612  1.00  0.00     0.128 A 
ATOM     32  C   UNL A   1      32.643  30.277  27.214  1.00  0.00     0.001 A 
ATOM     33  C   UNL A   1      34.480  28.782  26.839  1.00  0.00     0.039 A 
ATOM     34  F   UNL A   1      34.086  26.510  26.416  1.00  0.00    -0.207 F 
ATOM     35  C   UNL A   1      34.010  30.060  27.128  1.00  0.00     0.003 A 
ENDBRANCH  28  29
ENDBRANCH  11  28
ENDBRANCH   5   8
ENDBRANCH   3   4
ENDBRANCH   2   3
ENDBRANCH   1   2
BRANCH   1  36
ATOM     36  C   UNL A   1      36.859  23.225  24.265  1.00  0.00     0.002 C 
BRANCH  36  37
ATOM     37  C   UNL A   1      37.325  21.767  24.404  1.00  0.00     0.021 C 
BRANCH  37  38
ATOM     38  C   UNL A   1      37.806  21.355  25.794  1.00  0.00     0.116 C 
BRANCH  38  39
ATOM     39  N   UNL A   1      39.216  21.034  25.847  1.00  0.00    -0.352 N 
ATOM     40  C   UNL A   1      40.343  21.604  26.359  1.00  0.00     0.251 C 
ATOM     41  H   UNL A   1      39.411  20.181  25.395  1.00  0.00     0.163 HD
ATOM     42  O   UNL A   1      41.362  20.910  26.276  1.00  0.00    -0.269 OA
BRANCH  40  43
ATOM     43  C   UNL A   1      40.451  22.968  26.939  1.00  0.00     0.039 A 
ATOM     44  C   UNL A   1      39.715  24.085  26.545  1.00  0.00     0.014 A 
ATOM     45  C   UNL A   1      41.449  23.129  27.923  1.00  0.00     0.014 A 
ATOM     46  C   UNL A   1      40.036  25.343  27.051  1.00  0.00     0.010 A 
ATOM     47  C   UNL A   1      41.765  24.380  28.436  1.00  0.00     0.010 A 
ATOM     48  C   UNL A   1      41.093  25.494  27.956  1.00  0.00    -0.014 A 
BRANCH  48  49
ATOM     49  C   UNL A   1      41.384  26.834  28.461  1.00  0.00     0.031 A 
ATOM     50  C   UNL A   1      42.700  27.372  28.012  1.00  0.00     0.074 A 
ATOM     51  C   UNL A   1      40.519  27.566  29.193  1.00  0.00     0.049 A 
ATOM     52  N   UNL A   1      43.748  27.611  28.732  1.00  0.00    -0.248 NA
ATOM     53  C   UNL A   1      42.921  27.513  26.564  1.00  0.00     0.031 C 
ATOM     54  C   UNL A   1      39.109  27.283  29.479  1.00  0.00     0.029 A 
ATOM     55  N   UNL A   1      40.695  28.799  29.750  1.00  0.00    -0.354 N 
ATOM     56  C   UNL A   1      44.683  28.159  27.855  1.00  0.00     0.074 A 
ATOM     57  C   UNL A   1      44.195  27.907  26.525  1.00  0.00     0.031 C 
ATOM     58  C   UNL A   1      38.508  28.408  29.934  1.00  0.00     0.029 A 
ATOM     59  C   UNL A   1      39.511  29.441  30.109  1.00  0.00     0.049 A 
ATOM     60  H   UNL A   1      41.584  29.201  29.887  1.00  0.00     0.167 HD
ATOM     61  C   UNL A   1      45.659  29.003  28.288  1.00  0.00     0.034 A 
ATOM     62  C   UNL A   1      39.376  30.746  30.461  1.00  0.00     0.034 A 
ATOM     63  C   UNL A   1      45.870  28.903  29.706  1.00  0.00     0.049 A 
ATOM     64  C   UNL A   1      40.713  31.204  30.901  1.00  0.00     0.074 A 
ATOM     65  C   UNL A   1      46.236  27.894  30.573  1.00  0.00     0.029 A 
ATOM     66  N   UNL A   1      45.323  29.890  30.486  1.00  0.00    -0.354 N 
ATOM     67  N   UNL A   1      41.318  30.758  31.965  1.00  0.00    -0.248 NA
ATOM     68  C   UNL A   1      41.555  31.876  29.927  1.00  0.00     0.031 C 
ATOM     69  C   UNL A   1      45.453  28.117  31.743  1.00  0.00     0.029 A 
ATOM     70  C   UNL A   1      44.705  29.278  31.541  1.00  0.00     0.049 A 
ATOM     71  H   UNL A   1      45.367  30.859  30.316  1.00  0.00     0.167 HD
ATOM     72  C   UNL A   1      42.652  30.687  31.593  1.00  0.00     0.074 A 
ATOM     73  C   UNL A   1      42.752  31.483  30.371  1.00  0.00     0.031 C 
ATOM     74  C   UNL A   1      43.486  29.762  32.147  1.00  0.00     0.034 A 
BRANCH  61  75
ATOM     75  C   UNL A   1      46.146  30.196  27.499  1.00  0.00     0.023 A 
ATOM     76  C   UNL A   1      47.526  30.490  27.527  1.00  0.00     0.012 A 
ATOM     77  C   UNL A   1      45.286  31.194  26.984  1.00  0.00     0.148 A 
ATOM     78  C   UNL A   1      48.019  31.727  27.093  1.00  0.00     0.002 A 
ATOM     79  C   UNL A   1      45.788  32.389  26.486  1.00  0.00     0.091 A 
ATOM     80  F   UNL A   1      43.962  31.059  27.100  1.00  0.00    -0.205 F 
ATOM     81  C   UNL A   1      47.152  32.673  26.561  1.00  0.00     0.022 A 
BRANCH  79  82
ATOM     82  S   UNL A   1      44.704  33.631  25.770  1.00  0.00     0.127 S 
ATOM     83  O   UNL A   1      44.113  34.222  26.967  1.00  0.00    -0.237 OA
ATOM     84  O   UNL A   1      45.657  34.485  25.060  1.00  0.00    -0.237 OA
ATOM     85  O   UNL A   1      43.799  32.897  24.897  1.00  0.00    -0.744 OA
ENDBRANCH  79  82
ENDBRANCH  61  75
BRANCH  62  86
ATOM     86  C   UNL A   1      38.287  31.724  30.188  1.00  0.00     0.023 A 
ATOM     87  C   UNL A   1      37.771  31.823  28.875  1.00  0.00     0.012 A 
ATOM     88  C   UNL A   1      37.540  32.309  31.233  1.00  0.00     0.148 A 
ATOM     89  C   UNL A   1      36.527  32.413  28.624  1.00  0.00     0.002 A 
ATOM     90  C   UNL A   1      36.306  32.905  30.975  1.00  0.00     0.091 A 
ATOM     91  F   UNL A   1      37.985  32.195  32.490  1.00  0.00    -0.205 F 
ATOM     92  C   UNL A   1      35.786  32.940  29.676  1.00  0.00     0.022 A 
BRANCH  90  93
ATOM     93  S   UNL A   1      35.294  33.605  32.289  1.00  0.00     0.127 S 
ATOM     94  O   UNL A   1      36.107  34.745  32.722  1.00  0.00    -0.237 OA
ATOM     95  O   UNL A   1      34.074  33.972  31.566  1.00  0.00    -0.237 OA
ATOM     96  O   UNL A   1      35.154  32.559  33.282  1.00  0.00    -0.744 OA
ENDBRANCH  90  93
ENDBRANCH  62  86
BRANCH  74  97
ATOM     97  C   UNL A   1      42.998  28.994  33.347  1.00  0.00     0.023 A 
ATOM     98  C   UNL A   1      42.071  27.935  33.238  1.00  0.00     0.012 A 
ATOM     99  C   UNL A   1      43.646  29.214  34.572  1.00  0.00     0.148 A 
ATOM    100  C   UNL A   1      41.800  27.111  34.335  1.00  0.00     0.002 A 
ATOM    101  C   UNL A   1      43.404  28.370  35.647  1.00  0.00     0.091 A 
ATOM    102  F   UNL A   1      44.531  30.220  34.643  1.00  0.00    -0.205 F 
ATOM    103  C   UNL A   1      42.479  27.319  35.535  1.00  0.00     0.022 A 
BRANCH 101 104
ATOM    104  S   UNL A   1      44.322  28.509  37.181  1.00  0.00     0.127 S 
ATOM    105  O   UNL A   1      43.854  29.791  37.703  1.00  0.00    -0.237 OA
ATOM    106  O   UNL A   1      43.858  27.337  37.924  1.00  0.00    -0.237 OA
ATOM    107  O   UNL A   1      45.733  28.466  36.817  1.00  0.00    -0.744 OA
ENDBRANCH 101 104
ENDBRANCH  74  97
ENDBRANCH  48  49
ENDBRANCH  40  43
ENDBRANCH  38  39
ENDBRANCH  37  38
ENDBRANCH  36  37
ENDBRANCH   1  36
TORSDOF 21
ENDMDL
