MODEL 1
REMARK VINA RESULT:     -12.5      0.000      0.000
REMARK SMILES Cc1ccc(C)c(Oc2cccc(F)c2C(=O)NCCCCCCNC(=O)c2ccc(-c3c4nc(c(-c5cccc(S(=O)(=O)[O-])c5F)c5ccc([nH]5)c(-c5cccc(S(=O)(=O)[O-])c5F)c5nc(c(-c6cccc(S(=O)(=O)[O-])c6F)c6ccc3[nH]6)C=C5)C=C4)cc2)c1
REMARK SMILES IDX 22 1 21 2 20 3 19 4 18 5 16 6 17 7 15 9 9 10 10 11 11 12
REMARK SMILES IDX 13 13 12 14 14 15 8 16 7 17 1 18 2 19 3 20 91 21 4 22 5 23
REMARK SMILES IDX 6 24 23 25 24 26 25 27 26 28 27 30 28 31 29 32 90 33 30 34
REMARK SMILES IDX 89 35 31 36 32 37 33 38 83 39 34 40 88 41 82 42 84 43 35 44
REMARK SMILES IDX 87 45 81 46 80 47 36 49 68 50 48 51 67 52 49 53 52 54 66 55
REMARK SMILES IDX 85 56 50 57 51 58 65 60 86 61 53 62 37 63 38 64 46 65 39 66
REMARK SMILES IDX 41 67 47 68 40 69 42 70 43 71 44 72 45 73 69 74 70 75 78 76
REMARK SMILES IDX 71 77 73 78 79 79 72 80 74 81 75 82 76 83 77 84 54 85 55 86
REMARK SMILES IDX 63 87 56 88 58 89 64 90 57 91 59 92 60 93 61 94 62 95
REMARK H PARENT 18 8 25 29 84 48 52 59
REMARK Flexibility Score: inf
ROOT
ATOM      1  C   UNL A   1      33.924  24.242  24.663  1.00  0.00     0.002 C 
ENDROOT
BRANCH   1   2
ATOM      2  C   UNL A   1      34.333  24.392  23.193  1.00  0.00     0.002 C 
BRANCH   2   3
ATOM      3  C   UNL A   1      33.856  25.602  22.384  1.00  0.00     0.021 C 
BRANCH   3   4
ATOM      4  C   UNL A   1      32.752  25.395  21.348  1.00  0.00     0.116 C 
BRANCH   4   5
ATOM      5  N   UNL A   1      31.716  26.413  21.319  1.00  0.00    -0.352 N 
ATOM      6  C   UNL A   1      30.997  26.992  22.349  1.00  0.00     0.258 C 
ATOM      7  O   UNL A   1      30.288  27.958  22.053  1.00  0.00    -0.269 OA
ATOM      8  H   UNL A   1      31.488  26.745  20.420  1.00  0.00     0.163 HD
BRANCH   6   9
ATOM      9  C   UNL A   1      31.020  26.477  23.749  1.00  0.00     0.118 A 
ATOM     10  C   UNL A   1      31.723  27.164  24.755  1.00  0.00     0.143 A 
ATOM     11  C   UNL A   1      31.583  26.808  26.107  1.00  0.00     0.048 A 
ATOM     12  C   UNL A   1      30.847  25.683  26.459  1.00  0.00     0.007 A 
ATOM     13  C   UNL A   1      30.392  25.288  24.121  1.00  0.00     0.139 A 
ATOM     14  C   UNL A   1      30.285  24.898  25.459  1.00  0.00     0.040 A 
ATOM     15  F   UNL A   1      29.929  24.430  23.198  1.00  0.00    -0.206 F 
BRANCH  10  16
ATOM     16  O   UNL A   1      32.591  28.193  24.452  1.00  0.00    -0.456 OA
BRANCH  16  17
ATOM     17  C   UNL A   1      33.009  29.012  25.496  1.00  0.00     0.130 A 
ATOM     18  C   UNL A   1      35.807  29.420  28.072  1.00  0.00     0.044 C 
ATOM     19  C   UNL A   1      34.552  29.663  27.286  1.00  0.00    -0.047 A 
ATOM     20  C   UNL A   1      33.726  30.743  27.595  1.00  0.00     0.004 A 
ATOM     21  C   UNL A   1      34.194  28.813  26.230  1.00  0.00     0.050 A 
ATOM     22  C   UNL A   1      32.560  30.966  26.861  1.00  0.00     0.007 A 
ATOM     23  C   UNL A   1      32.189  30.109  25.810  1.00  0.00    -0.008 A 
ATOM     24  C   UNL A   1      30.929  30.417  25.051  1.00  0.00     0.048 C 
ENDBRANCH  16  17
ENDBRANCH  10  16
ENDBRANCH   6   9
ENDBRANCH   4   5
ENDBRANCH   3   4
ENDBRANCH   2   3
ENDBRANCH   1   2
BRANCH   1  25
ATOM     25  C   UNL A   1      34.926  24.478  25.801  1.00  0.00     0.021 C 
BRANCH  25  26
ATOM     26  C   UNL A   1      35.370  23.300  26.665  1.00  0.00     0.116 C 
BRANCH  26  27
ATOM     27  N   UNL A   1      35.896  22.149  25.914  1.00  0.00    -0.352 N 
ATOM     28  C   UNL A   1      37.166  21.804  25.452  1.00  0.00     0.251 C 
ATOM     29  H   UNL A   1      35.206  21.482  25.691  1.00  0.00     0.163 HD
ATOM     30  O   UNL A   1      37.272  20.970  24.572  1.00  0.00    -0.269 OA
BRANCH  28  31
ATOM     31  C   UNL A   1      38.389  22.428  26.019  1.00  0.00     0.039 A 
ATOM     32  C   UNL A   1      39.493  21.718  26.501  1.00  0.00     0.014 A 
ATOM     33  C   UNL A   1      38.415  23.794  26.152  1.00  0.00     0.014 A 
ATOM     34  C   UNL A   1      40.485  22.429  27.193  1.00  0.00     0.010 A 
ATOM     35  C   UNL A   1      39.581  24.459  26.310  1.00  0.00     0.010 A 
ATOM     36  C   UNL A   1      40.457  23.826  27.147  1.00  0.00    -0.014 A 
BRANCH  36  37
ATOM     37  C   UNL A   1      41.291  24.723  27.925  1.00  0.00     0.031 A 
ATOM     38  C   UNL A   1      40.632  25.998  28.248  1.00  0.00     0.074 A 
ATOM     39  C   UNL A   1      42.369  24.316  28.637  1.00  0.00     0.049 A 
ATOM     40  N   UNL A   1      40.852  27.141  27.698  1.00  0.00    -0.248 NA
ATOM     41  C   UNL A   1      39.473  25.966  29.151  1.00  0.00     0.031 C 
ATOM     42  C   UNL A   1      42.884  22.952  28.832  1.00  0.00     0.029 A 
ATOM     43  N   UNL A   1      43.144  25.050  29.486  1.00  0.00    -0.354 N 
ATOM     44  C   UNL A   1      40.018  28.021  28.374  1.00  0.00     0.074 A 
ATOM     45  C   UNL A   1      39.016  27.211  29.014  1.00  0.00     0.031 C 
ATOM     46  C   UNL A   1      43.716  22.935  29.900  1.00  0.00     0.029 A 
ATOM     47  C   UNL A   1      43.894  24.293  30.381  1.00  0.00     0.049 A 
ATOM     48  H   UNL A   1      43.171  26.033  29.467  1.00  0.00     0.167 HD
ATOM     49  C   UNL A   1      40.389  29.307  28.610  1.00  0.00     0.034 A 
ATOM     50  C   UNL A   1      44.534  24.765  31.482  1.00  0.00     0.034 A 
ATOM     51  C   UNL A   1      41.598  29.645  27.894  1.00  0.00     0.049 A 
ATOM     52  C   UNL A   1      44.702  26.230  31.294  1.00  0.00     0.074 A 
ATOM     53  C   UNL A   1      42.005  29.572  26.577  1.00  0.00     0.029 A 
ATOM     54  N   UNL A   1      42.752  29.752  28.638  1.00  0.00    -0.354 N 
ATOM     55  N   UNL A   1      45.446  26.767  30.366  1.00  0.00    -0.248 NA
ATOM     56  C   UNL A   1      43.704  27.113  31.879  1.00  0.00     0.031 C 
ATOM     57  C   UNL A   1      43.365  29.150  26.637  1.00  0.00     0.029 A 
ATOM     58  C   UNL A   1      43.727  29.049  27.982  1.00  0.00     0.049 A 
ATOM     59  H   UNL A   1      42.856  30.242  29.485  1.00  0.00     0.167 HD
ATOM     60  C   UNL A   1      44.724  27.876  29.938  1.00  0.00     0.074 A 
ATOM     61  C   UNL A   1      43.731  28.105  30.985  1.00  0.00     0.031 C 
ATOM     62  C   UNL A   1      44.790  28.316  28.644  1.00  0.00     0.034 A 
BRANCH  49  63
ATOM     63  C   UNL A   1      39.889  30.164  29.747  1.00  0.00     0.023 A 
ATOM     64  C   UNL A   1      40.352  29.831  31.038  1.00  0.00     0.012 A 
ATOM     65  C   UNL A   1      38.840  31.109  29.669  1.00  0.00     0.148 A 
ATOM     66  C   UNL A   1      39.773  30.370  32.189  1.00  0.00     0.002 A 
ATOM     67  C   UNL A   1      38.337  31.718  30.813  1.00  0.00     0.091 A 
ATOM     68  F   UNL A   1      38.207  31.330  28.515  1.00  0.00    -0.205 F 
ATOM     69  C   UNL A   1      38.775  31.328  32.078  1.00  0.00     0.022 A 
BRANCH  67  70
ATOM     70  S   UNL A   1      37.106  33.023  30.700  1.00  0.00     0.127 S 
ATOM     71  O   UNL A   1      36.003  32.329  30.045  1.00  0.00    -0.237 OA
ATOM     72  O   UNL A   1      36.884  33.353  32.108  1.00  0.00    -0.237 OA
ATOM     73  O   UNL A   1      37.749  34.086  29.937  1.00  0.00    -0.744 OA
ENDBRANCH  67  70
ENDBRANCH  49  63
BRANCH  50  74
ATOM     74  C   UNL A   1      44.774  24.102  32.791  1.00  0.00     0.023 A 
ATOM     75  C   UNL A   1      43.832  23.177  33.288  1.00  0.00     0.012 A 
ATOM     76  C   UNL A   1      46.033  24.165  33.431  1.00  0.00     0.148 A 
ATOM     77  C   UNL A   1      44.144  22.327  34.358  1.00  0.00     0.002 A 
ATOM     78  C   UNL A   1      46.333  23.331  34.507  1.00  0.00     0.091 A 
ATOM     79  F   UNL A   1      46.979  24.970  32.928  1.00  0.00    -0.205 F 
ATOM     80  C   UNL A   1      45.395  22.401  34.965  1.00  0.00     0.022 A 
BRANCH  78  81
ATOM     81  S   UNL A   1      47.933  23.395  35.328  1.00  0.00     0.127 S 
ATOM     82  O   UNL A   1      47.978  24.772  35.821  1.00  0.00    -0.237 OA
ATOM     83  O   UNL A   1      47.789  22.382  36.369  1.00  0.00    -0.237 OA
ATOM     84  O   UNL A   1      48.914  23.100  34.289  1.00  0.00    -0.744 OA
ENDBRANCH  78  81
ENDBRANCH  50  74
BRANCH  62  85
ATOM     85  C   UNL A   1      45.862  27.761  27.733  1.00  0.00     0.023 A 
ATOM     86  C   UNL A   1      47.205  28.185  27.816  1.00  0.00     0.012 A 
ATOM     87  C   UNL A   1      45.560  26.630  26.953  1.00  0.00     0.148 A 
ATOM     88  C   UNL A   1      48.217  27.505  27.133  1.00  0.00     0.002 A 
ATOM     89  C   UNL A   1      46.576  25.923  26.319  1.00  0.00     0.091 A 
ATOM     90  F   UNL A   1      44.279  26.234  26.879  1.00  0.00    -0.205 F 
ATOM     91  C   UNL A   1      47.906  26.363  26.400  1.00  0.00     0.022 A 
BRANCH  89  92
ATOM     92  S   UNL A   1      46.264  24.361  25.491  1.00  0.00     0.127 S 
ATOM     93  O   UNL A   1      46.673  23.391  26.504  1.00  0.00    -0.237 OA
ATOM     94  O   UNL A   1      44.821  24.416  25.245  1.00  0.00    -0.237 OA
ATOM     95  O   UNL A   1      47.073  24.382  24.279  1.00  0.00    -0.744 OA
ENDBRANCH  89  92
ENDBRANCH  62  85
ENDBRANCH  36  37
ENDBRANCH  28  31
ENDBRANCH  26  27
ENDBRANCH  25  26
ENDBRANCH   1  25
TORSDOF 18
ENDMDL
MODEL 2
REMARK VINA RESULT:     -12.4      2.635      4.505
REMARK SMILES Cc1ccc(C)c(Oc2cccc(F)c2C(=O)NCCCCCCNC(=O)c2ccc(-c3c4nc(c(-c5cccc(S(=O)(=O)[O-])c5F)c5ccc([nH]5)c(-c5cccc(S(=O)(=O)[O-])c5F)c5nc(c(-c6cccc(S(=O)(=O)[O-])c6F)c6ccc3[nH]6)C=C5)C=C4)cc2)c1
REMARK SMILES IDX 22 1 21 2 20 3 19 4 18 5 16 6 17 7 15 9 9 10 10 11 11 12
REMARK SMILES IDX 13 13 12 14 14 15 8 16 7 17 1 18 2 19 3 20 91 21 4 22 5 23
REMARK SMILES IDX 6 24 23 25 24 26 25 27 26 28 27 30 28 31 29 32 90 33 30 34
REMARK SMILES IDX 89 35 31 36 32 37 33 38 83 39 34 40 88 41 82 42 84 43 35 44
REMARK SMILES IDX 87 45 81 46 80 47 36 49 68 50 48 51 67 52 49 53 52 54 66 55
REMARK SMILES IDX 85 56 50 57 51 58 65 60 86 61 53 62 37 63 38 64 46 65 39 66
REMARK SMILES IDX 41 67 47 68 40 69 42 70 43 71 44 72 45 73 69 74 70 75 78 76
REMARK SMILES IDX 71 77 73 78 79 79 72 80 74 81 75 82 76 83 77 84 54 85 55 86
REMARK SMILES IDX 63 87 56 88 58 89 64 90 57 91 59 92 60 93 61 94 62 95
REMARK H PARENT 18 8 25 29 84 48 52 59
REMARK Flexibility Score: inf
ROOT
ATOM      1  C   UNL A   1      36.936  22.735  25.151  1.00  0.00     0.002 C 
ENDROOT
BRANCH   1   2
ATOM      2  C   UNL A   1      36.662  22.928  23.655  1.00  0.00     0.002 C 
BRANCH   2   3
ATOM      3  C   UNL A   1      35.230  22.838  23.119  1.00  0.00     0.021 C 
BRANCH   3   4
ATOM      4  C   UNL A   1      34.389  24.113  23.075  1.00  0.00     0.116 C 
BRANCH   4   5
ATOM      5  N   UNL A   1      32.954  23.927  23.216  1.00  0.00    -0.352 N 
ATOM      6  C   UNL A   1      32.208  23.475  24.290  1.00  0.00     0.258 C 
ATOM      7  O   UNL A   1      30.983  23.572  24.191  1.00  0.00    -0.269 OA
ATOM      8  H   UNL A   1      32.427  24.159  22.417  1.00  0.00     0.163 HD
BRANCH   6   9
ATOM      9  C   UNL A   1      32.819  22.858  25.504  1.00  0.00     0.118 A 
ATOM     10  C   UNL A   1      32.688  21.479  25.751  1.00  0.00     0.143 A 
ATOM     11  C   UNL A   1      33.427  20.854  26.769  1.00  0.00     0.048 A 
ATOM     12  C   UNL A   1      34.202  21.615  27.637  1.00  0.00     0.007 A 
ATOM     13  C   UNL A   1      33.505  23.606  26.461  1.00  0.00     0.139 A 
ATOM     14  C   UNL A   1      34.206  23.000  27.506  1.00  0.00     0.040 A 
ATOM     15  F   UNL A   1      33.456  24.948  26.458  1.00  0.00    -0.206 F 
BRANCH  10  16
ATOM     16  O   UNL A   1      31.817  20.696  25.022  1.00  0.00    -0.456 OA
BRANCH  16  17
ATOM     17  C   UNL A   1      32.308  19.508  24.490  1.00  0.00     0.130 A 
ATOM     18  C   UNL A   1      33.651  16.076  25.514  1.00  0.00     0.044 C 
ATOM     19  C   UNL A   1      33.211  17.237  24.670  1.00  0.00    -0.047 A 
ATOM     20  C   UNL A   1      33.297  17.169  23.280  1.00  0.00     0.004 A 
ATOM     21  C   UNL A   1      32.705  18.402  25.264  1.00  0.00     0.050 A 
ATOM     22  C   UNL A   1      32.886  18.250  22.499  1.00  0.00     0.007 A 
ATOM     23  C   UNL A   1      32.390  19.425  23.090  1.00  0.00    -0.008 A 
ATOM     24  C   UNL A   1      31.949  20.545  22.189  1.00  0.00     0.048 C 
ENDBRANCH  16  17
ENDBRANCH  10  16
ENDBRANCH   6   9
ENDBRANCH   4   5
ENDBRANCH   3   4
ENDBRANCH   2   3
ENDBRANCH   1   2
BRANCH   1  25
ATOM     25  C   UNL A   1      37.472  21.407  25.702  1.00  0.00     0.021 C 
BRANCH  25  26
ATOM     26  C   UNL A   1      38.029  20.365  24.735  1.00  0.00     0.116 C 
BRANCH  26  27
ATOM     27  N   UNL A   1      39.033  19.460  25.316  1.00  0.00    -0.352 N 
ATOM     28  C   UNL A   1      40.322  19.650  25.815  1.00  0.00     0.251 C 
ATOM     29  H   UNL A   1      38.733  18.523  25.361  1.00  0.00     0.163 HD
ATOM     30  O   UNL A   1      41.064  18.692  25.924  1.00  0.00    -0.269 OA
BRANCH  28  31
ATOM     31  C   UNL A   1      40.801  20.996  26.222  1.00  0.00     0.039 A 
ATOM     32  C   UNL A   1      41.747  21.749  25.520  1.00  0.00     0.014 A 
ATOM     33  C   UNL A   1      40.344  21.512  27.410  1.00  0.00     0.014 A 
ATOM     34  C   UNL A   1      42.254  22.907  26.130  1.00  0.00     0.010 A 
ATOM     35  C   UNL A   1      40.433  22.834  27.677  1.00  0.00     0.010 A 
ATOM     36  C   UNL A   1      41.614  23.391  27.275  1.00  0.00    -0.014 A 
BRANCH  36  37
ATOM     37  C   UNL A   1      42.087  24.466  28.127  1.00  0.00     0.031 A 
ATOM     38  C   UNL A   1      41.140  25.586  28.232  1.00  0.00     0.074 A 
ATOM     39  C   UNL A   1      43.066  24.314  29.051  1.00  0.00     0.049 A 
ATOM     40  N   UNL A   1      41.232  26.732  27.652  1.00  0.00    -0.248 NA
ATOM     41  C   UNL A   1      39.857  25.343  28.908  1.00  0.00     0.031 C 
ATOM     42  C   UNL A   1      43.792  23.094  29.433  1.00  0.00     0.029 A 
ATOM     43  N   UNL A   1      43.501  25.219  29.974  1.00  0.00    -0.354 N 
ATOM     44  C   UNL A   1      40.126  27.440  28.100  1.00  0.00     0.074 A 
ATOM     45  C   UNL A   1      39.198  26.462  28.601  1.00  0.00     0.031 C 
ATOM     46  C   UNL A   1      44.388  23.284  30.634  1.00  0.00     0.029 A 
ATOM     47  C   UNL A   1      44.198  24.664  31.042  1.00  0.00     0.049 A 
ATOM     48  H   UNL A   1      43.336  26.186  29.890  1.00  0.00     0.167 HD
ATOM     49  C   UNL A   1      40.182  28.783  28.308  1.00  0.00     0.034 A 
ATOM     50  C   UNL A   1      44.507  25.294  32.205  1.00  0.00     0.034 A 
ATOM     51  C   UNL A   1      41.416  29.341  27.803  1.00  0.00     0.049 A 
ATOM     52  C   UNL A   1      44.415  26.755  31.948  1.00  0.00     0.074 A 
ATOM     53  C   UNL A   1      42.077  29.312  26.591  1.00  0.00     0.029 A 
ATOM     54  N   UNL A   1      42.360  29.708  28.736  1.00  0.00    -0.354 N 
ATOM     55  N   UNL A   1      45.204  27.405  31.135  1.00  0.00    -0.248 NA
ATOM     56  C   UNL A   1      43.168  27.430  32.276  1.00  0.00     0.031 C 
ATOM     57  C   UNL A   1      43.456  29.183  26.929  1.00  0.00     0.029 A 
ATOM     58  C   UNL A   1      43.563  29.202  28.322  1.00  0.00     0.049 A 
ATOM     59  H   UNL A   1      42.199  30.236  29.551  1.00  0.00     0.167 HD
ATOM     60  C   UNL A   1      44.374  28.326  30.505  1.00  0.00     0.074 A 
ATOM     61  C   UNL A   1      43.171  28.377  31.334  1.00  0.00     0.031 C 
ATOM     62  C   UNL A   1      44.601  28.728  29.217  1.00  0.00     0.034 A 
BRANCH  49  63
ATOM     63  C   UNL A   1      39.312  29.553  29.270  1.00  0.00     0.023 A 
ATOM     64  C   UNL A   1      38.770  30.768  28.795  1.00  0.00     0.012 A 
ATOM     65  C   UNL A   1      39.178  29.293  30.653  1.00  0.00     0.148 A 
ATOM     66  C   UNL A   1      38.171  31.692  29.654  1.00  0.00     0.002 A 
ATOM     67  C   UNL A   1      38.490  30.168  31.485  1.00  0.00     0.091 A 
ATOM     68  F   UNL A   1      39.832  28.276  31.221  1.00  0.00    -0.205 F 
ATOM     69  C   UNL A   1      38.015  31.386  30.999  1.00  0.00     0.022 A 
BRANCH  67  70
ATOM     70  S   UNL A   1      38.196  29.765  33.211  1.00  0.00     0.127 S 
ATOM     71  O   UNL A   1      37.380  28.561  33.097  1.00  0.00    -0.237 OA
ATOM     72  O   UNL A   1      39.555  29.550  33.710  1.00  0.00    -0.237 OA
ATOM     73  O   UNL A   1      37.540  30.942  33.769  1.00  0.00    -0.744 OA
ENDBRANCH  67  70
ENDBRANCH  49  63
BRANCH  50  74
ATOM     74  C   UNL A   1      44.615  24.737  33.580  1.00  0.00     0.023 A 
ATOM     75  C   UNL A   1      43.451  24.318  34.256  1.00  0.00     0.012 A 
ATOM     76  C   UNL A   1      45.863  24.371  34.132  1.00  0.00     0.148 A 
ATOM     77  C   UNL A   1      43.527  23.536  35.417  1.00  0.00     0.002 A 
ATOM     78  C   UNL A   1      45.936  23.609  35.297  1.00  0.00     0.091 A 
ATOM     79  F   UNL A   1      46.985  24.678  33.467  1.00  0.00    -0.205 F 
ATOM     80  C   UNL A   1      44.769  23.178  35.936  1.00  0.00     0.022 A 
BRANCH  78  81
ATOM     81  S   UNL A   1      47.517  23.129  36.009  1.00  0.00     0.127 S 
ATOM     82  O   UNL A   1      48.339  22.897  34.822  1.00  0.00    -0.237 OA
ATOM     83  O   UNL A   1      47.884  24.312  36.780  1.00  0.00    -0.237 OA
ATOM     84  O   UNL A   1      47.241  21.926  36.789  1.00  0.00    -0.744 OA
ENDBRANCH  78  81
ENDBRANCH  50  74
BRANCH  62  85
ATOM     85  C   UNL A   1      45.917  28.378  28.560  1.00  0.00     0.023 A 
ATOM     86  C   UNL A   1      47.083  29.143  28.770  1.00  0.00     0.012 A 
ATOM     87  C   UNL A   1      46.036  27.132  27.918  1.00  0.00     0.148 A 
ATOM     88  C   UNL A   1      48.333  28.682  28.346  1.00  0.00     0.002 A 
ATOM     89  C   UNL A   1      47.287  26.651  27.545  1.00  0.00     0.091 A 
ATOM     90  F   UNL A   1      44.921  26.411  27.720  1.00  0.00    -0.205 F 
ATOM     91  C   UNL A   1      48.438  27.428  27.750  1.00  0.00     0.022 A 
BRANCH  89  92
ATOM     92  S   UNL A   1      47.508  24.983  26.918  1.00  0.00     0.127 S 
ATOM     93  O   UNL A   1      46.666  24.203  27.820  1.00  0.00    -0.237 OA
ATOM     94  O   UNL A   1      47.001  25.091  25.548  1.00  0.00    -0.237 OA
ATOM     95  O   UNL A   1      48.938  24.711  27.001  1.00  0.00    -0.744 OA
ENDBRANCH  89  92
ENDBRANCH  62  85
ENDBRANCH  36  37
ENDBRANCH  28  31
ENDBRANCH  26  27
ENDBRANCH  25  26
ENDBRANCH   1  25
TORSDOF 18
ENDMDL
MODEL 3
REMARK VINA RESULT:     -12.4      3.334      6.975
REMARK SMILES Cc1ccc(C)c(Oc2cccc(F)c2C(=O)NCCCCCCNC(=O)c2ccc(-c3c4nc(c(-c5cccc(S(=O)(=O)[O-])c5F)c5ccc([nH]5)c(-c5cccc(S(=O)(=O)[O-])c5F)c5nc(c(-c6cccc(S(=O)(=O)[O-])c6F)c6ccc3[nH]6)C=C5)C=C4)cc2)c1
REMARK SMILES IDX 22 1 21 2 20 3 19 4 18 5 16 6 17 7 15 9 9 10 10 11 11 12
REMARK SMILES IDX 13 13 12 14 14 15 8 16 7 17 1 18 2 19 3 20 91 21 4 22 5 23
REMARK SMILES IDX 6 24 23 25 24 26 25 27 26 28 27 30 28 31 29 32 90 33 30 34
REMARK SMILES IDX 89 35 31 36 32 37 33 38 83 39 34 40 88 41 82 42 84 43 35 44
REMARK SMILES IDX 87 45 81 46 80 47 36 49 68 50 48 51 67 52 49 53 52 54 66 55
REMARK SMILES IDX 85 56 50 57 51 58 65 60 86 61 53 62 37 63 38 64 46 65 39 66
REMARK SMILES IDX 41 67 47 68 40 69 42 70 43 71 44 72 45 73 69 74 70 75 78 76
REMARK SMILES IDX 71 77 73 78 79 79 72 80 74 81 75 82 76 83 77 84 54 85 55 86
REMARK SMILES IDX 63 87 56 88 58 89 64 90 57 91 59 92 60 93 61 94 62 95
REMARK H PARENT 18 8 25 29 84 48 52 59
REMARK Flexibility Score: inf
ROOT
ATOM      1  C   UNL A   1      33.394  30.096  26.163  1.00  0.00     0.002 C 
ENDROOT
BRANCH   1   2
ATOM      2  C   UNL A   1      33.700  28.601  26.301  1.00  0.00     0.002 C 
BRANCH   2   3
ATOM      3  C   UNL A   1      32.645  27.651  26.875  1.00  0.00     0.021 C 
BRANCH   3   4
ATOM      4  C   UNL A   1      32.608  26.211  26.366  1.00  0.00     0.116 C 
BRANCH   4   5
ATOM      5  N   UNL A   1      31.398  25.465  26.668  1.00  0.00    -0.352 N 
ATOM      6  C   UNL A   1      30.984  24.215  26.244  1.00  0.00     0.258 C 
ATOM      7  O   UNL A   1      29.980  23.751  26.790  1.00  0.00    -0.269 OA
ATOM      8  H   UNL A   1      30.771  25.924  27.273  1.00  0.00     0.163 HD
BRANCH   6   9
ATOM      9  C   UNL A   1      31.667  23.457  25.155  1.00  0.00     0.118 A 
ATOM     10  C   UNL A   1      31.478  23.810  23.807  1.00  0.00     0.143 A 
ATOM     11  C   UNL A   1      32.270  23.244  22.794  1.00  0.00     0.048 A 
ATOM     12  C   UNL A   1      33.166  22.225  23.096  1.00  0.00     0.007 A 
ATOM     13  C   UNL A   1      32.482  22.353  25.408  1.00  0.00     0.139 A 
ATOM     14  C   UNL A   1      33.240  21.751  24.401  1.00  0.00     0.040 A 
ATOM     15  F   UNL A   1      32.512  21.776  26.620  1.00  0.00    -0.206 F 
BRANCH  10  16
ATOM     16  O   UNL A   1      30.498  24.704  23.427  1.00  0.00    -0.456 OA
BRANCH  16  17
ATOM     17  C   UNL A   1      30.857  26.043  23.309  1.00  0.00     0.130 A 
ATOM     18  C   UNL A   1      33.826  28.305  22.475  1.00  0.00     0.044 C 
ATOM     19  C   UNL A   1      32.446  27.851  22.852  1.00  0.00    -0.047 A 
ATOM     20  C   UNL A   1      31.447  28.787  23.122  1.00  0.00     0.004 A 
ATOM     21  C   UNL A   1      32.139  26.486  22.935  1.00  0.00     0.050 A 
ATOM     22  C   UNL A   1      30.165  28.362  23.471  1.00  0.00     0.007 A 
ATOM     23  C   UNL A   1      29.856  26.993  23.569  1.00  0.00    -0.008 A 
ATOM     24  C   UNL A   1      28.450  26.605  23.934  1.00  0.00     0.048 C 
ENDBRANCH  16  17
ENDBRANCH  10  16
ENDBRANCH   6   9
ENDBRANCH   4   5
ENDBRANCH   3   4
ENDBRANCH   2   3
ENDBRANCH   1   2
BRANCH   1  25
ATOM     25  C   UNL A   1      33.203  30.992  27.395  1.00  0.00     0.021 C 
BRANCH  25  26
ATOM     26  C   UNL A   1      34.155  32.163  27.625  1.00  0.00     0.116 C 
BRANCH  26  27
ATOM     27  N   UNL A   1      34.354  32.527  29.037  1.00  0.00    -0.352 N 
ATOM     28  C   UNL A   1      35.161  32.018  30.055  1.00  0.00     0.251 C 
ATOM     29  H   UNL A   1      33.801  33.289  29.323  1.00  0.00     0.163 HD
ATOM     30  O   UNL A   1      34.891  32.279  31.213  1.00  0.00    -0.269 OA
BRANCH  28  31
ATOM     31  C   UNL A   1      36.344  31.173  29.752  1.00  0.00     0.039 A 
ATOM     32  C   UNL A   1      36.285  29.823  29.392  1.00  0.00     0.014 A 
ATOM     33  C   UNL A   1      37.590  31.727  29.907  1.00  0.00     0.014 A 
ATOM     34  C   UNL A   1      37.488  29.101  29.337  1.00  0.00     0.010 A 
ATOM     35  C   UNL A   1      38.678  31.174  29.325  1.00  0.00     0.010 A 
ATOM     36  C   UNL A   1      38.692  29.809  29.388  1.00  0.00    -0.014 A 
BRANCH  36  37
ATOM     37  C   UNL A   1      40.017  29.231  29.509  1.00  0.00     0.031 A 
ATOM     38  C   UNL A   1      40.484  29.128  30.899  1.00  0.00     0.074 A 
ATOM     39  C   UNL A   1      40.602  28.488  28.539  1.00  0.00     0.049 A 
ATOM     40  N   UNL A   1      41.350  29.884  31.481  1.00  0.00    -0.248 NA
ATOM     41  C   UNL A   1      39.779  28.202  31.797  1.00  0.00     0.031 C 
ATOM     42  C   UNL A   1      40.049  28.062  27.244  1.00  0.00     0.029 A 
ATOM     43  N   UNL A   1      41.784  27.809  28.595  1.00  0.00    -0.354 N 
ATOM     44  C   UNL A   1      41.471  29.357  32.759  1.00  0.00     0.074 A 
ATOM     45  C   UNL A   1      40.299  28.552  32.974  1.00  0.00     0.031 C 
ATOM     46  C   UNL A   1      40.784  27.032  26.759  1.00  0.00     0.029 A 
ATOM     47  C   UNL A   1      41.922  26.813  27.634  1.00  0.00     0.049 A 
ATOM     48  H   UNL A   1      42.481  28.008  29.260  1.00  0.00     0.167 HD
ATOM     49  C   UNL A   1      42.660  29.370  33.419  1.00  0.00     0.034 A 
ATOM     50  C   UNL A   1      42.865  25.836  27.629  1.00  0.00     0.034 A 
ATOM     51  C   UNL A   1      43.640  30.170  32.721  1.00  0.00     0.049 A 
ATOM     52  C   UNL A   1      43.971  26.293  28.512  1.00  0.00     0.074 A 
ATOM     53  C   UNL A   1      43.680  31.463  32.238  1.00  0.00     0.029 A 
ATOM     54  N   UNL A   1      44.638  29.491  32.059  1.00  0.00    -0.354 N 
ATOM     55  N   UNL A   1      44.729  27.324  28.259  1.00  0.00    -0.248 NA
ATOM     56  C   UNL A   1      43.966  25.851  29.899  1.00  0.00     0.031 C 
ATOM     57  C   UNL A   1      44.355  31.365  30.986  1.00  0.00     0.029 A 
ATOM     58  C   UNL A   1      44.742  30.035  30.807  1.00  0.00     0.049 A 
ATOM     59  H   UNL A   1      45.178  28.751  32.420  1.00  0.00     0.167 HD
ATOM     60  C   UNL A   1      44.925  27.927  29.497  1.00  0.00     0.074 A 
ATOM     61  C   UNL A   1      44.539  26.911  30.474  1.00  0.00     0.031 C 
ATOM     62  C   UNL A   1      45.083  29.281  29.615  1.00  0.00     0.034 A 
BRANCH  49  63
ATOM     63  C   UNL A   1      43.070  28.396  34.496  1.00  0.00     0.023 A 
ATOM     64  C   UNL A   1      43.599  28.953  35.681  1.00  0.00     0.012 A 
ATOM     65  C   UNL A   1      43.185  26.995  34.342  1.00  0.00     0.148 A 
ATOM     66  C   UNL A   1      44.249  28.167  36.636  1.00  0.00     0.002 A 
ATOM     67  C   UNL A   1      43.740  26.207  35.342  1.00  0.00     0.091 A 
ATOM     68  F   UNL A   1      42.899  26.413  33.174  1.00  0.00    -0.205 F 
ATOM     69  C   UNL A   1      44.306  26.790  36.476  1.00  0.00     0.022 A 
BRANCH  67  70
ATOM     70  S   UNL A   1      43.755  24.414  35.207  1.00  0.00     0.127 S 
ATOM     71  O   UNL A   1      44.303  24.226  33.868  1.00  0.00    -0.237 OA
ATOM     72  O   UNL A   1      44.646  24.033  36.303  1.00  0.00    -0.237 OA
ATOM     73  O   UNL A   1      42.367  24.009  35.403  1.00  0.00    -0.744 OA
ENDBRANCH  67  70
ENDBRANCH  49  63
BRANCH  50  74
ATOM     74  C   UNL A   1      42.770  24.435  27.140  1.00  0.00     0.023 A 
ATOM     75  C   UNL A   1      41.550  23.737  27.253  1.00  0.00     0.012 A 
ATOM     76  C   UNL A   1      43.779  23.865  26.330  1.00  0.00     0.148 A 
ATOM     77  C   UNL A   1      41.332  22.538  26.561  1.00  0.00     0.002 A 
ATOM     78  C   UNL A   1      43.566  22.664  25.657  1.00  0.00     0.091 A 
ATOM     79  F   UNL A   1      44.916  24.546  26.132  1.00  0.00    -0.205 F 
ATOM     80  C   UNL A   1      42.338  22.003  25.760  1.00  0.00     0.022 A 
BRANCH  78  81
ATOM     81  S   UNL A   1      44.838  21.929  24.618  1.00  0.00     0.127 S 
ATOM     82  O   UNL A   1      44.258  20.628  24.285  1.00  0.00    -0.237 OA
ATOM     83  O   UNL A   1      44.907  22.867  23.501  1.00  0.00    -0.237 OA
ATOM     84  O   UNL A   1      46.030  21.855  25.457  1.00  0.00    -0.744 OA
ENDBRANCH  78  81
ENDBRANCH  50  74
BRANCH  62  85
ATOM     85  C   UNL A   1      45.319  30.105  28.369  1.00  0.00     0.023 A 
ATOM     86  C   UNL A   1      44.253  30.596  27.587  1.00  0.00     0.012 A 
ATOM     87  C   UNL A   1      46.616  30.589  28.121  1.00  0.00     0.148 A 
ATOM     88  C   UNL A   1      44.475  31.539  26.579  1.00  0.00     0.002 A 
ATOM     89  C   UNL A   1      46.826  31.567  27.155  1.00  0.00     0.091 A 
ATOM     90  F   UNL A   1      47.625  30.115  28.869  1.00  0.00    -0.205 F 
ATOM     91  C   UNL A   1      45.759  32.039  26.375  1.00  0.00     0.022 A 
BRANCH  89  92
ATOM     92  S   UNL A   1      48.423  32.363  26.950  1.00  0.00     0.127 S 
ATOM     93  O   UNL A   1      48.670  32.900  28.285  1.00  0.00    -0.237 OA
ATOM     94  O   UNL A   1      49.288  31.243  26.571  1.00  0.00    -0.237 OA
ATOM     95  O   UNL A   1      48.243  33.356  25.898  1.00  0.00    -0.744 OA
ENDBRANCH  89  92
ENDBRANCH  62  85
ENDBRANCH  36  37
ENDBRANCH  28  31
ENDBRANCH  26  27
ENDBRANCH  25  26
ENDBRANCH   1  25
TORSDOF 18
ENDMDL
