MODEL 1
REMARK VINA RESULT:     -11.4      0.000      0.000
REMARK SMILES Cc1ccc(Cl)c(Nc2ccccc2C(=O)NCC(=O)NCCCCCCNC(=O)c2ccc(-c3c4nc(c(-c5cccc(S(=O)(=O)[O-])c5F)c5ccc([nH]5)c(-c5cccc(S(=O)(=O)[O-])c5F)c5nc(c(-c6cccc(S(=O)(=O)[O-])c6F)c6ccc3[nH]6)C=C5)C=C4)cc2)c1Cl
REMARK SMILES IDX 24 1 23 2 22 3 21 4 19 5 20 6 18 8 17 9 15 10 16 11 14 13
REMARK SMILES IDX 9 14 10 15 11 16 13 17 12 18 8 19 7 21 1 22 2 23 3 24 94 25
REMARK SMILES IDX 4 26 95 27 5 28 6 29 25 30 26 31 27 32 28 33 29 34 30 36
REMARK SMILES IDX 31 37 32 38 93 39 33 40 92 41 34 42 35 43 36 44 86 45 37 46
REMARK SMILES IDX 91 47 85 48 87 49 38 50 90 51 84 52 83 53 39 55 71 56 51 57
REMARK SMILES IDX 70 58 52 59 55 60 69 61 88 62 53 63 54 64 68 66 89 67 56 68
REMARK SMILES IDX 40 69 41 70 49 71 42 72 44 73 50 74 43 75 45 76 46 77 47 78
REMARK SMILES IDX 48 79 72 80 73 81 81 82 74 83 76 84 82 85 75 86 77 87 78 88
REMARK SMILES IDX 79 89 80 90 57 91 58 92 66 93 59 94 61 95 67 96 60 97 62 98
REMARK SMILES IDX 63 99 64 100 65 101
REMARK H PARENT 21 7 17 12 8 20 28 35 87 54 55 65
REMARK Flexibility Score: inf
ROOT
ATOM      1  C   UNL A   1      31.440  27.403  24.697  1.00  0.00     0.002 C 
ENDROOT
BRANCH   1   2
ATOM      2  C   UNL A   1      31.284  26.729  23.329  1.00  0.00     0.021 C 
BRANCH   2   3
ATOM      3  C   UNL A   1      31.805  25.297  23.345  1.00  0.00     0.116 C 
BRANCH   3   4
ATOM      4  N   UNL A   1      32.118  24.899  21.995  1.00  0.00    -0.355 N 
ATOM      5  C   UNL A   1      32.928  23.868  21.627  1.00  0.00     0.239 C 
ATOM      6  O   UNL A   1      33.288  23.798  20.448  1.00  0.00    -0.273 OA
ATOM      7  H   UNL A   1      31.706  25.422  21.269  1.00  0.00     0.163 HD
BRANCH   5   8
ATOM      8  C   UNL A   1      33.111  22.690  22.578  1.00  0.00     0.216 C 
BRANCH   8   9
ATOM      9  N   UNL A   1      32.063  21.989  23.286  1.00  0.00    -0.343 N 
ATOM     10  C   UNL A   1      32.148  21.086  24.328  1.00  0.00     0.253 C 
ATOM     11  O   UNL A   1      31.239  21.170  25.162  1.00  0.00    -0.269 OA
ATOM     12  H   UNL A   1      31.149  22.186  22.979  1.00  0.00     0.164 HD
BRANCH  10  13
ATOM     13  C   UNL A   1      33.064  19.887  24.392  1.00  0.00     0.063 A 
ATOM     14  C   UNL A   1      34.383  19.735  24.885  1.00  0.00     0.051 A 
ATOM     15  C   UNL A   1      35.020  18.476  24.705  1.00  0.00     0.027 A 
ATOM     16  C   UNL A   1      34.379  17.378  24.135  1.00  0.00     0.002 A 
ATOM     17  C   UNL A   1      32.434  18.744  23.827  1.00  0.00     0.016 A 
ATOM     18  C   UNL A   1      33.070  17.506  23.713  1.00  0.00     0.001 A 
BRANCH  14  19
ATOM     19  N   UNL A   1      35.142  20.626  25.677  1.00  0.00    -0.352 N 
ATOM     20  H   UNL A   1      35.763  20.168  26.288  1.00  0.00     0.167 HD
BRANCH  19  21
ATOM     21  C   UNL A   1      35.198  22.038  25.779  1.00  0.00     0.077 A 
ATOM     22  C   UNL A   1      32.951  24.983  26.734  1.00  0.00     0.046 C 
ATOM     23  C   UNL A   1      34.088  24.185  26.159  1.00  0.00    -0.030 A 
ATOM     24  C   UNL A   1      34.982  24.800  25.270  1.00  0.00     0.006 A 
ATOM     25  C   UNL A   1      34.232  22.813  26.447  1.00  0.00     0.069 A 
ATOM     26  C   UNL A   1      36.033  24.080  24.710  1.00  0.00     0.023 A 
ATOM     27  Cl  UNL A   1      33.270  22.119  27.718  1.00  0.00    -0.082 Cl
ATOM     28  C   UNL A   1      36.147  22.717  24.972  1.00  0.00     0.066 A 
ATOM     29  Cl  UNL A   1      37.402  21.841  24.153  1.00  0.00    -0.082 Cl
ENDBRANCH  19  21
ENDBRANCH  14  19
ENDBRANCH  10  13
ENDBRANCH   8   9
ENDBRANCH   5   8
ENDBRANCH   3   4
ENDBRANCH   2   3
ENDBRANCH   1   2
BRANCH   1  30
ATOM     30  C   UNL A   1      32.245  28.706  24.650  1.00  0.00     0.002 C 
BRANCH  30  31
ATOM     31  C   UNL A   1      33.744  28.513  24.888  1.00  0.00     0.021 C 
BRANCH  31  32
ATOM     32  C   UNL A   1      34.183  28.866  26.303  1.00  0.00     0.116 C 
BRANCH  32  33
ATOM     33  N   UNL A   1      34.013  30.286  26.570  1.00  0.00    -0.352 N 
ATOM     34  C   UNL A   1      34.669  31.068  27.483  1.00  0.00     0.251 C 
ATOM     35  H   UNL A   1      33.337  30.746  26.020  1.00  0.00     0.163 HD
ATOM     36  O   UNL A   1      34.252  32.186  27.761  1.00  0.00    -0.269 OA
BRANCH  34  37
ATOM     37  C   UNL A   1      35.882  30.533  28.131  1.00  0.00     0.039 A 
ATOM     38  C   UNL A   1      35.747  29.704  29.244  1.00  0.00     0.014 A 
ATOM     39  C   UNL A   1      37.145  30.841  27.617  1.00  0.00     0.014 A 
ATOM     40  C   UNL A   1      36.887  29.148  29.823  1.00  0.00     0.010 A 
ATOM     41  C   UNL A   1      38.271  30.224  28.146  1.00  0.00     0.010 A 
ATOM     42  C   UNL A   1      38.154  29.385  29.263  1.00  0.00    -0.014 A 
BRANCH  42  43
ATOM     43  C   UNL A   1      39.372  28.762  29.833  1.00  0.00     0.031 A 
ATOM     44  C   UNL A   1      39.999  29.328  31.076  1.00  0.00     0.074 A 
ATOM     45  C   UNL A   1      39.961  27.742  29.180  1.00  0.00     0.049 A 
ATOM     46  N   UNL A   1      41.085  28.948  31.698  1.00  0.00    -0.248 NA
ATOM     47  C   UNL A   1      39.336  30.494  31.685  1.00  0.00     0.031 C 
ATOM     48  C   UNL A   1      39.496  27.167  27.915  1.00  0.00     0.029 A 
ATOM     49  N   UNL A   1      41.095  27.028  29.473  1.00  0.00    -0.354 N 
ATOM     50  C   UNL A   1      41.256  29.845  32.744  1.00  0.00     0.074 A 
ATOM     51  C   UNL A   1      40.186  30.813  32.649  1.00  0.00     0.031 C 
ATOM     52  C   UNL A   1      40.336  26.188  27.544  1.00  0.00     0.029 A 
ATOM     53  C   UNL A   1      41.412  26.085  28.525  1.00  0.00     0.049 A 
ATOM     54  H   UNL A   1      41.631  27.176  30.285  1.00  0.00     0.167 HD
ATOM     55  C   UNL A   1      42.200  29.847  33.714  1.00  0.00     0.034 A 
ATOM     56  C   UNL A   1      42.456  25.237  28.448  1.00  0.00     0.034 A 
ATOM     57  C   UNL A   1      43.241  28.860  33.821  1.00  0.00     0.049 A 
ATOM     58  C   UNL A   1      43.466  25.225  29.562  1.00  0.00     0.074 A 
ATOM     59  C   UNL A   1      44.188  28.713  34.817  1.00  0.00     0.029 A 
ATOM     60  N   UNL A   1      43.479  27.860  32.890  1.00  0.00    -0.354 N 
ATOM     61  N   UNL A   1      43.516  25.971  30.638  1.00  0.00    -0.248 NA
ATOM     62  C   UNL A   1      44.540  24.226  29.472  1.00  0.00     0.031 C 
ATOM     63  C   UNL A   1      45.019  27.640  34.473  1.00  0.00     0.029 A 
ATOM     64  C   UNL A   1      44.567  27.099  33.279  1.00  0.00     0.049 A 
ATOM     65  H   UNL A   1      42.951  27.713  32.072  1.00  0.00     0.167 HD
ATOM     66  C   UNL A   1      44.607  25.516  31.369  1.00  0.00     0.074 A 
ATOM     67  C   UNL A   1      45.176  24.413  30.621  1.00  0.00     0.031 C 
ATOM     68  C   UNL A   1      45.099  25.977  32.546  1.00  0.00     0.034 A 
BRANCH  55  69
ATOM     69  C   UNL A   1      42.117  30.927  34.763  1.00  0.00     0.023 A 
ATOM     70  C   UNL A   1      41.361  30.706  35.934  1.00  0.00     0.012 A 
ATOM     71  C   UNL A   1      42.804  32.145  34.607  1.00  0.00     0.148 A 
ATOM     72  C   UNL A   1      41.252  31.697  36.908  1.00  0.00     0.002 A 
ATOM     73  C   UNL A   1      42.730  33.110  35.606  1.00  0.00     0.091 A 
ATOM     74  F   UNL A   1      43.500  32.349  33.479  1.00  0.00    -0.205 F 
ATOM     75  C   UNL A   1      41.943  32.894  36.749  1.00  0.00     0.022 A 
BRANCH  73  76
ATOM     76  S   UNL A   1      43.653  34.649  35.532  1.00  0.00     0.127 S 
ATOM     77  O   UNL A   1      44.793  34.270  34.698  1.00  0.00    -0.237 OA
ATOM     78  O   UNL A   1      42.699  35.552  34.887  1.00  0.00    -0.237 OA
ATOM     79  O   UNL A   1      43.970  34.992  36.911  1.00  0.00    -0.744 OA
ENDBRANCH  73  76
ENDBRANCH  55  69
BRANCH  56  80
ATOM     80  C   UNL A   1      42.548  24.288  27.304  1.00  0.00     0.023 A 
ATOM     81  C   UNL A   1      43.268  24.660  26.153  1.00  0.00     0.012 A 
ATOM     82  C   UNL A   1      41.985  23.000  27.379  1.00  0.00     0.148 A 
ATOM     83  C   UNL A   1      43.404  23.773  25.083  1.00  0.00     0.002 A 
ATOM     84  C   UNL A   1      42.171  22.103  26.334  1.00  0.00     0.091 A 
ATOM     85  F   UNL A   1      41.300  22.670  28.483  1.00  0.00    -0.205 F 
ATOM     86  C   UNL A   1      42.866  22.492  25.179  1.00  0.00     0.022 A 
BRANCH  84  87
ATOM     87  S   UNL A   1      41.636  20.390  26.425  1.00  0.00     0.127 S 
ATOM     88  O   UNL A   1      42.018  20.028  27.788  1.00  0.00    -0.237 OA
ATOM     89  O   UNL A   1      40.196  20.514  26.201  1.00  0.00    -0.237 OA
ATOM     90  O   UNL A   1      42.352  19.693  25.365  1.00  0.00    -0.744 OA
ENDBRANCH  84  87
ENDBRANCH  56  80
BRANCH  68  91
ATOM     91  C   UNL A   1      46.302  25.275  33.122  1.00  0.00     0.023 A 
ATOM     92  C   UNL A   1      47.595  25.765  32.857  1.00  0.00     0.012 A 
ATOM     93  C   UNL A   1      46.142  24.176  33.990  1.00  0.00     0.148 A 
ATOM     94  C   UNL A   1      48.715  25.151  33.420  1.00  0.00     0.002 A 
ATOM     95  C   UNL A   1      47.257  23.602  34.588  1.00  0.00     0.091 A 
ATOM     96  F   UNL A   1      44.903  23.714  34.215  1.00  0.00    -0.205 F 
ATOM     97  C   UNL A   1      48.544  24.080  34.293  1.00  0.00     0.022 A 
BRANCH  95  98
ATOM     98  S   UNL A   1      47.129  22.283  35.799  1.00  0.00     0.127 S 
ATOM     99  O   UNL A   1      48.520  22.132  36.225  1.00  0.00    -0.237 OA
ATOM    100  O   UNL A   1      46.243  22.871  36.805  1.00  0.00    -0.237 OA
ATOM    101  O   UNL A   1      46.565  21.141  35.092  1.00  0.00    -0.744 OA
ENDBRANCH  95  98
ENDBRANCH  68  91
ENDBRANCH  42  43
ENDBRANCH  34  37
ENDBRANCH  32  33
ENDBRANCH  31  32
ENDBRANCH  30  31
ENDBRANCH   1  30
TORSDOF 20
ENDMDL
MODEL 2
REMARK VINA RESULT:     -11.2      3.256      8.578
REMARK SMILES Cc1ccc(Cl)c(Nc2ccccc2C(=O)NCC(=O)NCCCCCCNC(=O)c2ccc(-c3c4nc(c(-c5cccc(S(=O)(=O)[O-])c5F)c5ccc([nH]5)c(-c5cccc(S(=O)(=O)[O-])c5F)c5nc(c(-c6cccc(S(=O)(=O)[O-])c6F)c6ccc3[nH]6)C=C5)C=C4)cc2)c1Cl
REMARK SMILES IDX 24 1 23 2 22 3 21 4 19 5 20 6 18 8 17 9 15 10 16 11 14 13
REMARK SMILES IDX 9 14 10 15 11 16 13 17 12 18 8 19 7 21 1 22 2 23 3 24 94 25
REMARK SMILES IDX 4 26 95 27 5 28 6 29 25 30 26 31 27 32 28 33 29 34 30 36
REMARK SMILES IDX 31 37 32 38 93 39 33 40 92 41 34 42 35 43 36 44 86 45 37 46
REMARK SMILES IDX 91 47 85 48 87 49 38 50 90 51 84 52 83 53 39 55 71 56 51 57
REMARK SMILES IDX 70 58 52 59 55 60 69 61 88 62 53 63 54 64 68 66 89 67 56 68
REMARK SMILES IDX 40 69 41 70 49 71 42 72 44 73 50 74 43 75 45 76 46 77 47 78
REMARK SMILES IDX 48 79 72 80 73 81 81 82 74 83 76 84 82 85 75 86 77 87 78 88
REMARK SMILES IDX 79 89 80 90 57 91 58 92 66 93 59 94 61 95 67 96 60 97 62 98
REMARK SMILES IDX 63 99 64 100 65 101
REMARK H PARENT 21 7 17 12 8 20 28 35 87 54 55 65
REMARK Flexibility Score: inf
ROOT
ATOM      1  C   UNL A   1      31.759  29.348  26.808  1.00  0.00     0.002 C 
ENDROOT
BRANCH   1   2
ATOM      2  C   UNL A   1      33.124  28.708  26.533  1.00  0.00     0.021 C 
BRANCH   2   3
ATOM      3  C   UNL A   1      33.051  27.686  25.406  1.00  0.00     0.116 C 
BRANCH   3   4
ATOM      4  N   UNL A   1      33.815  26.522  25.779  1.00  0.00    -0.355 N 
ATOM      5  C   UNL A   1      34.215  25.520  24.948  1.00  0.00     0.239 C 
ATOM      6  O   UNL A   1      34.653  24.482  25.451  1.00  0.00    -0.273 OA
ATOM      7  H   UNL A   1      34.074  26.443  26.726  1.00  0.00     0.163 HD
BRANCH   5   8
ATOM      8  C   UNL A   1      34.400  25.816  23.462  1.00  0.00     0.216 C 
BRANCH   8   9
ATOM      9  N   UNL A   1      33.610  25.278  22.377  1.00  0.00    -0.343 N 
ATOM     10  C   UNL A   1      32.471  25.779  21.777  1.00  0.00     0.253 C 
ATOM     11  O   UNL A   1      32.400  25.584  20.558  1.00  0.00    -0.269 OA
ATOM     12  H   UNL A   1      33.934  24.425  22.010  1.00  0.00     0.164 HD
BRANCH  10  13
ATOM     13  C   UNL A   1      31.241  26.286  22.490  1.00  0.00     0.063 A 
ATOM     14  C   UNL A   1      30.257  25.621  23.263  1.00  0.00     0.051 A 
ATOM     15  C   UNL A   1      29.147  26.380  23.723  1.00  0.00     0.027 A 
ATOM     16  C   UNL A   1      29.026  27.751  23.509  1.00  0.00     0.002 A 
ATOM     17  C   UNL A   1      31.094  27.689  22.301  1.00  0.00     0.016 A 
ATOM     18  C   UNL A   1      30.017  28.414  22.812  1.00  0.00     0.001 A 
BRANCH  14  19
ATOM     19  N   UNL A   1      30.278  24.306  23.781  1.00  0.00    -0.352 N 
ATOM     20  H   UNL A   1      29.484  23.781  23.534  1.00  0.00     0.167 HD
BRANCH  19  21
ATOM     21  C   UNL A   1      31.199  23.585  24.580  1.00  0.00     0.077 A 
ATOM     22  C   UNL A   1      33.012  20.217  24.617  1.00  0.00     0.046 C 
ATOM     23  C   UNL A   1      32.431  21.529  25.068  1.00  0.00    -0.030 A 
ATOM     24  C   UNL A   1      32.372  21.822  26.438  1.00  0.00     0.006 A 
ATOM     25  C   UNL A   1      31.886  22.439  24.140  1.00  0.00     0.069 A 
ATOM     26  C   UNL A   1      31.825  23.022  26.883  1.00  0.00     0.023 A 
ATOM     27  Cl  UNL A   1      32.169  22.176  22.445  1.00  0.00    -0.082 Cl
ATOM     28  C   UNL A   1      31.256  23.899  25.962  1.00  0.00     0.066 A 
ATOM     29  Cl  UNL A   1      30.478  25.323  26.580  1.00  0.00    -0.082 Cl
ENDBRANCH  19  21
ENDBRANCH  14  19
ENDBRANCH  10  13
ENDBRANCH   8   9
ENDBRANCH   5   8
ENDBRANCH   3   4
ENDBRANCH   2   3
ENDBRANCH   1   2
BRANCH   1  30
ATOM     30  C   UNL A   1      31.402  30.473  25.831  1.00  0.00     0.002 C 
BRANCH  30  31
ATOM     31  C   UNL A   1      31.309  31.852  26.487  1.00  0.00     0.021 C 
BRANCH  31  32
ATOM     32  C   UNL A   1      32.663  32.435  26.870  1.00  0.00     0.116 C 
BRANCH  32  33
ATOM     33  N   UNL A   1      32.530  33.796  27.366  1.00  0.00    -0.352 N 
ATOM     34  C   UNL A   1      33.184  34.391  28.412  1.00  0.00     0.251 C 
ATOM     35  H   UNL A   1      31.886  34.365  26.885  1.00  0.00     0.163 HD
ATOM     36  O   UNL A   1      32.795  35.462  28.863  1.00  0.00    -0.269 OA
BRANCH  34  37
ATOM     37  C   UNL A   1      34.359  33.712  28.990  1.00  0.00     0.039 A 
ATOM     38  C   UNL A   1      35.627  34.252  28.778  1.00  0.00     0.014 A 
ATOM     39  C   UNL A   1      34.193  32.556  29.759  1.00  0.00     0.014 A 
ATOM     40  C   UNL A   1      36.734  33.648  29.373  1.00  0.00     0.010 A 
ATOM     41  C   UNL A   1      35.285  32.003  30.414  1.00  0.00     0.010 A 
ATOM     42  C   UNL A   1      36.567  32.535  30.214  1.00  0.00    -0.014 A 
BRANCH  42  43
ATOM     43  C   UNL A   1      37.726  31.910  30.896  1.00  0.00     0.031 A 
ATOM     44  C   UNL A   1      38.556  30.879  30.184  1.00  0.00     0.074 A 
ATOM     45  C   UNL A   1      37.973  32.208  32.185  1.00  0.00     0.049 A 
ATOM     46  N   UNL A   1      39.577  30.193  30.628  1.00  0.00    -0.248 NA
ATOM     47  C   UNL A   1      38.169  30.552  28.801  1.00  0.00     0.031 C 
ATOM     48  C   UNL A   1      37.181  33.125  33.009  1.00  0.00     0.029 A 
ATOM     49  N   UNL A   1      38.944  31.749  33.039  1.00  0.00    -0.354 N 
ATOM     50  C   UNL A   1      39.931  29.332  29.598  1.00  0.00     0.074 A 
ATOM     51  C   UNL A   1      38.990  29.551  28.521  1.00  0.00     0.031 C 
ATOM     52  C   UNL A   1      37.699  33.162  34.246  1.00  0.00     0.029 A 
ATOM     53  C   UNL A   1      38.839  32.253  34.314  1.00  0.00     0.049 A 
ATOM     54  H   UNL A   1      39.649  31.119  32.765  1.00  0.00     0.167 HD
ATOM     55  C   UNL A   1      40.965  28.459  29.539  1.00  0.00     0.034 A 
ATOM     56  C   UNL A   1      39.573  32.005  35.416  1.00  0.00     0.034 A 
ATOM     57  C   UNL A   1      41.916  28.272  30.601  1.00  0.00     0.049 A 
ATOM     58  C   UNL A   1      40.744  31.068  35.315  1.00  0.00     0.074 A 
ATOM     59  C   UNL A   1      43.053  27.486  30.609  1.00  0.00     0.029 A 
ATOM     60  N   UNL A   1      41.832  28.868  31.850  1.00  0.00    -0.354 N 
ATOM     61  N   UNL A   1      41.169  30.388  34.277  1.00  0.00    -0.248 NA
ATOM     62  C   UNL A   1      41.562  30.894  36.523  1.00  0.00     0.031 C 
ATOM     63  C   UNL A   1      43.642  27.584  31.875  1.00  0.00     0.029 A 
ATOM     64  C   UNL A   1      42.889  28.458  32.644  1.00  0.00     0.049 A 
ATOM     65  H   UNL A   1      41.125  29.493  32.132  1.00  0.00     0.167 HD
ATOM     66  C   UNL A   1      42.319  29.729  34.697  1.00  0.00     0.074 A 
ATOM     67  C   UNL A   1      42.535  30.109  36.079  1.00  0.00     0.031 C 
ATOM     68  C   UNL A   1      43.116  28.877  34.005  1.00  0.00     0.034 A 
BRANCH  55  69
ATOM     69  C   UNL A   1      41.140  27.675  28.264  1.00  0.00     0.023 A 
ATOM     70  C   UNL A   1      41.705  28.301  27.132  1.00  0.00     0.012 A 
ATOM     71  C   UNL A   1      40.777  26.317  28.189  1.00  0.00     0.148 A 
ATOM     72  C   UNL A   1      41.858  27.604  25.934  1.00  0.00     0.002 A 
ATOM     73  C   UNL A   1      40.979  25.614  27.006  1.00  0.00     0.091 A 
ATOM     74  F   UNL A   1      40.221  25.742  29.265  1.00  0.00    -0.205 F 
ATOM     75  C   UNL A   1      41.505  26.260  25.875  1.00  0.00     0.022 A 
BRANCH  73  76
ATOM     76  S   UNL A   1      40.634  23.858  26.855  1.00  0.00     0.127 S 
ATOM     77  O   UNL A   1      39.215  23.865  26.505  1.00  0.00    -0.237 OA
ATOM     78  O   UNL A   1      41.527  23.460  25.766  1.00  0.00    -0.237 OA
ATOM     79  O   UNL A   1      40.960  23.274  28.148  1.00  0.00    -0.744 OA
ENDBRANCH  73  76
ENDBRANCH  55  69
BRANCH  56  80
ATOM     80  C   UNL A   1      39.252  32.714  36.686  1.00  0.00     0.023 A 
ATOM     81  C   UNL A   1      39.833  33.970  36.943  1.00  0.00     0.012 A 
ATOM     82  C   UNL A   1      38.327  32.181  37.604  1.00  0.00     0.148 A 
ATOM     83  C   UNL A   1      39.517  34.673  38.107  1.00  0.00     0.002 A 
ATOM     84  C   UNL A   1      37.974  32.912  38.732  1.00  0.00     0.091 A 
ATOM     85  F   UNL A   1      37.790  30.982  37.339  1.00  0.00    -0.205 F 
ATOM     86  C   UNL A   1      38.580  34.150  38.995  1.00  0.00     0.022 A 
BRANCH  84  87
ATOM     87  S   UNL A   1      36.677  32.384  39.858  1.00  0.00     0.127 S 
ATOM     88  O   UNL A   1      37.191  31.099  40.326  1.00  0.00    -0.237 OA
ATOM     89  O   UNL A   1      36.694  33.454  40.856  1.00  0.00    -0.237 OA
ATOM     90  O   UNL A   1      35.459  32.323  39.062  1.00  0.00    -0.744 OA
ENDBRANCH  84  87
ENDBRANCH  56  80
BRANCH  68  91
ATOM     91  C   UNL A   1      44.318  28.313  34.716  1.00  0.00     0.023 A 
ATOM     92  C   UNL A   1      45.519  29.048  34.759  1.00  0.00     0.012 A 
ATOM     93  C   UNL A   1      44.232  27.088  35.409  1.00  0.00     0.148 A 
ATOM     94  C   UNL A   1      46.626  28.557  35.450  1.00  0.00     0.002 A 
ATOM     95  C   UNL A   1      45.322  26.631  36.139  1.00  0.00     0.091 A 
ATOM     96  F   UNL A   1      43.086  26.395  35.341  1.00  0.00    -0.205 F 
ATOM     97  C   UNL A   1      46.524  27.357  36.149  1.00  0.00     0.022 A 
BRANCH  95  98
ATOM     98  S   UNL A   1      45.252  25.146  37.147  1.00  0.00     0.127 S 
ATOM     99  O   UNL A   1      44.121  25.437  38.027  1.00  0.00    -0.237 OA
ATOM    100  O   UNL A   1      44.998  24.106  36.150  1.00  0.00    -0.237 OA
ATOM    101  O   UNL A   1      46.547  25.047  37.806  1.00  0.00    -0.744 OA
ENDBRANCH  95  98
ENDBRANCH  68  91
ENDBRANCH  42  43
ENDBRANCH  34  37
ENDBRANCH  32  33
ENDBRANCH  31  32
ENDBRANCH  30  31
ENDBRANCH   1  30
TORSDOF 20
ENDMDL
MODEL 3
REMARK VINA RESULT:     -11.0      3.693      5.475
REMARK SMILES Cc1ccc(Cl)c(Nc2ccccc2C(=O)NCC(=O)NCCCCCCNC(=O)c2ccc(-c3c4nc(c(-c5cccc(S(=O)(=O)[O-])c5F)c5ccc([nH]5)c(-c5cccc(S(=O)(=O)[O-])c5F)c5nc(c(-c6cccc(S(=O)(=O)[O-])c6F)c6ccc3[nH]6)C=C5)C=C4)cc2)c1Cl
REMARK SMILES IDX 24 1 23 2 22 3 21 4 19 5 20 6 18 8 17 9 15 10 16 11 14 13
REMARK SMILES IDX 9 14 10 15 11 16 13 17 12 18 8 19 7 21 1 22 2 23 3 24 94 25
REMARK SMILES IDX 4 26 95 27 5 28 6 29 25 30 26 31 27 32 28 33 29 34 30 36
REMARK SMILES IDX 31 37 32 38 93 39 33 40 92 41 34 42 35 43 36 44 86 45 37 46
REMARK SMILES IDX 91 47 85 48 87 49 38 50 90 51 84 52 83 53 39 55 71 56 51 57
REMARK SMILES IDX 70 58 52 59 55 60 69 61 88 62 53 63 54 64 68 66 89 67 56 68
REMARK SMILES IDX 40 69 41 70 49 71 42 72 44 73 50 74 43 75 45 76 46 77 47 78
REMARK SMILES IDX 48 79 72 80 73 81 81 82 74 83 76 84 82 85 75 86 77 87 78 88
REMARK SMILES IDX 79 89 80 90 57 91 58 92 66 93 59 94 61 95 67 96 60 97 62 98
REMARK SMILES IDX 63 99 64 100 65 101
REMARK H PARENT 21 7 17 12 8 20 28 35 87 54 55 65
REMARK Flexibility Score: inf
ROOT
ATOM      1  C   UNL A   1      34.482  31.616  28.227  1.00  0.00     0.002 C 
ENDROOT
BRANCH   1   2
ATOM      2  C   UNL A   1      35.656  30.742  27.771  1.00  0.00     0.021 C 
BRANCH   2   3
ATOM      3  C   UNL A   1      35.202  29.333  27.411  1.00  0.00     0.116 C 
BRANCH   3   4
ATOM      4  N   UNL A   1      33.803  29.197  27.727  1.00  0.00    -0.355 N 
ATOM      5  C   UNL A   1      32.907  28.393  27.090  1.00  0.00     0.239 C 
ATOM      6  O   UNL A   1      31.705  28.560  27.317  1.00  0.00    -0.273 OA
ATOM      7  H   UNL A   1      33.461  29.736  28.477  1.00  0.00     0.163 HD
BRANCH   5   8
ATOM      8  C   UNL A   1      33.408  27.142  26.375  1.00  0.00     0.216 C 
BRANCH   8   9
ATOM      9  N   UNL A   1      32.714  25.878  26.273  1.00  0.00    -0.343 N 
ATOM     10  C   UNL A   1      33.218  24.598  26.142  1.00  0.00     0.253 C 
ATOM     11  O   UNL A   1      32.580  23.726  26.743  1.00  0.00    -0.269 OA
ATOM     12  H   UNL A   1      31.733  25.938  26.300  1.00  0.00     0.164 HD
BRANCH  10  13
ATOM     13  C   UNL A   1      34.278  24.156  25.161  1.00  0.00     0.063 A 
ATOM     14  C   UNL A   1      34.258  24.016  23.752  1.00  0.00     0.051 A 
ATOM     15  C   UNL A   1      35.410  23.471  23.121  1.00  0.00     0.027 A 
ATOM     16  C   UNL A   1      36.570  23.141  23.818  1.00  0.00     0.002 A 
ATOM     17  C   UNL A   1      35.482  23.822  25.841  1.00  0.00     0.016 A 
ATOM     18  C   UNL A   1      36.615  23.338  25.184  1.00  0.00     0.001 A 
BRANCH  14  19
ATOM     19  N   UNL A   1      33.292  24.477  22.829  1.00  0.00    -0.352 N 
ATOM     20  H   UNL A   1      33.400  24.091  21.930  1.00  0.00     0.167 HD
BRANCH  19  21
ATOM     21  C   UNL A   1      32.200  25.375  22.924  1.00  0.00     0.077 A 
ATOM     22  C   UNL A   1      31.530  29.098  23.492  1.00  0.00     0.046 C 
ATOM     23  C   UNL A   1      31.326  27.612  23.389  1.00  0.00    -0.030 A 
ATOM     24  C   UNL A   1      30.141  27.043  23.879  1.00  0.00     0.006 A 
ATOM     25  C   UNL A   1      32.332  26.775  22.867  1.00  0.00     0.069 A 
ATOM     26  C   UNL A   1      29.933  25.669  23.811  1.00  0.00     0.023 A 
ATOM     27  Cl  UNL A   1      33.688  27.500  22.056  1.00  0.00    -0.082 Cl
ATOM     28  C   UNL A   1      30.947  24.845  23.326  1.00  0.00     0.066 A 
ATOM     29  Cl  UNL A   1      30.685  23.130  23.377  1.00  0.00    -0.082 Cl
ENDBRANCH  19  21
ENDBRANCH  14  19
ENDBRANCH  10  13
ENDBRANCH   8   9
ENDBRANCH   5   8
ENDBRANCH   3   4
ENDBRANCH   2   3
ENDBRANCH   1   2
BRANCH   1  30
ATOM     30  C   UNL A   1      34.732  33.117  28.054  1.00  0.00     0.002 C 
BRANCH  30  31
ATOM     31  C   UNL A   1      33.489  33.980  28.282  1.00  0.00     0.021 C 
BRANCH  31  32
ATOM     32  C   UNL A   1      33.808  35.384  28.779  1.00  0.00     0.116 C 
BRANCH  32  33
ATOM     33  N   UNL A   1      33.049  35.703  29.978  1.00  0.00    -0.352 N 
ATOM     34  C   UNL A   1      33.185  35.184  31.238  1.00  0.00     0.251 C 
ATOM     35  H   UNL A   1      32.345  36.384  29.870  1.00  0.00     0.163 HD
ATOM     36  O   UNL A   1      32.321  35.370  32.086  1.00  0.00    -0.269 OA
BRANCH  34  37
ATOM     37  C   UNL A   1      34.388  34.388  31.550  1.00  0.00     0.039 A 
ATOM     38  C   UNL A   1      35.645  34.925  31.280  1.00  0.00     0.014 A 
ATOM     39  C   UNL A   1      34.259  33.122  32.129  1.00  0.00     0.014 A 
ATOM     40  C   UNL A   1      36.785  34.202  31.629  1.00  0.00     0.010 A 
ATOM     41  C   UNL A   1      35.394  32.439  32.547  1.00  0.00     0.010 A 
ATOM     42  C   UNL A   1      36.667  32.966  32.286  1.00  0.00    -0.014 A 
BRANCH  42  43
ATOM     43  C   UNL A   1      37.867  32.206  32.710  1.00  0.00     0.031 A 
ATOM     44  C   UNL A   1      38.591  32.579  33.974  1.00  0.00     0.074 A 
ATOM     45  C   UNL A   1      38.354  31.239  31.910  1.00  0.00     0.049 A 
ATOM     46  N   UNL A   1      39.677  32.062  34.484  1.00  0.00    -0.248 NA
ATOM     47  C   UNL A   1      38.038  33.702  34.751  1.00  0.00     0.031 C 
ATOM     48  C   UNL A   1      37.790  30.849  30.615  1.00  0.00     0.029 A 
ATOM     49  N   UNL A   1      39.450  30.426  32.054  1.00  0.00    -0.354 N 
ATOM     50  C   UNL A   1      39.959  32.814  35.617  1.00  0.00     0.074 A 
ATOM     51  C   UNL A   1      38.953  33.851  35.697  1.00  0.00     0.031 C 
ATOM     52  C   UNL A   1      38.543  29.873  30.086  1.00  0.00     0.029 A 
ATOM     53  C   UNL A   1      39.656  29.586  30.985  1.00  0.00     0.049 A 
ATOM     54  H   UNL A   1      40.033  30.443  32.846  1.00  0.00     0.167 HD
ATOM     55  C   UNL A   1      40.947  32.642  36.526  1.00  0.00     0.034 A 
ATOM     56  C   UNL A   1      40.636  28.692  30.752  1.00  0.00     0.034 A 
ATOM     57  C   UNL A   1      41.923  31.588  36.458  1.00  0.00     0.049 A 
ATOM     58  C   UNL A   1      41.696  28.484  31.797  1.00  0.00     0.074 A 
ATOM     59  C   UNL A   1      42.906  31.264  37.375  1.00  0.00     0.029 A 
ATOM     60  N   UNL A   1      42.048  30.695  35.405  1.00  0.00    -0.354 N 
ATOM     61  N   UNL A   1      41.848  29.091  32.949  1.00  0.00    -0.248 NA
ATOM     62  C   UNL A   1      42.695  27.440  31.531  1.00  0.00     0.031 C 
ATOM     63  C   UNL A   1      43.645  30.192  36.862  1.00  0.00     0.029 A 
ATOM     64  C   UNL A   1      43.100  29.827  35.640  1.00  0.00     0.049 A 
ATOM     65  H   UNL A   1      41.472  30.679  34.606  1.00  0.00     0.167 HD
ATOM     66  C   UNL A   1      42.940  28.486  33.559  1.00  0.00     0.074 A 
ATOM     67  C   UNL A   1      43.397  27.448  32.657  1.00  0.00     0.031 C 
ATOM     68  C   UNL A   1      43.519  28.771  34.752  1.00  0.00     0.034 A 
BRANCH  55  69
ATOM     69  C   UNL A   1      40.988  33.591  37.697  1.00  0.00     0.023 A 
ATOM     70  C   UNL A   1      41.823  34.727  37.646  1.00  0.00     0.012 A 
ATOM     71  C   UNL A   1      40.183  33.379  38.832  1.00  0.00     0.148 A 
ATOM     72  C   UNL A   1      41.894  35.608  38.723  1.00  0.00     0.002 A 
ATOM     73  C   UNL A   1      40.222  34.290  39.883  1.00  0.00     0.091 A 
ATOM     74  F   UNL A   1      39.412  32.284  38.876  1.00  0.00    -0.205 F 
ATOM     75  C   UNL A   1      41.088  35.395  39.837  1.00  0.00     0.022 A 
BRANCH  73  76
ATOM     76  S   UNL A   1      39.159  34.148  41.323  1.00  0.00     0.127 S 
ATOM     77  O   UNL A   1      39.468  35.384  42.040  1.00  0.00    -0.237 OA
ATOM     78  O   UNL A   1      37.826  34.109  40.722  1.00  0.00    -0.237 OA
ATOM     79  O   UNL A   1      39.556  32.918  41.994  1.00  0.00    -0.744 OA
ENDBRANCH  73  76
ENDBRANCH  55  69
BRANCH  56  80
ATOM     80  C   UNL A   1      40.608  27.884  29.501  1.00  0.00     0.023 A 
ATOM     81  C   UNL A   1      39.634  26.880  29.346  1.00  0.00     0.012 A 
ATOM     82  C   UNL A   1      41.498  28.150  28.442  1.00  0.00     0.148 A 
ATOM     83  C   UNL A   1      39.562  26.136  28.167  1.00  0.00     0.002 A 
ATOM     84  C   UNL A   1      41.385  27.444  27.250  1.00  0.00     0.091 A 
ATOM     85  F   UNL A   1      42.420  29.108  28.614  1.00  0.00    -0.205 F 
ATOM     86  C   UNL A   1      40.428  26.426  27.116  1.00  0.00     0.022 A 
BRANCH  84  87
ATOM     87  S   UNL A   1      42.363  27.841  25.796  1.00  0.00     0.127 S 
ATOM     88  O   UNL A   1      41.937  26.805  24.857  1.00  0.00    -0.237 OA
ATOM     89  O   UNL A   1      41.895  29.190  25.479  1.00  0.00    -0.237 OA
ATOM     90  O   UNL A   1      43.754  27.772  26.222  1.00  0.00    -0.744 OA
ENDBRANCH  84  87
ENDBRANCH  56  80
BRANCH  68  91
ATOM     91  C   UNL A   1      44.698  27.933  35.174  1.00  0.00     0.023 A 
ATOM     92  C   UNL A   1      46.008  28.387  34.925  1.00  0.00     0.012 A 
ATOM     93  C   UNL A   1      44.506  26.732  35.886  1.00  0.00     0.148 A 
ATOM     94  C   UNL A   1      47.109  27.642  35.348  1.00  0.00     0.002 A 
ATOM     95  C   UNL A   1      45.606  26.022  36.350  1.00  0.00     0.091 A 
ATOM     96  F   UNL A   1      43.251  26.308  36.097  1.00  0.00    -0.205 F 
ATOM     97  C   UNL A   1      46.908  26.469  36.071  1.00  0.00     0.022 A 
BRANCH  95  98
ATOM     98  S   UNL A   1      45.444  24.553  37.371  1.00  0.00     0.127 S 
ATOM     99  O   UNL A   1      44.791  23.621  36.452  1.00  0.00    -0.237 OA
ATOM    100  O   UNL A   1      46.839  24.233  37.676  1.00  0.00    -0.237 OA
ATOM    101  O   UNL A   1      44.650  24.951  38.525  1.00  0.00    -0.744 OA
ENDBRANCH  95  98
ENDBRANCH  68  91
ENDBRANCH  42  43
ENDBRANCH  34  37
ENDBRANCH  32  33
ENDBRANCH  31  32
ENDBRANCH  30  31
ENDBRANCH   1  30
TORSDOF 20
ENDMDL
