MODEL 1
REMARK VINA RESULT:      -9.9      0.000      0.000
REMARK SMILES O=C(COc1ccc(Br)cc1)NC(=S)Nc1ccc(Cl)cc1C(=O)NCCCCCCNC(=O)c1ccc(-c2c3nc(c(-c4cccc(S(=O)(=O)[O-])c4F)c4ccc([nH]4)c(-c4cccc(S(=O)(=O)[O-])c4F)c4nc(c(-c5cccc(S(=O)(=O)[O-])c5F)c5ccc2[nH]5)C=C4)C=C3)cc1
REMARK SMILES IDX 27 1 26 2 25 3 23 4 24 5 22 7 16 8 17 9 18 10 21 11 19 12
REMARK SMILES IDX 20 13 15 14 13 16 14 17 12 18 1 19 2 20 3 22 4 23 5 24 6 25
REMARK SMILES IDX 11 26 7 27 10 28 8 29 9 30 28 31 29 32 30 33 31 34 32 35
REMARK SMILES IDX 33 36 34 38 35 39 36 40 97 41 37 42 96 43 38 44 39 45 40 46
REMARK SMILES IDX 90 47 41 48 95 49 89 50 91 51 42 52 94 53 88 54 87 55 43 57
REMARK SMILES IDX 75 58 55 59 74 60 56 61 59 62 73 63 92 64 57 65 58 66 72 68
REMARK SMILES IDX 93 69 60 70 44 71 45 72 53 73 46 74 48 75 54 76 47 77 49 78
REMARK SMILES IDX 50 79 51 80 52 81 76 82 77 83 85 84 78 85 80 86 86 87 79 88
REMARK SMILES IDX 81 89 82 90 83 91 84 92 61 93 62 94 70 95 63 96 65 97 71 98
REMARK SMILES IDX 64 99 66 100 67 101 68 102 69 103
REMARK H PARENT 25 6 15 15 12 21 32 37 91 56 59 67
REMARK Flexibility Score: inf
ROOT
ATOM      1  C   UNL A   1      34.984  23.978  26.060  1.00  0.00     0.021 C 
ENDROOT
BRANCH   1   2
ATOM      2  C   UNL A   1      34.148  25.132  25.519  1.00  0.00     0.116 C 
BRANCH   2   3
ATOM      3  N   UNL A   1      32.810  25.238  26.035  1.00  0.00    -0.352 N 
ATOM      4  C   UNL A   1      32.032  26.323  26.361  1.00  0.00     0.253 C 
ATOM      5  O   UNL A   1      30.900  26.037  26.772  1.00  0.00    -0.269 OA
ATOM      6  H   UNL A   1      32.368  24.371  26.182  1.00  0.00     0.163 HD
BRANCH   4   7
ATOM      7  C   UNL A   1      32.397  27.785  26.298  1.00  0.00     0.064 A 
ATOM      8  C   UNL A   1      31.752  28.879  25.680  1.00  0.00     0.053 A 
ATOM      9  C   UNL A   1      32.231  30.198  25.865  1.00  0.00     0.028 A 
ATOM     10  C   UNL A   1      33.418  30.445  26.543  1.00  0.00     0.023 A 
ATOM     11  C   UNL A   1      33.616  28.073  26.962  1.00  0.00     0.036 A 
ATOM     12  C   UNL A   1      34.128  29.371  27.053  1.00  0.00     0.041 A 
ATOM     13  Cl  UNL A   1      35.662  29.644  27.786  1.00  0.00    -0.084 Cl
BRANCH   8  14
ATOM     14  N   UNL A   1      30.659  28.772  24.817  1.00  0.00    -0.332 N 
ATOM     15  H   UNL A   1      29.790  29.067  25.174  1.00  0.00     0.169 HD
BRANCH  14  16
ATOM     16  C   UNL A   1      30.658  28.305  23.537  1.00  0.00     0.177 C 
ATOM     17  S   UNL A   1      30.342  29.374  22.289  1.00  0.00    -0.040 S 
BRANCH  16  18
ATOM     18  N   UNL A   1      30.795  26.972  23.210  1.00  0.00    -0.300 N 
ATOM     19  O   UNL A   1      32.944  26.556  22.352  1.00  0.00    -0.271 OA
ATOM     20  C   UNL A   1      31.815  26.183  22.654  1.00  0.00     0.264 C 
ATOM     21  H   UNL A   1      29.986  26.450  23.415  1.00  0.00     0.172 HD
BRANCH  20  22
ATOM     22  C   UNL A   1      31.469  24.695  22.546  1.00  0.00     0.329 C 
BRANCH  22  23
ATOM     23  O   UNL A   1      31.073  24.084  23.775  1.00  0.00    -0.484 OA
BRANCH  23  24
ATOM     24  C   UNL A   1      31.551  22.806  23.910  1.00  0.00     0.120 A 
ATOM     25  C   UNL A   1      32.144  22.159  22.823  1.00  0.00     0.047 A 
ATOM     26  C   UNL A   1      31.543  22.197  25.163  1.00  0.00     0.047 A 
ATOM     27  C   UNL A   1      32.664  20.874  22.966  1.00  0.00     0.019 A 
ATOM     28  C   UNL A   1      32.093  20.919  25.318  1.00  0.00     0.019 A 
ATOM     29  C   UNL A   1      32.644  20.261  24.216  1.00  0.00     0.018 A 
ATOM     30  Br  UNL A   1      33.394  18.538  24.422  1.00  0.00    -0.051 Br
ENDBRANCH  23  24
ENDBRANCH  22  23
ENDBRANCH  20  22
ENDBRANCH  16  18
ENDBRANCH  14  16
ENDBRANCH   8  14
ENDBRANCH   4   7
ENDBRANCH   2   3
ENDBRANCH   1   2
BRANCH   1  31
ATOM     31  C   UNL A   1      35.381  22.869  25.083  1.00  0.00     0.002 C 
BRANCH  31  32
ATOM     32  C   UNL A   1      36.251  21.726  25.612  1.00  0.00     0.002 C 
BRANCH  32  33
ATOM     33  C   UNL A   1      37.690  21.641  25.102  1.00  0.00     0.021 C 
BRANCH  33  34
ATOM     34  C   UNL A   1      38.767  22.251  25.992  1.00  0.00     0.116 C 
BRANCH  34  35
ATOM     35  N   UNL A   1      40.077  21.650  25.799  1.00  0.00    -0.352 N 
ATOM     36  C   UNL A   1      41.323  22.196  25.983  1.00  0.00     0.251 C 
ATOM     37  H   UNL A   1      40.068  20.715  25.490  1.00  0.00     0.163 HD
ATOM     38  O   UNL A   1      42.323  21.567  25.640  1.00  0.00    -0.269 OA
BRANCH  36  39
ATOM     39  C   UNL A   1      41.468  23.548  26.569  1.00  0.00     0.039 A 
ATOM     40  C   UNL A   1      41.606  23.673  27.954  1.00  0.00     0.014 A 
ATOM     41  C   UNL A   1      41.466  24.688  25.762  1.00  0.00     0.014 A 
ATOM     42  C   UNL A   1      41.804  24.935  28.523  1.00  0.00     0.010 A 
ATOM     43  C   UNL A   1      41.737  25.934  26.321  1.00  0.00     0.010 A 
ATOM     44  C   UNL A   1      41.904  26.073  27.708  1.00  0.00    -0.014 A 
BRANCH  44  45
ATOM     45  C   UNL A   1      42.184  27.417  28.277  1.00  0.00     0.031 A 
ATOM     46  C   UNL A   1      43.604  27.858  28.509  1.00  0.00     0.074 A 
ATOM     47  C   UNL A   1      41.162  28.202  28.676  1.00  0.00     0.049 A 
ATOM     48  N   UNL A   1      44.048  28.948  29.080  1.00  0.00    -0.248 NA
ATOM     49  C   UNL A   1      44.665  26.941  28.061  1.00  0.00     0.031 C 
ATOM     50  C   UNL A   1      39.742  27.864  28.563  1.00  0.00     0.029 A 
ATOM     51  N   UNL A   1      41.162  29.432  29.286  1.00  0.00    -0.354 N 
ATOM     52  C   UNL A   1      45.433  28.830  29.098  1.00  0.00     0.074 A 
ATOM     53  C   UNL A   1      45.754  27.548  28.509  1.00  0.00     0.031 C 
ATOM     54  C   UNL A   1      39.010  28.861  29.085  1.00  0.00     0.029 A 
ATOM     55  C   UNL A   1      39.904  29.890  29.604  1.00  0.00     0.049 A 
ATOM     56  H   UNL A   1      41.985  29.938  29.478  1.00  0.00     0.167 HD
ATOM     57  C   UNL A   1      46.357  29.718  29.538  1.00  0.00     0.034 A 
ATOM     58  C   UNL A   1      39.516  31.004  30.256  1.00  0.00     0.034 A 
ATOM     59  C   UNL A   1      46.034  31.004  30.094  1.00  0.00     0.049 A 
ATOM     60  C   UNL A   1      40.560  31.981  30.727  1.00  0.00     0.074 A 
ATOM     61  C   UNL A   1      46.897  32.007  30.499  1.00  0.00     0.029 A 
ATOM     62  N   UNL A   1      44.748  31.463  30.333  1.00  0.00    -0.354 N 
ATOM     63  N   UNL A   1      41.864  31.914  30.609  1.00  0.00    -0.248 NA
ATOM     64  C   UNL A   1      40.079  33.201  31.390  1.00  0.00     0.031 C 
ATOM     65  C   UNL A   1      46.134  33.058  31.015  1.00  0.00     0.029 A 
ATOM     66  C   UNL A   1      44.794  32.728  30.893  1.00  0.00     0.049 A 
ATOM     67  H   UNL A   1      43.924  30.963  30.134  1.00  0.00     0.167 HD
ATOM     68  C   UNL A   1      42.356  33.100  31.142  1.00  0.00     0.074 A 
ATOM     69  C   UNL A   1      41.208  33.872  31.574  1.00  0.00     0.031 C 
ATOM     70  C   UNL A   1      43.642  33.510  31.268  1.00  0.00     0.034 A 
BRANCH  57  71
ATOM     71  C   UNL A   1      47.810  29.338  29.404  1.00  0.00     0.023 A 
ATOM     72  C   UNL A   1      48.457  28.665  30.462  1.00  0.00     0.012 A 
ATOM     73  C   UNL A   1      48.524  29.607  28.220  1.00  0.00     0.148 A 
ATOM     74  C   UNL A   1      49.801  28.308  30.361  1.00  0.00     0.002 A 
ATOM     75  C   UNL A   1      49.849  29.204  28.108  1.00  0.00     0.091 A 
ATOM     76  F   UNL A   1      47.901  30.264  27.232  1.00  0.00    -0.205 F 
ATOM     77  C   UNL A   1      50.493  28.568  29.182  1.00  0.00     0.022 A 
BRANCH  75  78
ATOM     78  S   UNL A   1      50.803  29.419  26.602  1.00  0.00     0.127 S 
ATOM     79  O   UNL A   1      51.230  30.813  26.719  1.00  0.00    -0.237 OA
ATOM     80  O   UNL A   1      51.874  28.438  26.773  1.00  0.00    -0.237 OA
ATOM     81  O   UNL A   1      49.889  29.136  25.503  1.00  0.00    -0.744 OA
ENDBRANCH  75  78
ENDBRANCH  57  71
BRANCH  58  82
ATOM     82  C   UNL A   1      38.064  31.286  30.447  1.00  0.00     0.023 A 
ATOM     83  C   UNL A   1      37.379  30.685  31.520  1.00  0.00     0.012 A 
ATOM     84  C   UNL A   1      37.368  32.163  29.592  1.00  0.00     0.148 A 
ATOM     85  C   UNL A   1      36.020  30.927  31.723  1.00  0.00     0.002 A 
ATOM     86  C   UNL A   1      36.027  32.442  29.832  1.00  0.00     0.091 A 
ATOM     87  F   UNL A   1      38.036  32.718  28.572  1.00  0.00    -0.205 F 
ATOM     88  C   UNL A   1      35.347  31.813  30.886  1.00  0.00     0.022 A 
BRANCH  86  89
ATOM     89  S   UNL A   1      35.108  33.661  28.883  1.00  0.00     0.127 S 
ATOM     90  O   UNL A   1      35.173  33.103  27.536  1.00  0.00    -0.237 OA
ATOM     91  O   UNL A   1      33.790  33.600  29.514  1.00  0.00    -0.237 OA
ATOM     92  O   UNL A   1      35.810  34.923  29.076  1.00  0.00    -0.744 OA
ENDBRANCH  86  89
ENDBRANCH  58  82
BRANCH  70  93
ATOM     93  C   UNL A   1      43.893  34.878  31.847  1.00  0.00     0.023 A 
ATOM     94  C   UNL A   1      44.130  35.030  33.227  1.00  0.00     0.012 A 
ATOM     95  C   UNL A   1      43.985  36.002  31.001  1.00  0.00     0.148 A 
ATOM     96  C   UNL A   1      44.428  36.284  33.760  1.00  0.00     0.002 A 
ATOM     97  C   UNL A   1      44.334  37.237  31.531  1.00  0.00     0.091 A 
ATOM     98  F   UNL A   1      43.739  35.839  29.693  1.00  0.00    -0.205 F 
ATOM     99  C   UNL A   1      44.543  37.383  32.913  1.00  0.00     0.022 A 
BRANCH  97 100
ATOM    100  S   UNL A   1      44.605  38.686  30.505  1.00  0.00     0.127 S 
ATOM    101  O   UNL A   1      45.802  38.303  29.759  1.00  0.00    -0.237 OA
ATOM    102  O   UNL A   1      43.379  38.733  29.708  1.00  0.00    -0.237 OA
ATOM    103  O   UNL A   1      44.775  39.805  31.422  1.00  0.00    -0.744 OA
ENDBRANCH  97 100
ENDBRANCH  70  93
ENDBRANCH  44  45
ENDBRANCH  36  39
ENDBRANCH  34  35
ENDBRANCH  33  34
ENDBRANCH  32  33
ENDBRANCH  31  32
ENDBRANCH   1  31
TORSDOF 22
ENDMDL
MODEL 2
REMARK VINA RESULT:      -9.0      2.374      2.778
REMARK SMILES O=C(COc1ccc(Br)cc1)NC(=S)Nc1ccc(Cl)cc1C(=O)NCCCCCCNC(=O)c1ccc(-c2c3nc(c(-c4cccc(S(=O)(=O)[O-])c4F)c4ccc([nH]4)c(-c4cccc(S(=O)(=O)[O-])c4F)c4nc(c(-c5cccc(S(=O)(=O)[O-])c5F)c5ccc2[nH]5)C=C4)C=C3)cc1
REMARK SMILES IDX 27 1 26 2 25 3 23 4 24 5 22 7 16 8 17 9 18 10 21 11 19 12
REMARK SMILES IDX 20 13 15 14 13 16 14 17 12 18 1 19 2 20 3 22 4 23 5 24 6 25
REMARK SMILES IDX 11 26 7 27 10 28 8 29 9 30 28 31 29 32 30 33 31 34 32 35
REMARK SMILES IDX 33 36 34 38 35 39 36 40 97 41 37 42 96 43 38 44 39 45 40 46
REMARK SMILES IDX 90 47 41 48 95 49 89 50 91 51 42 52 94 53 88 54 87 55 43 57
REMARK SMILES IDX 75 58 55 59 74 60 56 61 59 62 73 63 92 64 57 65 58 66 72 68
REMARK SMILES IDX 93 69 60 70 44 71 45 72 53 73 46 74 48 75 54 76 47 77 49 78
REMARK SMILES IDX 50 79 51 80 52 81 76 82 77 83 85 84 78 85 80 86 86 87 79 88
REMARK SMILES IDX 81 89 82 90 83 91 84 92 61 93 62 94 70 95 63 96 65 97 71 98
REMARK SMILES IDX 64 99 66 100 67 101 68 102 69 103
REMARK H PARENT 25 6 15 15 12 21 32 37 91 56 59 67
REMARK Flexibility Score: inf
ROOT
ATOM      1  C   UNL A   1      35.172  24.220  25.875  1.00  0.00     0.021 C 
ENDROOT
BRANCH   1   2
ATOM      2  C   UNL A   1      34.261  25.295  25.292  1.00  0.00     0.116 C 
BRANCH   2   3
ATOM      3  N   UNL A   1      32.905  25.299  25.769  1.00  0.00    -0.352 N 
ATOM      4  C   UNL A   1      32.065  26.319  26.145  1.00  0.00     0.253 C 
ATOM      5  O   UNL A   1      30.937  25.950  26.497  1.00  0.00    -0.269 OA
ATOM      6  H   UNL A   1      32.503  24.404  25.840  1.00  0.00     0.163 HD
BRANCH   4   7
ATOM      7  C   UNL A   1      32.357  27.798  26.199  1.00  0.00     0.064 A 
ATOM      8  C   UNL A   1      31.701  28.897  25.606  1.00  0.00     0.053 A 
ATOM      9  C   UNL A   1      32.097  30.222  25.906  1.00  0.00     0.028 A 
ATOM     10  C   UNL A   1      33.221  30.480  26.680  1.00  0.00     0.023 A 
ATOM     11  C   UNL A   1      33.512  28.098  26.965  1.00  0.00     0.036 A 
ATOM     12  C   UNL A   1      33.950  29.410  27.172  1.00  0.00     0.041 A 
ATOM     13  Cl  UNL A   1      35.414  29.706  28.028  1.00  0.00    -0.084 Cl
BRANCH   8  14
ATOM     14  N   UNL A   1      30.676  28.796  24.662  1.00  0.00    -0.332 N 
ATOM     15  H   UNL A   1      29.760  28.722  25.018  1.00  0.00     0.169 HD
BRANCH  14  16
ATOM     16  C   UNL A   1      30.798  28.787  23.305  1.00  0.00     0.177 C 
ATOM     17  S   UNL A   1      29.865  29.845  22.406  1.00  0.00    -0.040 S 
BRANCH  16  18
ATOM     18  N   UNL A   1      31.570  27.878  22.614  1.00  0.00    -0.300 N 
ATOM     19  O   UNL A   1      33.851  28.223  23.073  1.00  0.00    -0.271 OA
ATOM     20  C   UNL A   1      32.947  27.633  22.487  1.00  0.00     0.264 C 
ATOM     21  H   UNL A   1      31.027  27.251  22.083  1.00  0.00     0.172 HD
BRANCH  20  22
ATOM     22  C   UNL A   1      33.293  26.427  21.611  1.00  0.00     0.329 C 
BRANCH  22  23
ATOM     23  O   UNL A   1      32.189  25.568  21.315  1.00  0.00    -0.484 OA
BRANCH  23  24
ATOM     24  C   UNL A   1      32.156  24.454  22.114  1.00  0.00     0.120 A 
ATOM     25  C   UNL A   1      33.208  23.535  22.082  1.00  0.00     0.047 A 
ATOM     26  C   UNL A   1      31.124  24.299  23.036  1.00  0.00     0.047 A 
ATOM     27  C   UNL A   1      33.195  22.420  22.919  1.00  0.00     0.019 A 
ATOM     28  C   UNL A   1      31.124  23.198  23.901  1.00  0.00     0.019 A 
ATOM     29  C   UNL A   1      32.156  22.260  23.831  1.00  0.00     0.018 A 
ATOM     30  Br  UNL A   1      32.164  20.775  25.002  1.00  0.00    -0.051 Br
ENDBRANCH  23  24
ENDBRANCH  22  23
ENDBRANCH  20  22
ENDBRANCH  16  18
ENDBRANCH  14  16
ENDBRANCH   8  14
ENDBRANCH   4   7
ENDBRANCH   2   3
ENDBRANCH   1   2
BRANCH   1  31
ATOM     31  C   UNL A   1      35.436  22.974  25.024  1.00  0.00     0.002 C 
BRANCH  31  32
ATOM     32  C   UNL A   1      36.027  21.746  25.718  1.00  0.00     0.002 C 
BRANCH  32  33
ATOM     33  C   UNL A   1      37.363  21.215  25.195  1.00  0.00     0.021 C 
BRANCH  33  34
ATOM     34  C   UNL A   1      38.623  21.871  25.747  1.00  0.00     0.116 C 
BRANCH  34  35
ATOM     35  N   UNL A   1      39.789  21.004  25.695  1.00  0.00    -0.352 N 
ATOM     36  C   UNL A   1      41.073  21.244  26.117  1.00  0.00     0.251 C 
ATOM     37  H   UNL A   1      39.635  20.116  25.299  1.00  0.00     0.163 HD
ATOM     38  O   UNL A   1      41.961  20.428  25.869  1.00  0.00    -0.269 OA
BRANCH  36  39
ATOM     39  C   UNL A   1      41.401  22.489  26.848  1.00  0.00     0.039 A 
ATOM     40  C   UNL A   1      41.642  22.423  28.223  1.00  0.00     0.014 A 
ATOM     41  C   UNL A   1      41.468  23.718  26.186  1.00  0.00     0.014 A 
ATOM     42  C   UNL A   1      42.012  23.577  28.922  1.00  0.00     0.010 A 
ATOM     43  C   UNL A   1      41.906  24.850  26.867  1.00  0.00     0.010 A 
ATOM     44  C   UNL A   1      42.178  24.794  28.243  1.00  0.00    -0.014 A 
BRANCH  44  45
ATOM     45  C   UNL A   1      42.637  26.021  28.946  1.00  0.00     0.031 A 
ATOM     46  C   UNL A   1      44.098  26.214  29.250  1.00  0.00     0.074 A 
ATOM     47  C   UNL A   1      41.733  26.914  29.396  1.00  0.00     0.049 A 
ATOM     48  N   UNL A   1      44.681  27.165  29.934  1.00  0.00    -0.248 NA
ATOM     49  C   UNL A   1      45.024  25.189  28.740  1.00  0.00     0.031 C 
ATOM     50  C   UNL A   1      40.283  26.810  29.219  1.00  0.00     0.029 A 
ATOM     51  N   UNL A   1      41.897  28.068  30.121  1.00  0.00    -0.354 N 
ATOM     52  C   UNL A   1      46.031  26.833  29.971  1.00  0.00     0.074 A 
ATOM     53  C   UNL A   1      46.176  25.577  29.269  1.00  0.00     0.031 C 
ATOM     54  C   UNL A   1      39.691  27.857  29.818  1.00  0.00     0.029 A 
ATOM     55  C   UNL A   1      40.712  28.683  30.454  1.00  0.00     0.049 A 
ATOM     56  H   UNL A   1      42.779  28.421  30.379  1.00  0.00     0.167 HD
ATOM     57  C   UNL A   1      47.061  27.524  30.516  1.00  0.00     0.034 A 
ATOM     58  C   UNL A   1      40.473  29.779  31.201  1.00  0.00     0.034 A 
ATOM     59  C   UNL A   1      46.917  28.788  31.186  1.00  0.00     0.049 A 
ATOM     60  C   UNL A   1      41.634  30.536  31.787  1.00  0.00     0.074 A 
ATOM     61  C   UNL A   1      47.907  29.604  31.705  1.00  0.00     0.029 A 
ATOM     62  N   UNL A   1      45.707  29.417  31.439  1.00  0.00    -0.354 N 
ATOM     63  N   UNL A   1      42.917  30.279  31.693  1.00  0.00    -0.248 NA
ATOM     64  C   UNL A   1      41.320  31.749  32.554  1.00  0.00     0.031 C 
ATOM     65  C   UNL A   1      47.293  30.709  32.303  1.00  0.00     0.029 A 
ATOM     66  C   UNL A   1      45.924  30.602  32.119  1.00  0.00     0.049 A 
ATOM     67  H   UNL A   1      44.825  29.069  31.175  1.00  0.00     0.167 HD
ATOM     68  C   UNL A   1      43.563  31.321  32.349  1.00  0.00     0.074 A 
ATOM     69  C   UNL A   1      42.530  32.218  32.827  1.00  0.00     0.031 C 
ATOM     70  C   UNL A   1      44.891  31.515  32.542  1.00  0.00     0.034 A 
BRANCH  57  71
ATOM     71  C   UNL A   1      48.444  26.939  30.378  1.00  0.00     0.023 A 
ATOM     72  C   UNL A   1      49.227  27.254  29.247  1.00  0.00     0.012 A 
ATOM     73  C   UNL A   1      48.987  26.114  31.383  1.00  0.00     0.148 A 
ATOM     74  C   UNL A   1      50.507  26.722  29.097  1.00  0.00     0.002 A 
ATOM     75  C   UNL A   1      50.282  25.627  31.250  1.00  0.00     0.091 A 
ATOM     76  F   UNL A   1      48.224  25.809  32.442  1.00  0.00    -0.205 F 
ATOM     77  C   UNL A   1      51.037  25.917  30.102  1.00  0.00     0.022 A 
BRANCH  75  78
ATOM     78  S   UNL A   1      51.085  24.651  32.526  1.00  0.00     0.127 S 
ATOM     79  O   UNL A   1      50.919  25.506  33.701  1.00  0.00    -0.237 OA
ATOM     80  O   UNL A   1      50.274  23.434  32.538  1.00  0.00    -0.237 OA
ATOM     81  O   UNL A   1      52.459  24.461  32.081  1.00  0.00    -0.744 OA
ENDBRANCH  75  78
ENDBRANCH  57  71
BRANCH  58  82
ATOM     82  C   UNL A   1      39.075  30.263  31.385  1.00  0.00     0.023 A 
ATOM     83  C   UNL A   1      38.313  29.779  32.467  1.00  0.00     0.012 A 
ATOM     84  C   UNL A   1      38.506  31.215  30.517  1.00  0.00     0.148 A 
ATOM     85  C   UNL A   1      37.001  30.211  32.664  1.00  0.00     0.002 A 
ATOM     86  C   UNL A   1      37.218  31.682  30.751  1.00  0.00     0.091 A 
ATOM     87  F   UNL A   1      39.244  31.657  29.489  1.00  0.00    -0.205 F 
ATOM     88  C   UNL A   1      36.457  31.169  31.813  1.00  0.00     0.022 A 
BRANCH  86  89
ATOM     89  S   UNL A   1      36.476  33.003  29.783  1.00  0.00     0.127 S 
ATOM     90  O   UNL A   1      35.080  32.936  30.204  1.00  0.00    -0.237 OA
ATOM     91  O   UNL A   1      37.211  34.173  30.262  1.00  0.00    -0.237 OA
ATOM     92  O   UNL A   1      36.730  32.661  28.389  1.00  0.00    -0.744 OA
ENDBRANCH  86  89
ENDBRANCH  58  82
BRANCH  70  93
ATOM     93  C   UNL A   1      45.325  32.768  33.256  1.00  0.00     0.023 A 
ATOM     94  C   UNL A   1      45.538  32.753  34.648  1.00  0.00     0.012 A 
ATOM     95  C   UNL A   1      45.610  33.939  32.525  1.00  0.00     0.148 A 
ATOM     96  C   UNL A   1      46.003  33.891  35.306  1.00  0.00     0.002 A 
ATOM     97  C   UNL A   1      46.122  35.053  33.179  1.00  0.00     0.091 A 
ATOM     98  F   UNL A   1      45.383  33.939  31.204  1.00  0.00    -0.205 F 
ATOM     99  C   UNL A   1      46.307  35.035  34.572  1.00  0.00     0.022 A 
BRANCH  97 100
ATOM    100  S   UNL A   1      46.638  36.534  32.304  1.00  0.00     0.127 S 
ATOM    101  O   UNL A   1      47.603  35.993  31.347  1.00  0.00    -0.237 OA
ATOM    102  O   UNL A   1      45.383  36.994  31.710  1.00  0.00    -0.237 OA
ATOM    103  O   UNL A   1      47.195  37.426  33.311  1.00  0.00    -0.744 OA
ENDBRANCH  97 100
ENDBRANCH  70  93
ENDBRANCH  44  45
ENDBRANCH  36  39
ENDBRANCH  34  35
ENDBRANCH  33  34
ENDBRANCH  32  33
ENDBRANCH  31  32
ENDBRANCH   1  31
TORSDOF 22
ENDMDL
MODEL 3
REMARK VINA RESULT:      -8.8      5.889      8.733
REMARK SMILES O=C(COc1ccc(Br)cc1)NC(=S)Nc1ccc(Cl)cc1C(=O)NCCCCCCNC(=O)c1ccc(-c2c3nc(c(-c4cccc(S(=O)(=O)[O-])c4F)c4ccc([nH]4)c(-c4cccc(S(=O)(=O)[O-])c4F)c4nc(c(-c5cccc(S(=O)(=O)[O-])c5F)c5ccc2[nH]5)C=C4)C=C3)cc1
REMARK SMILES IDX 27 1 26 2 25 3 23 4 24 5 22 7 16 8 17 9 18 10 21 11 19 12
REMARK SMILES IDX 20 13 15 14 13 16 14 17 12 18 1 19 2 20 3 22 4 23 5 24 6 25
REMARK SMILES IDX 11 26 7 27 10 28 8 29 9 30 28 31 29 32 30 33 31 34 32 35
REMARK SMILES IDX 33 36 34 38 35 39 36 40 97 41 37 42 96 43 38 44 39 45 40 46
REMARK SMILES IDX 90 47 41 48 95 49 89 50 91 51 42 52 94 53 88 54 87 55 43 57
REMARK SMILES IDX 75 58 55 59 74 60 56 61 59 62 73 63 92 64 57 65 58 66 72 68
REMARK SMILES IDX 93 69 60 70 44 71 45 72 53 73 46 74 48 75 54 76 47 77 49 78
REMARK SMILES IDX 50 79 51 80 52 81 76 82 77 83 85 84 78 85 80 86 86 87 79 88
REMARK SMILES IDX 81 89 82 90 83 91 84 92 61 93 62 94 70 95 63 96 65 97 71 98
REMARK SMILES IDX 64 99 66 100 67 101 68 102 69 103
REMARK H PARENT 25 6 15 15 12 21 32 37 91 56 59 67
REMARK Flexibility Score: inf
ROOT
ATOM      1  C   UNL A   1      44.219  24.263  31.714  1.00  0.00     0.021 C 
ENDROOT
BRANCH   1   2
ATOM      2  C   UNL A   1      44.141  23.412  30.452  1.00  0.00     0.116 C 
BRANCH   2   3
ATOM      3  N   UNL A   1      44.393  24.095  29.213  1.00  0.00    -0.352 N 
ATOM      4  C   UNL A   1      43.690  24.154  28.034  1.00  0.00     0.253 C 
ATOM      5  O   UNL A   1      44.207  24.866  27.163  1.00  0.00    -0.269 OA
ATOM      6  H   UNL A   1      45.226  24.621  29.208  1.00  0.00     0.163 HD
BRANCH   4   7
ATOM      7  C   UNL A   1      42.404  23.451  27.678  1.00  0.00     0.064 A 
ATOM      8  C   UNL A   1      41.062  23.886  27.726  1.00  0.00     0.053 A 
ATOM      9  C   UNL A   1      40.021  23.073  27.218  1.00  0.00     0.028 A 
ATOM     10  C   UNL A   1      40.265  21.777  26.785  1.00  0.00     0.023 A 
ATOM     11  C   UNL A   1      42.612  22.115  27.251  1.00  0.00     0.036 A 
ATOM     12  C   UNL A   1      41.560  21.289  26.844  1.00  0.00     0.041 A 
ATOM     13  Cl  UNL A   1      41.864  19.646  26.429  1.00  0.00    -0.084 Cl
BRANCH   8  14
ATOM     14  N   UNL A   1      40.636  25.085  28.302  1.00  0.00    -0.332 N 
ATOM     15  H   UNL A   1      40.054  25.007  29.094  1.00  0.00     0.169 HD
BRANCH  14  16
ATOM     16  C   UNL A   1      40.932  26.351  27.894  1.00  0.00     0.177 C 
ATOM     17  S   UNL A   1      41.153  26.640  26.261  1.00  0.00    -0.040 S 
BRANCH  16  18
ATOM     18  N   UNL A   1      41.169  27.398  28.761  1.00  0.00    -0.300 N 
ATOM     19  O   UNL A   1      43.142  27.019  29.982  1.00  0.00    -0.271 OA
ATOM     20  C   UNL A   1      42.151  27.693  29.721  1.00  0.00     0.264 C 
ATOM     21  H   UNL A   1      40.488  28.106  28.690  1.00  0.00     0.172 HD
BRANCH  20  22
ATOM     22  C   UNL A   1      41.981  29.058  30.393  1.00  0.00     0.329 C 
BRANCH  22  23
ATOM     23  O   UNL A   1      41.005  29.092  31.436  1.00  0.00    -0.484 OA
BRANCH  23  24
ATOM     24  C   UNL A   1      40.160  30.168  31.337  1.00  0.00     0.120 A 
ATOM     25  C   UNL A   1      40.221  31.009  30.224  1.00  0.00     0.047 A 
ATOM     26  C   UNL A   1      39.168  30.353  32.296  1.00  0.00     0.047 A 
ATOM     27  C   UNL A   1      39.340  32.082  30.102  1.00  0.00     0.019 A 
ATOM     28  C   UNL A   1      38.260  31.410  32.162  1.00  0.00     0.019 A 
ATOM     29  C   UNL A   1      38.357  32.275  31.069  1.00  0.00     0.018 A 
ATOM     30  Br  UNL A   1      37.128  33.700  30.879  1.00  0.00    -0.051 Br
ENDBRANCH  23  24
ENDBRANCH  22  23
ENDBRANCH  20  22
ENDBRANCH  16  18
ENDBRANCH  14  16
ENDBRANCH   8  14
ENDBRANCH   4   7
ENDBRANCH   2   3
ENDBRANCH   1   2
BRANCH   1  31
ATOM     31  C   UNL A   1      44.823  23.623  32.967  1.00  0.00     0.002 C 
BRANCH  31  32
ATOM     32  C   UNL A   1      43.957  22.638  33.755  1.00  0.00     0.002 C 
BRANCH  32  33
ATOM     33  C   UNL A   1      44.664  21.725  34.758  1.00  0.00     0.021 C 
BRANCH  33  34
ATOM     34  C   UNL A   1      45.800  22.345  35.564  1.00  0.00     0.116 C 
BRANCH  34  35
ATOM     35  N   UNL A   1      45.461  22.554  36.962  1.00  0.00    -0.352 N 
ATOM     36  C   UNL A   1      45.018  23.692  37.591  1.00  0.00     0.251 C 
ATOM     37  H   UNL A   1      45.565  21.766  37.542  1.00  0.00     0.163 HD
ATOM     38  O   UNL A   1      44.908  23.709  38.817  1.00  0.00    -0.269 OA
BRANCH  36  39
ATOM     39  C   UNL A   1      44.697  24.905  36.806  1.00  0.00     0.039 A 
ATOM     40  C   UNL A   1      45.632  25.943  36.751  1.00  0.00     0.014 A 
ATOM     41  C   UNL A   1      43.481  25.024  36.128  1.00  0.00     0.014 A 
ATOM     42  C   UNL A   1      45.374  27.072  35.968  1.00  0.00     0.010 A 
ATOM     43  C   UNL A   1      43.257  26.115  35.292  1.00  0.00     0.010 A 
ATOM     44  C   UNL A   1      44.198  27.153  35.205  1.00  0.00    -0.014 A 
BRANCH  44  45
ATOM     45  C   UNL A   1      43.928  28.308  34.309  1.00  0.00     0.031 A 
ATOM     46  C   UNL A   1      44.741  28.497  33.057  1.00  0.00     0.074 A 
ATOM     47  C   UNL A   1      43.022  29.239  34.670  1.00  0.00     0.049 A 
ATOM     48  N   UNL A   1      44.722  29.486  32.201  1.00  0.00    -0.248 NA
ATOM     49  C   UNL A   1      45.722  27.447  32.737  1.00  0.00     0.031 C 
ATOM     50  C   UNL A   1      42.212  29.202  35.890  1.00  0.00     0.029 A 
ATOM     51  N   UNL A   1      42.651  30.411  34.061  1.00  0.00    -0.354 N 
ATOM     52  C   UNL A   1      45.712  29.200  31.268  1.00  0.00     0.074 A 
ATOM     53  C   UNL A   1      46.334  27.961  31.680  1.00  0.00     0.031 C 
ATOM     54  C   UNL A   1      41.441  30.301  35.938  1.00  0.00     0.029 A 
ATOM     55  C   UNL A   1      41.727  31.137  34.778  1.00  0.00     0.049 A 
ATOM     56  H   UNL A   1      43.012  30.706  33.193  1.00  0.00     0.167 HD
ATOM     57  C   UNL A   1      46.055  29.890  30.153  1.00  0.00     0.034 A 
ATOM     58  C   UNL A   1      41.185  32.347  34.537  1.00  0.00     0.034 A 
ATOM     59  C   UNL A   1      45.412  31.105  29.731  1.00  0.00     0.049 A 
ATOM     60  C   UNL A   1      41.574  33.090  33.287  1.00  0.00     0.074 A 
ATOM     61  C   UNL A   1      45.634  31.839  28.578  1.00  0.00     0.029 A 
ATOM     62  N   UNL A   1      44.429  31.771  30.446  1.00  0.00    -0.354 N 
ATOM     63  N   UNL A   1      42.413  32.735  32.344  1.00  0.00    -0.248 NA
ATOM     64  C   UNL A   1      40.917  34.383  33.050  1.00  0.00     0.031 C 
ATOM     65  C   UNL A   1      44.809  32.967  28.614  1.00  0.00     0.029 A 
ATOM     66  C   UNL A   1      44.044  32.915  29.768  1.00  0.00     0.049 A 
ATOM     67  H   UNL A   1      44.060  31.475  31.309  1.00  0.00     0.167 HD
ATOM     68  C   UNL A   1      42.353  33.738  31.383  1.00  0.00     0.074 A 
ATOM     69  C   UNL A   1      41.387  34.709  31.853  1.00  0.00     0.031 C 
ATOM     70  C   UNL A   1      43.041  33.847  30.219  1.00  0.00     0.034 A 
BRANCH  57  71
ATOM     71  C   UNL A   1      47.157  29.325  29.294  1.00  0.00     0.023 A 
ATOM     72  C   UNL A   1      48.471  29.822  29.426  1.00  0.00     0.012 A 
ATOM     73  C   UNL A   1      46.906  28.276  28.388  1.00  0.00     0.148 A 
ATOM     74  C   UNL A   1      49.505  29.317  28.639  1.00  0.00     0.002 A 
ATOM     75  C   UNL A   1      47.951  27.744  27.643  1.00  0.00     0.091 A 
ATOM     76  F   UNL A   1      45.649  27.828  28.260  1.00  0.00    -0.205 F 
ATOM     77  C   UNL A   1      49.248  28.273  27.756  1.00  0.00     0.022 A 
BRANCH  75  78
ATOM     78  S   UNL A   1      47.739  26.344  26.538  1.00  0.00     0.127 S 
ATOM     79  O   UNL A   1      46.672  26.821  25.658  1.00  0.00    -0.237 OA
ATOM     80  O   UNL A   1      49.054  26.249  25.904  1.00  0.00    -0.237 OA
ATOM     81  O   UNL A   1      47.391  25.212  27.386  1.00  0.00    -0.744 OA
ENDBRANCH  75  78
ENDBRANCH  57  71
BRANCH  58  82
ATOM     82  C   UNL A   1      40.166  32.905  35.472  1.00  0.00     0.023 A 
ATOM     83  C   UNL A   1      38.852  32.400  35.442  1.00  0.00     0.012 A 
ATOM     84  C   UNL A   1      40.496  33.907  36.405  1.00  0.00     0.148 A 
ATOM     85  C   UNL A   1      37.876  32.904  36.302  1.00  0.00     0.002 A 
ATOM     86  C   UNL A   1      39.532  34.366  37.296  1.00  0.00     0.091 A 
ATOM     87  F   UNL A   1      41.750  34.380  36.412  1.00  0.00    -0.205 F 
ATOM     88  C   UNL A   1      38.218  33.879  37.235  1.00  0.00     0.022 A 
BRANCH  86  89
ATOM     89  S   UNL A   1      39.909  35.530  38.613  1.00  0.00     0.127 S 
ATOM     90  O   UNL A   1      38.772  35.344  39.511  1.00  0.00    -0.237 OA
ATOM     91  O   UNL A   1      41.182  35.014  39.114  1.00  0.00    -0.237 OA
ATOM     92  O   UNL A   1      39.998  36.836  37.973  1.00  0.00    -0.744 OA
ENDBRANCH  86  89
ENDBRANCH  58  82
BRANCH  70  93
ATOM     93  C   UNL A   1      42.744  35.027  29.332  1.00  0.00     0.023 A 
ATOM     94  C   UNL A   1      41.696  34.961  28.393  1.00  0.00     0.012 A 
ATOM     95  C   UNL A   1      43.448  36.237  29.499  1.00  0.00     0.148 A 
ATOM     96  C   UNL A   1      41.373  36.072  27.614  1.00  0.00     0.002 A 
ATOM     97  C   UNL A   1      43.086  37.354  28.758  1.00  0.00     0.091 A 
ATOM     98  F   UNL A   1      44.453  36.273  30.387  1.00  0.00    -0.205 F 
ATOM     99  C   UNL A   1      42.057  37.270  27.805  1.00  0.00     0.022 A 
BRANCH  97 100
ATOM    100  S   UNL A   1      43.841  38.964  29.007  1.00  0.00     0.127 S 
ATOM    101  O   UNL A   1      45.234  38.699  28.652  1.00  0.00    -0.237 OA
ATOM    102  O   UNL A   1      43.115  39.797  28.048  1.00  0.00    -0.237 OA
ATOM    103  O   UNL A   1      43.610  39.307  30.404  1.00  0.00    -0.744 OA
ENDBRANCH  97 100
ENDBRANCH  70  93
ENDBRANCH  44  45
ENDBRANCH  36  39
ENDBRANCH  34  35
ENDBRANCH  33  34
ENDBRANCH  32  33
ENDBRANCH  31  32
ENDBRANCH   1  31
TORSDOF 22
ENDMDL
