MODEL 1
REMARK VINA RESULT:     -10.0      0.000      0.000
REMARK SMILES CCN(CC)C(=O)[C@H](C)SCC(=O)NCCCCCCNC(=O)c1ccc(-c2c3nc(c(-c4cccc(S(=O)(=O)[O-])c4F)c4ccc([nH]4)c(-c4cccc(S(=O)(=O)[O-])c4F)c4nc(c(-c5cccc(S(=O)(=O)[O-])c5F)c5ccc2[nH]5)C=C4)C=C3)cc1
REMARK SMILES IDX 17 1 16 2 15 3 14 4 12 5 13 6 11 8 10 9 8 10 9 11 6 12 3 13
REMARK SMILES IDX 7 14 2 15 1 16 4 17 5 18 18 19 19 20 20 21 21 22 22 23 23 25
REMARK SMILES IDX 24 26 25 27 86 28 26 29 85 30 27 31 28 32 29 33 79 34 30 35
REMARK SMILES IDX 84 36 78 37 80 38 31 39 83 40 77 41 76 42 32 44 64 45 44 46
REMARK SMILES IDX 63 47 45 48 48 49 62 50 81 51 46 52 47 53 61 55 82 56 49 57
REMARK SMILES IDX 33 58 34 59 42 60 35 61 37 62 43 63 36 64 38 65 39 66 40 67
REMARK SMILES IDX 41 68 65 69 66 70 74 71 67 72 69 73 75 74 68 75 70 76 71 77
REMARK SMILES IDX 72 78 73 79 50 80 51 81 59 82 52 83 54 84 60 85 53 86 55 87
REMARK SMILES IDX 56 88 57 89 58 90
REMARK H PARENT 14 7 21 24 80 43 48 54
REMARK Flexibility Score: inf
ROOT
ATOM      1  C   UNL A   1      32.656  27.451  25.395  1.00  0.00     0.002 C 
ENDROOT
BRANCH   1   2
ATOM      2  C   UNL A   1      33.983  26.775  25.760  1.00  0.00     0.021 C 
BRANCH   2   3
ATOM      3  C   UNL A   1      33.931  25.250  25.830  1.00  0.00     0.116 C 
BRANCH   3   4
ATOM      4  N   UNL A   1      32.583  24.768  26.049  1.00  0.00    -0.355 N 
ATOM      5  C   UNL A   1      32.134  23.732  26.812  1.00  0.00     0.230 C 
ATOM      6  O   UNL A   1      30.914  23.675  27.008  1.00  0.00    -0.274 OA
ATOM      7  H   UNL A   1      31.881  25.267  25.573  1.00  0.00     0.163 HD
BRANCH   5   8
ATOM      8  C   UNL A   1      33.076  22.780  27.536  1.00  0.00     0.170 C 
BRANCH   8   9
ATOM      9  S   UNL A   1      34.487  22.103  26.594  1.00  0.00    -0.139 SA
BRANCH   9  10
ATOM     10  C   UNL A   1      33.709  21.108  25.257  1.00  0.00     0.133 C 
ATOM     11  C   UNL A   1      33.379  21.950  24.032  1.00  0.00     0.030 C 
BRANCH  10  12
ATOM     12  C   UNL A   1      34.579  19.909  24.882  1.00  0.00     0.235 C 
ATOM     13  N   UNL A   1      33.984  18.690  24.572  1.00  0.00    -0.342 N 
ATOM     14  O   UNL A   1      35.807  20.033  24.870  1.00  0.00    -0.274 OA
BRANCH  13  15
ATOM     15  C   UNL A   1      34.859  17.519  24.475  1.00  0.00     0.116 C 
ATOM     16  C   UNL A   1      34.174  16.228  24.902  1.00  0.00     0.027 C 
ENDBRANCH  13  15
BRANCH  13  17
ATOM     17  C   UNL A   1      32.569  18.498  24.238  1.00  0.00     0.116 C 
ATOM     18  C   UNL A   1      32.234  18.852  22.799  1.00  0.00     0.027 C 
ENDBRANCH  13  17
ENDBRANCH  10  12
ENDBRANCH   9  10
ENDBRANCH   8   9
ENDBRANCH   5   8
ENDBRANCH   3   4
ENDBRANCH   2   3
ENDBRANCH   1   2
BRANCH   1  19
ATOM     19  C   UNL A   1      32.774  28.876  24.849  1.00  0.00     0.002 C 
BRANCH  19  20
ATOM     20  C   UNL A   1      31.786  29.880  25.443  1.00  0.00     0.021 C 
BRANCH  20  21
ATOM     21  C   UNL A   1      32.176  30.419  26.814  1.00  0.00     0.116 C 
BRANCH  21  22
ATOM     22  N   UNL A   1      32.280  31.872  26.823  1.00  0.00    -0.352 N 
ATOM     23  C   UNL A   1      33.229  32.664  27.422  1.00  0.00     0.251 C 
ATOM     24  H   UNL A   1      31.574  32.351  26.334  1.00  0.00     0.163 HD
ATOM     25  O   UNL A   1      33.064  33.878  27.497  1.00  0.00    -0.269 OA
BRANCH  23  26
ATOM     26  C   UNL A   1      34.444  32.041  27.990  1.00  0.00     0.039 A 
ATOM     27  C   UNL A   1      35.618  32.792  28.082  1.00  0.00     0.014 A 
ATOM     28  C   UNL A   1      34.412  30.722  28.449  1.00  0.00     0.014 A 
ATOM     29  C   UNL A   1      36.746  32.240  28.694  1.00  0.00     0.010 A 
ATOM     30  C   UNL A   1      35.510  30.202  29.124  1.00  0.00     0.010 A 
ATOM     31  C   UNL A   1      36.690  30.952  29.251  1.00  0.00    -0.014 A 
BRANCH  31  32
ATOM     32  C   UNL A   1      37.846  30.361  29.973  1.00  0.00     0.031 A 
ATOM     33  C   UNL A   1      38.163  30.806  31.374  1.00  0.00     0.074 A 
ATOM     34  C   UNL A   1      38.671  29.507  29.332  1.00  0.00     0.049 A 
ATOM     35  N   UNL A   1      39.187  30.501  32.127  1.00  0.00    -0.248 NA
ATOM     36  C   UNL A   1      37.217  31.745  32.001  1.00  0.00     0.031 C 
ATOM     37  C   UNL A   1      38.507  29.046  27.953  1.00  0.00     0.029 A 
ATOM     38  N   UNL A   1      39.831  28.903  29.749  1.00  0.00    -0.354 N 
ATOM     39  C   UNL A   1      39.033  31.237  33.295  1.00  0.00     0.074 A 
ATOM     40  C   UNL A   1      37.833  32.030  33.140  1.00  0.00     0.031 C 
ATOM     41  C   UNL A   1      39.528  28.234  27.636  1.00  0.00     0.029 A 
ATOM     42  C   UNL A   1      40.439  28.147  28.773  1.00  0.00     0.049 A 
ATOM     43  H   UNL A   1      40.194  29.001  30.658  1.00  0.00     0.167 HD
ATOM     44  C   UNL A   1      39.804  31.234  34.409  1.00  0.00     0.034 A 
ATOM     45  C   UNL A   1      41.607  27.474  28.786  1.00  0.00     0.034 A 
ATOM     46  C   UNL A   1      40.973  30.414  34.574  1.00  0.00     0.049 A 
ATOM     47  C   UNL A   1      42.438  27.472  30.042  1.00  0.00     0.074 A 
ATOM     48  C   UNL A   1      41.776  30.278  35.692  1.00  0.00     0.029 A 
ATOM     49  N   UNL A   1      41.513  29.599  33.591  1.00  0.00    -0.354 N 
ATOM     50  N   UNL A   1      42.201  28.065  31.187  1.00  0.00    -0.248 NA
ATOM     51  C   UNL A   1      43.679  26.686  30.019  1.00  0.00     0.031 C 
ATOM     52  C   UNL A   1      42.819  29.402  35.376  1.00  0.00     0.029 A 
ATOM     53  C   UNL A   1      42.644  28.965  34.073  1.00  0.00     0.049 A 
ATOM     54  H   UNL A   1      41.145  29.488  32.685  1.00  0.00     0.167 HD
ATOM     55  C   UNL A   1      43.237  27.687  32.033  1.00  0.00     0.074 A 
ATOM     56  C   UNL A   1      44.100  26.808  31.271  1.00  0.00     0.031 C 
ATOM     57  C   UNL A   1      43.460  28.044  33.322  1.00  0.00     0.034 A 
BRANCH  44  58
ATOM     58  C   UNL A   1      39.379  32.115  35.555  1.00  0.00     0.023 A 
ATOM     59  C   UNL A   1      38.534  31.597  36.559  1.00  0.00     0.012 A 
ATOM     60  C   UNL A   1      39.855  33.436  35.669  1.00  0.00     0.148 A 
ATOM     61  C   UNL A   1      38.135  32.392  37.633  1.00  0.00     0.002 A 
ATOM     62  C   UNL A   1      39.491  34.206  36.768  1.00  0.00     0.091 A 
ATOM     63  F   UNL A   1      40.641  33.919  34.697  1.00  0.00    -0.205 F 
ATOM     64  C   UNL A   1      38.621  33.691  37.742  1.00  0.00     0.022 A 
BRANCH  62  65
ATOM     65  S   UNL A   1      40.129  35.863  37.043  1.00  0.00     0.127 S 
ATOM     66  O   UNL A   1      39.673  36.558  35.840  1.00  0.00    -0.237 OA
ATOM     67  O   UNL A   1      39.442  36.257  38.272  1.00  0.00    -0.237 OA
ATOM     68  O   UNL A   1      41.573  35.722  37.172  1.00  0.00    -0.744 OA
ENDBRANCH  62  65
ENDBRANCH  44  58
BRANCH  45  69
ATOM     69  C   UNL A   1      42.033  26.695  27.588  1.00  0.00     0.023 A 
ATOM     70  C   UNL A   1      42.736  27.346  26.556  1.00  0.00     0.012 A 
ATOM     71  C   UNL A   1      41.772  25.316  27.477  1.00  0.00     0.148 A 
ATOM     72  C   UNL A   1      43.142  26.646  25.419  1.00  0.00     0.002 A 
ATOM     73  C   UNL A   1      42.228  24.612  26.368  1.00  0.00     0.091 A 
ATOM     74  F   UNL A   1      41.095  24.716  28.466  1.00  0.00    -0.205 F 
ATOM     75  C   UNL A   1      42.897  25.279  25.330  1.00  0.00     0.022 A 
BRANCH  73  76
ATOM     76  S   UNL A   1      42.071  22.829  26.224  1.00  0.00     0.127 S 
ATOM     77  O   UNL A   1      42.695  22.578  24.927  1.00  0.00    -0.237 OA
ATOM     78  O   UNL A   1      42.840  22.365  27.378  1.00  0.00    -0.237 OA
ATOM     79  O   UNL A   1      40.643  22.551  26.302  1.00  0.00    -0.744 OA
ENDBRANCH  73  76
ENDBRANCH  45  69
BRANCH  57  80
ATOM     80  C   UNL A   1      44.649  27.446  34.026  1.00  0.00     0.023 A 
ATOM     81  C   UNL A   1      45.894  28.104  33.994  1.00  0.00     0.012 A 
ATOM     82  C   UNL A   1      44.502  26.280  34.805  1.00  0.00     0.148 A 
ATOM     83  C   UNL A   1      46.980  27.598  34.707  1.00  0.00     0.002 A 
ATOM     84  C   UNL A   1      45.574  25.811  35.553  1.00  0.00     0.091 A 
ATOM     85  F   UNL A   1      43.313  25.660  34.808  1.00  0.00    -0.205 F 
ATOM     86  C   UNL A   1      46.817  26.462  35.496  1.00  0.00     0.022 A 
BRANCH  84  87
ATOM     87  S   UNL A   1      45.431  24.417  36.677  1.00  0.00     0.127 S 
ATOM     88  O   UNL A   1      44.384  24.878  37.589  1.00  0.00    -0.237 OA
ATOM     89  O   UNL A   1      45.025  23.336  35.779  1.00  0.00    -0.237 OA
ATOM     90  O   UNL A   1      46.746  24.246  37.279  1.00  0.00    -0.744 OA
ENDBRANCH  84  87
ENDBRANCH  57  80
ENDBRANCH  31  32
ENDBRANCH  23  26
ENDBRANCH  21  22
ENDBRANCH  20  21
ENDBRANCH  19  20
ENDBRANCH   1  19
TORSDOF 21
ENDMDL
MODEL 2
REMARK VINA RESULT:      -9.8      5.224      8.329
REMARK SMILES CCN(CC)C(=O)[C@H](C)SCC(=O)NCCCCCCNC(=O)c1ccc(-c2c3nc(c(-c4cccc(S(=O)(=O)[O-])c4F)c4ccc([nH]4)c(-c4cccc(S(=O)(=O)[O-])c4F)c4nc(c(-c5cccc(S(=O)(=O)[O-])c5F)c5ccc2[nH]5)C=C4)C=C3)cc1
REMARK SMILES IDX 17 1 16 2 15 3 14 4 12 5 13 6 11 8 10 9 8 10 9 11 6 12 3 13
REMARK SMILES IDX 7 14 2 15 1 16 4 17 5 18 18 19 19 20 20 21 21 22 22 23 23 25
REMARK SMILES IDX 24 26 25 27 86 28 26 29 85 30 27 31 28 32 29 33 79 34 30 35
REMARK SMILES IDX 84 36 78 37 80 38 31 39 83 40 77 41 76 42 32 44 64 45 44 46
REMARK SMILES IDX 63 47 45 48 48 49 62 50 81 51 46 52 47 53 61 55 82 56 49 57
REMARK SMILES IDX 33 58 34 59 42 60 35 61 37 62 43 63 36 64 38 65 39 66 40 67
REMARK SMILES IDX 41 68 65 69 66 70 74 71 67 72 69 73 75 74 68 75 70 76 71 77
REMARK SMILES IDX 72 78 73 79 50 80 51 81 59 82 52 83 54 84 60 85 53 86 55 87
REMARK SMILES IDX 56 88 57 89 58 90
REMARK H PARENT 14 7 21 24 80 43 48 54
REMARK Flexibility Score: inf
ROOT
ATOM      1  C   UNL A   1      33.825  22.914  23.705  1.00  0.00     0.002 C 
ENDROOT
BRANCH   1   2
ATOM      2  C   UNL A   1      33.484  21.708  24.588  1.00  0.00     0.021 C 
BRANCH   2   3
ATOM      3  C   UNL A   1      33.334  22.022  26.076  1.00  0.00     0.116 C 
BRANCH   3   4
ATOM      4  N   UNL A   1      31.944  22.049  26.481  1.00  0.00    -0.355 N 
ATOM      5  C   UNL A   1      31.062  23.087  26.526  1.00  0.00     0.230 C 
ATOM      6  O   UNL A   1      29.872  22.796  26.692  1.00  0.00    -0.274 OA
ATOM      7  H   UNL A   1      31.578  21.181  26.769  1.00  0.00     0.163 HD
BRANCH   5   8
ATOM      8  C   UNL A   1      31.471  24.521  26.221  1.00  0.00     0.170 C 
BRANCH   8   9
ATOM      9  S   UNL A   1      30.662  25.352  24.811  1.00  0.00    -0.139 SA
BRANCH   9  10
ATOM     10  C   UNL A   1      32.007  26.326  24.020  1.00  0.00     0.133 C 
ATOM     11  C   UNL A   1      32.232  25.922  22.570  1.00  0.00     0.030 C 
BRANCH  10  12
ATOM     12  C   UNL A   1      31.746  27.827  24.140  1.00  0.00     0.235 C 
ATOM     13  N   UNL A   1      32.060  28.494  25.320  1.00  0.00    -0.342 N 
ATOM     14  O   UNL A   1      31.245  28.432  23.187  1.00  0.00    -0.274 OA
BRANCH  13  15
ATOM     15  C   UNL A   1      31.557  29.861  25.476  1.00  0.00     0.116 C 
ATOM     16  C   UNL A   1      31.778  30.421  26.875  1.00  0.00     0.027 C 
ENDBRANCH  13  15
BRANCH  13  17
ATOM     17  C   UNL A   1      32.935  27.978  26.378  1.00  0.00     0.116 C 
ATOM     18  C   UNL A   1      34.413  28.188  26.097  1.00  0.00     0.027 C 
ENDBRANCH  13  17
ENDBRANCH  10  12
ENDBRANCH   9  10
ENDBRANCH   8   9
ENDBRANCH   5   8
ENDBRANCH   3   4
ENDBRANCH   2   3
ENDBRANCH   1   2
BRANCH   1  19
ATOM     19  C   UNL A   1      35.317  23.217  23.554  1.00  0.00     0.002 C 
BRANCH  19  20
ATOM     20  C   UNL A   1      36.252  22.065  23.924  1.00  0.00     0.021 C 
BRANCH  20  21
ATOM     21  C   UNL A   1      36.945  22.218  25.273  1.00  0.00     0.116 C 
BRANCH  21  22
ATOM     22  N   UNL A   1      37.798  21.079  25.584  1.00  0.00    -0.352 N 
ATOM     23  C   UNL A   1      39.071  21.072  26.098  1.00  0.00     0.251 C 
ATOM     24  H   UNL A   1      37.409  20.195  25.400  1.00  0.00     0.163 HD
ATOM     25  O   UNL A   1      39.724  20.032  26.120  1.00  0.00    -0.269 OA
BRANCH  23  26
ATOM     26  C   UNL A   1      39.657  22.328  26.611  1.00  0.00     0.039 A 
ATOM     27  C   UNL A   1      40.673  22.270  27.568  1.00  0.00     0.014 A 
ATOM     28  C   UNL A   1      39.214  23.562  26.128  1.00  0.00     0.014 A 
ATOM     29  C   UNL A   1      41.289  23.448  27.996  1.00  0.00     0.010 A 
ATOM     30  C   UNL A   1      39.879  24.726  26.498  1.00  0.00     0.010 A 
ATOM     31  C   UNL A   1      40.920  24.683  27.438  1.00  0.00    -0.014 A 
BRANCH  31  32
ATOM     32  C   UNL A   1      41.603  25.948  27.815  1.00  0.00     0.031 A 
ATOM     33  C   UNL A   1      40.852  27.010  28.570  1.00  0.00     0.074 A 
ATOM     34  C   UNL A   1      42.859  26.184  27.386  1.00  0.00     0.049 A 
ATOM     35  N   UNL A   1      41.229  28.220  28.888  1.00  0.00    -0.248 NA
ATOM     36  C   UNL A   1      39.482  26.676  28.997  1.00  0.00     0.031 C 
ATOM     37  C   UNL A   1      43.672  25.260  26.594  1.00  0.00     0.029 A 
ATOM     38  N   UNL A   1      43.660  27.290  27.528  1.00  0.00    -0.354 N 
ATOM     39  C   UNL A   1      40.135  28.806  29.514  1.00  0.00     0.074 A 
ATOM     40  C   UNL A   1      39.068  27.830  29.502  1.00  0.00     0.031 C 
ATOM     41  C   UNL A   1      44.852  25.836  26.318  1.00  0.00     0.029 A 
ATOM     42  C   UNL A   1      44.868  27.183  26.878  1.00  0.00     0.049 A 
ATOM     43  H   UNL A   1      43.395  28.085  28.045  1.00  0.00     0.167 HD
ATOM     44  C   UNL A   1      40.035  30.036  30.073  1.00  0.00     0.034 A 
ATOM     45  C   UNL A   1      45.868  28.076  26.735  1.00  0.00     0.034 A 
ATOM     46  C   UNL A   1      41.111  30.987  30.118  1.00  0.00     0.049 A 
ATOM     47  C   UNL A   1      45.740  29.430  27.381  1.00  0.00     0.074 A 
ATOM     48  C   UNL A   1      41.137  32.227  30.730  1.00  0.00     0.029 A 
ATOM     49  N   UNL A   1      42.349  30.812  29.519  1.00  0.00    -0.354 N 
ATOM     50  N   UNL A   1      44.749  29.915  28.090  1.00  0.00    -0.248 NA
ATOM     51  C   UNL A   1      46.877  30.350  27.233  1.00  0.00     0.031 C 
ATOM     52  C   UNL A   1      42.381  32.814  30.477  1.00  0.00     0.029 A 
ATOM     53  C   UNL A   1      43.142  31.923  29.738  1.00  0.00     0.049 A 
ATOM     54  H   UNL A   1      42.622  30.013  29.012  1.00  0.00     0.167 HD
ATOM     55  C   UNL A   1      45.162  31.174  28.511  1.00  0.00     0.074 A 
ATOM     56  C   UNL A   1      46.496  31.374  27.984  1.00  0.00     0.031 C 
ATOM     57  C   UNL A   1      44.492  32.085  29.259  1.00  0.00     0.034 A 
BRANCH  44  58
ATOM     58  C   UNL A   1      38.726  30.403  30.723  1.00  0.00     0.023 A 
ATOM     59  C   UNL A   1      38.486  30.043  32.065  1.00  0.00     0.012 A 
ATOM     60  C   UNL A   1      37.755  31.149  30.024  1.00  0.00     0.148 A 
ATOM     61  C   UNL A   1      37.286  30.381  32.688  1.00  0.00     0.002 A 
ATOM     62  C   UNL A   1      36.581  31.523  30.669  1.00  0.00     0.091 A 
ATOM     63  F   UNL A   1      37.991  31.466  28.744  1.00  0.00    -0.205 F 
ATOM     64  C   UNL A   1      36.339  31.128  31.994  1.00  0.00     0.022 A 
BRANCH  62  65
ATOM     65  S   UNL A   1      35.335  32.555  29.888  1.00  0.00     0.127 S 
ATOM     66  O   UNL A   1      34.398  32.768  30.990  1.00  0.00    -0.237 OA
ATOM     67  O   UNL A   1      36.108  33.737  29.508  1.00  0.00    -0.237 OA
ATOM     68  O   UNL A   1      34.816  31.783  28.768  1.00  0.00    -0.744 OA
ENDBRANCH  62  65
ENDBRANCH  44  58
BRANCH  45  69
ATOM     69  C   UNL A   1      47.107  27.697  25.997  1.00  0.00     0.023 A 
ATOM     70  C   UNL A   1      48.174  27.103  26.699  1.00  0.00     0.012 A 
ATOM     71  C   UNL A   1      47.225  27.894  24.608  1.00  0.00     0.148 A 
ATOM     72  C   UNL A   1      49.349  26.743  26.038  1.00  0.00     0.002 A 
ATOM     73  C   UNL A   1      48.375  27.482  23.946  1.00  0.00     0.091 A 
ATOM     74  F   UNL A   1      46.201  28.467  23.960  1.00  0.00    -0.205 F 
ATOM     75  C   UNL A   1      49.446  26.923  24.661  1.00  0.00     0.022 A 
BRANCH  73  76
ATOM     76  S   UNL A   1      48.541  27.557  22.159  1.00  0.00     0.127 S 
ATOM     77  O   UNL A   1      49.770  28.331  22.005  1.00  0.00    -0.237 OA
ATOM     78  O   UNL A   1      48.654  26.142  21.807  1.00  0.00    -0.237 OA
ATOM     79  O   UNL A   1      47.325  28.201  21.677  1.00  0.00    -0.744 OA
ENDBRANCH  73  76
ENDBRANCH  45  69
BRANCH  57  80
ATOM     80  C   UNL A   1      45.199  33.367  29.610  1.00  0.00     0.023 A 
ATOM     81  C   UNL A   1      46.097  33.405  30.694  1.00  0.00     0.012 A 
ATOM     82  C   UNL A   1      45.045  34.509  28.798  1.00  0.00     0.148 A 
ATOM     83  C   UNL A   1      46.814  34.567  30.978  1.00  0.00     0.002 A 
ATOM     84  C   UNL A   1      45.801  35.645  29.056  1.00  0.00     0.091 A 
ATOM     85  F   UNL A   1      44.172  34.456  27.781  1.00  0.00    -0.205 F 
ATOM     86  C   UNL A   1      46.677  35.680  30.152  1.00  0.00     0.022 A 
BRANCH  84  87
ATOM     87  S   UNL A   1      45.768  37.089  27.987  1.00  0.00     0.127 S 
ATOM     88  O   UNL A   1      44.343  37.198  27.679  1.00  0.00    -0.237 OA
ATOM     89  O   UNL A   1      46.284  38.137  28.869  1.00  0.00    -0.237 OA
ATOM     90  O   UNL A   1      46.626  36.773  26.853  1.00  0.00    -0.744 OA
ENDBRANCH  84  87
ENDBRANCH  57  80
ENDBRANCH  31  32
ENDBRANCH  23  26
ENDBRANCH  21  22
ENDBRANCH  20  21
ENDBRANCH  19  20
ENDBRANCH   1  19
TORSDOF 21
ENDMDL
MODEL 3
REMARK VINA RESULT:      -9.8      4.979      7.856
REMARK SMILES CCN(CC)C(=O)[C@H](C)SCC(=O)NCCCCCCNC(=O)c1ccc(-c2c3nc(c(-c4cccc(S(=O)(=O)[O-])c4F)c4ccc([nH]4)c(-c4cccc(S(=O)(=O)[O-])c4F)c4nc(c(-c5cccc(S(=O)(=O)[O-])c5F)c5ccc2[nH]5)C=C4)C=C3)cc1
REMARK SMILES IDX 17 1 16 2 15 3 14 4 12 5 13 6 11 8 10 9 8 10 9 11 6 12 3 13
REMARK SMILES IDX 7 14 2 15 1 16 4 17 5 18 18 19 19 20 20 21 21 22 22 23 23 25
REMARK SMILES IDX 24 26 25 27 86 28 26 29 85 30 27 31 28 32 29 33 79 34 30 35
REMARK SMILES IDX 84 36 78 37 80 38 31 39 83 40 77 41 76 42 32 44 64 45 44 46
REMARK SMILES IDX 63 47 45 48 48 49 62 50 81 51 46 52 47 53 61 55 82 56 49 57
REMARK SMILES IDX 33 58 34 59 42 60 35 61 37 62 43 63 36 64 38 65 39 66 40 67
REMARK SMILES IDX 41 68 65 69 66 70 74 71 67 72 69 73 75 74 68 75 70 76 71 77
REMARK SMILES IDX 72 78 73 79 50 80 51 81 59 82 52 83 54 84 60 85 53 86 55 87
REMARK SMILES IDX 56 88 57 89 58 90
REMARK H PARENT 14 7 21 24 80 43 48 54
REMARK Flexibility Score: inf
ROOT
ATOM      1  C   UNL A   1      34.531  24.580  25.572  1.00  0.00     0.002 C 
ENDROOT
BRANCH   1   2
ATOM      2  C   UNL A   1      33.948  25.944  25.959  1.00  0.00     0.021 C 
BRANCH   2   3
ATOM      3  C   UNL A   1      34.100  27.034  24.900  1.00  0.00     0.116 C 
BRANCH   3   4
ATOM      4  N   UNL A   1      34.024  28.359  25.479  1.00  0.00    -0.355 N 
ATOM      5  C   UNL A   1      32.982  29.235  25.537  1.00  0.00     0.230 C 
ATOM      6  O   UNL A   1      33.115  30.207  26.290  1.00  0.00    -0.274 OA
ATOM      7  H   UNL A   1      34.857  28.678  25.898  1.00  0.00     0.163 HD
BRANCH   5   8
ATOM      8  C   UNL A   1      31.649  28.965  24.854  1.00  0.00     0.170 C 
BRANCH   8   9
ATOM      9  S   UNL A   1      30.743  27.451  25.329  1.00  0.00    -0.139 SA
BRANCH   9  10
ATOM     10  C   UNL A   1      30.018  26.838  23.754  1.00  0.00     0.133 C 
ATOM     11  C   UNL A   1      29.151  27.887  23.074  1.00  0.00     0.030 C 
BRANCH  10  12
ATOM     12  C   UNL A   1      31.104  26.324  22.809  1.00  0.00     0.235 C 
ATOM     13  N   UNL A   1      31.452  24.977  22.820  1.00  0.00    -0.342 N 
ATOM     14  O   UNL A   1      31.670  27.116  22.052  1.00  0.00    -0.274 OA
BRANCH  13  15
ATOM     15  C   UNL A   1      32.663  24.588  22.092  1.00  0.00     0.116 C 
ATOM     16  C   UNL A   1      33.165  23.201  22.469  1.00  0.00     0.027 C 
ENDBRANCH  13  15
BRANCH  13  17
ATOM     17  C   UNL A   1      30.657  23.900  23.418  1.00  0.00     0.116 C 
ATOM     18  C   UNL A   1      30.945  23.682  24.894  1.00  0.00     0.027 C 
ENDBRANCH  13  17
ENDBRANCH  10  12
ENDBRANCH   9  10
ENDBRANCH   8   9
ENDBRANCH   5   8
ENDBRANCH   3   4
ENDBRANCH   2   3
ENDBRANCH   1   2
BRANCH   1  19
ATOM     19  C   UNL A   1      34.159  23.419  26.497  1.00  0.00     0.002 C 
BRANCH  19  20
ATOM     20  C   UNL A   1      35.085  22.206  26.419  1.00  0.00     0.021 C 
BRANCH  20  21
ATOM     21  C   UNL A   1      36.225  22.341  25.416  1.00  0.00     0.116 C 
BRANCH  21  22
ATOM     22  N   UNL A   1      37.114  21.188  25.437  1.00  0.00    -0.352 N 
ATOM     23  C   UNL A   1      38.450  21.135  25.749  1.00  0.00     0.251 C 
ATOM     24  H   UNL A   1      36.701  20.329  25.194  1.00  0.00     0.163 HD
ATOM     25  O   UNL A   1      39.098  20.114  25.531  1.00  0.00    -0.269 OA
BRANCH  23  26
ATOM     26  C   UNL A   1      39.108  22.322  26.337  1.00  0.00     0.039 A 
ATOM     27  C   UNL A   1      40.183  22.146  27.211  1.00  0.00     0.014 A 
ATOM     28  C   UNL A   1      38.673  23.607  26.004  1.00  0.00     0.014 A 
ATOM     29  C   UNL A   1      40.863  23.262  27.704  1.00  0.00     0.010 A 
ATOM     30  C   UNL A   1      39.397  24.712  26.434  1.00  0.00     0.010 A 
ATOM     31  C   UNL A   1      40.497  24.553  27.292  1.00  0.00    -0.014 A 
BRANCH  31  32
ATOM     32  C   UNL A   1      41.244  25.758  27.737  1.00  0.00     0.031 A 
ATOM     33  C   UNL A   1      40.535  26.835  28.513  1.00  0.00     0.074 A 
ATOM     34  C   UNL A   1      42.524  25.933  27.353  1.00  0.00     0.049 A 
ATOM     35  N   UNL A   1      40.974  28.007  28.889  1.00  0.00    -0.248 NA
ATOM     36  C   UNL A   1      39.136  26.570  28.889  1.00  0.00     0.031 C 
ATOM     37  C   UNL A   1      43.303  24.992  26.548  1.00  0.00     0.029 A 
ATOM     38  N   UNL A   1      43.385  26.982  27.562  1.00  0.00    -0.354 N 
ATOM     39  C   UNL A   1      39.900  28.635  29.508  1.00  0.00     0.074 A 
ATOM     40  C   UNL A   1      38.776  27.727  29.427  1.00  0.00     0.031 C 
ATOM     41  C   UNL A   1      44.524  25.505  26.328  1.00  0.00     0.029 A 
ATOM     42  C   UNL A   1      44.604  26.827  26.942  1.00  0.00     0.049 A 
ATOM     43  H   UNL A   1      43.153  27.772  28.103  1.00  0.00     0.167 HD
ATOM     44  C   UNL A   1      39.857  29.846  30.113  1.00  0.00     0.034 A 
ATOM     45  C   UNL A   1      45.660  27.661  26.863  1.00  0.00     0.034 A 
ATOM     46  C   UNL A   1      40.986  30.727  30.225  1.00  0.00     0.049 A 
ATOM     47  C   UNL A   1      45.594  28.995  27.558  1.00  0.00     0.074 A 
ATOM     48  C   UNL A   1      41.068  31.939  30.887  1.00  0.00     0.029 A 
ATOM     49  N   UNL A   1      42.229  30.499  29.654  1.00  0.00    -0.354 N 
ATOM     50  N   UNL A   1      44.613  29.512  28.258  1.00  0.00    -0.248 NA
ATOM     51  C   UNL A   1      46.788  29.848  27.478  1.00  0.00     0.031 C 
ATOM     52  C   UNL A   1      42.352  32.458  30.692  1.00  0.00     0.029 A 
ATOM     53  C   UNL A   1      43.081  31.551  29.940  1.00  0.00     0.049 A 
ATOM     54  H   UNL A   1      42.469  29.705  29.124  1.00  0.00     0.167 HD
ATOM     55  C   UNL A   1      45.088  30.726  28.740  1.00  0.00     0.074 A 
ATOM     56  C   UNL A   1      46.446  30.865  28.258  1.00  0.00     0.031 C 
ATOM     57  C   UNL A   1      44.451  31.648  29.505  1.00  0.00     0.034 A 
BRANCH  44  58
ATOM     58  C   UNL A   1      38.553  30.268  30.740  1.00  0.00     0.023 A 
ATOM     59  C   UNL A   1      38.268  29.905  32.072  1.00  0.00     0.012 A 
ATOM     60  C   UNL A   1      37.633  31.066  30.030  1.00  0.00     0.148 A 
ATOM     61  C   UNL A   1      37.073  30.293  32.675  1.00  0.00     0.002 A 
ATOM     62  C   UNL A   1      36.465  31.488  30.655  1.00  0.00     0.091 A 
ATOM     63  F   UNL A   1      37.910  31.386  28.759  1.00  0.00    -0.205 F 
ATOM     64  C   UNL A   1      36.177  31.091  31.970  1.00  0.00     0.022 A 
BRANCH  62  65
ATOM     65  S   UNL A   1      35.286  32.587  29.862  1.00  0.00     0.127 S 
ATOM     66  O   UNL A   1      34.811  31.759  28.754  1.00  0.00    -0.237 OA
ATOM     67  O   UNL A   1      34.304  32.804  30.924  1.00  0.00    -0.237 OA
ATOM     68  O   UNL A   1      36.037  33.773  29.477  1.00  0.00    -0.744 OA
ENDBRANCH  62  65
ENDBRANCH  44  58
BRANCH  45  69
ATOM     69  C   UNL A   1      46.894  27.235  26.145  1.00  0.00     0.023 A 
ATOM     70  C   UNL A   1      47.029  27.522  24.772  1.00  0.00     0.012 A 
ATOM     71  C   UNL A   1      47.944  26.575  26.813  1.00  0.00     0.148 A 
ATOM     72  C   UNL A   1      48.169  27.131  24.070  1.00  0.00     0.002 A 
ATOM     73  C   UNL A   1      49.101  26.237  26.121  1.00  0.00     0.091 A 
ATOM     74  F   UNL A   1      47.794  26.304  28.117  1.00  0.00    -0.205 F 
ATOM     75  C   UNL A   1      49.209  26.498  24.746  1.00  0.00     0.022 A 
BRANCH  73  76
ATOM     76  S   UNL A   1      50.541  25.535  26.933  1.00  0.00     0.127 S 
ATOM     77  O   UNL A   1      50.919  26.606  27.851  1.00  0.00    -0.237 OA
ATOM     78  O   UNL A   1      49.977  24.345  27.570  1.00  0.00    -0.237 OA
ATOM     79  O   UNL A   1      51.495  25.251  25.868  1.00  0.00    -0.744 OA
ENDBRANCH  73  76
ENDBRANCH  45  69
BRANCH  57  80
ATOM     80  C   UNL A   1      45.223  32.870  29.927  1.00  0.00     0.023 A 
ATOM     81  C   UNL A   1      46.002  32.844  31.099  1.00  0.00     0.012 A 
ATOM     82  C   UNL A   1      45.253  34.012  29.100  1.00  0.00     0.148 A 
ATOM     83  C   UNL A   1      46.781  33.944  31.455  1.00  0.00     0.002 A 
ATOM     84  C   UNL A   1      46.071  35.083  29.434  1.00  0.00     0.091 A 
ATOM     85  F   UNL A   1      44.490  34.021  27.997  1.00  0.00    -0.205 F 
ATOM     86  C   UNL A   1      46.827  35.057  30.618  1.00  0.00     0.022 A 
BRANCH  84  87
ATOM     87  S   UNL A   1      46.273  36.513  28.366  1.00  0.00     0.127 S 
ATOM     88  O   UNL A   1      46.713  35.891  27.117  1.00  0.00    -0.237 OA
ATOM     89  O   UNL A   1      44.919  37.065  28.329  1.00  0.00    -0.237 OA
ATOM     90  O   UNL A   1      47.259  37.367  29.015  1.00  0.00    -0.744 OA
ENDBRANCH  84  87
ENDBRANCH  57  80
ENDBRANCH  31  32
ENDBRANCH  23  26
ENDBRANCH  21  22
ENDBRANCH  20  21
ENDBRANCH  19  20
ENDBRANCH   1  19
TORSDOF 21
ENDMDL
