MODEL 1
REMARK VINA RESULT:     -12.4      0.000      0.000
REMARK SMILES C=Cc1cc(Cl)cc2c1O[C@H](C(F)(F)F)C(C(=O)NCCCCCCNC(=O)c1ccc(-c3c4nc(c(-c5cccc(S(=O)(=O)[O-])c5F)c5ccc([nH]5)c(-c5cccc(S(=O)(=O)[O-])c5F)c5nc(c(-c6cccc(S(=O)(=O)[O-])c6F)c6ccc3[nH]6)C=C5)C=C4)cc1)=C2
REMARK SMILES IDX 23 1 22 2 21 3 20 4 19 5 17 6 18 7 16 9 3 10 4 11 9 12 5 13
REMARK SMILES IDX 8 14 10 15 6 16 7 17 92 18 11 19 2 20 1 21 12 22 13 23 14 24
REMARK SMILES IDX 15 25 24 26 25 27 26 28 27 29 28 31 29 32 30 33 91 34 31 35
REMARK SMILES IDX 90 36 32 37 33 38 34 39 84 40 35 41 89 42 83 43 85 44 36 45
REMARK SMILES IDX 88 46 82 47 81 48 37 50 69 51 49 52 68 53 50 54 53 55 67 56
REMARK SMILES IDX 86 57 51 58 52 59 66 61 87 62 54 63 38 64 39 65 47 66 40 67
REMARK SMILES IDX 42 68 48 69 41 70 43 71 44 72 45 73 46 74 70 75 71 76 79 77
REMARK SMILES IDX 72 78 74 79 80 80 73 81 75 82 76 83 77 84 78 85 55 86 56 87
REMARK SMILES IDX 64 88 57 89 59 90 65 91 58 92 60 93 61 94 62 95 63 96
REMARK H PARENT 19 8 26 30 85 49 53 60
REMARK Flexibility Score: inf
ROOT
ATOM      1  C   UNL A   1      34.495  21.967  24.045  1.00  0.00     0.002 C 
ENDROOT
BRANCH   1   2
ATOM      2  C   UNL A   1      33.924  20.699  24.693  1.00  0.00     0.002 C 
BRANCH   2   3
ATOM      3  C   UNL A   1      32.396  20.632  24.788  1.00  0.00     0.021 C 
BRANCH   3   4
ATOM      4  C   UNL A   1      31.698  21.983  24.659  1.00  0.00     0.116 C 
BRANCH   4   5
ATOM      5  N   UNL A   1      30.955  22.328  25.860  1.00  0.00    -0.352 N 
ATOM      6  C   UNL A   1      30.563  23.455  26.497  1.00  0.00     0.251 C 
ATOM      7  O   UNL A   1      29.891  23.270  27.519  1.00  0.00    -0.270 OA
ATOM      8  H   UNL A   1      30.656  21.523  26.340  1.00  0.00     0.163 HD
BRANCH   6   9
ATOM      9  C   UNL A   1      30.875  24.852  26.068  1.00  0.00     0.067 C 
ATOM     10  C   UNL A   1      31.442  28.869  24.902  1.00  0.00     0.018 A 
ATOM     11  C   UNL A   1      30.657  29.394  23.868  1.00  0.00     0.032 A 
ATOM     12  C   UNL A   1      31.235  27.537  25.303  1.00  0.00     0.135 A 
ATOM     13  C   UNL A   1      29.671  28.608  23.271  1.00  0.00     0.042 A 
ATOM     14  C   UNL A   1      30.238  26.754  24.712  1.00  0.00     0.019 A 
ATOM     15  O   UNL A   1      31.998  27.066  26.334  1.00  0.00    -0.475 OA
ATOM     16  Cl  UNL A   1      28.706  29.267  22.007  1.00  0.00    -0.084 Cl
ATOM     17  C   UNL A   1      29.454  27.295  23.690  1.00  0.00     0.032 A 
ATOM     18  C   UNL A   1      30.002  25.401  25.201  1.00  0.00     0.025 C 
ATOM     19  C   UNL A   1      32.085  25.627  26.504  1.00  0.00     0.314 C 
BRANCH  10  20
ATOM     20  C   UNL A   1      32.501  29.675  25.527  1.00  0.00     0.004 C 
ATOM     21  C   UNL A   1      32.294  30.526  26.539  1.00  0.00     0.009 C 
ENDBRANCH  10  20
BRANCH  19  22
ATOM     22  C   UNL A   1      33.381  25.123  25.848  1.00  0.00     0.429 C 
ATOM     23  F   UNL A   1      34.360  26.055  25.940  1.00  0.00    -0.167 F 
ATOM     24  F   UNL A   1      33.859  24.003  26.438  1.00  0.00    -0.167 F 
ATOM     25  F   UNL A   1      33.215  24.836  24.536  1.00  0.00    -0.167 F 
ENDBRANCH  19  22
ENDBRANCH   6   9
ENDBRANCH   4   5
ENDBRANCH   3   4
ENDBRANCH   2   3
ENDBRANCH   1   2
BRANCH   1  26
ATOM     26  C   UNL A   1      35.993  22.203  24.248  1.00  0.00     0.021 C 
BRANCH  26  27
ATOM     27  C   UNL A   1      36.515  21.891  25.645  1.00  0.00     0.116 C 
BRANCH  27  28
ATOM     28  N   UNL A   1      37.540  20.861  25.643  1.00  0.00    -0.352 N 
ATOM     29  C   UNL A   1      38.875  20.969  25.956  1.00  0.00     0.251 C 
ATOM     30  H   UNL A   1      37.237  19.963  25.381  1.00  0.00     0.163 HD
ATOM     31  O   UNL A   1      39.630  20.022  25.758  1.00  0.00    -0.269 OA
BRANCH  29  32
ATOM     32  C   UNL A   1      39.395  22.243  26.497  1.00  0.00     0.039 A 
ATOM     33  C   UNL A   1      38.882  23.465  26.054  1.00  0.00     0.014 A 
ATOM     34  C   UNL A   1      40.432  22.214  27.434  1.00  0.00     0.014 A 
ATOM     35  C   UNL A   1      39.510  24.650  26.423  1.00  0.00     0.010 A 
ATOM     36  C   UNL A   1      41.012  23.412  27.863  1.00  0.00     0.010 A 
ATOM     37  C   UNL A   1      40.589  24.636  27.323  1.00  0.00    -0.014 A 
BRANCH  37  38
ATOM     38  C   UNL A   1      41.253  25.915  27.686  1.00  0.00     0.031 A 
ATOM     39  C   UNL A   1      42.645  26.230  27.204  1.00  0.00     0.074 A 
ATOM     40  C   UNL A   1      40.582  26.814  28.431  1.00  0.00     0.049 A 
ATOM     41  N   UNL A   1      43.351  27.315  27.396  1.00  0.00    -0.248 NA
ATOM     42  C   UNL A   1      43.336  25.202  26.409  1.00  0.00     0.031 C 
ATOM     43  C   UNL A   1      39.240  26.615  28.981  1.00  0.00     0.029 A 
ATOM     44  N   UNL A   1      40.927  28.076  28.843  1.00  0.00    -0.354 N 
ATOM     45  C   UNL A   1      44.581  27.082  26.794  1.00  0.00     0.074 A 
ATOM     46  C   UNL A   1      44.527  25.756  26.221  1.00  0.00     0.031 C 
ATOM     47  C   UNL A   1      38.856  27.730  29.618  1.00  0.00     0.029 A 
ATOM     48  C   UNL A   1      39.940  28.707  29.564  1.00  0.00     0.049 A 
ATOM     49  H   UNL A   1      41.797  28.491  28.642  1.00  0.00     0.167 HD
ATOM     50  C   UNL A   1      45.650  27.907  26.708  1.00  0.00     0.034 A 
ATOM     51  C   UNL A   1      39.906  29.931  30.123  1.00  0.00     0.034 A 
ATOM     52  C   UNL A   1      45.681  29.252  27.214  1.00  0.00     0.049 A 
ATOM     53  C   UNL A   1      41.094  30.837  29.986  1.00  0.00     0.074 A 
ATOM     54  C   UNL A   1      46.696  30.187  27.099  1.00  0.00     0.029 A 
ATOM     55  N   UNL A   1      44.660  29.853  27.930  1.00  0.00    -0.354 N 
ATOM     56  N   UNL A   1      42.208  30.634  29.327  1.00  0.00    -0.248 NA
ATOM     57  C   UNL A   1      41.019  32.142  30.660  1.00  0.00     0.031 C 
ATOM     58  C   UNL A   1      46.288  31.355  27.751  1.00  0.00     0.029 A 
ATOM     59  C   UNL A   1      45.021  31.146  28.270  1.00  0.00     0.049 A 
ATOM     60  H   UNL A   1      43.803  29.427  28.162  1.00  0.00     0.167 HD
ATOM     61  C   UNL A   1      42.965  31.785  29.498  1.00  0.00     0.074 A 
ATOM     62  C   UNL A   1      42.176  32.691  30.306  1.00  0.00     0.031 C 
ATOM     63  C   UNL A   1      44.212  32.053  29.041  1.00  0.00     0.034 A 
BRANCH  50  64
ATOM     64  C   UNL A   1      46.876  27.407  25.995  1.00  0.00     0.023 A 
ATOM     65  C   UNL A   1      47.030  27.671  24.620  1.00  0.00     0.012 A 
ATOM     66  C   UNL A   1      47.914  26.772  26.703  1.00  0.00     0.148 A 
ATOM     67  C   UNL A   1      48.198  27.303  23.956  1.00  0.00     0.002 A 
ATOM     68  C   UNL A   1      49.088  26.432  26.040  1.00  0.00     0.091 A 
ATOM     69  F   UNL A   1      47.735  26.518  28.007  1.00  0.00    -0.205 F 
ATOM     70  C   UNL A   1      49.230  26.694  24.667  1.00  0.00     0.022 A 
BRANCH  68  71
ATOM     71  S   UNL A   1      50.498  25.694  26.873  1.00  0.00     0.127 S 
ATOM     72  O   UNL A   1      50.801  26.704  27.887  1.00  0.00    -0.237 OA
ATOM     73  O   UNL A   1      49.929  24.454  27.400  1.00  0.00    -0.237 OA
ATOM     74  O   UNL A   1      51.521  25.512  25.853  1.00  0.00    -0.744 OA
ENDBRANCH  68  71
ENDBRANCH  50  64
BRANCH  51  75
ATOM     75  C   UNL A   1      38.664  30.373  30.809  1.00  0.00     0.023 A 
ATOM     76  C   UNL A   1      38.559  30.215  32.204  1.00  0.00     0.012 A 
ATOM     77  C   UNL A   1      37.645  31.048  30.109  1.00  0.00     0.148 A 
ATOM     78  C   UNL A   1      37.459  30.725  32.892  1.00  0.00     0.002 A 
ATOM     79  C   UNL A   1      36.574  31.591  30.807  1.00  0.00     0.091 A 
ATOM     80  F   UNL A   1      37.773  31.183  28.782  1.00  0.00    -0.205 F 
ATOM     81  C   UNL A   1      36.475  31.423  32.197  1.00  0.00     0.022 A 
BRANCH  79  82
ATOM     82  S   UNL A   1      35.320  32.610  30.021  1.00  0.00     0.127 S 
ATOM     83  O   UNL A   1      34.817  31.715  28.982  1.00  0.00    -0.237 OA
ATOM     84  O   UNL A   1      34.397  32.849  31.130  1.00  0.00    -0.237 OA
ATOM     85  O   UNL A   1      36.015  33.795  29.540  1.00  0.00    -0.744 OA
ENDBRANCH  79  82
ENDBRANCH  51  75
BRANCH  63  86
ATOM     86  C   UNL A   1      44.826  33.376  29.401  1.00  0.00     0.023 A 
ATOM     87  C   UNL A   1      45.661  33.459  30.531  1.00  0.00     0.012 A 
ATOM     88  C   UNL A   1      44.682  34.493  28.555  1.00  0.00     0.148 A 
ATOM     89  C   UNL A   1      46.345  34.639  30.818  1.00  0.00     0.002 A 
ATOM     90  C   UNL A   1      45.392  35.656  28.830  1.00  0.00     0.091 A 
ATOM     91  F   UNL A   1      43.873  34.389  27.491  1.00  0.00    -0.205 F 
ATOM     92  C   UNL A   1      46.219  35.732  29.962  1.00  0.00     0.022 A 
BRANCH  90  93
ATOM     93  S   UNL A   1      45.356  37.090  27.748  1.00  0.00     0.127 S 
ATOM     94  O   UNL A   1      43.936  37.437  27.760  1.00  0.00    -0.237 OA
ATOM     95  O   UNL A   1      46.221  38.034  28.457  1.00  0.00    -0.237 OA
ATOM     96  O   UNL A   1      45.874  36.641  26.463  1.00  0.00    -0.744 OA
ENDBRANCH  90  93
ENDBRANCH  63  86
ENDBRANCH  37  38
ENDBRANCH  29  32
ENDBRANCH  27  28
ENDBRANCH  26  27
ENDBRANCH   1  26
TORSDOF 18
ENDMDL
MODEL 2
REMARK VINA RESULT:     -12.2      5.234     10.078
REMARK SMILES C=Cc1cc(Cl)cc2c1O[C@H](C(F)(F)F)C(C(=O)NCCCCCCNC(=O)c1ccc(-c3c4nc(c(-c5cccc(S(=O)(=O)[O-])c5F)c5ccc([nH]5)c(-c5cccc(S(=O)(=O)[O-])c5F)c5nc(c(-c6cccc(S(=O)(=O)[O-])c6F)c6ccc3[nH]6)C=C5)C=C4)cc1)=C2
REMARK SMILES IDX 23 1 22 2 21 3 20 4 19 5 17 6 18 7 16 9 3 10 4 11 9 12 5 13
REMARK SMILES IDX 8 14 10 15 6 16 7 17 92 18 11 19 2 20 1 21 12 22 13 23 14 24
REMARK SMILES IDX 15 25 24 26 25 27 26 28 27 29 28 31 29 32 30 33 91 34 31 35
REMARK SMILES IDX 90 36 32 37 33 38 34 39 84 40 35 41 89 42 83 43 85 44 36 45
REMARK SMILES IDX 88 46 82 47 81 48 37 50 69 51 49 52 68 53 50 54 53 55 67 56
REMARK SMILES IDX 86 57 51 58 52 59 66 61 87 62 54 63 38 64 39 65 47 66 40 67
REMARK SMILES IDX 42 68 48 69 41 70 43 71 44 72 45 73 46 74 70 75 71 76 79 77
REMARK SMILES IDX 72 78 74 79 80 80 73 81 75 82 76 83 77 84 78 85 55 86 56 87
REMARK SMILES IDX 64 88 57 89 59 90 65 91 58 92 60 93 61 94 62 95 63 96
REMARK H PARENT 19 8 26 30 85 49 53 60
REMARK Flexibility Score: inf
ROOT
ATOM      1  C   UNL A   1      30.877  29.856  24.743  1.00  0.00     0.002 C 
ENDROOT
BRANCH   1   2
ATOM      2  C   UNL A   1      30.214  28.980  23.673  1.00  0.00     0.002 C 
BRANCH   2   3
ATOM      3  C   UNL A   1      31.159  28.380  22.626  1.00  0.00     0.021 C 
BRANCH   3   4
ATOM      4  C   UNL A   1      31.015  26.872  22.439  1.00  0.00     0.116 C 
BRANCH   4   5
ATOM      5  N   UNL A   1      31.808  26.386  21.322  1.00  0.00    -0.352 N 
ATOM      6  C   UNL A   1      32.733  25.423  21.104  1.00  0.00     0.251 C 
ATOM      7  O   UNL A   1      33.137  25.341  19.938  1.00  0.00    -0.270 OA
ATOM      8  H   UNL A   1      31.620  26.894  20.501  1.00  0.00     0.163 HD
BRANCH   6   9
ATOM      9  C   UNL A   1      33.280  24.491  22.137  1.00  0.00     0.067 C 
ATOM     10  C   UNL A   1      34.827  21.626  24.823  1.00  0.00     0.018 A 
ATOM     11  C   UNL A   1      34.138  20.419  25.000  1.00  0.00     0.032 A 
ATOM     12  C   UNL A   1      34.320  22.569  23.911  1.00  0.00     0.135 A 
ATOM     13  C   UNL A   1      32.986  20.157  24.260  1.00  0.00     0.042 A 
ATOM     14  C   UNL A   1      33.171  22.299  23.160  1.00  0.00     0.019 A 
ATOM     15  O   UNL A   1      35.032  23.723  23.740  1.00  0.00    -0.475 OA
ATOM     16  Cl  UNL A   1      32.153  18.666  24.479  1.00  0.00    -0.084 Cl
ATOM     17  C   UNL A   1      32.502  21.085  23.338  1.00  0.00     0.032 A 
ATOM     18  C   UNL A   1      32.716  23.268  22.171  1.00  0.00     0.025 C 
ATOM     19  C   UNL A   1      34.353  24.847  23.125  1.00  0.00     0.314 C 
BRANCH  10  20
ATOM     20  C   UNL A   1      36.029  21.929  25.612  1.00  0.00     0.004 C 
ATOM     21  C   UNL A   1      37.232  21.390  25.378  1.00  0.00     0.009 C 
ENDBRANCH  10  20
BRANCH  19  22
ATOM     22  C   UNL A   1      33.852  25.796  24.228  1.00  0.00     0.429 C 
ATOM     23  F   UNL A   1      32.557  25.538  24.531  1.00  0.00    -0.167 F 
ATOM     24  F   UNL A   1      34.551  25.666  25.380  1.00  0.00    -0.167 F 
ATOM     25  F   UNL A   1      33.934  27.096  23.863  1.00  0.00    -0.167 F 
ENDBRANCH  19  22
ENDBRANCH   6   9
ENDBRANCH   4   5
ENDBRANCH   3   4
ENDBRANCH   2   3
ENDBRANCH   1   2
BRANCH   1  26
ATOM     26  C   UNL A   1      31.766  29.123  25.750  1.00  0.00     0.021 C 
BRANCH  26  27
ATOM     27  C   UNL A   1      33.058  29.842  26.118  1.00  0.00     0.116 C 
BRANCH  27  28
ATOM     28  N   UNL A   1      32.829  31.198  26.589  1.00  0.00    -0.352 N 
ATOM     29  C   UNL A   1      33.584  31.951  27.457  1.00  0.00     0.251 C 
ATOM     30  H   UNL A   1      32.022  31.638  26.238  1.00  0.00     0.163 HD
ATOM     31  O   UNL A   1      33.163  33.031  27.859  1.00  0.00    -0.269 OA
BRANCH  29  32
ATOM     32  C   UNL A   1      34.887  31.432  27.927  1.00  0.00     0.039 A 
ATOM     33  C   UNL A   1      35.019  30.098  28.322  1.00  0.00     0.014 A 
ATOM     34  C   UNL A   1      35.980  32.300  28.004  1.00  0.00     0.014 A 
ATOM     35  C   UNL A   1      36.191  29.677  28.941  1.00  0.00     0.010 A 
ATOM     36  C   UNL A   1      37.182  31.852  28.557  1.00  0.00     0.010 A 
ATOM     37  C   UNL A   1      37.282  30.553  29.076  1.00  0.00    -0.014 A 
BRANCH  37  38
ATOM     38  C   UNL A   1      38.516  30.082  29.759  1.00  0.00     0.031 A 
ATOM     39  C   UNL A   1      38.837  30.514  31.165  1.00  0.00     0.074 A 
ATOM     40  C   UNL A   1      39.338  29.231  29.114  1.00  0.00     0.049 A 
ATOM     41  N   UNL A   1      39.848  30.163  31.918  1.00  0.00    -0.248 NA
ATOM     42  C   UNL A   1      37.912  31.458  31.812  1.00  0.00     0.031 C 
ATOM     43  C   UNL A   1      39.151  28.761  27.741  1.00  0.00     0.029 A 
ATOM     44  N   UNL A   1      40.483  28.601  29.529  1.00  0.00    -0.354 N 
ATOM     45  C   UNL A   1      39.711  30.879  33.100  1.00  0.00     0.074 A 
ATOM     46  C   UNL A   1      38.514  31.680  32.973  1.00  0.00     0.031 C 
ATOM     47  C   UNL A   1      40.118  27.882  27.441  1.00  0.00     0.029 A 
ATOM     48  C   UNL A   1      41.022  27.761  28.582  1.00  0.00     0.049 A 
ATOM     49  H   UNL A   1      40.882  28.736  30.419  1.00  0.00     0.167 HD
ATOM     50  C   UNL A   1      40.499  30.855  34.200  1.00  0.00     0.034 A 
ATOM     51  C   UNL A   1      42.119  26.982  28.621  1.00  0.00     0.034 A 
ATOM     52  C   UNL A   1      41.649  30.007  34.356  1.00  0.00     0.049 A 
ATOM     53  C   UNL A   1      42.958  26.951  29.863  1.00  0.00     0.074 A 
ATOM     54  C   UNL A   1      42.459  29.859  35.470  1.00  0.00     0.029 A 
ATOM     55  N   UNL A   1      42.155  29.168  33.377  1.00  0.00    -0.354 N 
ATOM     56  N   UNL A   1      42.753  27.560  31.005  1.00  0.00    -0.248 NA
ATOM     57  C   UNL A   1      44.171  26.121  29.829  1.00  0.00     0.031 C 
ATOM     58  C   UNL A   1      43.459  28.932  35.162  1.00  0.00     0.029 A 
ATOM     59  C   UNL A   1      43.270  28.503  33.857  1.00  0.00     0.049 A 
ATOM     60  H   UNL A   1      41.777  29.059  32.475  1.00  0.00     0.167 HD
ATOM     61  C   UNL A   1      43.806  27.183  31.830  1.00  0.00     0.074 A 
ATOM     62  C   UNL A   1      44.636  26.277  31.064  1.00  0.00     0.031 C 
ATOM     63  C   UNL A   1      44.066  27.573  33.100  1.00  0.00     0.034 A 
BRANCH  50  64
ATOM     64  C   UNL A   1      40.127  31.737  35.359  1.00  0.00     0.023 A 
ATOM     65  C   UNL A   1      40.710  33.014  35.470  1.00  0.00     0.012 A 
ATOM     66  C   UNL A   1      39.129  31.344  36.273  1.00  0.00     0.148 A 
ATOM     67  C   UNL A   1      40.311  33.888  36.480  1.00  0.00     0.002 A 
ATOM     68  C   UNL A   1      38.718  32.232  37.261  1.00  0.00     0.091 A 
ATOM     69  F   UNL A   1      38.602  30.118  36.154  1.00  0.00    -0.205 F 
ATOM     70  C   UNL A   1      39.309  33.501  37.368  1.00  0.00     0.022 A 
BRANCH  68  71
ATOM     71  S   UNL A   1      37.398  31.853  38.420  1.00  0.00     0.127 S 
ATOM     72  O   UNL A   1      38.055  32.104  39.703  1.00  0.00    -0.237 OA
ATOM     73  O   UNL A   1      36.378  32.835  38.055  1.00  0.00    -0.237 OA
ATOM     74  O   UNL A   1      37.028  30.466  38.173  1.00  0.00    -0.744 OA
ENDBRANCH  68  71
ENDBRANCH  50  64
BRANCH  51  75
ATOM     75  C   UNL A   1      42.433  26.126  27.446  1.00  0.00     0.023 A 
ATOM     76  C   UNL A   1      43.263  26.635  26.430  1.00  0.00     0.012 A 
ATOM     77  C   UNL A   1      42.011  24.783  27.390  1.00  0.00     0.148 A 
ATOM     78  C   UNL A   1      43.671  25.819  25.376  1.00  0.00     0.002 A 
ATOM     79  C   UNL A   1      42.457  23.965  26.360  1.00  0.00     0.091 A 
ATOM     80  F   UNL A   1      41.221  24.327  28.372  1.00  0.00    -0.205 F 
ATOM     81  C   UNL A   1      43.280  24.483  25.348  1.00  0.00     0.022 A 
BRANCH  79  82
ATOM     82  S   UNL A   1      42.109  22.204  26.301  1.00  0.00     0.127 S 
ATOM     83  O   UNL A   1      42.909  21.780  25.155  1.00  0.00    -0.237 OA
ATOM     84  O   UNL A   1      42.610  21.760  27.602  1.00  0.00    -0.237 OA
ATOM     85  O   UNL A   1      40.667  22.088  26.133  1.00  0.00    -0.744 OA
ENDBRANCH  79  82
ENDBRANCH  51  75
BRANCH  63  86
ATOM     86  C   UNL A   1      45.304  27.038  33.763  1.00  0.00     0.023 A 
ATOM     87  C   UNL A   1      46.483  27.808  33.734  1.00  0.00     0.012 A 
ATOM     88  C   UNL A   1      45.265  25.850  34.516  1.00  0.00     0.148 A 
ATOM     89  C   UNL A   1      47.610  27.399  34.445  1.00  0.00     0.002 A 
ATOM     90  C   UNL A   1      46.382  25.465  35.248  1.00  0.00     0.091 A 
ATOM     91  F   UNL A   1      44.132  25.132  34.518  1.00  0.00    -0.205 F 
ATOM     92  C   UNL A   1      47.555  26.236  35.210  1.00  0.00     0.022 A 
BRANCH  90  93
ATOM     93  S   UNL A   1      46.386  24.025  36.323  1.00  0.00     0.127 S 
ATOM     94  O   UNL A   1      47.741  24.066  36.871  1.00  0.00    -0.237 OA
ATOM     95  O   UNL A   1      45.330  24.352  37.282  1.00  0.00    -0.237 OA
ATOM     96  O   UNL A   1      46.097  22.882  35.469  1.00  0.00    -0.744 OA
ENDBRANCH  90  93
ENDBRANCH  63  86
ENDBRANCH  37  38
ENDBRANCH  29  32
ENDBRANCH  27  28
ENDBRANCH  26  27
ENDBRANCH   1  26
TORSDOF 18
ENDMDL
MODEL 3
REMARK VINA RESULT:     -12.2      1.321      1.489
REMARK SMILES C=Cc1cc(Cl)cc2c1O[C@H](C(F)(F)F)C(C(=O)NCCCCCCNC(=O)c1ccc(-c3c4nc(c(-c5cccc(S(=O)(=O)[O-])c5F)c5ccc([nH]5)c(-c5cccc(S(=O)(=O)[O-])c5F)c5nc(c(-c6cccc(S(=O)(=O)[O-])c6F)c6ccc3[nH]6)C=C5)C=C4)cc1)=C2
REMARK SMILES IDX 23 1 22 2 21 3 20 4 19 5 17 6 18 7 16 9 3 10 4 11 9 12 5 13
REMARK SMILES IDX 8 14 10 15 6 16 7 17 92 18 11 19 2 20 1 21 12 22 13 23 14 24
REMARK SMILES IDX 15 25 24 26 25 27 26 28 27 29 28 31 29 32 30 33 91 34 31 35
REMARK SMILES IDX 90 36 32 37 33 38 34 39 84 40 35 41 89 42 83 43 85 44 36 45
REMARK SMILES IDX 88 46 82 47 81 48 37 50 69 51 49 52 68 53 50 54 53 55 67 56
REMARK SMILES IDX 86 57 51 58 52 59 66 61 87 62 54 63 38 64 39 65 47 66 40 67
REMARK SMILES IDX 42 68 48 69 41 70 43 71 44 72 45 73 46 74 70 75 71 76 79 77
REMARK SMILES IDX 72 78 74 79 80 80 73 81 75 82 76 83 77 84 78 85 55 86 56 87
REMARK SMILES IDX 64 88 57 89 59 90 65 91 58 92 60 93 61 94 62 95 63 96
REMARK H PARENT 19 8 26 30 85 49 53 60
REMARK Flexibility Score: inf
ROOT
ATOM      1  C   UNL A   1      35.317  20.724  25.030  1.00  0.00     0.002 C 
ENDROOT
BRANCH   1   2
ATOM      2  C   UNL A   1      33.967  20.247  24.478  1.00  0.00     0.002 C 
BRANCH   2   3
ATOM      3  C   UNL A   1      32.765  20.434  25.411  1.00  0.00     0.021 C 
BRANCH   3   4
ATOM      4  C   UNL A   1      31.845  21.590  25.027  1.00  0.00     0.116 C 
BRANCH   4   5
ATOM      5  N   UNL A   1      30.982  21.985  26.128  1.00  0.00    -0.352 N 
ATOM      6  C   UNL A   1      30.548  23.138  26.686  1.00  0.00     0.251 C 
ATOM      7  O   UNL A   1      29.764  22.998  27.632  1.00  0.00    -0.270 OA
ATOM      8  H   UNL A   1      30.613  21.201  26.594  1.00  0.00     0.163 HD
BRANCH   6   9
ATOM      9  C   UNL A   1      30.939  24.516  26.257  1.00  0.00     0.067 C 
ATOM     10  C   UNL A   1      31.734  28.495  25.095  1.00  0.00     0.018 A 
ATOM     11  C   UNL A   1      30.966  29.072  24.076  1.00  0.00     0.032 A 
ATOM     12  C   UNL A   1      31.452  27.177  25.494  1.00  0.00     0.135 A 
ATOM     13  C   UNL A   1      29.924  28.351  23.493  1.00  0.00     0.042 A 
ATOM     14  C   UNL A   1      30.399  26.459  24.917  1.00  0.00     0.019 A 
ATOM     15  O   UNL A   1      32.201  26.655  26.511  1.00  0.00    -0.475 OA
ATOM     16  Cl  UNL A   1      28.980  29.073  22.247  1.00  0.00    -0.084 Cl
ATOM     17  C   UNL A   1      29.633  27.052  23.911  1.00  0.00     0.032 A 
ATOM     18  C   UNL A   1      30.088  25.122  25.406  1.00  0.00     0.025 C 
ATOM     19  C   UNL A   1      32.202  25.213  26.675  1.00  0.00     0.314 C 
BRANCH  10  20
ATOM     20  C   UNL A   1      32.851  29.232  25.704  1.00  0.00     0.004 C 
ATOM     21  C   UNL A   1      32.814  29.765  26.931  1.00  0.00     0.009 C 
ENDBRANCH  10  20
BRANCH  19  22
ATOM     22  C   UNL A   1      33.454  24.632  25.995  1.00  0.00     0.429 C 
ATOM     23  F   UNL A   1      34.446  25.554  25.949  1.00  0.00    -0.167 F 
ATOM     24  F   UNL A   1      33.953  23.562  26.656  1.00  0.00    -0.167 F 
ATOM     25  F   UNL A   1      33.210  24.232  24.726  1.00  0.00    -0.167 F 
ENDBRANCH  19  22
ENDBRANCH   6   9
ENDBRANCH   4   5
ENDBRANCH   3   4
ENDBRANCH   2   3
ENDBRANCH   1   2
BRANCH   1  26
ATOM     26  C   UNL A   1      35.901  21.977  24.375  1.00  0.00     0.021 C 
BRANCH  26  27
ATOM     27  C   UNL A   1      37.221  22.461  24.963  1.00  0.00     0.116 C 
BRANCH  27  28
ATOM     28  N   UNL A   1      38.076  21.367  25.391  1.00  0.00    -0.352 N 
ATOM     29  C   UNL A   1      39.235  21.414  26.131  1.00  0.00     0.251 C 
ATOM     30  H   UNL A   1      37.787  20.469  25.113  1.00  0.00     0.163 HD
ATOM     31  O   UNL A   1      39.912  20.401  26.277  1.00  0.00    -0.269 OA
BRANCH  29  32
ATOM     32  C   UNL A   1      39.675  22.700  26.714  1.00  0.00     0.039 A 
ATOM     33  C   UNL A   1      39.094  23.903  26.301  1.00  0.00     0.014 A 
ATOM     34  C   UNL A   1      40.703  22.704  27.660  1.00  0.00     0.014 A 
ATOM     35  C   UNL A   1      39.647  25.111  26.712  1.00  0.00     0.010 A 
ATOM     36  C   UNL A   1      41.208  23.920  28.130  1.00  0.00     0.010 A 
ATOM     37  C   UNL A   1      40.718  25.133  27.622  1.00  0.00    -0.014 A 
BRANCH  37  38
ATOM     38  C   UNL A   1      41.303  26.438  28.029  1.00  0.00     0.031 A 
ATOM     39  C   UNL A   1      42.710  26.811  27.645  1.00  0.00     0.074 A 
ATOM     40  C   UNL A   1      40.544  27.307  28.726  1.00  0.00     0.049 A 
ATOM     41  N   UNL A   1      43.356  27.923  27.884  1.00  0.00    -0.248 NA
ATOM     42  C   UNL A   1      43.496  25.814  26.899  1.00  0.00     0.031 C 
ATOM     43  C   UNL A   1      39.177  27.051  29.181  1.00  0.00     0.029 A 
ATOM     44  N   UNL A   1      40.808  28.581  29.160  1.00  0.00    -0.354 N 
ATOM     45  C   UNL A   1      44.633  27.743  27.369  1.00  0.00     0.074 A 
ATOM     46  C   UNL A   1      44.674  26.416  26.794  1.00  0.00     0.031 C 
ATOM     47  C   UNL A   1      38.704  28.149  29.789  1.00  0.00     0.029 A 
ATOM     48  C   UNL A   1      39.749  29.169  29.810  1.00  0.00     0.049 A 
ATOM     49  H   UNL A   1      41.672  29.032  29.019  1.00  0.00     0.167 HD
ATOM     50  C   UNL A   1      45.671  28.610  27.357  1.00  0.00     0.034 A 
ATOM     51  C   UNL A   1      39.626  30.390  30.364  1.00  0.00     0.034 A 
ATOM     52  C   UNL A   1      45.611  29.955  27.863  1.00  0.00     0.049 A 
ATOM     53  C   UNL A   1      40.782  31.344  30.310  1.00  0.00     0.074 A 
ATOM     54  C   UNL A   1      46.592  30.931  27.817  1.00  0.00     0.029 A 
ATOM     55  N   UNL A   1      44.519  30.512  28.506  1.00  0.00    -0.354 N 
ATOM     56  N   UNL A   1      41.946  31.188  29.729  1.00  0.00    -0.248 NA
ATOM     57  C   UNL A   1      40.607  32.643  30.976  1.00  0.00     0.031 C 
ATOM     58  C   UNL A   1      46.093  32.079  28.439  1.00  0.00     0.029 A 
ATOM     59  C   UNL A   1      44.802  31.817  28.869  1.00  0.00     0.049 A 
ATOM     60  H   UNL A   1      43.667  30.050  28.678  1.00  0.00     0.167 HD
ATOM     61  C   UNL A   1      42.642  32.369  29.952  1.00  0.00     0.074 A 
ATOM     62  C   UNL A   1      41.762  33.241  30.702  1.00  0.00     0.031 C 
ATOM     63  C   UNL A   1      43.905  32.689  29.581  1.00  0.00     0.034 A 
BRANCH  50  64
ATOM     64  C   UNL A   1      46.962  28.163  26.730  1.00  0.00     0.023 A 
ATOM     65  C   UNL A   1      47.997  27.677  27.553  1.00  0.00     0.012 A 
ATOM     66  C   UNL A   1      47.110  28.128  25.330  1.00  0.00     0.148 A 
ATOM     67  C   UNL A   1      49.166  27.168  26.992  1.00  0.00     0.002 A 
ATOM     68  C   UNL A   1      48.269  27.593  24.777  1.00  0.00     0.091 A 
ATOM     69  F   UNL A   1      46.117  28.611  24.571  1.00  0.00    -0.205 F 
ATOM     70  C   UNL A   1      49.298  27.116  25.606  1.00  0.00     0.022 A 
BRANCH  68  71
ATOM     71  S   UNL A   1      48.516  27.431  23.005  1.00  0.00     0.127 S 
ATOM     72  O   UNL A   1      49.883  27.928  22.853  1.00  0.00    -0.237 OA
ATOM     73  O   UNL A   1      48.365  25.990  22.805  1.00  0.00    -0.237 OA
ATOM     74  O   UNL A   1      47.485  28.246  22.377  1.00  0.00    -0.744 OA
ENDBRANCH  68  71
ENDBRANCH  50  64
BRANCH  51  75
ATOM     75  C   UNL A   1      38.322  30.779  30.962  1.00  0.00     0.023 A 
ATOM     76  C   UNL A   1      38.107  30.561  32.336  1.00  0.00     0.012 A 
ATOM     77  C   UNL A   1      37.348  31.462  30.208  1.00  0.00     0.148 A 
ATOM     78  C   UNL A   1      36.943  31.021  32.951  1.00  0.00     0.002 A 
ATOM     79  C   UNL A   1      36.212  31.955  30.836  1.00  0.00     0.091 A 
ATOM     80  F   UNL A   1      37.582  31.655  28.902  1.00  0.00    -0.205 F 
ATOM     81  C   UNL A   1      36.003  31.728  32.205  1.00  0.00     0.022 A 
BRANCH  79  82
ATOM     82  S   UNL A   1      35.004  32.981  29.990  1.00  0.00     0.127 S 
ATOM     83  O   UNL A   1      34.449  32.046  29.015  1.00  0.00    -0.237 OA
ATOM     84  O   UNL A   1      34.102  33.339  31.085  1.00  0.00    -0.237 OA
ATOM     85  O   UNL A   1      35.753  34.097  29.429  1.00  0.00    -0.744 OA
ENDBRANCH  79  82
ENDBRANCH  51  75
BRANCH  63  86
ATOM     86  C   UNL A   1      44.438  34.036  29.982  1.00  0.00     0.023 A 
ATOM     87  C   UNL A   1      45.206  34.147  31.156  1.00  0.00     0.012 A 
ATOM     88  C   UNL A   1      44.289  35.152  29.136  1.00  0.00     0.148 A 
ATOM     89  C   UNL A   1      45.819  35.354  31.487  1.00  0.00     0.002 A 
ATOM     90  C   UNL A   1      44.929  36.344  29.456  1.00  0.00     0.091 A 
ATOM     91  F   UNL A   1      43.544  35.020  28.029  1.00  0.00    -0.205 F 
ATOM     92  C   UNL A   1      45.690  36.448  30.632  1.00  0.00     0.022 A 
BRANCH  90  93
ATOM     93  S   UNL A   1      44.886  37.784  28.383  1.00  0.00     0.127 S 
ATOM     94  O   UNL A   1      43.538  38.296  28.625  1.00  0.00    -0.237 OA
ATOM     95  O   UNL A   1      45.961  38.611  28.932  1.00  0.00    -0.237 OA
ATOM     96  O   UNL A   1      45.129  37.291  27.034  1.00  0.00    -0.744 OA
ENDBRANCH  90  93
ENDBRANCH  63  86
ENDBRANCH  37  38
ENDBRANCH  29  32
ENDBRANCH  27  28
ENDBRANCH  26  27
ENDBRANCH   1  26
TORSDOF 18
ENDMDL
