MODEL 1
REMARK VINA RESULT:     -10.5      0.000      0.000
REMARK SMILES CCNC(=O)NC(=O)[C@@H](C)[NH2+][C@](C)(CC)C(=O)NCCCCCCNC(=O)c1ccc(-c2c3nc(c(-c4cccc(S(=O)(=O)[O-])c4F)c4ccc([nH]4)c(-c4cccc(S(=O)(=O)[O-])c4F)c4nc(c(-c5cccc(S(=O)(=O)[O-])c5F)c5ccc2[nH]5)C=C4)C=C3)cc1
REMARK SMILES IDX 21 1 20 2 19 3 18 4 16 5 17 6 12 8 13 9 11 10 9 13 10 14
REMARK SMILES IDX 7 15 3 16 4 17 5 19 6 20 8 22 2 23 1 24 14 25 15 26 22 27
REMARK SMILES IDX 23 28 24 29 25 30 26 31 27 33 28 34 29 35 90 36 30 37 89 38
REMARK SMILES IDX 31 39 32 40 33 41 83 42 34 43 88 44 82 45 84 46 35 47 87 48
REMARK SMILES IDX 81 49 80 50 36 52 68 53 48 54 67 55 49 56 52 57 66 58 85 59
REMARK SMILES IDX 50 60 51 61 65 63 86 64 53 65 37 66 38 67 46 68 39 69 41 70
REMARK SMILES IDX 47 71 40 72 42 73 43 74 44 75 45 76 69 77 70 78 78 79 71 80
REMARK SMILES IDX 73 81 79 82 72 83 74 84 75 85 76 86 77 87 54 88 55 89 63 90
REMARK SMILES IDX 56 91 58 92 64 93 57 94 59 95 60 96 61 97 62 98
REMARK H PARENT 18 7 11 11 11 12 3 18 6 21 25 32 84 51 52 62
REMARK Flexibility Score: inf
ROOT
ATOM      1  C   UNL A   1      31.884  29.820  27.191  1.00  0.00     0.002 C 
ENDROOT
BRANCH   1   2
ATOM      2  C   UNL A   1      33.270  29.193  26.994  1.00  0.00     0.021 C 
BRANCH   2   3
ATOM      3  C   UNL A   1      33.318  28.192  25.843  1.00  0.00     0.116 C 
BRANCH   3   4
ATOM      4  N   UNL A   1      32.527  27.021  26.179  1.00  0.00    -0.351 N 
ATOM      5  C   UNL A   1      31.697  26.242  25.421  1.00  0.00     0.281 C 
ATOM      6  O   UNL A   1      30.932  25.490  26.034  1.00  0.00    -0.268 OA
ATOM      7  H   UNL A   1      32.601  26.738  27.118  1.00  0.00     0.163 HD
BRANCH   5   8
ATOM      8  C   UNL A   1      31.839  26.211  23.847  1.00  0.00     0.173 C 
ATOM      9  C   UNL A   1      30.759  25.230  23.333  1.00  0.00     0.090 C 
BRANCH   8  10
ATOM     10  N   UNL A   1      33.194  25.643  23.656  1.00  0.00    -0.324 N 
ATOM     11  H   UNL A   1      33.261  25.424  22.662  1.00  0.00     0.347 HD
ATOM     12  H   UNL A   1      33.763  26.375  24.082  1.00  0.00     0.347 HD
BRANCH  10  13
ATOM     13  C   UNL A   1      33.712  24.468  24.350  1.00  0.00     0.270 C 
ATOM     14  C   UNL A   1      35.112  24.486  24.959  1.00  0.00     0.086 C 
BRANCH  13  15
ATOM     15  C   UNL A   1      33.669  23.273  23.374  1.00  0.00     0.285 C 
ATOM     16  N   UNL A   1      32.567  21.116  25.853  1.00  0.00    -0.338 N 
ATOM     17  C   UNL A   1      32.949  20.970  24.584  1.00  0.00     0.321 C 
ATOM     18  H   UNL A   1      32.278  20.268  26.263  1.00  0.00     0.165 HD
ATOM     19  O   UNL A   1      32.926  19.814  24.141  1.00  0.00    -0.248 OA
ATOM     20  N   UNL A   1      33.349  21.951  23.709  1.00  0.00    -0.273 N 
ATOM     21  H   UNL A   1      33.483  21.464  22.863  1.00  0.00     0.175 HD
ATOM     22  O   UNL A   1      33.913  23.477  22.175  1.00  0.00    -0.268 OA
BRANCH  16  23
ATOM     23  C   UNL A   1      32.482  22.225  26.755  1.00  0.00     0.114 C 
ATOM     24  C   UNL A   1      33.604  22.295  27.769  1.00  0.00     0.027 C 
ENDBRANCH  16  23
ENDBRANCH  13  15
ENDBRANCH  10  13
ENDBRANCH   8  10
BRANCH   8  25
ATOM     25  C   UNL A   1      31.578  27.595  23.198  1.00  0.00     0.075 C 
ATOM     26  C   UNL A   1      30.213  28.197  23.547  1.00  0.00     0.011 C 
ENDBRANCH   8  25
ENDBRANCH   5   8
ENDBRANCH   3   4
ENDBRANCH   2   3
ENDBRANCH   1   2
BRANCH   1  27
ATOM     27  C   UNL A   1      31.461  30.799  26.091  1.00  0.00     0.002 C 
BRANCH  27  28
ATOM     28  C   UNL A   1      31.383  32.262  26.531  1.00  0.00     0.021 C 
BRANCH  28  29
ATOM     29  C   UNL A   1      32.686  32.816  27.094  1.00  0.00     0.116 C 
BRANCH  29  30
ATOM     30  N   UNL A   1      32.504  34.132  27.683  1.00  0.00    -0.352 N 
ATOM     31  C   UNL A   1      33.124  34.677  28.782  1.00  0.00     0.251 C 
ATOM     32  H   UNL A   1      31.847  34.713  27.235  1.00  0.00     0.163 HD
ATOM     33  O   UNL A   1      32.708  35.719  29.273  1.00  0.00    -0.269 OA
BRANCH  31  34
ATOM     34  C   UNL A   1      34.287  33.982  29.374  1.00  0.00     0.039 A 
ATOM     35  C   UNL A   1      35.573  34.410  29.039  1.00  0.00     0.014 A 
ATOM     36  C   UNL A   1      34.105  32.920  30.265  1.00  0.00     0.014 A 
ATOM     37  C   UNL A   1      36.678  33.803  29.638  1.00  0.00     0.010 A 
ATOM     38  C   UNL A   1      35.202  32.373  30.921  1.00  0.00     0.010 A 
ATOM     39  C   UNL A   1      36.501  32.800  30.606  1.00  0.00    -0.014 A 
BRANCH  39  40
ATOM     40  C   UNL A   1      37.663  32.190  31.302  1.00  0.00     0.031 A 
ATOM     41  C   UNL A   1      38.415  31.051  30.668  1.00  0.00     0.074 A 
ATOM     42  C   UNL A   1      37.991  32.608  32.539  1.00  0.00     0.049 A 
ATOM     43  N   UNL A   1      39.420  30.362  31.142  1.00  0.00    -0.248 NA
ATOM     44  C   UNL A   1      37.960  30.609  29.340  1.00  0.00     0.031 C 
ATOM     45  C   UNL A   1      37.288  33.647  33.295  1.00  0.00     0.029 A 
ATOM     46  N   UNL A   1      38.983  32.192  33.393  1.00  0.00    -0.354 N 
ATOM     47  C   UNL A   1      39.699  29.391  30.190  1.00  0.00     0.074 A 
ATOM     48  C   UNL A   1      38.727  29.550  29.129  1.00  0.00     0.031 C 
ATOM     49  C   UNL A   1      37.870  33.788  34.496  1.00  0.00     0.029 A 
ATOM     50  C   UNL A   1      38.965  32.830  34.610  1.00  0.00     0.049 A 
ATOM     51  H   UNL A   1      39.644  31.503  33.154  1.00  0.00     0.167 HD
ATOM     52  C   UNL A   1      40.690  28.468  30.180  1.00  0.00     0.034 A 
ATOM     53  C   UNL A   1      39.735  32.654  35.703  1.00  0.00     0.034 A 
ATOM     54  C   UNL A   1      41.669  28.330  31.224  1.00  0.00     0.049 A 
ATOM     55  C   UNL A   1      40.846  31.643  35.660  1.00  0.00     0.074 A 
ATOM     56  C   UNL A   1      42.761  27.481  31.273  1.00  0.00     0.029 A 
ATOM     57  N   UNL A   1      41.669  29.049  32.409  1.00  0.00    -0.354 N 
ATOM     58  N   UNL A   1      41.189  30.837  34.685  1.00  0.00    -0.248 NA
ATOM     59  C   UNL A   1      41.699  31.542  36.852  1.00  0.00     0.031 C 
ATOM     60  C   UNL A   1      43.401  27.663  32.503  1.00  0.00     0.029 A 
ATOM     61  C   UNL A   1      42.732  28.655  33.204  1.00  0.00     0.049 A 
ATOM     62  H   UNL A   1      41.009  29.739  32.651  1.00  0.00     0.167 HD
ATOM     63  C   UNL A   1      42.318  30.157  35.132  1.00  0.00     0.074 A 
ATOM     64  C   UNL A   1      42.610  30.663  36.457  1.00  0.00     0.031 C 
ATOM     65  C   UNL A   1      43.038  29.195  34.504  1.00  0.00     0.034 A 
BRANCH  52  66
ATOM     66  C   UNL A   1      40.787  27.563  28.977  1.00  0.00     0.023 A 
ATOM     67  C   UNL A   1      39.918  26.457  28.863  1.00  0.00     0.012 A 
ATOM     68  C   UNL A   1      41.706  27.825  27.942  1.00  0.00     0.148 A 
ATOM     69  C   UNL A   1      39.994  25.600  27.766  1.00  0.00     0.002 A 
ATOM     70  C   UNL A   1      41.742  26.994  26.827  1.00  0.00     0.091 A 
ATOM     71  F   UNL A   1      42.539  28.867  28.073  1.00  0.00    -0.205 F 
ATOM     72  C   UNL A   1      40.899  25.874  26.745  1.00  0.00     0.022 A 
BRANCH  70  73
ATOM     73  S   UNL A   1      42.813  27.309  25.420  1.00  0.00     0.127 S 
ATOM     74  O   UNL A   1      42.699  26.054  24.677  1.00  0.00    -0.237 OA
ATOM     75  O   UNL A   1      42.159  28.453  24.785  1.00  0.00    -0.237 OA
ATOM     76  O   UNL A   1      44.131  27.590  25.972  1.00  0.00    -0.744 OA
ENDBRANCH  70  73
ENDBRANCH  52  66
BRANCH  53  77
ATOM     77  C   UNL A   1      39.504  33.495  36.911  1.00  0.00     0.023 A 
ATOM     78  C   UNL A   1      39.964  34.827  36.933  1.00  0.00     0.012 A 
ATOM     79  C   UNL A   1      38.795  32.995  38.020  1.00  0.00     0.148 A 
ATOM     80  C   UNL A   1      39.749  35.634  38.049  1.00  0.00     0.002 A 
ATOM     81  C   UNL A   1      38.534  33.822  39.105  1.00  0.00     0.091 A 
ATOM     82  F   UNL A   1      38.373  31.723  37.980  1.00  0.00    -0.205 F 
ATOM     83  C   UNL A   1      39.025  35.137  39.130  1.00  0.00     0.022 A 
BRANCH  81  84
ATOM     84  S   UNL A   1      37.496  33.312  40.478  1.00  0.00     0.127 S 
ATOM     85  O   UNL A   1      38.215  32.141  40.977  1.00  0.00    -0.237 OA
ATOM     86  O   UNL A   1      37.552  34.487  41.348  1.00  0.00    -0.237 OA
ATOM     87  O   UNL A   1      36.183  33.049  39.906  1.00  0.00    -0.744 OA
ENDBRANCH  81  84
ENDBRANCH  53  77
BRANCH  65  88
ATOM     88  C   UNL A   1      44.244  28.645  35.222  1.00  0.00     0.023 A 
ATOM     89  C   UNL A   1      45.516  29.208  34.999  1.00  0.00     0.012 A 
ATOM     90  C   UNL A   1      44.102  27.614  36.172  1.00  0.00     0.148 A 
ATOM     91  C   UNL A   1      46.632  28.730  35.685  1.00  0.00     0.002 A 
ATOM     92  C   UNL A   1      45.209  27.180  36.891  1.00  0.00     0.091 A 
ATOM     93  F   UNL A   1      42.886  27.079  36.357  1.00  0.00    -0.205 F 
ATOM     94  C   UNL A   1      46.477  27.727  36.638  1.00  0.00     0.022 A 
BRANCH  92  95
ATOM     95  S   UNL A   1      45.089  25.964  38.206  1.00  0.00     0.127 S 
ATOM     96  O   UNL A   1      44.068  26.558  39.068  1.00  0.00    -0.237 OA
ATOM     97  O   UNL A   1      44.655  24.768  37.483  1.00  0.00    -0.237 OA
ATOM     98  O   UNL A   1      46.420  25.868  38.790  1.00  0.00    -0.744 OA
ENDBRANCH  92  95
ENDBRANCH  65  88
ENDBRANCH  39  40
ENDBRANCH  31  34
ENDBRANCH  29  30
ENDBRANCH  28  29
ENDBRANCH  27  28
ENDBRANCH   1  27
TORSDOF 21
ENDMDL
MODEL 2
REMARK VINA RESULT:     -10.0      1.726      7.812
REMARK SMILES CCNC(=O)NC(=O)[C@@H](C)[NH2+][C@](C)(CC)C(=O)NCCCCCCNC(=O)c1ccc(-c2c3nc(c(-c4cccc(S(=O)(=O)[O-])c4F)c4ccc([nH]4)c(-c4cccc(S(=O)(=O)[O-])c4F)c4nc(c(-c5cccc(S(=O)(=O)[O-])c5F)c5ccc2[nH]5)C=C4)C=C3)cc1
REMARK SMILES IDX 21 1 20 2 19 3 18 4 16 5 17 6 12 8 13 9 11 10 9 13 10 14
REMARK SMILES IDX 7 15 3 16 4 17 5 19 6 20 8 22 2 23 1 24 14 25 15 26 22 27
REMARK SMILES IDX 23 28 24 29 25 30 26 31 27 33 28 34 29 35 90 36 30 37 89 38
REMARK SMILES IDX 31 39 32 40 33 41 83 42 34 43 88 44 82 45 84 46 35 47 87 48
REMARK SMILES IDX 81 49 80 50 36 52 68 53 48 54 67 55 49 56 52 57 66 58 85 59
REMARK SMILES IDX 50 60 51 61 65 63 86 64 53 65 37 66 38 67 46 68 39 69 41 70
REMARK SMILES IDX 47 71 40 72 42 73 43 74 44 75 45 76 69 77 70 78 78 79 71 80
REMARK SMILES IDX 73 81 79 82 72 83 74 84 75 85 76 86 77 87 54 88 55 89 63 90
REMARK SMILES IDX 56 91 58 92 64 93 57 94 59 95 60 96 61 97 62 98
REMARK H PARENT 18 7 11 11 11 12 3 18 6 21 25 32 84 51 52 62
REMARK Flexibility Score: inf
ROOT
ATOM      1  C   UNL A   1      31.748  29.265  26.878  1.00  0.00     0.002 C 
ENDROOT
BRANCH   1   2
ATOM      2  C   UNL A   1      33.175  28.751  26.643  1.00  0.00     0.021 C 
BRANCH   2   3
ATOM      3  C   UNL A   1      33.386  28.187  25.241  1.00  0.00     0.116 C 
BRANCH   3   4
ATOM      4  N   UNL A   1      34.067  26.907  25.326  1.00  0.00    -0.351 N 
ATOM      5  C   UNL A   1      33.584  25.629  25.408  1.00  0.00     0.281 C 
ATOM      6  O   UNL A   1      34.385  24.758  25.761  1.00  0.00    -0.268 OA
ATOM      7  H   UNL A   1      35.048  26.969  25.326  1.00  0.00     0.163 HD
BRANCH   5   8
ATOM      8  C   UNL A   1      32.119  25.291  24.921  1.00  0.00     0.173 C 
ATOM      9  C   UNL A   1      31.187  25.570  26.123  1.00  0.00     0.090 C 
BRANCH   8  10
ATOM     10  N   UNL A   1      32.198  23.836  24.647  1.00  0.00    -0.324 N 
ATOM     11  H   UNL A   1      33.060  23.521  25.092  1.00  0.00     0.347 HD
ATOM     12  H   UNL A   1      31.282  23.535  24.981  1.00  0.00     0.347 HD
BRANCH  10  13
ATOM     13  C   UNL A   1      32.205  23.237  23.317  1.00  0.00     0.270 C 
ATOM     14  C   UNL A   1      31.901  21.750  23.138  1.00  0.00     0.086 C 
BRANCH  13  15
ATOM     15  C   UNL A   1      33.591  23.484  22.683  1.00  0.00     0.285 C 
ATOM     16  N   UNL A   1      35.179  21.537  25.070  1.00  0.00    -0.338 N 
ATOM     17  C   UNL A   1      35.590  22.319  24.072  1.00  0.00     0.321 C 
ATOM     18  H   UNL A   1      35.925  21.097  25.541  1.00  0.00     0.165 HD
ATOM     19  O   UNL A   1      36.816  22.407  23.923  1.00  0.00    -0.248 OA
ATOM     20  N   UNL A   1      34.815  23.025  23.183  1.00  0.00    -0.273 N 
ATOM     21  H   UNL A   1      35.475  23.419  22.566  1.00  0.00     0.175 HD
ATOM     22  O   UNL A   1      33.653  24.125  21.623  1.00  0.00    -0.268 OA
BRANCH  16  23
ATOM     23  C   UNL A   1      33.899  21.191  25.612  1.00  0.00     0.114 C 
ATOM     24  C   UNL A   1      33.722  21.547  27.073  1.00  0.00     0.027 C 
ENDBRANCH  16  23
ENDBRANCH  13  15
ENDBRANCH  10  13
ENDBRANCH   8  10
BRANCH   8  25
ATOM     25  C   UNL A   1      31.661  26.186  23.741  1.00  0.00     0.075 C 
ATOM     26  C   UNL A   1      30.371  26.965  24.017  1.00  0.00     0.011 C 
ENDBRANCH   8  25
ENDBRANCH   5   8
ENDBRANCH   3   4
ENDBRANCH   2   3
ENDBRANCH   1   2
BRANCH   1  27
ATOM     27  C   UNL A   1      31.288  30.351  25.900  1.00  0.00     0.002 C 
BRANCH  27  28
ATOM     28  C   UNL A   1      31.371  31.778  26.444  1.00  0.00     0.021 C 
BRANCH  28  29
ATOM     29  C   UNL A   1      32.766  32.198  26.890  1.00  0.00     0.116 C 
BRANCH  29  30
ATOM     30  N   UNL A   1      32.787  33.564  27.387  1.00  0.00    -0.352 N 
ATOM     31  C   UNL A   1      33.581  34.112  28.366  1.00  0.00     0.251 C 
ATOM     32  H   UNL A   1      32.144  34.180  26.967  1.00  0.00     0.163 HD
ATOM     33  O   UNL A   1      33.332  35.224  28.812  1.00  0.00    -0.269 OA
BRANCH  31  34
ATOM     34  C   UNL A   1      34.729  33.337  28.882  1.00  0.00     0.039 A 
ATOM     35  C   UNL A   1      36.018  33.853  28.730  1.00  0.00     0.014 A 
ATOM     36  C   UNL A   1      34.531  32.111  29.525  1.00  0.00     0.014 A 
ATOM     37  C   UNL A   1      37.104  33.161  29.267  1.00  0.00     0.010 A 
ATOM     38  C   UNL A   1      35.604  31.466  30.130  1.00  0.00     0.010 A 
ATOM     39  C   UNL A   1      36.904  31.977  29.998  1.00  0.00    -0.014 A 
BRANCH  39  40
ATOM     40  C   UNL A   1      38.041  31.265  30.633  1.00  0.00     0.031 A 
ATOM     41  C   UNL A   1      38.437  31.581  32.051  1.00  0.00     0.074 A 
ATOM     42  C   UNL A   1      38.767  30.392  29.910  1.00  0.00     0.049 A 
ATOM     43  N   UNL A   1      39.428  31.100  32.756  1.00  0.00    -0.248 NA
ATOM     44  C   UNL A   1      37.633  32.590  32.759  1.00  0.00     0.031 C 
ATOM     45  C   UNL A   1      38.535  30.063  28.502  1.00  0.00     0.029 A 
ATOM     46  N   UNL A   1      39.866  29.642  30.248  1.00  0.00    -0.354 N 
ATOM     47  C   UNL A   1      39.386  31.765  33.974  1.00  0.00     0.074 A 
ATOM     48  C   UNL A   1      38.298  32.717  33.897  1.00  0.00     0.031 C 
ATOM     49  C   UNL A   1      39.460  29.177  28.099  1.00  0.00     0.029 A 
ATOM     50  C   UNL A   1      40.370  28.901  29.205  1.00  0.00     0.049 A 
ATOM     51  H   UNL A   1      40.256  29.636  31.152  1.00  0.00     0.167 HD
ATOM     52  C   UNL A   1      40.160  31.583  35.071  1.00  0.00     0.034 A 
ATOM     53  C   UNL A   1      41.451  28.099  29.142  1.00  0.00     0.034 A 
ATOM     54  C   UNL A   1      41.223  30.618  35.151  1.00  0.00     0.049 A 
ATOM     55  C   UNL A   1      42.280  27.891  30.379  1.00  0.00     0.074 A 
ATOM     56  C   UNL A   1      42.014  30.299  36.241  1.00  0.00     0.029 A 
ATOM     57  N   UNL A   1      41.654  29.825  34.099  1.00  0.00    -0.354 N 
ATOM     58  N   UNL A   1      42.130  28.416  31.571  1.00  0.00    -0.248 NA
ATOM     59  C   UNL A   1      43.405  26.951  30.274  1.00  0.00     0.031 C 
ATOM     60  C   UNL A   1      42.947  29.338  35.837  1.00  0.00     0.029 A 
ATOM     61  C   UNL A   1      42.710  29.027  34.507  1.00  0.00     0.049 A 
ATOM     62  H   UNL A   1      41.267  29.829  33.194  1.00  0.00     0.167 HD
ATOM     63  C   UNL A   1      43.119  27.847  32.366  1.00  0.00     0.074 A 
ATOM     64  C   UNL A   1      43.847  26.921  31.524  1.00  0.00     0.031 C 
ATOM     65  C   UNL A   1      43.402  28.078  33.672  1.00  0.00     0.034 A 
BRANCH  52  66
ATOM     66  C   UNL A   1      39.852  32.420  36.287  1.00  0.00     0.023 A 
ATOM     67  C   UNL A   1      40.584  33.603  36.524  1.00  0.00     0.012 A 
ATOM     68  C   UNL A   1      38.818  32.062  37.174  1.00  0.00     0.148 A 
ATOM     69  C   UNL A   1      40.326  34.389  37.646  1.00  0.00     0.002 A 
ATOM     70  C   UNL A   1      38.533  32.877  38.263  1.00  0.00     0.091 A 
ATOM     71  F   UNL A   1      38.145  30.925  36.947  1.00  0.00    -0.205 F 
ATOM     72  C   UNL A   1      39.294  34.031  38.509  1.00  0.00     0.022 A 
BRANCH  70  73
ATOM     73  S   UNL A   1      37.171  32.549  39.388  1.00  0.00     0.127 S 
ATOM     74  O   UNL A   1      37.320  33.636  40.356  1.00  0.00    -0.237 OA
ATOM     75  O   UNL A   1      36.009  32.672  38.508  1.00  0.00    -0.237 OA
ATOM     76  O   UNL A   1      37.397  31.210  39.913  1.00  0.00    -0.744 OA
ENDBRANCH  70  73
ENDBRANCH  52  66
BRANCH  53  77
ATOM     77  C   UNL A   1      41.776  27.398  27.869  1.00  0.00     0.023 A 
ATOM     78  C   UNL A   1      42.296  28.129  26.783  1.00  0.00     0.012 A 
ATOM     79  C   UNL A   1      41.610  26.005  27.743  1.00  0.00     0.148 A 
ATOM     80  C   UNL A   1      42.618  27.490  25.586  1.00  0.00     0.002 A 
ATOM     81  C   UNL A   1      41.987  25.366  26.569  1.00  0.00     0.091 A 
ATOM     82  F   UNL A   1      41.107  25.331  28.788  1.00  0.00    -0.205 F 
ATOM     83  C   UNL A   1      42.475  26.108  25.482  1.00  0.00     0.022 A 
BRANCH  81  84
ATOM     84  S   UNL A   1      41.965  23.579  26.394  1.00  0.00     0.127 S 
ATOM     85  O   UNL A   1      40.532  23.295  26.412  1.00  0.00    -0.237 OA
ATOM     86  O   UNL A   1      42.614  23.398  25.095  1.00  0.00    -0.237 OA
ATOM     87  O   UNL A   1      42.725  23.062  27.522  1.00  0.00    -0.744 OA
ENDBRANCH  81  84
ENDBRANCH  53  77
BRANCH  65  88
ATOM     88  C   UNL A   1      44.527  27.291  34.293  1.00  0.00     0.023 A 
ATOM     89  C   UNL A   1      45.843  27.790  34.251  1.00  0.00     0.012 A 
ATOM     90  C   UNL A   1      44.264  26.090  34.981  1.00  0.00     0.148 A 
ATOM     91  C   UNL A   1      46.887  27.087  34.854  1.00  0.00     0.002 A 
ATOM     92  C   UNL A   1      45.300  25.423  35.625  1.00  0.00     0.091 A 
ATOM     93  F   UNL A   1      43.008  25.623  34.994  1.00  0.00    -0.205 F 
ATOM     94  C   UNL A   1      46.613  25.913  35.550  1.00  0.00     0.022 A 
BRANCH  92  95
ATOM     95  S   UNL A   1      45.026  23.959  36.627  1.00  0.00     0.127 S 
ATOM     96  O   UNL A   1      46.390  23.615  37.030  1.00  0.00    -0.237 OA
ATOM     97  O   UNL A   1      44.185  24.475  37.707  1.00  0.00    -0.237 OA
ATOM     98  O   UNL A   1      44.370  22.991  35.759  1.00  0.00    -0.744 OA
ENDBRANCH  92  95
ENDBRANCH  65  88
ENDBRANCH  39  40
ENDBRANCH  31  34
ENDBRANCH  29  30
ENDBRANCH  28  29
ENDBRANCH  27  28
ENDBRANCH   1  27
TORSDOF 21
ENDMDL
MODEL 3
REMARK VINA RESULT:      -9.9      2.238      7.681
REMARK SMILES CCNC(=O)NC(=O)[C@@H](C)[NH2+][C@](C)(CC)C(=O)NCCCCCCNC(=O)c1ccc(-c2c3nc(c(-c4cccc(S(=O)(=O)[O-])c4F)c4ccc([nH]4)c(-c4cccc(S(=O)(=O)[O-])c4F)c4nc(c(-c5cccc(S(=O)(=O)[O-])c5F)c5ccc2[nH]5)C=C4)C=C3)cc1
REMARK SMILES IDX 21 1 20 2 19 3 18 4 16 5 17 6 12 8 13 9 11 10 9 13 10 14
REMARK SMILES IDX 7 15 3 16 4 17 5 19 6 20 8 22 2 23 1 24 14 25 15 26 22 27
REMARK SMILES IDX 23 28 24 29 25 30 26 31 27 33 28 34 29 35 90 36 30 37 89 38
REMARK SMILES IDX 31 39 32 40 33 41 83 42 34 43 88 44 82 45 84 46 35 47 87 48
REMARK SMILES IDX 81 49 80 50 36 52 68 53 48 54 67 55 49 56 52 57 66 58 85 59
REMARK SMILES IDX 50 60 51 61 65 63 86 64 53 65 37 66 38 67 46 68 39 69 41 70
REMARK SMILES IDX 47 71 40 72 42 73 43 74 44 75 45 76 69 77 70 78 78 79 71 80
REMARK SMILES IDX 73 81 79 82 72 83 74 84 75 85 76 86 77 87 54 88 55 89 63 90
REMARK SMILES IDX 56 91 58 92 64 93 57 94 59 95 60 96 61 97 62 98
REMARK H PARENT 18 7 11 11 11 12 3 18 6 21 25 32 84 51 52 62
REMARK Flexibility Score: inf
ROOT
ATOM      1  C   UNL A   1      31.383  29.251  26.567  1.00  0.00     0.002 C 
ENDROOT
BRANCH   1   2
ATOM      2  C   UNL A   1      32.594  28.559  27.206  1.00  0.00     0.021 C 
BRANCH   2   3
ATOM      3  C   UNL A   1      32.897  27.194  26.595  1.00  0.00     0.116 C 
BRANCH   3   4
ATOM      4  N   UNL A   1      31.829  26.264  26.920  1.00  0.00    -0.351 N 
ATOM      5  C   UNL A   1      31.283  25.230  26.211  1.00  0.00     0.281 C 
ATOM      6  O   UNL A   1      30.198  24.797  26.612  1.00  0.00    -0.268 OA
ATOM      7  H   UNL A   1      31.428  26.403  27.807  1.00  0.00     0.163 HD
BRANCH   5   8
ATOM      8  C   UNL A   1      32.092  24.542  25.040  1.00  0.00     0.173 C 
ATOM      9  C   UNL A   1      31.312  23.260  24.669  1.00  0.00     0.090 C 
BRANCH   8  10
ATOM     10  N   UNL A   1      33.379  24.202  25.693  1.00  0.00    -0.324 N 
ATOM     11  H   UNL A   1      34.103  24.496  25.038  1.00  0.00     0.347 HD
ATOM     12  H   UNL A   1      33.254  24.659  26.596  1.00  0.00     0.347 HD
BRANCH  10  13
ATOM     13  C   UNL A   1      33.765  22.863  26.125  1.00  0.00     0.270 C 
ATOM     14  C   UNL A   1      33.497  22.407  27.558  1.00  0.00     0.086 C 
BRANCH  13  15
ATOM     15  C   UNL A   1      35.281  22.697  25.885  1.00  0.00     0.285 C 
ATOM     16  N   UNL A   1      34.895  19.409  24.861  1.00  0.00    -0.338 N 
ATOM     17  C   UNL A   1      35.940  20.200  25.099  1.00  0.00     0.321 C 
ATOM     18  H   UNL A   1      35.159  18.514  24.544  1.00  0.00     0.165 HD
ATOM     19  O   UNL A   1      37.055  19.688  24.935  1.00  0.00    -0.248 OA
ATOM     20  N   UNL A   1      35.925  21.517  25.491  1.00  0.00    -0.273 N 
ATOM     21  H   UNL A   1      36.878  21.765  25.497  1.00  0.00     0.175 HD
ATOM     22  O   UNL A   1      36.016  23.687  26.023  1.00  0.00    -0.268 OA
BRANCH  16  23
ATOM     23  C   UNL A   1      33.474  19.564  24.959  1.00  0.00     0.114 C 
ATOM     24  C   UNL A   1      32.761  18.402  25.619  1.00  0.00     0.027 C 
ENDBRANCH  16  23
ENDBRANCH  13  15
ENDBRANCH  10  13
ENDBRANCH   8  10
BRANCH   8  25
ATOM     25  C   UNL A   1      32.181  25.433  23.774  1.00  0.00     0.075 C 
ATOM     26  C   UNL A   1      30.841  26.045  23.350  1.00  0.00     0.011 C 
ENDBRANCH   8  25
ENDBRANCH   5   8
ENDBRANCH   3   4
ENDBRANCH   2   3
ENDBRANCH   1   2
BRANCH   1  27
ATOM     27  C   UNL A   1      31.714  30.522  25.778  1.00  0.00     0.002 C 
BRANCH  27  28
ATOM     28  C   UNL A   1      31.510  31.826  26.551  1.00  0.00     0.021 C 
BRANCH  28  29
ATOM     29  C   UNL A   1      32.748  32.316  27.290  1.00  0.00     0.116 C 
BRANCH  29  30
ATOM     30  N   UNL A   1      32.645  33.722  27.645  1.00  0.00    -0.352 N 
ATOM     31  C   UNL A   1      33.339  34.421  28.604  1.00  0.00     0.251 C 
ATOM     32  H   UNL A   1      31.989  34.245  27.130  1.00  0.00     0.163 HD
ATOM     33  O   UNL A   1      32.988  35.550  28.920  1.00  0.00    -0.269 OA
BRANCH  31  34
ATOM     34  C   UNL A   1      34.504  33.788  29.258  1.00  0.00     0.039 A 
ATOM     35  C   UNL A   1      34.285  32.876  30.294  1.00  0.00     0.014 A 
ATOM     36  C   UNL A   1      35.805  34.086  28.842  1.00  0.00     0.014 A 
ATOM     37  C   UNL A   1      35.373  32.226  30.878  1.00  0.00     0.010 A 
ATOM     38  C   UNL A   1      36.878  33.377  29.370  1.00  0.00     0.010 A 
ATOM     39  C   UNL A   1      36.676  32.448  30.401  1.00  0.00    -0.014 A 
BRANCH  39  40
ATOM     40  C   UNL A   1      37.836  31.714  30.966  1.00  0.00     0.031 A 
ATOM     41  C   UNL A   1      38.388  32.089  32.315  1.00  0.00     0.074 A 
ATOM     42  C   UNL A   1      38.444  30.763  30.231  1.00  0.00     0.049 A 
ATOM     43  N   UNL A   1      39.421  31.598  32.949  1.00  0.00    -0.248 NA
ATOM     44  C   UNL A   1      37.708  33.179  33.034  1.00  0.00     0.031 C 
ATOM     45  C   UNL A   1      38.057  30.366  28.876  1.00  0.00     0.029 A 
ATOM     46  N   UNL A   1      39.535  29.977  30.508  1.00  0.00    -0.354 N 
ATOM     47  C   UNL A   1      39.533  32.334  34.122  1.00  0.00     0.074 A 
ATOM     48  C   UNL A   1      38.489  33.336  34.091  1.00  0.00     0.031 C 
ATOM     49  C   UNL A   1      38.893  29.411  28.442  1.00  0.00     0.029 A 
ATOM     50  C   UNL A   1      39.896  29.151  29.469  1.00  0.00     0.049 A 
ATOM     51  H   UNL A   1      40.013  30.002  31.368  1.00  0.00     0.167 HD
ATOM     52  C   UNL A   1      40.404  32.174  35.147  1.00  0.00     0.034 A 
ATOM     53  C   UNL A   1      40.926  28.290  29.352  1.00  0.00     0.034 A 
ATOM     54  C   UNL A   1      41.423  31.161  35.184  1.00  0.00     0.049 A 
ATOM     55  C   UNL A   1      41.865  28.110  30.512  1.00  0.00     0.074 A 
ATOM     56  C   UNL A   1      42.304  30.864  36.209  1.00  0.00     0.029 A 
ATOM     57  N   UNL A   1      41.708  30.287  34.146  1.00  0.00    -0.354 N 
ATOM     58  N   UNL A   1      41.860  28.710  31.677  1.00  0.00    -0.248 NA
ATOM     59  C   UNL A   1      42.928  27.108  30.357  1.00  0.00     0.031 C 
ATOM     60  C   UNL A   1      43.145  29.833  35.777  1.00  0.00     0.029 A 
ATOM     61  C   UNL A   1      42.761  29.458  34.499  1.00  0.00     0.049 A 
ATOM     62  H   UNL A   1      41.233  30.259  33.285  1.00  0.00     0.167 HD
ATOM     63  C   UNL A   1      42.896  28.136  32.407  1.00  0.00     0.074 A 
ATOM     64  C   UNL A   1      43.492  27.126  31.557  1.00  0.00     0.031 C 
ATOM     65  C   UNL A   1      43.320  28.428  33.661  1.00  0.00     0.034 A 
BRANCH  52  66
ATOM     66  C   UNL A   1      40.260  33.096  36.332  1.00  0.00     0.023 A 
ATOM     67  C   UNL A   1      39.242  32.861  37.280  1.00  0.00     0.012 A 
ATOM     68  C   UNL A   1      41.151  34.169  36.531  1.00  0.00     0.148 A 
ATOM     69  C   UNL A   1      39.082  33.704  38.379  1.00  0.00     0.002 A 
ATOM     70  C   UNL A   1      41.016  34.975  37.656  1.00  0.00     0.091 A 
ATOM     71  F   UNL A   1      42.101  34.392  35.612  1.00  0.00    -0.205 F 
ATOM     72  C   UNL A   1      39.974  34.754  38.572  1.00  0.00     0.022 A 
BRANCH  70  73
ATOM     73  S   UNL A   1      42.164  36.303  38.039  1.00  0.00     0.127 S 
ATOM     74  O   UNL A   1      41.417  37.057  39.046  1.00  0.00    -0.237 OA
ATOM     75  O   UNL A   1      43.319  35.570  38.560  1.00  0.00    -0.237 OA
ATOM     76  O   UNL A   1      42.403  37.003  36.784  1.00  0.00    -0.744 OA
ENDBRANCH  70  73
ENDBRANCH  52  66
BRANCH  53  77
ATOM     77  C   UNL A   1      41.088  27.500  28.099  1.00  0.00     0.023 A 
ATOM     78  C   UNL A   1      41.618  28.117  26.949  1.00  0.00     0.012 A 
ATOM     79  C   UNL A   1      40.758  26.132  28.055  1.00  0.00     0.148 A 
ATOM     80  C   UNL A   1      41.789  27.392  25.770  1.00  0.00     0.002 A 
ATOM     81  C   UNL A   1      40.984  25.402  26.894  1.00  0.00     0.091 A 
ATOM     82  F   UNL A   1      40.248  25.568  29.159  1.00  0.00    -0.205 F 
ATOM     83  C   UNL A   1      41.483  26.034  25.745  1.00  0.00     0.022 A 
BRANCH  81  84
ATOM     84  S   UNL A   1      40.748  23.624  26.813  1.00  0.00     0.127 S 
ATOM     85  O   UNL A   1      41.578  23.265  25.665  1.00  0.00    -0.237 OA
ATOM     86  O   UNL A   1      41.269  23.194  28.110  1.00  0.00    -0.237 OA
ATOM     87  O   UNL A   1      39.316  23.423  26.643  1.00  0.00    -0.744 OA
ENDBRANCH  81  84
ENDBRANCH  53  77
BRANCH  65  88
ATOM     88  C   UNL A   1      44.463  27.619  34.218  1.00  0.00     0.023 A 
ATOM     89  C   UNL A   1      45.777  28.125  34.164  1.00  0.00     0.012 A 
ATOM     90  C   UNL A   1      44.223  26.388  34.859  1.00  0.00     0.148 A 
ATOM     91  C   UNL A   1      46.838  27.401  34.708  1.00  0.00     0.002 A 
ATOM     92  C   UNL A   1      45.276  25.698  35.446  1.00  0.00     0.091 A 
ATOM     93  F   UNL A   1      42.968  25.915  34.885  1.00  0.00    -0.205 F 
ATOM     94  C   UNL A   1      46.586  26.197  35.359  1.00  0.00     0.022 A 
BRANCH  92  95
ATOM     95  S   UNL A   1      45.034  24.190  36.391  1.00  0.00     0.127 S 
ATOM     96  O   UNL A   1      46.404  23.695  36.518  1.00  0.00    -0.237 OA
ATOM     97  O   UNL A   1      44.451  24.694  37.634  1.00  0.00    -0.237 OA
ATOM     98  O   UNL A   1      44.142  23.356  35.597  1.00  0.00    -0.744 OA
ENDBRANCH  92  95
ENDBRANCH  65  88
ENDBRANCH  39  40
ENDBRANCH  31  34
ENDBRANCH  29  30
ENDBRANCH  28  29
ENDBRANCH  27  28
ENDBRANCH   1  27
TORSDOF 21
ENDMDL
