MODEL 1
REMARK VINA RESULT:     -10.9      0.000      0.000
REMARK SMILES COc1cc(/C=C2\SC(=S)N(CC(=O)NCCCCCCNC(=O)c3ccc(-c4c5nc(c(-c6cccc(S(=O)(=O)[O-])c6F)c6ccc([nH]6)c(-c6cccc(S(=O)(=O)[O-])c6F)c6nc(c(-c7cccc(S(=O)(=O)[O-])c7F)c7ccc4[nH]7)C=C6)C=C5)cc3)C2=O)cc2c1OCO2
REMARK SMILES IDX 18 1 17 2 16 3 15 4 13 5 14 6 12 8 11 9 6 10 7 11 8 12 88 13
REMARK SMILES IDX 9 14 89 15 10 16 5 17 3 18 4 19 92 20 91 21 93 22 90 23
REMARK SMILES IDX 95 24 94 25 2 26 1 27 19 28 20 29 21 30 22 31 23 32 24 34
REMARK SMILES IDX 25 35 26 36 87 37 27 38 86 39 28 40 29 41 30 42 80 43 31 44
REMARK SMILES IDX 85 45 79 46 81 47 32 48 84 49 78 50 77 51 33 53 65 54 45 55
REMARK SMILES IDX 64 56 46 57 49 58 63 59 82 60 47 61 48 62 62 64 83 65 50 66
REMARK SMILES IDX 34 67 35 68 43 69 36 70 38 71 44 72 37 73 39 74 40 75 41 76
REMARK SMILES IDX 42 77 66 78 67 79 75 80 68 81 70 82 76 83 69 84 71 85 72 86
REMARK SMILES IDX 73 87 74 88 51 89 52 90 60 91 53 92 55 93 61 94 54 95 56 96
REMARK SMILES IDX 57 97 58 98 59 99
REMARK H PARENT 15 7 22 33 81 52 49 63
REMARK Flexibility Score: inf
ROOT
ATOM      1  C   UNL A   1      34.892  32.050  28.735  1.00  0.00     0.002 C 
ENDROOT
BRANCH   1   2
ATOM      2  C   UNL A   1      35.050  30.736  27.957  1.00  0.00     0.021 C 
BRANCH   2   3
ATOM      3  C   UNL A   1      33.914  30.463  26.974  1.00  0.00     0.116 C 
BRANCH   3   4
ATOM      4  N   UNL A   1      32.794  29.814  27.623  1.00  0.00    -0.355 N 
ATOM      5  C   UNL A   1      31.879  28.929  27.139  1.00  0.00     0.240 C 
ATOM      6  O   UNL A   1      31.151  28.369  27.965  1.00  0.00    -0.273 OA
ATOM      7  H   UNL A   1      32.674  30.052  28.570  1.00  0.00     0.163 HD
BRANCH   5   8
ATOM      8  C   UNL A   1      31.870  28.486  25.671  1.00  0.00     0.227 C 
BRANCH   8   9
ATOM      9  N   UNL A   1      31.963  27.045  25.449  1.00  0.00    -0.283 N 
ATOM     10  C   UNL A   1      34.043  24.112  25.853  1.00  0.00     0.029 C 
ATOM     11  C   UNL A   1      33.049  24.956  25.543  1.00  0.00     0.081 C 
ATOM     12  S   UNL A   1      31.589  24.612  24.708  1.00  0.00    -0.054 SA
ATOM     13  C   UNL A   1      33.100  26.397  25.905  1.00  0.00     0.266 C 
ATOM     14  C   UNL A   1      31.102  26.299  24.672  1.00  0.00     0.148 C 
ATOM     15  O   UNL A   1      34.035  26.915  26.490  1.00  0.00    -0.268 OA
ATOM     16  S   UNL A   1      29.796  26.819  23.774  1.00  0.00    -0.052 S 
BRANCH  10  17
ATOM     17  C   UNL A   1      34.081  22.684  25.516  1.00  0.00    -0.017 A 
ATOM     18  C   UNL A   1      35.411  20.701  24.962  1.00  0.00     0.165 A 
ATOM     19  C   UNL A   1      35.324  22.067  25.272  1.00  0.00     0.058 A 
ATOM     20  C   UNL A   1      34.236  19.971  24.945  1.00  0.00     0.207 A 
ATOM     21  C   UNL A   1      33.020  20.581  25.169  1.00  0.00     0.170 A 
ATOM     22  O   UNL A   1      34.087  18.633  24.746  1.00  0.00    -0.450 OA
ATOM     23  C   UNL A   1      32.905  21.930  25.427  1.00  0.00     0.059 A 
ATOM     24  O   UNL A   1      31.976  19.709  25.128  1.00  0.00    -0.453 OA
ATOM     25  C   UNL A   1      32.679  18.460  24.997  1.00  0.00     0.468 C 
BRANCH  18  26
ATOM     26  O   UNL A   1      36.677  20.232  24.763  1.00  0.00    -0.493 OA
ATOM     27  C   UNL A   1      37.713  21.202  24.881  1.00  0.00     0.278 C 
ENDBRANCH  18  26
ENDBRANCH  10  17
ENDBRANCH   8   9
ENDBRANCH   5   8
ENDBRANCH   3   4
ENDBRANCH   2   3
ENDBRANCH   1   2
BRANCH   1  28
ATOM     28  C   UNL A   1      35.295  33.314  27.966  1.00  0.00     0.002 C 
BRANCH  28  29
ATOM     29  C   UNL A   1      34.473  34.563  28.295  1.00  0.00     0.021 C 
BRANCH  29  30
ATOM     30  C   UNL A   1      33.166  34.287  29.031  1.00  0.00     0.116 C 
BRANCH  30  31
ATOM     31  N   UNL A   1      32.950  35.223  30.125  1.00  0.00    -0.352 N 
ATOM     32  C   UNL A   1      33.532  35.256  31.368  1.00  0.00     0.251 C 
ATOM     33  H   UNL A   1      32.294  35.935  29.947  1.00  0.00     0.163 HD
ATOM     34  O   UNL A   1      33.077  35.995  32.237  1.00  0.00    -0.269 OA
BRANCH  32  35
ATOM     35  C   UNL A   1      34.695  34.391  31.660  1.00  0.00     0.039 A 
ATOM     36  C   UNL A   1      35.973  34.832  31.308  1.00  0.00     0.014 A 
ATOM     37  C   UNL A   1      34.525  33.146  32.273  1.00  0.00     0.014 A 
ATOM     38  C   UNL A   1      37.085  34.048  31.620  1.00  0.00     0.010 A 
ATOM     39  C   UNL A   1      35.640  32.403  32.652  1.00  0.00     0.010 A 
ATOM     40  C   UNL A   1      36.932  32.840  32.323  1.00  0.00    -0.014 A 
BRANCH  40  41
ATOM     41  C   UNL A   1      38.109  32.032  32.732  1.00  0.00     0.031 A 
ATOM     42  C   UNL A   1      38.838  32.342  34.013  1.00  0.00     0.074 A 
ATOM     43  C   UNL A   1      38.575  31.072  31.907  1.00  0.00     0.049 A 
ATOM     44  N   UNL A   1      39.910  31.780  34.507  1.00  0.00    -0.248 NA
ATOM     45  C   UNL A   1      38.311  33.445  34.835  1.00  0.00     0.031 C 
ATOM     46  C   UNL A   1      38.007  30.730  30.601  1.00  0.00     0.029 A 
ATOM     47  N   UNL A   1      39.652  30.229  32.030  1.00  0.00    -0.354 N 
ATOM     48  C   UNL A   1      40.211  32.485  35.666  1.00  0.00     0.074 A 
ATOM     49  C   UNL A   1      39.221  33.531  35.792  1.00  0.00     0.031 C 
ATOM     50  C   UNL A   1      38.739  29.752  30.044  1.00  0.00     0.029 A 
ATOM     51  C   UNL A   1      39.847  29.419  30.935  1.00  0.00     0.049 A 
ATOM     52  H   UNL A   1      40.230  30.205  32.826  1.00  0.00     0.167 HD
ATOM     53  C   UNL A   1      41.208  32.267  36.556  1.00  0.00     0.034 A 
ATOM     54  C   UNL A   1      40.816  28.522  30.668  1.00  0.00     0.034 A 
ATOM     55  C   UNL A   1      42.162  31.196  36.451  1.00  0.00     0.049 A 
ATOM     56  C   UNL A   1      41.886  28.273  31.698  1.00  0.00     0.074 A 
ATOM     57  C   UNL A   1      43.138  30.825  37.360  1.00  0.00     0.029 A 
ATOM     58  N   UNL A   1      42.274  30.337  35.370  1.00  0.00    -0.354 N 
ATOM     59  N   UNL A   1      42.045  28.829  32.875  1.00  0.00    -0.248 NA
ATOM     60  C   UNL A   1      42.890  27.247  31.380  1.00  0.00     0.031 C 
ATOM     61  C   UNL A   1      43.867  29.767  36.808  1.00  0.00     0.029 A 
ATOM     62  C   UNL A   1      43.317  29.451  35.577  1.00  0.00     0.049 A 
ATOM     63  H   UNL A   1      41.697  30.354  34.573  1.00  0.00     0.167 HD
ATOM     64  C   UNL A   1      43.137  28.194  33.451  1.00  0.00     0.074 A 
ATOM     65  C   UNL A   1      43.589  27.195  32.506  1.00  0.00     0.031 C 
ATOM     66  C   UNL A   1      43.724  28.425  34.652  1.00  0.00     0.034 A 
BRANCH  53  67
ATOM     67  C   UNL A   1      41.307  33.183  37.749  1.00  0.00     0.023 A 
ATOM     68  C   UNL A   1      40.565  32.901  38.913  1.00  0.00     0.012 A 
ATOM     69  C   UNL A   1      42.200  34.272  37.744  1.00  0.00     0.148 A 
ATOM     70  C   UNL A   1      40.687  33.708  40.044  1.00  0.00     0.002 A 
ATOM     71  C   UNL A   1      42.353  35.042  38.890  1.00  0.00     0.091 A 
ATOM     72  F   UNL A   1      42.883  34.535  36.620  1.00  0.00    -0.205 F 
ATOM     73  C   UNL A   1      41.590  34.768  40.037  1.00  0.00     0.022 A 
BRANCH  71  74
ATOM     74  S   UNL A   1      43.549  36.376  39.011  1.00  0.00     0.127 S 
ATOM     75  O   UNL A   1      43.421  36.761  40.416  1.00  0.00    -0.237 OA
ATOM     76  O   UNL A   1      44.802  35.696  38.679  1.00  0.00    -0.237 OA
ATOM     77  O   UNL A   1      43.130  37.384  38.048  1.00  0.00    -0.744 OA
ENDBRANCH  71  74
ENDBRANCH  53  67
BRANCH  54  78
ATOM     78  C   UNL A   1      40.803  27.758  29.387  1.00  0.00     0.023 A 
ATOM     79  C   UNL A   1      39.873  26.715  29.208  1.00  0.00     0.012 A 
ATOM     80  C   UNL A   1      41.705  28.059  28.348  1.00  0.00     0.148 A 
ATOM     81  C   UNL A   1      39.871  25.956  28.038  1.00  0.00     0.002 A 
ATOM     82  C   UNL A   1      41.658  27.338  27.161  1.00  0.00     0.091 A 
ATOM     83  F   UNL A   1      42.589  29.047  28.540  1.00  0.00    -0.205 F 
ATOM     84  C   UNL A   1      40.757  26.273  27.011  1.00  0.00     0.022 A 
BRANCH  82  85
ATOM     85  S   UNL A   1      42.669  27.764  25.739  1.00  0.00     0.127 S 
ATOM     86  O   UNL A   1      42.213  26.795  24.746  1.00  0.00    -0.237 OA
ATOM     87  O   UNL A   1      42.262  29.147  25.483  1.00  0.00    -0.237 OA
ATOM     88  O   UNL A   1      44.049  27.620  26.181  1.00  0.00    -0.744 OA
ENDBRANCH  82  85
ENDBRANCH  54  78
BRANCH  66  89
ATOM     89  C   UNL A   1      44.889  27.554  35.043  1.00  0.00     0.023 A 
ATOM     90  C   UNL A   1      46.208  27.987  34.802  1.00  0.00     0.012 A 
ATOM     91  C   UNL A   1      44.674  26.336  35.718  1.00  0.00     0.148 A 
ATOM     92  C   UNL A   1      47.293  27.203  35.194  1.00  0.00     0.002 A 
ATOM     93  C   UNL A   1      45.760  25.588  36.155  1.00  0.00     0.091 A 
ATOM     94  F   UNL A   1      43.411  25.933  35.924  1.00  0.00    -0.205 F 
ATOM     95  C   UNL A   1      47.070  26.013  35.881  1.00  0.00     0.022 A 
BRANCH  93  96
ATOM     96  S   UNL A   1      45.570  24.094  37.134  1.00  0.00     0.127 S 
ATOM     97  O   UNL A   1      44.800  24.583  38.276  1.00  0.00    -0.237 OA
ATOM     98  O   UNL A   1      44.825  23.222  36.224  1.00  0.00    -0.237 OA
ATOM     99  O   UNL A   1      46.919  23.637  37.439  1.00  0.00    -0.744 OA
ENDBRANCH  93  96
ENDBRANCH  66  89
ENDBRANCH  40  41
ENDBRANCH  32  35
ENDBRANCH  30  31
ENDBRANCH  29  30
ENDBRANCH  28  29
ENDBRANCH   1  28
TORSDOF 19
ENDMDL
MODEL 2
REMARK VINA RESULT:     -10.5      1.789      2.447
REMARK SMILES COc1cc(/C=C2\SC(=S)N(CC(=O)NCCCCCCNC(=O)c3ccc(-c4c5nc(c(-c6cccc(S(=O)(=O)[O-])c6F)c6ccc([nH]6)c(-c6cccc(S(=O)(=O)[O-])c6F)c6nc(c(-c7cccc(S(=O)(=O)[O-])c7F)c7ccc4[nH]7)C=C6)C=C5)cc3)C2=O)cc2c1OCO2
REMARK SMILES IDX 18 1 17 2 16 3 15 4 13 5 14 6 12 8 11 9 6 10 7 11 8 12 88 13
REMARK SMILES IDX 9 14 89 15 10 16 5 17 3 18 4 19 92 20 91 21 93 22 90 23
REMARK SMILES IDX 95 24 94 25 2 26 1 27 19 28 20 29 21 30 22 31 23 32 24 34
REMARK SMILES IDX 25 35 26 36 87 37 27 38 86 39 28 40 29 41 30 42 80 43 31 44
REMARK SMILES IDX 85 45 79 46 81 47 32 48 84 49 78 50 77 51 33 53 65 54 45 55
REMARK SMILES IDX 64 56 46 57 49 58 63 59 82 60 47 61 48 62 62 64 83 65 50 66
REMARK SMILES IDX 34 67 35 68 43 69 36 70 38 71 44 72 37 73 39 74 40 75 41 76
REMARK SMILES IDX 42 77 66 78 67 79 75 80 68 81 70 82 76 83 69 84 71 85 72 86
REMARK SMILES IDX 73 87 74 88 51 89 52 90 60 91 53 92 55 93 61 94 54 95 56 96
REMARK SMILES IDX 57 97 58 98 59 99
REMARK H PARENT 15 7 22 33 81 52 49 63
REMARK Flexibility Score: inf
ROOT
ATOM      1  C   UNL A   1      34.818  33.033  29.440  1.00  0.00     0.002 C 
ENDROOT
BRANCH   1   2
ATOM      2  C   UNL A   1      35.559  31.826  28.848  1.00  0.00     0.021 C 
BRANCH   2   3
ATOM      3  C   UNL A   1      34.942  31.300  27.554  1.00  0.00     0.116 C 
BRANCH   3   4
ATOM      4  N   UNL A   1      33.496  31.284  27.623  1.00  0.00    -0.355 N 
ATOM      5  C   UNL A   1      32.572  30.754  26.774  1.00  0.00     0.240 C 
ATOM      6  O   UNL A   1      31.406  30.697  27.178  1.00  0.00    -0.273 OA
ATOM      7  H   UNL A   1      33.117  31.729  28.415  1.00  0.00     0.163 HD
BRANCH   5   8
ATOM      8  C   UNL A   1      32.970  30.074  25.458  1.00  0.00     0.227 C 
BRANCH   8   9
ATOM      9  N   UNL A   1      32.581  28.671  25.333  1.00  0.00    -0.283 N 
ATOM     10  C   UNL A   1      33.506  25.258  26.102  1.00  0.00     0.029 C 
ATOM     11  C   UNL A   1      32.881  26.356  25.652  1.00  0.00     0.081 C 
ATOM     12  S   UNL A   1      31.450  26.449  24.709  1.00  0.00    -0.054 SA
ATOM     13  C   UNL A   1      33.396  27.723  25.930  1.00  0.00     0.266 C 
ATOM     14  C   UNL A   1      31.571  28.191  24.526  1.00  0.00     0.148 C 
ATOM     15  O   UNL A   1      34.411  27.947  26.566  1.00  0.00    -0.268 OA
ATOM     16  S   UNL A   1      30.582  29.037  23.483  1.00  0.00    -0.052 S 
BRANCH  10  17
ATOM     17  C   UNL A   1      33.076  23.876  25.857  1.00  0.00    -0.017 A 
ATOM     18  C   UNL A   1      31.301  22.190  25.962  1.00  0.00     0.165 A 
ATOM     19  C   UNL A   1      31.762  23.495  26.192  1.00  0.00     0.058 A 
ATOM     20  C   UNL A   1      32.170  21.300  25.357  1.00  0.00     0.207 A 
ATOM     21  C   UNL A   1      33.460  21.672  25.045  1.00  0.00     0.170 A 
ATOM     22  O   UNL A   1      31.920  20.018  24.973  1.00  0.00    -0.450 OA
ATOM     23  C   UNL A   1      33.950  22.933  25.306  1.00  0.00     0.059 A 
ATOM     24  O   UNL A   1      34.167  20.676  24.444  1.00  0.00    -0.453 OA
ATOM     25  C   UNL A   1      33.137  19.683  24.280  1.00  0.00     0.468 C 
BRANCH  18  26
ATOM     26  O   UNL A   1      30.004  21.962  26.321  1.00  0.00    -0.493 OA
ATOM     27  C   UNL A   1      29.427  22.942  27.178  1.00  0.00     0.278 C 
ENDBRANCH  18  26
ENDBRANCH  10  17
ENDBRANCH   8   9
ENDBRANCH   5   8
ENDBRANCH   3   4
ENDBRANCH   2   3
ENDBRANCH   1   2
BRANCH   1  28
ATOM     28  C   UNL A   1      35.020  34.354  28.687  1.00  0.00     0.002 C 
BRANCH  28  29
ATOM     29  C   UNL A   1      33.974  35.433  28.978  1.00  0.00     0.021 C 
BRANCH  29  30
ATOM     30  C   UNL A   1      32.818  34.974  29.861  1.00  0.00     0.116 C 
BRANCH  30  31
ATOM     31  N   UNL A   1      32.573  35.898  30.959  1.00  0.00    -0.352 N 
ATOM     32  C   UNL A   1      33.136  35.929  32.210  1.00  0.00     0.251 C 
ATOM     33  H   UNL A   1      31.908  36.602  30.778  1.00  0.00     0.163 HD
ATOM     34  O   UNL A   1      32.658  36.653  33.079  1.00  0.00    -0.269 OA
BRANCH  32  35
ATOM     35  C   UNL A   1      34.306  35.078  32.512  1.00  0.00     0.039 A 
ATOM     36  C   UNL A   1      35.584  35.547  32.198  1.00  0.00     0.014 A 
ATOM     37  C   UNL A   1      34.145  33.818  33.096  1.00  0.00     0.014 A 
ATOM     38  C   UNL A   1      36.703  34.776  32.521  1.00  0.00     0.010 A 
ATOM     39  C   UNL A   1      35.264  33.087  33.486  1.00  0.00     0.010 A 
ATOM     40  C   UNL A   1      36.555  33.552  33.196  1.00  0.00    -0.014 A 
BRANCH  40  41
ATOM     41  C   UNL A   1      37.736  32.756  33.616  1.00  0.00     0.031 A 
ATOM     42  C   UNL A   1      38.523  33.147  34.839  1.00  0.00     0.074 A 
ATOM     43  C   UNL A   1      38.154  31.730  32.846  1.00  0.00     0.049 A 
ATOM     44  N   UNL A   1      39.606  32.604  35.330  1.00  0.00    -0.248 NA
ATOM     45  C   UNL A   1      38.046  34.317  35.597  1.00  0.00     0.031 C 
ATOM     46  C   UNL A   1      37.528  31.303  31.593  1.00  0.00     0.029 A 
ATOM     47  N   UNL A   1      39.224  30.880  32.988  1.00  0.00    -0.354 N 
ATOM     48  C   UNL A   1      39.965  33.388  36.420  1.00  0.00     0.074 A 
ATOM     49  C   UNL A   1      38.997  34.458  36.508  1.00  0.00     0.031 C 
ATOM     50  C   UNL A   1      38.221  30.274  31.081  1.00  0.00     0.029 A 
ATOM     51  C   UNL A   1      39.361  29.988  31.948  1.00  0.00     0.049 A 
ATOM     52  H   UNL A   1      39.834  30.905  33.760  1.00  0.00     0.167 HD
ATOM     53  C   UNL A   1      40.996  33.219  37.283  1.00  0.00     0.034 A 
ATOM     54  C   UNL A   1      40.306  29.058  31.710  1.00  0.00     0.034 A 
ATOM     55  C   UNL A   1      41.929  32.127  37.219  1.00  0.00     0.049 A 
ATOM     56  C   UNL A   1      41.413  28.867  32.711  1.00  0.00     0.074 A 
ATOM     57  C   UNL A   1      42.936  31.807  38.112  1.00  0.00     0.029 A 
ATOM     58  N   UNL A   1      41.984  31.189  36.201  1.00  0.00    -0.354 N 
ATOM     59  N   UNL A   1      41.629  29.505  33.836  1.00  0.00    -0.248 NA
ATOM     60  C   UNL A   1      42.388  27.803  32.431  1.00  0.00     0.031 C 
ATOM     61  C   UNL A   1      43.627  30.699  37.612  1.00  0.00     0.029 A 
ATOM     62  C   UNL A   1      43.022  30.303  36.431  1.00  0.00     0.049 A 
ATOM     63  H   UNL A   1      41.375  31.157  35.429  1.00  0.00     0.167 HD
ATOM     64  C   UNL A   1      42.736  28.895  34.414  1.00  0.00     0.074 A 
ATOM     65  C   UNL A   1      43.133  27.822  33.528  1.00  0.00     0.031 C 
ATOM     66  C   UNL A   1      43.375  29.204  35.570  1.00  0.00     0.034 A 
BRANCH  53  67
ATOM     67  C   UNL A   1      41.157  34.218  38.399  1.00  0.00     0.023 A 
ATOM     68  C   UNL A   1      42.001  35.333  38.227  1.00  0.00     0.012 A 
ATOM     69  C   UNL A   1      40.404  34.096  39.584  1.00  0.00     0.148 A 
ATOM     70  C   UNL A   1      42.118  36.295  39.230  1.00  0.00     0.002 A 
ATOM     71  C   UNL A   1      40.489  35.083  40.558  1.00  0.00     0.091 A 
ATOM     72  F   UNL A   1      39.622  33.019  39.737  1.00  0.00    -0.205 F 
ATOM     73  C   UNL A   1      41.353  36.178  40.388  1.00  0.00     0.022 A 
BRANCH  71  74
ATOM     74  S   UNL A   1      39.483  35.068  42.045  1.00  0.00     0.127 S 
ATOM     75  O   UNL A   1      40.464  34.686  43.061  1.00  0.00    -0.237 OA
ATOM     76  O   UNL A   1      39.034  36.458  42.126  1.00  0.00    -0.237 OA
ATOM     77  O   UNL A   1      38.424  34.099  41.807  1.00  0.00    -0.744 OA
ENDBRANCH  71  74
ENDBRANCH  53  67
BRANCH  54  78
ATOM     78  C   UNL A   1      40.228  28.201  30.491  1.00  0.00     0.023 A 
ATOM     79  C   UNL A   1      39.301  27.141  30.443  1.00  0.00     0.012 A 
ATOM     80  C   UNL A   1      41.065  28.432  29.383  1.00  0.00     0.148 A 
ATOM     81  C   UNL A   1      39.242  26.298  29.333  1.00  0.00     0.002 A 
ATOM     82  C   UNL A   1      40.960  27.625  28.256  1.00  0.00     0.091 A 
ATOM     83  F   UNL A   1      41.947  29.438  29.451  1.00  0.00    -0.205 F 
ATOM     84  C   UNL A   1      40.063  26.546  28.236  1.00  0.00     0.022 A 
BRANCH  82  85
ATOM     85  S   UNL A   1      41.882  27.954  26.751  1.00  0.00     0.127 S 
ATOM     86  O   UNL A   1      43.258  27.974  27.242  1.00  0.00    -0.237 OA
ATOM     87  O   UNL A   1      41.539  26.795  25.926  1.00  0.00    -0.237 OA
ATOM     88  O   UNL A   1      41.370  29.220  26.245  1.00  0.00    -0.744 OA
ENDBRANCH  82  85
ENDBRANCH  54  78
BRANCH  66  89
ATOM     89  C   UNL A   1      44.543  28.345  35.977  1.00  0.00     0.023 A 
ATOM     90  C   UNL A   1      45.840  28.653  35.522  1.00  0.00     0.012 A 
ATOM     91  C   UNL A   1      44.361  27.272  36.871  1.00  0.00     0.148 A 
ATOM     92  C   UNL A   1      46.933  27.884  35.924  1.00  0.00     0.002 A 
ATOM     93  C   UNL A   1      45.461  26.545  37.310  1.00  0.00     0.091 A 
ATOM     94  F   UNL A   1      43.116  26.984  37.280  1.00  0.00    -0.205 F 
ATOM     95  C   UNL A   1      46.745  26.841  36.827  1.00  0.00     0.022 A 
BRANCH  93  96
ATOM     96  S   UNL A   1      45.328  25.250  38.548  1.00  0.00     0.127 S 
ATOM     97  O   UNL A   1      44.444  24.294  37.885  1.00  0.00    -0.237 OA
ATOM     98  O   UNL A   1      46.717  24.807  38.681  1.00  0.00    -0.237 OA
ATOM     99  O   UNL A   1      44.780  25.885  39.740  1.00  0.00    -0.744 OA
ENDBRANCH  93  96
ENDBRANCH  66  89
ENDBRANCH  40  41
ENDBRANCH  32  35
ENDBRANCH  30  31
ENDBRANCH  29  30
ENDBRANCH  28  29
ENDBRANCH   1  28
TORSDOF 19
ENDMDL
MODEL 3
REMARK VINA RESULT:     -10.3      4.999     10.152
REMARK SMILES COc1cc(/C=C2\SC(=S)N(CC(=O)NCCCCCCNC(=O)c3ccc(-c4c5nc(c(-c6cccc(S(=O)(=O)[O-])c6F)c6ccc([nH]6)c(-c6cccc(S(=O)(=O)[O-])c6F)c6nc(c(-c7cccc(S(=O)(=O)[O-])c7F)c7ccc4[nH]7)C=C6)C=C5)cc3)C2=O)cc2c1OCO2
REMARK SMILES IDX 18 1 17 2 16 3 15 4 13 5 14 6 12 8 11 9 6 10 7 11 8 12 88 13
REMARK SMILES IDX 9 14 89 15 10 16 5 17 3 18 4 19 92 20 91 21 93 22 90 23
REMARK SMILES IDX 95 24 94 25 2 26 1 27 19 28 20 29 21 30 22 31 23 32 24 34
REMARK SMILES IDX 25 35 26 36 87 37 27 38 86 39 28 40 29 41 30 42 80 43 31 44
REMARK SMILES IDX 85 45 79 46 81 47 32 48 84 49 78 50 77 51 33 53 65 54 45 55
REMARK SMILES IDX 64 56 46 57 49 58 63 59 82 60 47 61 48 62 62 64 83 65 50 66
REMARK SMILES IDX 34 67 35 68 43 69 36 70 38 71 44 72 37 73 39 74 40 75 41 76
REMARK SMILES IDX 42 77 66 78 67 79 75 80 68 81 70 82 76 83 69 84 71 85 72 86
REMARK SMILES IDX 73 87 74 88 51 89 52 90 60 91 53 92 55 93 61 94 54 95 56 96
REMARK SMILES IDX 57 97 58 98 59 99
REMARK H PARENT 15 7 22 33 81 52 49 63
REMARK Flexibility Score: inf
ROOT
ATOM      1  C   UNL A   1      37.791  21.679  24.962  1.00  0.00     0.002 C 
ENDROOT
BRANCH   1   2
ATOM      2  C   UNL A   1      36.501  20.853  24.862  1.00  0.00     0.021 C 
BRANCH   2   3
ATOM      3  C   UNL A   1      35.453  21.222  25.909  1.00  0.00     0.116 C 
BRANCH   3   4
ATOM      4  N   UNL A   1      34.149  20.697  25.563  1.00  0.00    -0.355 N 
ATOM      5  C   UNL A   1      32.903  21.099  25.938  1.00  0.00     0.240 C 
ATOM      6  O   UNL A   1      31.948  20.606  25.329  1.00  0.00    -0.273 OA
ATOM      7  H   UNL A   1      34.165  19.922  24.957  1.00  0.00     0.163 HD
BRANCH   5   8
ATOM      8  C   UNL A   1      32.680  22.253  26.924  1.00  0.00     0.227 C 
BRANCH   8   9
ATOM      9  N   UNL A   1      31.967  23.409  26.388  1.00  0.00    -0.283 N 
ATOM     10  C   UNL A   1      32.330  26.681  24.884  1.00  0.00     0.029 C 
ATOM     11  C   UNL A   1      31.840  25.552  25.415  1.00  0.00     0.081 C 
ATOM     12  S   UNL A   1      30.197  25.144  25.704  1.00  0.00    -0.054 SA
ATOM     13  C   UNL A   1      32.723  24.442  25.857  1.00  0.00     0.266 C 
ATOM     14  C   UNL A   1      30.614  23.646  26.520  1.00  0.00     0.148 C 
ATOM     15  O   UNL A   1      33.940  24.474  25.783  1.00  0.00    -0.268 OA
ATOM     16  S   UNL A   1      29.474  22.737  27.329  1.00  0.00    -0.052 S 
BRANCH  10  17
ATOM     17  C   UNL A   1      31.530  27.829  24.442  1.00  0.00    -0.017 A 
ATOM     18  C   UNL A   1      30.840  30.155  24.792  1.00  0.00     0.165 A 
ATOM     19  C   UNL A   1      31.575  29.026  25.185  1.00  0.00     0.058 A 
ATOM     20  C   UNL A   1      30.101  30.065  23.627  1.00  0.00     0.207 A 
ATOM     21  C   UNL A   1      30.047  28.888  22.911  1.00  0.00     0.170 A 
ATOM     22  O   UNL A   1      29.378  31.046  23.018  1.00  0.00    -0.450 OA
ATOM     23  C   UNL A   1      30.721  27.752  23.303  1.00  0.00     0.059 A 
ATOM     24  O   UNL A   1      29.284  28.987  21.787  1.00  0.00    -0.453 OA
ATOM     25  C   UNL A   1      28.982  30.395  21.797  1.00  0.00     0.468 C 
BRANCH  18  26
ATOM     26  O   UNL A   1      30.987  31.249  25.594  1.00  0.00    -0.493 OA
ATOM     27  C   UNL A   1      31.885  31.088  26.688  1.00  0.00     0.278 C 
ENDBRANCH  18  26
ENDBRANCH  10  17
ENDBRANCH   8   9
ENDBRANCH   5   8
ENDBRANCH   3   4
ENDBRANCH   2   3
ENDBRANCH   1   2
BRANCH   1  28
ATOM     28  C   UNL A   1      37.683  22.956  25.802  1.00  0.00     0.002 C 
BRANCH  28  29
ATOM     29  C   UNL A   1      39.018  23.544  26.264  1.00  0.00     0.021 C 
BRANCH  29  30
ATOM     30  C   UNL A   1      39.924  22.561  26.998  1.00  0.00     0.116 C 
BRANCH  30  31
ATOM     31  N   UNL A   1      41.043  22.132  26.172  1.00  0.00    -0.352 N 
ATOM     32  C   UNL A   1      42.144  22.843  25.764  1.00  0.00     0.251 C 
ATOM     33  H   UNL A   1      41.006  21.199  25.862  1.00  0.00     0.163 HD
ATOM     34  O   UNL A   1      42.884  22.383  24.898  1.00  0.00    -0.269 OA
BRANCH  32  35
ATOM     35  C   UNL A   1      42.427  24.168  26.356  1.00  0.00     0.039 A 
ATOM     36  C   UNL A   1      42.335  25.305  25.549  1.00  0.00     0.014 A 
ATOM     37  C   UNL A   1      42.789  24.289  27.701  1.00  0.00     0.014 A 
ATOM     38  C   UNL A   1      42.552  26.568  26.105  1.00  0.00     0.010 A 
ATOM     39  C   UNL A   1      42.928  25.552  28.269  1.00  0.00     0.010 A 
ATOM     40  C   UNL A   1      42.820  26.705  27.477  1.00  0.00    -0.014 A 
BRANCH  40  41
ATOM     41  C   UNL A   1      42.977  28.044  28.101  1.00  0.00     0.031 A 
ATOM     42  C   UNL A   1      44.347  28.640  28.291  1.00  0.00     0.074 A 
ATOM     43  C   UNL A   1      41.891  28.688  28.576  1.00  0.00     0.049 A 
ATOM     44  N   UNL A   1      44.682  29.770  28.858  1.00  0.00    -0.248 NA
ATOM     45  C   UNL A   1      45.494  27.853  27.806  1.00  0.00     0.031 C 
ATOM     46  C   UNL A   1      40.517  28.180  28.527  1.00  0.00     0.029 A 
ATOM     47  N   UNL A   1      41.773  29.894  29.221  1.00  0.00    -0.354 N 
ATOM     48  C   UNL A   1      46.071  29.809  28.839  1.00  0.00     0.074 A 
ATOM     49  C   UNL A   1      46.519  28.580  28.224  1.00  0.00     0.031 C 
ATOM     50  C   UNL A   1      39.698  29.065  29.115  1.00  0.00     0.029 A 
ATOM     51  C   UNL A   1      40.487  30.187  29.614  1.00  0.00     0.049 A 
ATOM     52  H   UNL A   1      42.536  30.494  29.386  1.00  0.00     0.167 HD
ATOM     53  C   UNL A   1      46.897  30.790  29.275  1.00  0.00     0.034 A 
ATOM     54  C   UNL A   1      40.000  31.232  30.312  1.00  0.00     0.034 A 
ATOM     55  C   UNL A   1      46.446  32.031  29.843  1.00  0.00     0.049 A 
ATOM     56  C   UNL A   1      40.939  32.326  30.744  1.00  0.00     0.074 A 
ATOM     57  C   UNL A   1      47.200  33.131  30.209  1.00  0.00     0.029 A 
ATOM     58  N   UNL A   1      45.127  32.332  30.145  1.00  0.00    -0.354 N 
ATOM     59  N   UNL A   1      42.233  32.427  30.552  1.00  0.00    -0.248 NA
ATOM     60  C   UNL A   1      40.348  33.468  31.456  1.00  0.00     0.031 C 
ATOM     61  C   UNL A   1      46.342  34.081  30.771  1.00  0.00     0.029 A 
ATOM     62  C   UNL A   1      45.048  33.590  30.714  1.00  0.00     0.049 A 
ATOM     63  H   UNL A   1      44.360  31.737  29.979  1.00  0.00     0.167 HD
ATOM     64  C   UNL A   1      42.600  33.658  31.082  1.00  0.00     0.074 A 
ATOM     65  C   UNL A   1      41.392  34.277  31.582  1.00  0.00     0.031 C 
ATOM     66  C   UNL A   1      43.832  34.220  31.159  1.00  0.00     0.034 A 
BRANCH  53  67
ATOM     67  C   UNL A   1      48.382  30.584  29.125  1.00  0.00     0.023 A 
ATOM     68  C   UNL A   1      49.123  30.020  30.183  1.00  0.00     0.012 A 
ATOM     69  C   UNL A   1      49.026  30.869  27.905  1.00  0.00     0.148 A 
ATOM     70  C   UNL A   1      50.488  29.773  30.040  1.00  0.00     0.002 A 
ATOM     71  C   UNL A   1      50.375  30.575  27.753  1.00  0.00     0.091 A 
ATOM     72  F   UNL A   1      48.308  31.422  26.917  1.00  0.00    -0.205 F 
ATOM     73  C   UNL A   1      51.110  30.037  28.822  1.00  0.00     0.022 A 
BRANCH  71  74
ATOM     74  S   UNL A   1      51.249  30.798  26.200  1.00  0.00     0.127 S 
ATOM     75  O   UNL A   1      50.735  29.681  25.409  1.00  0.00    -0.237 OA
ATOM     76  O   UNL A   1      50.778  32.115  25.770  1.00  0.00    -0.237 OA
ATOM     77  O   UNL A   1      52.668  30.734  26.521  1.00  0.00    -0.744 OA
ENDBRANCH  71  74
ENDBRANCH  53  67
BRANCH  54  78
ATOM     78  C   UNL A   1      38.541  31.320  30.614  1.00  0.00     0.023 A 
ATOM     79  C   UNL A   1      38.029  30.686  31.763  1.00  0.00     0.012 A 
ATOM     80  C   UNL A   1      37.663  32.028  29.771  1.00  0.00     0.148 A 
ATOM     81  C   UNL A   1      36.662  30.716  32.042  1.00  0.00     0.002 A 
ATOM     82  C   UNL A   1      36.312  32.104  30.087  1.00  0.00     0.091 A 
ATOM     83  F   UNL A   1      38.167  32.615  28.677  1.00  0.00    -0.205 F 
ATOM     84  C   UNL A   1      35.805  31.432  31.210  1.00  0.00     0.022 A 
BRANCH  82  85
ATOM     85  S   UNL A   1      35.162  33.113  29.146  1.00  0.00     0.127 S 
ATOM     86  O   UNL A   1      33.999  33.142  30.029  1.00  0.00    -0.237 OA
ATOM     87  O   UNL A   1      35.887  34.380  29.042  1.00  0.00    -0.237 OA
ATOM     88  O   UNL A   1      34.981  32.422  27.877  1.00  0.00    -0.744 OA
ENDBRANCH  82  85
ENDBRANCH  54  78
BRANCH  66  89
ATOM     89  C   UNL A   1      43.938  35.596  31.762  1.00  0.00     0.023 A 
ATOM     90  C   UNL A   1      43.911  36.736  30.934  1.00  0.00     0.012 A 
ATOM     91  C   UNL A   1      43.993  35.760  33.161  1.00  0.00     0.148 A 
ATOM     92  C   UNL A   1      43.971  38.015  31.487  1.00  0.00     0.002 A 
ATOM     93  C   UNL A   1      43.997  37.038  33.706  1.00  0.00     0.091 A 
ATOM     94  F   UNL A   1      44.034  34.663  33.932  1.00  0.00    -0.205 F 
ATOM     95  C   UNL A   1      44.001  38.165  32.871  1.00  0.00     0.022 A 
BRANCH  93  96
ATOM     96  S   UNL A   1      43.933  37.329  35.478  1.00  0.00     0.127 S 
ATOM     97  O   UNL A   1      44.026  38.786  35.544  1.00  0.00    -0.237 OA
ATOM     98  O   UNL A   1      42.621  36.784  35.832  1.00  0.00    -0.237 OA
ATOM     99  O   UNL A   1      45.061  36.604  36.047  1.00  0.00    -0.744 OA
ENDBRANCH  93  96
ENDBRANCH  66  89
ENDBRANCH  40  41
ENDBRANCH  32  35
ENDBRANCH  30  31
ENDBRANCH  29  30
ENDBRANCH  28  29
ENDBRANCH   1  28
TORSDOF 19
ENDMDL
