MODEL 1
REMARK VINA RESULT:     -11.9      0.000      0.000
REMARK SMILES [NH3+][C@@H](Cc1cn(-c2nc(Cl)nc(N3CCOCC3)n2)c2ccccc12)C(=O)NCCCCCCNC(=O)c1ccc(-c2c3nc(c(-c4cccc(S(=O)(=O)[O-])c4F)c4ccc([nH]4)c(-c4cccc(S(=O)(=O)[O-])c4F)c4nc(c(-c5cccc(S(=O)(=O)[O-])c5F)c5ccc2[nH]5)C=C4)C=C3)cc1
REMARK SMILES IDX 31 1 30 2 29 3 28 4 26 5 27 6 2 8 1 9 3 13 4 14 5 15 25 16
REMARK SMILES IDX 6 17 20 18 24 19 21 20 23 21 22 22 7 23 8 24 19 25 9 26
REMARK SMILES IDX 12 27 10 28 11 29 13 30 14 31 18 32 15 33 17 34 16 35 32 36
REMARK SMILES IDX 33 37 34 38 35 39 36 40 37 42 38 43 39 44 100 45 40 46 99 47
REMARK SMILES IDX 41 48 42 49 43 50 93 51 44 52 98 53 92 54 94 55 45 56 97 57
REMARK SMILES IDX 91 58 90 59 46 61 78 62 58 63 77 64 59 65 62 66 76 67 95 68
REMARK SMILES IDX 60 69 61 70 75 72 96 73 63 74 47 75 48 76 56 77 49 78 51 79
REMARK SMILES IDX 57 80 50 81 52 82 53 83 54 84 55 85 79 86 80 87 88 88 81 89
REMARK SMILES IDX 83 90 89 91 82 92 84 93 85 94 86 95 87 96 64 97 65 98 73 99
REMARK SMILES IDX 66 100 68 101 74 102 67 103 69 104 70 105 71 106 72 107
REMARK H PARENT 28 7 1 10 1 11 1 12 35 41 94 60 62 71
REMARK Flexibility Score: inf
ROOT
ATOM      1  C   UNL A   1      38.039  22.222  25.391  1.00  0.00     0.002 C 
ENDROOT
BRANCH   1   2
ATOM      2  C   UNL A   1      36.786  21.707  24.681  1.00  0.00     0.021 C 
BRANCH   2   3
ATOM      3  C   UNL A   1      35.945  20.655  25.369  1.00  0.00     0.116 C 
BRANCH   3   4
ATOM      4  N   UNL A   1      34.685  20.338  24.751  1.00  0.00    -0.351 N 
ATOM      5  C   UNL A   1      33.456  20.872  25.032  1.00  0.00     0.278 C 
ATOM      6  O   UNL A   1      32.513  20.498  24.322  1.00  0.00    -0.268 OA
ATOM      7  H   UNL A   1      34.709  19.654  24.042  1.00  0.00     0.163 HD
BRANCH   5   8
ATOM      8  C   UNL A   1      33.202  21.865  26.218  1.00  0.00     0.275 C 
BRANCH   8   9
ATOM      9  N   UNL A   1      33.320  21.178  27.522  1.00  0.00    -0.347 N 
ATOM     10  H   UNL A   1      34.002  21.665  28.103  1.00  0.00     0.345 HD
ATOM     11  H   UNL A   1      33.626  20.215  27.372  1.00  0.00     0.345 HD
ATOM     12  H   UNL A   1      32.414  21.178  27.990  1.00  0.00     0.345 HD
ENDBRANCH   8   9
BRANCH   8  13
ATOM     13  C   UNL A   1      33.800  23.289  26.132  1.00  0.00     0.113 C 
BRANCH  13  14
ATOM     14  C   UNL A   1      33.084  24.422  25.417  1.00  0.00    -0.015 A 
ATOM     15  C   UNL A   1      32.411  25.530  25.908  1.00  0.00     0.099 A 
ATOM     16  C   UNL A   1      33.002  24.535  23.989  1.00  0.00     0.004 A 
ATOM     17  N   UNL A   1      32.163  26.428  24.875  1.00  0.00    -0.285 N 
ATOM     18  C   UNL A   1      32.392  25.761  23.669  1.00  0.00     0.056 A 
ATOM     19  C   UNL A   1      33.444  23.687  22.947  1.00  0.00     0.010 A 
ATOM     20  C   UNL A   1      32.234  26.152  22.325  1.00  0.00     0.027 A 
ATOM     21  C   UNL A   1      33.280  24.070  21.617  1.00  0.00     0.001 A 
ATOM     22  C   UNL A   1      32.684  25.287  21.314  1.00  0.00     0.002 A 
BRANCH  17  23
ATOM     23  C   UNL A   1      31.839  27.825  25.078  1.00  0.00     0.240 A 
ATOM     24  N   UNL A   1      32.360  28.448  26.120  1.00  0.00    -0.181 NA
ATOM     25  N   UNL A   1      31.031  28.428  24.177  1.00  0.00    -0.176 NA
ATOM     26  C   UNL A   1      32.081  29.748  26.123  1.00  0.00     0.228 A 
ATOM     27  C   UNL A   1      30.714  29.721  24.360  1.00  0.00     0.231 A 
ATOM     28  Cl  UNL A   1      32.916  30.677  27.290  1.00  0.00    -0.041 Cl
ATOM     29  N   UNL A   1      31.280  30.439  25.310  1.00  0.00    -0.182 NA
BRANCH  27  30
ATOM     30  N   UNL A   1      29.747  30.302  23.536  1.00  0.00    -0.336 N 
ATOM     31  C   UNL A   1      28.666  29.389  23.113  1.00  0.00     0.148 C 
ATOM     32  C   UNL A   1      29.128  31.553  23.993  1.00  0.00     0.148 C 
ATOM     33  C   UNL A   1      27.812  30.003  21.988  1.00  0.00     0.181 C 
ATOM     34  C   UNL A   1      28.307  32.145  22.820  1.00  0.00     0.181 C 
ATOM     35  O   UNL A   1      27.257  31.261  22.393  1.00  0.00    -0.378 OA
ENDBRANCH  27  30
ENDBRANCH  17  23
ENDBRANCH  13  14
ENDBRANCH   8  13
ENDBRANCH   5   8
ENDBRANCH   3   4
ENDBRANCH   2   3
ENDBRANCH   1   2
BRANCH   1  36
ATOM     36  C   UNL A   1      39.223  21.363  25.886  1.00  0.00     0.002 C 
BRANCH  36  37
ATOM     37  C   UNL A   1      40.270  21.709  26.964  1.00  0.00     0.021 C 
BRANCH  37  38
ATOM     38  C   UNL A   1      41.681  21.089  27.093  1.00  0.00     0.116 C 
BRANCH  38  39
ATOM     39  N   UNL A   1      42.312  20.542  25.903  1.00  0.00    -0.352 N 
ATOM     40  C   UNL A   1      43.605  20.750  25.441  1.00  0.00     0.251 C 
ATOM     41  H   UNL A   1      41.750  19.949  25.354  1.00  0.00     0.163 HD
ATOM     42  O   UNL A   1      44.188  19.825  24.880  1.00  0.00    -0.269 OA
BRANCH  40  43
ATOM     43  C   UNL A   1      44.186  22.113  25.399  1.00  0.00     0.039 A 
ATOM     44  C   UNL A   1      45.156  22.527  26.300  1.00  0.00     0.014 A 
ATOM     45  C   UNL A   1      43.410  23.058  24.708  1.00  0.00     0.014 A 
ATOM     46  C   UNL A   1      45.042  23.798  26.820  1.00  0.00     0.010 A 
ATOM     47  C   UNL A   1      43.352  24.359  25.173  1.00  0.00     0.010 A 
ATOM     48  C   UNL A   1      44.058  24.671  26.327  1.00  0.00    -0.014 A 
BRANCH  48  49
ATOM     49  C   UNL A   1      43.851  25.908  27.068  1.00  0.00     0.031 A 
ATOM     50  C   UNL A   1      44.952  26.883  26.901  1.00  0.00     0.074 A 
ATOM     51  C   UNL A   1      42.784  26.171  27.851  1.00  0.00     0.049 A 
ATOM     52  N   UNL A   1      45.834  27.232  27.778  1.00  0.00    -0.248 NA
ATOM     53  C   UNL A   1      45.212  27.368  25.539  1.00  0.00     0.031 C 
ATOM     54  C   UNL A   1      41.517  25.446  27.952  1.00  0.00     0.029 A 
ATOM     55  N   UNL A   1      42.583  27.254  28.654  1.00  0.00    -0.354 N 
ATOM     56  C   UNL A   1      46.644  28.154  27.128  1.00  0.00     0.074 A 
ATOM     57  C   UNL A   1      46.330  28.068  25.724  1.00  0.00     0.031 C 
ATOM     58  C   UNL A   1      40.599  26.246  28.544  1.00  0.00     0.029 A 
ATOM     59  C   UNL A   1      41.249  27.468  28.983  1.00  0.00     0.049 A 
ATOM     60  H   UNL A   1      43.314  27.831  28.973  1.00  0.00     0.167 HD
ATOM     61  C   UNL A   1      47.351  29.096  27.806  1.00  0.00     0.034 A 
ATOM     62  C   UNL A   1      40.731  28.619  29.478  1.00  0.00     0.034 A 
ATOM     63  C   UNL A   1      47.485  28.795  29.201  1.00  0.00     0.049 A 
ATOM     64  C   UNL A   1      41.853  29.361  30.107  1.00  0.00     0.074 A 
ATOM     65  C   UNL A   1      48.038  27.763  29.932  1.00  0.00     0.029 A 
ATOM     66  N   UNL A   1      46.668  29.479  30.068  1.00  0.00    -0.354 N 
ATOM     67  N   UNL A   1      42.483  28.959  31.176  1.00  0.00    -0.248 NA
ATOM     68  C   UNL A   1      42.540  30.370  29.317  1.00  0.00     0.031 C 
ATOM     69  C   UNL A   1      47.176  27.602  31.054  1.00  0.00     0.029 A 
ATOM     70  C   UNL A   1      46.169  28.565  30.955  1.00  0.00     0.049 A 
ATOM     71  H   UNL A   1      46.480  30.446  30.054  1.00  0.00     0.167 HD
ATOM     72  C   UNL A   1      43.803  29.332  30.963  1.00  0.00     0.074 A 
ATOM     73  C   UNL A   1      43.757  30.288  29.861  1.00  0.00     0.031 C 
ATOM     74  C   UNL A   1      44.833  28.620  31.505  1.00  0.00     0.034 A 
BRANCH  61  75
ATOM     75  C   UNL A   1      47.597  30.474  27.263  1.00  0.00     0.023 A 
ATOM     76  C   UNL A   1      48.894  31.011  27.364  1.00  0.00     0.012 A 
ATOM     77  C   UNL A   1      46.550  31.356  26.907  1.00  0.00     0.148 A 
ATOM     78  C   UNL A   1      49.136  32.370  27.133  1.00  0.00     0.002 A 
ATOM     79  C   UNL A   1      46.808  32.683  26.597  1.00  0.00     0.091 A 
ATOM     80  F   UNL A   1      45.278  30.955  27.008  1.00  0.00    -0.205 F 
ATOM     81  C   UNL A   1      48.095  33.202  26.732  1.00  0.00     0.022 A 
BRANCH  79  82
ATOM     82  S   UNL A   1      45.494  33.765  26.032  1.00  0.00     0.127 S 
ATOM     83  O   UNL A   1      44.772  34.020  27.281  1.00  0.00    -0.237 OA
ATOM     84  O   UNL A   1      46.250  34.909  25.513  1.00  0.00    -0.237 OA
ATOM     85  O   UNL A   1      44.784  33.012  25.017  1.00  0.00    -0.744 OA
ENDBRANCH  79  82
ENDBRANCH  61  75
BRANCH  62  86
ATOM     86  C   UNL A   1      39.426  29.275  29.193  1.00  0.00     0.023 A 
ATOM     87  C   UNL A   1      38.735  28.932  28.011  1.00  0.00     0.012 A 
ATOM     88  C   UNL A   1      38.718  29.996  30.181  1.00  0.00     0.148 A 
ATOM     89  C   UNL A   1      37.377  29.236  27.847  1.00  0.00     0.002 A 
ATOM     90  C   UNL A   1      37.374  30.312  30.006  1.00  0.00     0.091 A 
ATOM     91  F   UNL A   1      39.324  30.286  31.339  1.00  0.00    -0.205 F 
ATOM     92  C   UNL A   1      36.694  29.917  28.849  1.00  0.00     0.022 A 
BRANCH  90  93
ATOM     93  S   UNL A   1      36.434  31.192  31.263  1.00  0.00     0.127 S 
ATOM     94  O   UNL A   1      37.284  32.353  31.528  1.00  0.00    -0.237 OA
ATOM     95  O   UNL A   1      35.190  31.486  30.566  1.00  0.00    -0.237 OA
ATOM     96  O   UNL A   1      36.331  30.266  32.391  1.00  0.00    -0.744 OA
ENDBRANCH  90  93
ENDBRANCH  62  86
BRANCH  74  97
ATOM     97  C   UNL A   1      44.517  27.594  32.559  1.00  0.00     0.023 A 
ATOM     98  C   UNL A   1      44.400  26.222  32.250  1.00  0.00     0.012 A 
ATOM     99  C   UNL A   1      44.563  27.993  33.904  1.00  0.00     0.148 A 
ATOM    100  C   UNL A   1      44.323  25.268  33.268  1.00  0.00     0.002 A 
ATOM    101  C   UNL A   1      44.529  27.039  34.913  1.00  0.00     0.091 A 
ATOM    102  F   UNL A   1      44.691  29.302  34.171  1.00  0.00    -0.205 F 
ATOM    103  C   UNL A   1      44.403  25.675  34.599  1.00  0.00     0.022 A 
BRANCH 101 104
ATOM    104  S   UNL A   1      44.756  27.474  36.638  1.00  0.00     0.127 S 
ATOM    105  O   UNL A   1      43.559  28.265  36.915  1.00  0.00    -0.237 OA
ATOM    106  O   UNL A   1      44.784  26.159  37.285  1.00  0.00    -0.237 OA
ATOM    107  O   UNL A   1      46.016  28.204  36.713  1.00  0.00    -0.744 OA
ENDBRANCH 101 104
ENDBRANCH  74  97
ENDBRANCH  48  49
ENDBRANCH  40  43
ENDBRANCH  38  39
ENDBRANCH  37  38
ENDBRANCH  36  37
ENDBRANCH   1  36
TORSDOF 21
ENDMDL
MODEL 2
REMARK VINA RESULT:     -11.8      2.212      3.087
REMARK SMILES [NH3+][C@@H](Cc1cn(-c2nc(Cl)nc(N3CCOCC3)n2)c2ccccc12)C(=O)NCCCCCCNC(=O)c1ccc(-c2c3nc(c(-c4cccc(S(=O)(=O)[O-])c4F)c4ccc([nH]4)c(-c4cccc(S(=O)(=O)[O-])c4F)c4nc(c(-c5cccc(S(=O)(=O)[O-])c5F)c5ccc2[nH]5)C=C4)C=C3)cc1
REMARK SMILES IDX 31 1 30 2 29 3 28 4 26 5 27 6 2 8 1 9 3 13 4 14 5 15 25 16
REMARK SMILES IDX 6 17 20 18 24 19 21 20 23 21 22 22 7 23 8 24 19 25 9 26
REMARK SMILES IDX 12 27 10 28 11 29 13 30 14 31 18 32 15 33 17 34 16 35 32 36
REMARK SMILES IDX 33 37 34 38 35 39 36 40 37 42 38 43 39 44 100 45 40 46 99 47
REMARK SMILES IDX 41 48 42 49 43 50 93 51 44 52 98 53 92 54 94 55 45 56 97 57
REMARK SMILES IDX 91 58 90 59 46 61 78 62 58 63 77 64 59 65 62 66 76 67 95 68
REMARK SMILES IDX 60 69 61 70 75 72 96 73 63 74 47 75 48 76 56 77 49 78 51 79
REMARK SMILES IDX 57 80 50 81 52 82 53 83 54 84 55 85 79 86 80 87 88 88 81 89
REMARK SMILES IDX 83 90 89 91 82 92 84 93 85 94 86 95 87 96 64 97 65 98 73 99
REMARK SMILES IDX 66 100 68 101 74 102 67 103 69 104 70 105 71 106 72 107
REMARK H PARENT 28 7 1 10 1 11 1 12 35 41 94 60 62 71
REMARK Flexibility Score: inf
ROOT
ATOM      1  C   UNL A   1      35.651  22.521  24.060  1.00  0.00     0.002 C 
ENDROOT
BRANCH   1   2
ATOM      2  C   UNL A   1      35.621  23.849  24.819  1.00  0.00     0.021 C 
BRANCH   2   3
ATOM      3  C   UNL A   1      34.460  24.124  25.748  1.00  0.00     0.116 C 
BRANCH   3   4
ATOM      4  N   UNL A   1      34.316  23.237  26.872  1.00  0.00    -0.351 N 
ATOM      5  C   UNL A   1      33.587  22.080  26.938  1.00  0.00     0.278 C 
ATOM      6  O   UNL A   1      33.663  21.436  27.992  1.00  0.00    -0.268 OA
ATOM      7  H   UNL A   1      34.798  23.493  27.692  1.00  0.00     0.163 HD
BRANCH   5   8
ATOM      8  C   UNL A   1      32.647  21.590  25.783  1.00  0.00     0.275 C 
BRANCH   8   9
ATOM      9  N   UNL A   1      32.585  20.113  25.739  1.00  0.00    -0.347 N 
ATOM     10  H   UNL A   1      33.146  19.725  26.497  1.00  0.00     0.345 HD
ATOM     11  H   UNL A   1      32.950  19.784  24.843  1.00  0.00     0.345 HD
ATOM     12  H   UNL A   1      31.617  19.809  25.844  1.00  0.00     0.345 HD
ENDBRANCH   8   9
BRANCH   8  13
ATOM     13  C   UNL A   1      31.317  22.343  25.541  1.00  0.00     0.113 C 
BRANCH  13  14
ATOM     14  C   UNL A   1      31.262  23.653  24.772  1.00  0.00    -0.015 A 
ATOM     15  C   UNL A   1      30.698  24.878  25.094  1.00  0.00     0.099 A 
ATOM     16  C   UNL A   1      31.855  23.840  23.479  1.00  0.00     0.004 A 
ATOM     17  N   UNL A   1      31.141  25.850  24.204  1.00  0.00    -0.285 N 
ATOM     18  C   UNL A   1      31.736  25.195  23.122  1.00  0.00     0.056 A 
ATOM     19  C   UNL A   1      32.523  22.949  22.607  1.00  0.00     0.010 A 
ATOM     20  C   UNL A   1      32.286  25.668  21.914  1.00  0.00     0.027 A 
ATOM     21  C   UNL A   1      33.060  23.415  21.408  1.00  0.00     0.001 A 
ATOM     22  C   UNL A   1      32.943  24.757  21.071  1.00  0.00     0.002 A 
BRANCH  17  23
ATOM     23  C   UNL A   1      31.072  27.273  24.460  1.00  0.00     0.240 A 
ATOM     24  N   UNL A   1      31.789  27.771  25.452  1.00  0.00    -0.181 NA
ATOM     25  N   UNL A   1      30.286  28.026  23.657  1.00  0.00    -0.176 NA
ATOM     26  C   UNL A   1      31.728  29.098  25.503  1.00  0.00     0.228 A 
ATOM     27  C   UNL A   1      30.204  29.347  23.892  1.00  0.00     0.231 A 
ATOM     28  Cl  UNL A   1      32.817  29.843  26.590  1.00  0.00    -0.041 Cl
ATOM     29  N   UNL A   1      30.973  29.935  24.788  1.00  0.00    -0.182 NA
BRANCH  27  30
ATOM     30  N   UNL A   1      29.268  30.102  23.182  1.00  0.00    -0.336 N 
ATOM     31  C   UNL A   1      29.094  31.486  23.668  1.00  0.00     0.148 C 
ATOM     32  C   UNL A   1      29.399  30.150  21.720  1.00  0.00     0.148 C 
ATOM     33  C   UNL A   1      27.856  32.157  23.044  1.00  0.00     0.181 C 
ATOM     34  C   UNL A   1      28.120  30.804  21.139  1.00  0.00     0.181 C 
ATOM     35  O   UNL A   1      27.936  32.149  21.613  1.00  0.00    -0.378 OA
ENDBRANCH  27  30
ENDBRANCH  17  23
ENDBRANCH  13  14
ENDBRANCH   8  13
ENDBRANCH   5   8
ENDBRANCH   3   4
ENDBRANCH   2   3
ENDBRANCH   1   2
BRANCH   1  36
ATOM     36  C   UNL A   1      36.330  21.217  24.533  1.00  0.00     0.002 C 
BRANCH  36  37
ATOM     37  C   UNL A   1      37.763  21.025  25.068  1.00  0.00     0.021 C 
BRANCH  37  38
ATOM     38  C   UNL A   1      38.578  22.059  25.878  1.00  0.00     0.116 C 
BRANCH  38  39
ATOM     39  N   UNL A   1      39.786  21.617  26.556  1.00  0.00    -0.352 N 
ATOM     40  C   UNL A   1      40.574  22.320  27.457  1.00  0.00     0.251 C 
ATOM     41  H   UNL A   1      40.082  20.701  26.349  1.00  0.00     0.163 HD
ATOM     42  O   UNL A   1      41.109  21.708  28.379  1.00  0.00    -0.269 OA
BRANCH  40  43
ATOM     43  C   UNL A   1      40.967  23.723  27.187  1.00  0.00     0.039 A 
ATOM     44  C   UNL A   1      42.187  24.238  27.600  1.00  0.00     0.014 A 
ATOM     45  C   UNL A   1      39.896  24.585  26.895  1.00  0.00     0.014 A 
ATOM     46  C   UNL A   1      42.195  25.510  28.132  1.00  0.00     0.010 A 
ATOM     47  C   UNL A   1      39.929  25.889  27.354  1.00  0.00     0.010 A 
ATOM     48  C   UNL A   1      41.025  26.288  28.106  1.00  0.00    -0.014 A 
BRANCH  48  49
ATOM     49  C   UNL A   1      41.045  27.523  28.877  1.00  0.00     0.031 A 
ATOM     50  C   UNL A   1      42.131  28.446  28.477  1.00  0.00     0.074 A 
ATOM     51  C   UNL A   1      40.187  27.828  29.872  1.00  0.00     0.049 A 
ATOM     52  N   UNL A   1      43.199  28.740  29.144  1.00  0.00    -0.248 NA
ATOM     53  C   UNL A   1      42.115  28.935  27.092  1.00  0.00     0.031 C 
ATOM     54  C   UNL A   1      38.937  27.164  30.244  1.00  0.00     0.029 A 
ATOM     55  N   UNL A   1      40.218  28.909  30.703  1.00  0.00    -0.354 N 
ATOM     56  C   UNL A   1      43.894  29.630  28.336  1.00  0.00     0.074 A 
ATOM     57  C   UNL A   1      43.281  29.578  27.033  1.00  0.00     0.031 C 
ATOM     58  C   UNL A   1      38.210  28.000  31.022  1.00  0.00     0.029 A 
ATOM     59  C   UNL A   1      39.000  29.183  31.312  1.00  0.00     0.049 A 
ATOM     60  H   UNL A   1      41.029  29.446  30.857  1.00  0.00     0.167 HD
ATOM     61  C   UNL A   1      44.777  30.529  28.847  1.00  0.00     0.034 A 
ATOM     62  C   UNL A   1      38.659  30.352  31.910  1.00  0.00     0.034 A 
ATOM     63  C   UNL A   1      45.194  30.204  30.180  1.00  0.00     0.049 A 
ATOM     64  C   UNL A   1      39.926  31.030  32.283  1.00  0.00     0.074 A 
ATOM     65  C   UNL A   1      45.839  29.137  30.771  1.00  0.00     0.029 A 
ATOM     66  N   UNL A   1      44.619  30.916  31.204  1.00  0.00    -0.354 N 
ATOM     67  N   UNL A   1      40.751  30.585  33.190  1.00  0.00    -0.248 NA
ATOM     68  C   UNL A   1      40.476  32.015  31.365  1.00  0.00     0.031 C 
ATOM     69  C   UNL A   1      45.233  29.003  32.053  1.00  0.00     0.029 A 
ATOM     70  C   UNL A   1      44.278  30.015  32.177  1.00  0.00     0.049 A 
ATOM     71  H   UNL A   1      44.480  31.890  31.233  1.00  0.00     0.167 HD
ATOM     72  C   UNL A   1      42.011  30.896  32.697  1.00  0.00     0.074 A 
ATOM     73  C   UNL A   1      41.776  31.867  31.633  1.00  0.00     0.031 C 
ATOM     74  C   UNL A   1      43.097  30.128  33.002  1.00  0.00     0.034 A 
BRANCH  61  75
ATOM     75  C   UNL A   1      44.969  31.900  28.266  1.00  0.00     0.023 A 
ATOM     76  C   UNL A   1      43.830  32.690  28.024  1.00  0.00     0.012 A 
ATOM     77  C   UNL A   1      46.194  32.328  27.703  1.00  0.00     0.148 A 
ATOM     78  C   UNL A   1      43.906  33.850  27.244  1.00  0.00     0.002 A 
ATOM     79  C   UNL A   1      46.280  33.523  27.004  1.00  0.00     0.091 A 
ATOM     80  F   UNL A   1      47.254  31.512  27.716  1.00  0.00    -0.205 F 
ATOM     81  C   UNL A   1      45.135  34.276  26.749  1.00  0.00     0.022 A 
BRANCH  79  82
ATOM     82  S   UNL A   1      47.860  34.118  26.396  1.00  0.00     0.127 S 
ATOM     83  O   UNL A   1      48.416  34.742  27.600  1.00  0.00    -0.237 OA
ATOM     84  O   UNL A   1      48.514  32.870  25.991  1.00  0.00    -0.237 OA
ATOM     85  O   UNL A   1      47.540  35.005  25.297  1.00  0.00    -0.744 OA
ENDBRANCH  79  82
ENDBRANCH  61  75
BRANCH  62  86
ATOM     86  C   UNL A   1      37.358  31.073  31.916  1.00  0.00     0.023 A 
ATOM     87  C   UNL A   1      36.835  31.527  33.146  1.00  0.00     0.012 A 
ATOM     88  C   UNL A   1      36.774  31.575  30.731  1.00  0.00     0.148 A 
ATOM     89  C   UNL A   1      35.819  32.490  33.194  1.00  0.00     0.002 A 
ATOM     90  C   UNL A   1      35.751  32.517  30.783  1.00  0.00     0.091 A 
ATOM     91  F   UNL A   1      37.283  31.212  29.546  1.00  0.00    -0.205 F 
ATOM     92  C   UNL A   1      35.284  32.993  32.013  1.00  0.00     0.022 A 
BRANCH  90  93
ATOM     93  S   UNL A   1      35.017  33.206  29.292  1.00  0.00     0.127 S 
ATOM     94  O   UNL A   1      36.196  33.571  28.507  1.00  0.00    -0.237 OA
ATOM     95  O   UNL A   1      34.258  32.076  28.774  1.00  0.00    -0.237 OA
ATOM     96  O   UNL A   1      34.228  34.353  29.741  1.00  0.00    -0.744 OA
ENDBRANCH  90  93
ENDBRANCH  62  86
BRANCH  74  97
ATOM     97  C   UNL A   1      42.965  29.105  34.097  1.00  0.00     0.023 A 
ATOM     98  C   UNL A   1      42.346  27.856  33.878  1.00  0.00     0.012 A 
ATOM     99  C   UNL A   1      43.671  29.321  35.292  1.00  0.00     0.148 A 
ATOM    100  C   UNL A   1      42.428  26.844  34.838  1.00  0.00     0.002 A 
ATOM    101  C   UNL A   1      43.785  28.299  36.225  1.00  0.00     0.091 A 
ATOM    102  F   UNL A   1      44.264  30.512  35.468  1.00  0.00    -0.205 F 
ATOM    103  C   UNL A   1      43.159  27.060  36.004  1.00  0.00     0.022 A 
BRANCH 101 104
ATOM    104  S   UNL A   1      44.815  28.458  37.685  1.00  0.00     0.127 S 
ATOM    105  O   UNL A   1      46.147  28.613  37.104  1.00  0.00    -0.237 OA
ATOM    106  O   UNL A   1      44.275  29.667  38.311  1.00  0.00    -0.237 OA
ATOM    107  O   UNL A   1      44.613  27.241  38.462  1.00  0.00    -0.744 OA
ENDBRANCH 101 104
ENDBRANCH  74  97
ENDBRANCH  48  49
ENDBRANCH  40  43
ENDBRANCH  38  39
ENDBRANCH  37  38
ENDBRANCH  36  37
ENDBRANCH   1  36
TORSDOF 21
ENDMDL
MODEL 3
REMARK VINA RESULT:     -11.6      1.769      2.409
REMARK SMILES [NH3+][C@@H](Cc1cn(-c2nc(Cl)nc(N3CCOCC3)n2)c2ccccc12)C(=O)NCCCCCCNC(=O)c1ccc(-c2c3nc(c(-c4cccc(S(=O)(=O)[O-])c4F)c4ccc([nH]4)c(-c4cccc(S(=O)(=O)[O-])c4F)c4nc(c(-c5cccc(S(=O)(=O)[O-])c5F)c5ccc2[nH]5)C=C4)C=C3)cc1
REMARK SMILES IDX 31 1 30 2 29 3 28 4 26 5 27 6 2 8 1 9 3 13 4 14 5 15 25 16
REMARK SMILES IDX 6 17 20 18 24 19 21 20 23 21 22 22 7 23 8 24 19 25 9 26
REMARK SMILES IDX 12 27 10 28 11 29 13 30 14 31 18 32 15 33 17 34 16 35 32 36
REMARK SMILES IDX 33 37 34 38 35 39 36 40 37 42 38 43 39 44 100 45 40 46 99 47
REMARK SMILES IDX 41 48 42 49 43 50 93 51 44 52 98 53 92 54 94 55 45 56 97 57
REMARK SMILES IDX 91 58 90 59 46 61 78 62 58 63 77 64 59 65 62 66 76 67 95 68
REMARK SMILES IDX 60 69 61 70 75 72 96 73 63 74 47 75 48 76 56 77 49 78 51 79
REMARK SMILES IDX 57 80 50 81 52 82 53 83 54 84 55 85 79 86 80 87 88 88 81 89
REMARK SMILES IDX 83 90 89 91 82 92 84 93 85 94 86 95 87 96 64 97 65 98 73 99
REMARK SMILES IDX 66 100 68 101 74 102 67 103 69 104 70 105 71 106 72 107
REMARK H PARENT 28 7 1 10 1 11 1 12 35 41 94 60 62 71
REMARK Flexibility Score: inf
ROOT
ATOM      1  C   UNL A   1      38.313  21.439  25.555  1.00  0.00     0.002 C 
ENDROOT
BRANCH   1   2
ATOM      2  C   UNL A   1      37.011  20.977  24.899  1.00  0.00     0.021 C 
BRANCH   2   3
ATOM      3  C   UNL A   1      35.704  21.548  25.404  1.00  0.00     0.116 C 
BRANCH   3   4
ATOM      4  N   UNL A   1      34.539  20.719  25.243  1.00  0.00    -0.351 N 
ATOM      5  C   UNL A   1      33.269  20.962  25.695  1.00  0.00     0.278 C 
ATOM      6  O   UNL A   1      32.402  20.137  25.379  1.00  0.00    -0.268 OA
ATOM      7  H   UNL A   1      34.670  19.876  24.751  1.00  0.00     0.163 HD
BRANCH   5   8
ATOM      8  C   UNL A   1      32.902  22.176  26.614  1.00  0.00     0.275 C 
BRANCH   8   9
ATOM      9  N   UNL A   1      32.874  21.777  28.038  1.00  0.00    -0.347 N 
ATOM     10  H   UNL A   1      32.656  20.783  28.108  1.00  0.00     0.345 HD
ATOM     11  H   UNL A   1      32.160  22.317  28.528  1.00  0.00     0.345 HD
ATOM     12  H   UNL A   1      33.785  21.955  28.460  1.00  0.00     0.345 HD
ENDBRANCH   8   9
BRANCH   8  13
ATOM     13  C   UNL A   1      33.522  23.558  26.298  1.00  0.00     0.113 C 
BRANCH  13  14
ATOM     14  C   UNL A   1      32.823  24.570  25.406  1.00  0.00    -0.015 A 
ATOM     15  C   UNL A   1      32.077  25.697  25.714  1.00  0.00     0.099 A 
ATOM     16  C   UNL A   1      32.843  24.513  23.972  1.00  0.00     0.004 A 
ATOM     17  N   UNL A   1      31.876  26.458  24.567  1.00  0.00    -0.285 N 
ATOM     18  C   UNL A   1      32.217  25.667  23.467  1.00  0.00     0.056 A 
ATOM     19  C   UNL A   1      33.392  23.571  23.070  1.00  0.00     0.010 A 
ATOM     20  C   UNL A   1      32.146  25.893  22.079  1.00  0.00     0.027 A 
ATOM     21  C   UNL A   1      33.314  23.790  21.697  1.00  0.00     0.001 A 
ATOM     22  C   UNL A   1      32.701  24.938  21.211  1.00  0.00     0.002 A 
BRANCH  17  23
ATOM     23  C   UNL A   1      31.490  27.854  24.581  1.00  0.00     0.240 A 
ATOM     24  N   UNL A   1      30.530  28.250  23.764  1.00  0.00    -0.181 NA
ATOM     25  N   UNL A   1      32.121  28.680  25.445  1.00  0.00    -0.176 NA
ATOM     26  C   UNL A   1      30.191  29.521  23.962  1.00  0.00     0.228 A 
ATOM     27  C   UNL A   1      31.779  29.979  25.460  1.00  0.00     0.231 A 
ATOM     28  Cl  UNL A   1      28.794  30.047  23.129  1.00  0.00    -0.041 Cl
ATOM     29  N   UNL A   1      30.757  30.429  24.758  1.00  0.00    -0.182 NA
BRANCH  27  30
ATOM     30  N   UNL A   1      32.540  30.870  26.221  1.00  0.00    -0.336 N 
ATOM     31  C   UNL A   1      31.765  31.940  26.880  1.00  0.00     0.148 C 
ATOM     32  C   UNL A   1      33.460  30.302  27.215  1.00  0.00     0.148 C 
ATOM     33  C   UNL A   1      32.681  33.039  27.448  1.00  0.00     0.181 C 
ATOM     34  C   UNL A   1      34.378  31.436  27.733  1.00  0.00     0.181 C 
ATOM     35  O   UNL A   1      33.632  32.489  28.368  1.00  0.00    -0.378 OA
ENDBRANCH  27  30
ENDBRANCH  17  23
ENDBRANCH  13  14
ENDBRANCH   8  13
ENDBRANCH   5   8
ENDBRANCH   3   4
ENDBRANCH   2   3
ENDBRANCH   1   2
BRANCH   1  36
ATOM     36  C   UNL A   1      39.555  20.564  25.830  1.00  0.00     0.002 C 
BRANCH  36  37
ATOM     37  C   UNL A   1      40.865  20.960  26.542  1.00  0.00     0.021 C 
BRANCH  37  38
ATOM     38  C   UNL A   1      42.150  20.104  26.623  1.00  0.00     0.116 C 
BRANCH  38  39
ATOM     39  N   UNL A   1      42.737  19.613  25.386  1.00  0.00    -0.352 N 
ATOM     40  C   UNL A   1      44.007  19.854  24.881  1.00  0.00     0.251 C 
ATOM     41  H   UNL A   1      42.159  19.035  24.837  1.00  0.00     0.163 HD
ATOM     42  O   UNL A   1      44.577  18.959  24.259  1.00  0.00    -0.269 OA
BRANCH  40  43
ATOM     43  C   UNL A   1      44.572  21.224  24.871  1.00  0.00     0.039 A 
ATOM     44  C   UNL A   1      45.672  21.573  25.641  1.00  0.00     0.014 A 
ATOM     45  C   UNL A   1      43.695  22.215  24.398  1.00  0.00     0.014 A 
ATOM     46  C   UNL A   1      45.639  22.791  26.285  1.00  0.00     0.010 A 
ATOM     47  C   UNL A   1      43.708  23.468  24.982  1.00  0.00     0.010 A 
ATOM     48  C   UNL A   1      44.588  23.689  26.033  1.00  0.00    -0.014 A 
BRANCH  48  49
ATOM     49  C   UNL A   1      44.498  24.851  26.905  1.00  0.00     0.031 A 
ATOM     50  C   UNL A   1      45.648  25.774  26.772  1.00  0.00     0.074 A 
ATOM     51  C   UNL A   1      43.493  25.093  27.772  1.00  0.00     0.049 A 
ATOM     52  N   UNL A   1      46.596  25.978  27.627  1.00  0.00    -0.248 NA
ATOM     53  C   UNL A   1      45.866  26.382  25.453  1.00  0.00     0.031 C 
ATOM     54  C   UNL A   1      42.189  24.435  27.874  1.00  0.00     0.029 A 
ATOM     55  N   UNL A   1      43.403  26.096  28.691  1.00  0.00    -0.354 N 
ATOM     56  C   UNL A   1      47.427  26.915  27.027  1.00  0.00     0.074 A 
ATOM     57  C   UNL A   1      47.035  26.994  25.642  1.00  0.00     0.031 C 
ATOM     58  C   UNL A   1      41.356  25.220  28.597  1.00  0.00     0.029 A 
ATOM     59  C   UNL A   1      42.104  26.351  29.117  1.00  0.00     0.049 A 
ATOM     60  H   UNL A   1      44.185  26.594  29.022  1.00  0.00     0.167 HD
ATOM     61  C   UNL A   1      48.226  27.740  27.753  1.00  0.00     0.034 A 
ATOM     62  C   UNL A   1      41.686  27.472  29.755  1.00  0.00     0.034 A 
ATOM     63  C   UNL A   1      48.414  27.289  29.101  1.00  0.00     0.049 A 
ATOM     64  C   UNL A   1      42.884  28.079  30.388  1.00  0.00     0.074 A 
ATOM     65  C   UNL A   1      48.939  26.156  29.690  1.00  0.00     0.029 A 
ATOM     66  N   UNL A   1      47.689  27.924  30.078  1.00  0.00    -0.354 N 
ATOM     67  N   UNL A   1      43.543  27.533  31.373  1.00  0.00    -0.248 NA
ATOM     68  C   UNL A   1      43.591  29.124  29.665  1.00  0.00     0.031 C 
ATOM     69  C   UNL A   1      48.129  25.929  30.839  1.00  0.00     0.029 A 
ATOM     70  C   UNL A   1      47.180  26.953  30.897  1.00  0.00     0.049 A 
ATOM     71  H   UNL A   1      47.562  28.896  30.173  1.00  0.00     0.167 HD
ATOM     72  C   UNL A   1      44.871  27.850  31.121  1.00  0.00     0.074 A 
ATOM     73  C   UNL A   1      44.828  28.916  30.125  1.00  0.00     0.031 C 
ATOM     74  C   UNL A   1      45.882  27.028  31.527  1.00  0.00     0.034 A 
BRANCH  61  75
ATOM     75  C   UNL A   1      48.530  29.150  27.338  1.00  0.00     0.023 A 
ATOM     76  C   UNL A   1      49.876  29.557  27.286  1.00  0.00     0.012 A 
ATOM     77  C   UNL A   1      47.539  30.157  27.261  1.00  0.00     0.148 A 
ATOM     78  C   UNL A   1      50.221  30.909  27.175  1.00  0.00     0.002 A 
ATOM     79  C   UNL A   1      47.885  31.485  27.065  1.00  0.00     0.091 A 
ATOM     80  F   UNL A   1      46.262  29.855  27.521  1.00  0.00    -0.205 F 
ATOM     81  C   UNL A   1      49.224  31.872  27.048  1.00  0.00     0.022 A 
BRANCH  79  82
ATOM     82  S   UNL A   1      46.619  32.740  26.850  1.00  0.00     0.127 S 
ATOM     83  O   UNL A   1      45.944  32.696  28.150  1.00  0.00    -0.237 OA
ATOM     84  O   UNL A   1      47.427  33.941  26.615  1.00  0.00    -0.237 OA
ATOM     85  O   UNL A   1      45.844  32.311  25.704  1.00  0.00    -0.744 OA
ENDBRANCH  79  82
ENDBRANCH  61  75
BRANCH  62  86
ATOM     86  C   UNL A   1      40.413  28.227  29.615  1.00  0.00     0.023 A 
ATOM     87  C   UNL A   1      39.785  28.277  28.351  1.00  0.00     0.012 A 
ATOM     88  C   UNL A   1      39.661  28.645  30.736  1.00  0.00     0.148 A 
ATOM     89  C   UNL A   1      38.445  28.663  28.218  1.00  0.00     0.002 A 
ATOM     90  C   UNL A   1      38.335  29.045  30.597  1.00  0.00     0.091 A 
ATOM     91  F   UNL A   1      40.204  28.555  31.957  1.00  0.00    -0.205 F 
ATOM     92  C   UNL A   1      37.717  29.037  29.342  1.00  0.00     0.022 A 
BRANCH  90  93
ATOM     93  S   UNL A   1      37.340  29.542  32.011  1.00  0.00     0.127 S 
ATOM     94  O   UNL A   1      38.050  30.729  32.487  1.00  0.00    -0.237 OA
ATOM     95  O   UNL A   1      36.046  29.803  31.398  1.00  0.00    -0.237 OA
ATOM     96  O   UNL A   1      37.391  28.412  32.938  1.00  0.00    -0.744 OA
ENDBRANCH  90  93
ENDBRANCH  62  86
BRANCH  74  97
ATOM     97  C   UNL A   1      45.558  25.917  32.489  1.00  0.00     0.023 A 
ATOM     98  C   UNL A   1      45.051  24.676  32.049  1.00  0.00     0.012 A 
ATOM     99  C   UNL A   1      45.980  26.053  33.821  1.00  0.00     0.148 A 
ATOM    100  C   UNL A   1      44.964  23.592  32.927  1.00  0.00     0.002 A 
ATOM    101  C   UNL A   1      45.931  24.962  34.680  1.00  0.00     0.091 A 
ATOM    102  F   UNL A   1      46.474  27.239  34.210  1.00  0.00    -0.205 F 
ATOM    103  C   UNL A   1      45.418  23.731  34.238  1.00  0.00     0.022 A 
BRANCH 101 104
ATOM    104  S   UNL A   1      46.615  25.027  36.337  1.00  0.00     0.127 S 
ATOM    105  O   UNL A   1      46.822  23.612  36.638  1.00  0.00    -0.237 OA
ATOM    106  O   UNL A   1      47.845  25.795  36.131  1.00  0.00    -0.237 OA
ATOM    107  O   UNL A   1      45.620  25.699  37.163  1.00  0.00    -0.744 OA
ENDBRANCH 101 104
ENDBRANCH  74  97
ENDBRANCH  48  49
ENDBRANCH  40  43
ENDBRANCH  38  39
ENDBRANCH  37  38
ENDBRANCH  36  37
ENDBRANCH   1  36
TORSDOF 21
ENDMDL
