MODEL 1
REMARK VINA RESULT:     -12.5      0.000      0.000
REMARK SMILES CCN1C[C@]2(C(=O)NCCCCCCNC(=O)c3ccc(-c4c5nc(c(-c6cccc(S(=O)(=O)[O-])c6F)c6ccc([nH]6)c(-c6cccc(S(=O)(=O)[O-])c6F)c6nc(c(-c7cccc(S(=O)(=O)[O-])c7F)c7ccc4[nH]7)C=C6)C=C5)cc3)CN(c3ccc(-c4ccccc4)nn3)C[C@H]2C1=O
REMARK SMILES IDX 12 1 11 2 10 3 9 4 8 5 6 6 7 7 5 9 3 10 4 11 97 12 96 13
REMARK SMILES IDX 98 14 81 15 95 16 82 17 2 18 1 19 83 20 84 21 94 22 85 23
REMARK SMILES IDX 93 24 86 25 87 26 88 27 92 28 89 29 91 30 90 31 13 32 14 33
REMARK SMILES IDX 15 34 16 35 17 37 18 38 19 39 80 40 20 41 79 42 21 43 22 44
REMARK SMILES IDX 23 45 73 46 24 47 78 48 72 49 74 50 25 51 77 52 71 53 70 54
REMARK SMILES IDX 26 56 58 57 38 58 57 59 39 60 42 61 56 62 75 63 40 64 41 65
REMARK SMILES IDX 55 67 76 68 43 69 27 70 28 71 36 72 29 73 31 74 37 75 30 76
REMARK SMILES IDX 32 77 33 78 34 79 35 80 59 81 60 82 68 83 61 84 63 85 69 86
REMARK SMILES IDX 62 87 64 88 65 89 66 90 67 91 44 92 45 93 53 94 46 95 48 96
REMARK SMILES IDX 54 97 47 98 49 99 50 100 51 101 52 102
REMARK H PARENT 8 8 15 36 74 55 42 66
REMARK Flexibility Score: inf
ROOT
ATOM      1  C   UNL A   1      32.067  27.442  26.527  1.00  0.00     0.002 C 
ENDROOT
BRANCH   1   2
ATOM      2  C   UNL A   1      32.822  26.170  26.134  1.00  0.00     0.002 C 
BRANCH   2   3
ATOM      3  C   UNL A   1      32.185  24.882  26.659  1.00  0.00     0.021 C 
BRANCH   3   4
ATOM      4  C   UNL A   1      33.207  23.798  27.011  1.00  0.00     0.116 C 
BRANCH   4   5
ATOM      5  N   UNL A   1      32.647  22.499  26.699  1.00  0.00    -0.355 N 
ATOM      6  C   UNL A   1      32.394  22.026  25.437  1.00  0.00     0.230 C 
ATOM      7  O   UNL A   1      31.503  21.188  25.289  1.00  0.00    -0.274 OA
ATOM      8  H   UNL A   1      32.431  21.906  27.455  1.00  0.00     0.163 HD
BRANCH   6   9
ATOM      9  C   UNL A   1      33.315  22.545  24.322  1.00  0.00     0.097 C 
ATOM     10  N   UNL A   1      35.600  21.668  24.282  1.00  0.00    -0.341 N 
ATOM     11  C   UNL A   1      34.254  21.286  24.660  1.00  0.00     0.139 C 
ATOM     12  C   UNL A   1      35.550  22.628  23.302  1.00  0.00     0.228 C 
ATOM     13  C   UNL A   1      34.099  22.718  22.984  1.00  0.00     0.117 C 
ATOM     14  O   UNL A   1      36.466  23.215  22.767  1.00  0.00    -0.274 OA
ATOM     15  C   UNL A   1      31.966  22.796  23.453  1.00  0.00     0.137 C 
ATOM     16  C   UNL A   1      33.704  24.063  22.426  1.00  0.00     0.133 C 
ATOM     17  N   UNL A   1      32.290  24.025  22.704  1.00  0.00    -0.353 N 
BRANCH  10  18
ATOM     18  C   UNL A   1      36.809  21.261  24.977  1.00  0.00     0.116 C 
ATOM     19  C   UNL A   1      37.309  22.278  25.986  1.00  0.00     0.027 C 
ENDBRANCH  10  18
BRANCH  17  20
ATOM     20  C   UNL A   1      31.487  25.134  22.772  1.00  0.00     0.151 A 
ATOM     21  C   UNL A   1      30.362  25.191  23.584  1.00  0.00     0.051 A 
ATOM     22  N   UNL A   1      31.748  26.189  21.983  1.00  0.00    -0.132 NA
ATOM     23  C   UNL A   1      29.540  26.325  23.597  1.00  0.00     0.035 A 
ATOM     24  N   UNL A   1      30.962  27.343  22.028  1.00  0.00    -0.148 NA
ATOM     25  C   UNL A   1      29.878  27.427  22.829  1.00  0.00     0.093 A 
BRANCH  25  26
ATOM     26  C   UNL A   1      29.130  28.705  22.816  1.00  0.00     0.002 A 
ATOM     27  C   UNL A   1      29.732  29.884  22.332  1.00  0.00     0.010 A 
ATOM     28  C   UNL A   1      27.815  28.823  23.312  1.00  0.00     0.010 A 
ATOM     29  C   UNL A   1      29.064  31.115  22.349  1.00  0.00     0.001 A 
ATOM     30  C   UNL A   1      27.145  30.053  23.331  1.00  0.00     0.001 A 
ATOM     31  C   UNL A   1      27.771  31.199  22.851  1.00  0.00     0.000 A 
ENDBRANCH  25  26
ENDBRANCH  17  20
ENDBRANCH   6   9
ENDBRANCH   4   5
ENDBRANCH   3   4
ENDBRANCH   2   3
ENDBRANCH   1   2
BRANCH   1  32
ATOM     32  C   UNL A   1      31.980  28.496  25.419  1.00  0.00     0.021 C 
BRANCH  32  33
ATOM     33  C   UNL A   1      33.132  29.497  25.420  1.00  0.00     0.116 C 
BRANCH  33  34
ATOM     34  N   UNL A   1      32.685  30.809  25.855  1.00  0.00    -0.352 N 
ATOM     35  C   UNL A   1      33.061  31.529  26.958  1.00  0.00     0.251 C 
ATOM     36  H   UNL A   1      32.018  31.242  25.274  1.00  0.00     0.163 HD
ATOM     37  O   UNL A   1      32.374  32.473  27.335  1.00  0.00    -0.269 OA
BRANCH  35  38
ATOM     38  C   UNL A   1      34.292  31.162  27.688  1.00  0.00     0.039 A 
ATOM     39  C   UNL A   1      34.422  29.861  28.176  1.00  0.00     0.014 A 
ATOM     40  C   UNL A   1      35.296  32.108  27.920  1.00  0.00     0.014 A 
ATOM     41  C   UNL A   1      35.575  29.501  28.874  1.00  0.00     0.010 A 
ATOM     42  C   UNL A   1      36.480  31.722  28.542  1.00  0.00     0.010 A 
ATOM     43  C   UNL A   1      36.623  30.422  29.046  1.00  0.00    -0.014 A 
BRANCH  43  44
ATOM     44  C   UNL A   1      37.865  30.029  29.758  1.00  0.00     0.031 A 
ATOM     45  C   UNL A   1      38.146  30.540  31.145  1.00  0.00     0.074 A 
ATOM     46  C   UNL A   1      38.763  29.243  29.133  1.00  0.00     0.049 A 
ATOM     47  N   UNL A   1      39.167  30.286  31.923  1.00  0.00    -0.248 NA
ATOM     48  C   UNL A   1      37.170  31.475  31.729  1.00  0.00     0.031 C 
ATOM     49  C   UNL A   1      38.645  28.751  27.759  1.00  0.00     0.029 A 
ATOM     50  N   UNL A   1      39.960  28.731  29.566  1.00  0.00    -0.354 N 
ATOM     51  C   UNL A   1      38.972  31.046  33.070  1.00  0.00     0.074 A 
ATOM     52  C   UNL A   1      37.756  31.803  32.871  1.00  0.00     0.031 C 
ATOM     53  C   UNL A   1      39.715  27.996  27.467  1.00  0.00     0.029 A 
ATOM     54  C   UNL A   1      40.611  27.975  28.618  1.00  0.00     0.049 A 
ATOM     55  H   UNL A   1      40.320  28.889  30.469  1.00  0.00     0.167 HD
ATOM     56  C   UNL A   1      39.721  31.091  34.197  1.00  0.00     0.034 A 
ATOM     57  C   UNL A   1      41.799  27.341  28.669  1.00  0.00     0.034 A 
ATOM     58  C   UNL A   1      40.915  30.314  34.403  1.00  0.00     0.049 A 
ATOM     59  C   UNL A   1      42.591  27.377  29.947  1.00  0.00     0.074 A 
ATOM     60  C   UNL A   1      41.698  30.226  35.539  1.00  0.00     0.029 A 
ATOM     61  N   UNL A   1      41.507  29.505  33.446  1.00  0.00    -0.354 N 
ATOM     62  N   UNL A   1      42.308  27.978  31.078  1.00  0.00    -0.248 NA
ATOM     63  C   UNL A   1      43.846  26.613  29.970  1.00  0.00     0.031 C 
ATOM     64  C   UNL A   1      42.787  29.396  35.257  1.00  0.00     0.029 A 
ATOM     65  C   UNL A   1      42.656  28.927  33.960  1.00  0.00     0.049 A 
ATOM     66  H   UNL A   1      41.162  29.363  32.534  1.00  0.00     0.167 HD
ATOM     67  C   UNL A   1      43.328  27.632  31.957  1.00  0.00     0.074 A 
ATOM     68  C   UNL A   1      44.220  26.750  31.234  1.00  0.00     0.031 C 
ATOM     69  C   UNL A   1      43.514  28.018  33.244  1.00  0.00     0.034 A 
BRANCH  56  70
ATOM     70  C   UNL A   1      39.253  31.988  35.315  1.00  0.00     0.023 A 
ATOM     71  C   UNL A   1      38.350  31.497  36.280  1.00  0.00     0.012 A 
ATOM     72  C   UNL A   1      39.755  33.298  35.444  1.00  0.00     0.148 A 
ATOM     73  C   UNL A   1      37.926  32.306  37.334  1.00  0.00     0.002 A 
ATOM     74  C   UNL A   1      39.367  34.080  36.526  1.00  0.00     0.091 A 
ATOM     75  F   UNL A   1      40.596  33.756  34.505  1.00  0.00    -0.205 F 
ATOM     76  C   UNL A   1      38.443  33.591  37.463  1.00  0.00     0.022 A 
BRANCH  74  77
ATOM     77  S   UNL A   1      40.040  35.718  36.826  1.00  0.00     0.127 S 
ATOM     78  O   UNL A   1      41.476  35.444  36.860  1.00  0.00    -0.237 OA
ATOM     79  O   UNL A   1      39.588  36.455  35.646  1.00  0.00    -0.237 OA
ATOM     80  O   UNL A   1      39.462  36.167  38.084  1.00  0.00    -0.744 OA
ENDBRANCH  74  77
ENDBRANCH  56  70
BRANCH  57  81
ATOM     81  C   UNL A   1      42.285  26.574  27.488  1.00  0.00     0.023 A 
ATOM     82  C   UNL A   1      43.019  27.232  26.481  1.00  0.00     0.012 A 
ATOM     83  C   UNL A   1      42.039  25.194  27.368  1.00  0.00     0.148 A 
ATOM     84  C   UNL A   1      43.462  26.536  25.356  1.00  0.00     0.002 A 
ATOM     85  C   UNL A   1      42.536  24.494  26.276  1.00  0.00     0.091 A 
ATOM     86  F   UNL A   1      41.333  24.590  28.334  1.00  0.00    -0.205 F 
ATOM     87  C   UNL A   1      43.229  25.166  25.257  1.00  0.00     0.022 A 
BRANCH  85  88
ATOM     88  S   UNL A   1      42.403  22.709  26.138  1.00  0.00     0.127 S 
ATOM     89  O   UNL A   1      43.181  22.261  27.290  1.00  0.00    -0.237 OA
ATOM     90  O   UNL A   1      40.959  22.506  26.250  1.00  0.00    -0.237 OA
ATOM     91  O   UNL A   1      42.956  22.372  24.832  1.00  0.00    -0.744 OA
ENDBRANCH  85  88
ENDBRANCH  57  81
BRANCH  69  92
ATOM     92  C   UNL A   1      44.706  27.450  33.973  1.00  0.00     0.023 A 
ATOM     93  C   UNL A   1      45.935  28.139  33.971  1.00  0.00     0.012 A 
ATOM     94  C   UNL A   1      44.591  26.248  34.698  1.00  0.00     0.148 A 
ATOM     95  C   UNL A   1      47.044  27.614  34.634  1.00  0.00     0.002 A 
ATOM     96  C   UNL A   1      45.683  25.760  35.403  1.00  0.00     0.091 A 
ATOM     97  F   UNL A   1      43.419  25.595  34.676  1.00  0.00    -0.205 F 
ATOM     98  C   UNL A   1      46.916  26.432  35.358  1.00  0.00     0.022 A 
BRANCH  96  99
ATOM     99  S   UNL A   1      45.580  24.300  36.444  1.00  0.00     0.127 S 
ATOM    100  O   UNL A   1      44.524  24.678  37.382  1.00  0.00    -0.237 OA
ATOM    101  O   UNL A   1      45.200  23.262  35.485  1.00  0.00    -0.237 OA
ATOM    102  O   UNL A   1      46.904  24.127  37.026  1.00  0.00    -0.744 OA
ENDBRANCH  96  99
ENDBRANCH  69  92
ENDBRANCH  43  44
ENDBRANCH  35  38
ENDBRANCH  33  34
ENDBRANCH  32  33
ENDBRANCH   1  32
TORSDOF 19
ENDMDL
MODEL 2
REMARK VINA RESULT:     -12.4      4.141      9.527
REMARK SMILES CCN1C[C@]2(C(=O)NCCCCCCNC(=O)c3ccc(-c4c5nc(c(-c6cccc(S(=O)(=O)[O-])c6F)c6ccc([nH]6)c(-c6cccc(S(=O)(=O)[O-])c6F)c6nc(c(-c7cccc(S(=O)(=O)[O-])c7F)c7ccc4[nH]7)C=C6)C=C5)cc3)CN(c3ccc(-c4ccccc4)nn3)C[C@H]2C1=O
REMARK SMILES IDX 12 1 11 2 10 3 9 4 8 5 6 6 7 7 5 9 3 10 4 11 97 12 96 13
REMARK SMILES IDX 98 14 81 15 95 16 82 17 2 18 1 19 83 20 84 21 94 22 85 23
REMARK SMILES IDX 93 24 86 25 87 26 88 27 92 28 89 29 91 30 90 31 13 32 14 33
REMARK SMILES IDX 15 34 16 35 17 37 18 38 19 39 80 40 20 41 79 42 21 43 22 44
REMARK SMILES IDX 23 45 73 46 24 47 78 48 72 49 74 50 25 51 77 52 71 53 70 54
REMARK SMILES IDX 26 56 58 57 38 58 57 59 39 60 42 61 56 62 75 63 40 64 41 65
REMARK SMILES IDX 55 67 76 68 43 69 27 70 28 71 36 72 29 73 31 74 37 75 30 76
REMARK SMILES IDX 32 77 33 78 34 79 35 80 59 81 60 82 68 83 61 84 63 85 69 86
REMARK SMILES IDX 62 87 64 88 65 89 66 90 67 91 44 92 45 93 53 94 46 95 48 96
REMARK SMILES IDX 54 97 47 98 49 99 50 100 51 101 52 102
REMARK H PARENT 8 8 15 36 74 55 42 66
REMARK Flexibility Score: inf
ROOT
ATOM      1  C   UNL A   1      34.920  23.870  24.310  1.00  0.00     0.002 C 
ENDROOT
BRANCH   1   2
ATOM      2  C   UNL A   1      34.438  25.114  25.062  1.00  0.00     0.002 C 
BRANCH   2   3
ATOM      3  C   UNL A   1      34.080  26.291  24.151  1.00  0.00     0.021 C 
BRANCH   3   4
ATOM      4  C   UNL A   1      33.634  25.861  22.751  1.00  0.00     0.116 C 
BRANCH   4   5
ATOM      5  N   UNL A   1      32.686  26.828  22.237  1.00  0.00    -0.355 N 
ATOM      6  C   UNL A   1      31.424  27.041  22.729  1.00  0.00     0.230 C 
ATOM      7  O   UNL A   1      30.560  27.479  21.968  1.00  0.00    -0.274 OA
ATOM      8  H   UNL A   1      32.971  27.379  21.472  1.00  0.00     0.163 HD
BRANCH   6   9
ATOM      9  C   UNL A   1      31.228  26.776  24.231  1.00  0.00     0.097 C 
ATOM     10  N   UNL A   1      31.293  28.724  25.712  1.00  0.00    -0.341 N 
ATOM     11  C   UNL A   1      30.931  28.350  24.359  1.00  0.00     0.139 C 
ATOM     12  C   UNL A   1      31.199  27.630  26.535  1.00  0.00     0.228 C 
ATOM     13  C   UNL A   1      30.614  26.585  25.652  1.00  0.00     0.117 C 
ATOM     14  O   UNL A   1      31.458  27.546  27.717  1.00  0.00    -0.274 OA
ATOM     15  C   UNL A   1      30.385  25.459  23.793  1.00  0.00     0.137 C 
ATOM     16  C   UNL A   1      30.967  25.185  26.088  1.00  0.00     0.133 C 
ATOM     17  N   UNL A   1      30.734  24.489  24.848  1.00  0.00    -0.353 N 
BRANCH  10  18
ATOM     18  C   UNL A   1      31.873  29.999  26.096  1.00  0.00     0.116 C 
ATOM     19  C   UNL A   1      33.370  29.945  26.339  1.00  0.00     0.027 C 
ENDBRANCH  10  18
BRANCH  17  20
ATOM     20  C   UNL A   1      31.264  23.262  24.540  1.00  0.00     0.151 A 
ATOM     21  C   UNL A   1      31.627  22.910  23.247  1.00  0.00     0.051 A 
ATOM     22  N   UNL A   1      31.383  22.333  25.503  1.00  0.00    -0.132 NA
ATOM     23  C   UNL A   1      32.127  21.632  22.961  1.00  0.00     0.035 A 
ATOM     24  N   UNL A   1      31.928  21.075  25.235  1.00  0.00    -0.148 NA
ATOM     25  C   UNL A   1      32.309  20.722  23.989  1.00  0.00     0.093 A 
BRANCH  25  26
ATOM     26  C   UNL A   1      32.895  19.372  23.822  1.00  0.00     0.002 A 
ATOM     27  C   UNL A   1      34.006  18.971  24.592  1.00  0.00     0.010 A 
ATOM     28  C   UNL A   1      32.412  18.443  22.877  1.00  0.00     0.010 A 
ATOM     29  C   UNL A   1      34.608  17.719  24.424  1.00  0.00     0.001 A 
ATOM     30  C   UNL A   1      33.013  17.189  22.707  1.00  0.00     0.001 A 
ATOM     31  C   UNL A   1      34.112  16.828  23.479  1.00  0.00     0.000 A 
ENDBRANCH  25  26
ENDBRANCH  17  20
ENDBRANCH   6   9
ENDBRANCH   4   5
ENDBRANCH   3   4
ENDBRANCH   2   3
ENDBRANCH   1   2
BRANCH   1  32
ATOM     32  C   UNL A   1      36.403  23.544  24.509  1.00  0.00     0.021 C 
BRANCH  32  33
ATOM     33  C   UNL A   1      36.823  23.429  25.972  1.00  0.00     0.116 C 
BRANCH  33  34
ATOM     34  N   UNL A   1      37.927  22.498  26.128  1.00  0.00    -0.352 N 
ATOM     35  C   UNL A   1      39.253  22.758  26.354  1.00  0.00     0.251 C 
ATOM     36  H   UNL A   1      37.688  21.545  26.064  1.00  0.00     0.163 HD
ATOM     37  O   UNL A   1      40.089  21.882  26.161  1.00  0.00    -0.269 OA
BRANCH  35  38
ATOM     38  C   UNL A   1      39.666  24.095  26.827  1.00  0.00     0.039 A 
ATOM     39  C   UNL A   1      39.517  24.406  28.181  1.00  0.00     0.014 A 
ATOM     40  C   UNL A   1      40.165  25.050  25.935  1.00  0.00     0.014 A 
ATOM     41  C   UNL A   1      39.896  25.667  28.642  1.00  0.00     0.010 A 
ATOM     42  C   UNL A   1      40.620  26.275  26.413  1.00  0.00     0.010 A 
ATOM     43  C   UNL A   1      40.469  26.605  27.767  1.00  0.00    -0.014 A 
BRANCH  43  44
ATOM     44  C   UNL A   1      40.905  27.934  28.265  1.00  0.00     0.031 A 
ATOM     45  C   UNL A   1      42.364  28.304  28.282  1.00  0.00     0.074 A 
ATOM     46  C   UNL A   1      39.985  28.794  28.744  1.00  0.00     0.049 A 
ATOM     47  N   UNL A   1      42.922  29.425  28.663  1.00  0.00    -0.248 NA
ATOM     48  C   UNL A   1      43.324  27.281  27.838  1.00  0.00     0.031 C 
ATOM     49  C   UNL A   1      38.551  28.520  28.858  1.00  0.00     0.029 A 
ATOM     50  N   UNL A   1      40.120  30.067  29.238  1.00  0.00    -0.354 N 
ATOM     51  C   UNL A   1      44.293  29.232  28.531  1.00  0.00     0.074 A 
ATOM     52  C   UNL A   1      44.485  27.873  28.074  1.00  0.00     0.031 C 
ATOM     53  C   UNL A   1      37.936  29.597  29.372  1.00  0.00     0.029 A 
ATOM     54  C   UNL A   1      38.932  30.624  29.654  1.00  0.00     0.049 A 
ATOM     55  H   UNL A   1      40.983  30.537  29.291  1.00  0.00     0.167 HD
ATOM     56  C   UNL A   1      45.299  30.113  28.744  1.00  0.00     0.034 A 
ATOM     57  C   UNL A   1      38.676  31.826  30.206  1.00  0.00     0.034 A 
ATOM     58  C   UNL A   1      45.102  31.473  29.170  1.00  0.00     0.049 A 
ATOM     59  C   UNL A   1      39.808  32.799  30.397  1.00  0.00     0.074 A 
ATOM     60  C   UNL A   1      46.049  32.468  29.335  1.00  0.00     0.029 A 
ATOM     61  N   UNL A   1      43.879  32.025  29.516  1.00  0.00    -0.354 N 
ATOM     62  N   UNL A   1      41.080  32.649  30.116  1.00  0.00    -0.248 NA
ATOM     63  C   UNL A   1      39.462  34.120  30.939  1.00  0.00     0.031 C 
ATOM     64  C   UNL A   1      45.403  33.610  29.820  1.00  0.00     0.029 A 
ATOM     65  C   UNL A   1      44.047  33.343  29.909  1.00  0.00     0.049 A 
ATOM     66  H   UNL A   1      43.016  31.551  29.486  1.00  0.00     0.167 HD
ATOM     67  C   UNL A   1      41.679  33.869  30.411  1.00  0.00     0.074 A 
ATOM     68  C   UNL A   1      40.625  34.751  30.868  1.00  0.00     0.031 C 
ATOM     69  C   UNL A   1      42.985  34.223  30.322  1.00  0.00     0.034 A 
BRANCH  56  70
ATOM     70  C   UNL A   1      46.708  29.644  28.487  1.00  0.00     0.023 A 
ATOM     71  C   UNL A   1      47.285  29.814  27.211  1.00  0.00     0.012 A 
ATOM     72  C   UNL A   1      47.483  29.090  29.525  1.00  0.00     0.148 A 
ATOM     73  C   UNL A   1      48.595  29.407  26.963  1.00  0.00     0.002 A 
ATOM     74  C   UNL A   1      48.805  28.735  29.283  1.00  0.00     0.091 A 
ATOM     75  F   UNL A   1      46.912  28.915  30.725  1.00  0.00    -0.205 F 
ATOM     76  C   UNL A   1      49.358  28.880  28.000  1.00  0.00     0.022 A 
BRANCH  74  77
ATOM     77  S   UNL A   1      49.895  28.124  30.574  1.00  0.00     0.127 S 
ATOM     78  O   UNL A   1      49.823  29.206  31.554  1.00  0.00    -0.237 OA
ATOM     79  O   UNL A   1      49.224  26.888  30.980  1.00  0.00    -0.237 OA
ATOM     80  O   UNL A   1      51.194  27.935  29.948  1.00  0.00    -0.744 OA
ENDBRANCH  74  77
ENDBRANCH  56  70
BRANCH  57  81
ATOM     81  C   UNL A   1      37.279  32.196  30.570  1.00  0.00     0.023 A 
ATOM     82  C   UNL A   1      36.811  31.959  31.877  1.00  0.00     0.012 A 
ATOM     83  C   UNL A   1      36.421  32.798  29.631  1.00  0.00     0.148 A 
ATOM     84  C   UNL A   1      35.499  32.277  32.230  1.00  0.00     0.002 A 
ATOM     85  C   UNL A   1      35.135  33.168  30.006  1.00  0.00     0.091 A 
ATOM     86  F   UNL A   1      36.884  33.007  28.391  1.00  0.00    -0.205 F 
ATOM     87  C   UNL A   1      34.664  32.890  31.298  1.00  0.00     0.022 A 
BRANCH  85  88
ATOM     88  S   UNL A   1      34.043  34.085  28.915  1.00  0.00     0.127 S 
ATOM     89  O   UNL A   1      33.015  34.550  29.842  1.00  0.00    -0.237 OA
ATOM     90  O   UNL A   1      34.934  35.129  28.406  1.00  0.00    -0.237 OA
ATOM     91  O   UNL A   1      33.601  33.131  27.906  1.00  0.00    -0.744 OA
ENDBRANCH  85  88
ENDBRANCH  57  81
BRANCH  69  92
ATOM     92  C   UNL A   1      43.345  35.643  30.681  1.00  0.00     0.023 A 
ATOM     93  C   UNL A   1      43.467  36.621  29.673  1.00  0.00     0.012 A 
ATOM     94  C   UNL A   1      43.522  36.015  32.027  1.00  0.00     0.148 A 
ATOM     95  C   UNL A   1      43.811  37.933  29.996  1.00  0.00     0.002 A 
ATOM     96  C   UNL A   1      43.807  37.337  32.347  1.00  0.00     0.091 A 
ATOM     97  F   UNL A   1      43.419  35.070  32.973  1.00  0.00    -0.205 F 
ATOM     98  C   UNL A   1      43.970  38.294  31.332  1.00  0.00     0.022 A 
BRANCH  96  99
ATOM     99  S   UNL A   1      43.928  37.910  34.045  1.00  0.00     0.127 S 
ATOM    100  O   UNL A   1      45.157  37.257  34.492  1.00  0.00    -0.237 OA
ATOM    101  O   UNL A   1      44.035  39.360  33.876  1.00  0.00    -0.237 OA
ATOM    102  O   UNL A   1      42.707  37.469  34.705  1.00  0.00    -0.744 OA
ENDBRANCH  96  99
ENDBRANCH  69  92
ENDBRANCH  43  44
ENDBRANCH  35  38
ENDBRANCH  33  34
ENDBRANCH  32  33
ENDBRANCH   1  32
TORSDOF 19
ENDMDL
MODEL 3
REMARK VINA RESULT:     -12.4      2.244      2.871
REMARK SMILES CCN1C[C@]2(C(=O)NCCCCCCNC(=O)c3ccc(-c4c5nc(c(-c6cccc(S(=O)(=O)[O-])c6F)c6ccc([nH]6)c(-c6cccc(S(=O)(=O)[O-])c6F)c6nc(c(-c7cccc(S(=O)(=O)[O-])c7F)c7ccc4[nH]7)C=C6)C=C5)cc3)CN(c3ccc(-c4ccccc4)nn3)C[C@H]2C1=O
REMARK SMILES IDX 12 1 11 2 10 3 9 4 8 5 6 6 7 7 5 9 3 10 4 11 97 12 96 13
REMARK SMILES IDX 98 14 81 15 95 16 82 17 2 18 1 19 83 20 84 21 94 22 85 23
REMARK SMILES IDX 93 24 86 25 87 26 88 27 92 28 89 29 91 30 90 31 13 32 14 33
REMARK SMILES IDX 15 34 16 35 17 37 18 38 19 39 80 40 20 41 79 42 21 43 22 44
REMARK SMILES IDX 23 45 73 46 24 47 78 48 72 49 74 50 25 51 77 52 71 53 70 54
REMARK SMILES IDX 26 56 58 57 38 58 57 59 39 60 42 61 56 62 75 63 40 64 41 65
REMARK SMILES IDX 55 67 76 68 43 69 27 70 28 71 36 72 29 73 31 74 37 75 30 76
REMARK SMILES IDX 32 77 33 78 34 79 35 80 59 81 60 82 68 83 61 84 63 85 69 86
REMARK SMILES IDX 62 87 64 88 65 89 66 90 67 91 44 92 45 93 53 94 46 95 48 96
REMARK SMILES IDX 54 97 47 98 49 99 50 100 51 101 52 102
REMARK H PARENT 8 8 15 36 74 55 42 66
REMARK Flexibility Score: inf
ROOT
ATOM      1  C   UNL A   1      32.168  27.160  26.543  1.00  0.00     0.002 C 
ENDROOT
BRANCH   1   2
ATOM      2  C   UNL A   1      32.865  25.830  26.242  1.00  0.00     0.002 C 
BRANCH   2   3
ATOM      3  C   UNL A   1      32.118  24.604  26.769  1.00  0.00     0.021 C 
BRANCH   3   4
ATOM      4  C   UNL A   1      33.047  23.479  27.231  1.00  0.00     0.116 C 
BRANCH   4   5
ATOM      5  N   UNL A   1      32.515  22.209  26.781  1.00  0.00    -0.355 N 
ATOM      6  C   UNL A   1      32.344  21.840  25.471  1.00  0.00     0.230 C 
ATOM      7  O   UNL A   1      31.469  21.016  25.200  1.00  0.00    -0.274 OA
ATOM      8  H   UNL A   1      32.254  21.557  27.471  1.00  0.00     0.163 HD
BRANCH   6   9
ATOM      9  C   UNL A   1      33.332  22.447  24.462  1.00  0.00     0.097 C 
ATOM     10  N   UNL A   1      35.611  21.555  24.476  1.00  0.00    -0.341 N 
ATOM     11  C   UNL A   1      34.244  21.154  24.740  1.00  0.00     0.139 C 
ATOM     12  C   UNL A   1      35.623  22.599  23.586  1.00  0.00     0.228 C 
ATOM     13  C   UNL A   1      34.194  22.731  23.193  1.00  0.00     0.117 C 
ATOM     14  O   UNL A   1      36.572  23.222  23.159  1.00  0.00    -0.274 OA
ATOM     15  C   UNL A   1      32.037  22.787  23.543  1.00  0.00     0.137 C 
ATOM     16  C   UNL A   1      33.838  24.124  22.736  1.00  0.00     0.133 C 
ATOM     17  N   UNL A   1      32.411  24.075  22.926  1.00  0.00    -0.353 N 
BRANCH  10  18
ATOM     18  C   UNL A   1      36.775  21.076  25.202  1.00  0.00     0.116 C 
ATOM     19  C   UNL A   1      37.319  19.756  24.688  1.00  0.00     0.027 C 
ENDBRANCH  10  18
BRANCH  17  20
ATOM     20  C   UNL A   1      31.610  25.181  23.046  1.00  0.00     0.151 A 
ATOM     21  C   UNL A   1      30.378  25.144  23.687  1.00  0.00     0.051 A 
ATOM     22  N   UNL A   1      31.987  26.336  22.474  1.00  0.00    -0.132 NA
ATOM     23  C   UNL A   1      29.567  26.284  23.755  1.00  0.00     0.035 A 
ATOM     24  N   UNL A   1      31.207  27.489  22.581  1.00  0.00    -0.148 NA
ATOM     25  C   UNL A   1      30.017  27.480  23.220  1.00  0.00     0.093 A 
BRANCH  25  26
ATOM     26  C   UNL A   1      29.283  28.764  23.295  1.00  0.00     0.002 A 
ATOM     27  C   UNL A   1      27.926  28.838  22.923  1.00  0.00     0.010 A 
ATOM     28  C   UNL A   1      29.896  29.969  23.696  1.00  0.00     0.010 A 
ATOM     29  C   UNL A   1      27.220  30.047  22.941  1.00  0.00     0.001 A 
ATOM     30  C   UNL A   1      29.193  31.180  23.715  1.00  0.00     0.001 A 
ATOM     31  C   UNL A   1      27.856  31.219  23.336  1.00  0.00     0.000 A 
ENDBRANCH  25  26
ENDBRANCH  17  20
ENDBRANCH   6   9
ENDBRANCH   4   5
ENDBRANCH   3   4
ENDBRANCH   2   3
ENDBRANCH   1   2
BRANCH   1  32
ATOM     32  C   UNL A   1      32.696  28.350  25.735  1.00  0.00     0.021 C 
BRANCH  32  33
ATOM     33  C   UNL A   1      34.030  28.898  26.236  1.00  0.00     0.116 C 
BRANCH  33  34
ATOM     34  N   UNL A   1      33.896  30.275  26.678  1.00  0.00    -0.352 N 
ATOM     35  C   UNL A   1      34.572  30.933  27.673  1.00  0.00     0.251 C 
ATOM     36  H   UNL A   1      33.226  30.811  26.195  1.00  0.00     0.163 HD
ATOM     37  O   UNL A   1      34.132  31.990  28.114  1.00  0.00    -0.269 OA
BRANCH  35  38
ATOM     38  C   UNL A   1      35.825  30.364  28.208  1.00  0.00     0.039 A 
ATOM     39  C   UNL A   1      37.005  30.533  27.480  1.00  0.00     0.014 A 
ATOM     40  C   UNL A   1      35.831  29.637  29.402  1.00  0.00     0.014 A 
ATOM     41  C   UNL A   1      38.196  29.995  27.967  1.00  0.00     0.010 A 
ATOM     42  C   UNL A   1      37.034  29.175  29.927  1.00  0.00     0.010 A 
ATOM     43  C   UNL A   1      38.226  29.329  29.205  1.00  0.00    -0.014 A 
BRANCH  43  44
ATOM     44  C   UNL A   1      39.499  28.787  29.741  1.00  0.00     0.031 A 
ATOM     45  C   UNL A   1      40.133  29.392  30.965  1.00  0.00     0.074 A 
ATOM     46  C   UNL A   1      40.109  27.773  29.097  1.00  0.00     0.049 A 
ATOM     47  N   UNL A   1      41.231  29.036  31.582  1.00  0.00    -0.248 NA
ATOM     48  C   UNL A   1      39.466  30.561  31.561  1.00  0.00     0.031 C 
ATOM     49  C   UNL A   1      39.638  27.157  27.854  1.00  0.00     0.029 A 
ATOM     50  N   UNL A   1      41.264  27.092  29.387  1.00  0.00    -0.354 N 
ATOM     51  C   UNL A   1      41.399  29.948  32.618  1.00  0.00     0.074 A 
ATOM     52  C   UNL A   1      40.315  30.900  32.521  1.00  0.00     0.031 C 
ATOM     53  C   UNL A   1      40.485  26.179  27.499  1.00  0.00     0.029 A 
ATOM     54  C   UNL A   1      41.575  26.118  28.466  1.00  0.00     0.049 A 
ATOM     55  H   UNL A   1      41.817  27.281  30.179  1.00  0.00     0.167 HD
ATOM     56  C   UNL A   1      42.354  29.977  33.577  1.00  0.00     0.034 A 
ATOM     57  C   UNL A   1      42.624  25.274  28.406  1.00  0.00     0.034 A 
ATOM     58  C   UNL A   1      43.415  29.012  33.688  1.00  0.00     0.049 A 
ATOM     59  C   UNL A   1      43.649  25.304  29.506  1.00  0.00     0.074 A 
ATOM     60  C   UNL A   1      44.383  28.905  34.671  1.00  0.00     0.029 A 
ATOM     61  N   UNL A   1      43.660  27.996  32.776  1.00  0.00    -0.354 N 
ATOM     62  N   UNL A   1      43.702  26.076  30.564  1.00  0.00    -0.248 NA
ATOM     63  C   UNL A   1      44.735  24.317  29.426  1.00  0.00     0.031 C 
ATOM     64  C   UNL A   1      45.237  27.851  34.332  1.00  0.00     0.029 A 
ATOM     65  C   UNL A   1      44.772  27.268  33.165  1.00  0.00     0.049 A 
ATOM     66  H   UNL A   1      43.121  27.819  31.970  1.00  0.00     0.167 HD
ATOM     67  C   UNL A   1      44.803  25.643  31.295  1.00  0.00     0.074 A 
ATOM     68  C   UNL A   1      45.371  24.525  30.570  1.00  0.00     0.031 C 
ATOM     69  C   UNL A   1      45.304  26.133  32.456  1.00  0.00     0.034 A 
BRANCH  56  70
ATOM     70  C   UNL A   1      42.277  31.072  34.611  1.00  0.00     0.023 A 
ATOM     71  C   UNL A   1      41.571  30.858  35.812  1.00  0.00     0.012 A 
ATOM     72  C   UNL A   1      42.956  32.292  34.418  1.00  0.00     0.148 A 
ATOM     73  C   UNL A   1      41.510  31.852  36.789  1.00  0.00     0.002 A 
ATOM     74  C   UNL A   1      42.933  33.258  35.418  1.00  0.00     0.091 A 
ATOM     75  F   UNL A   1      43.603  32.488  33.261  1.00  0.00    -0.205 F 
ATOM     76  C   UNL A   1      42.200  33.045  36.597  1.00  0.00     0.022 A 
BRANCH  74  77
ATOM     77  S   UNL A   1      43.857  34.793  35.301  1.00  0.00     0.127 S 
ATOM     78  O   UNL A   1      43.456  35.471  36.534  1.00  0.00    -0.237 OA
ATOM     79  O   UNL A   1      45.240  34.317  35.290  1.00  0.00    -0.237 OA
ATOM     80  O   UNL A   1      43.422  35.434  34.069  1.00  0.00    -0.744 OA
ENDBRANCH  74  77
ENDBRANCH  56  70
BRANCH  57  81
ATOM     81  C   UNL A   1      42.728  24.295  27.288  1.00  0.00     0.023 A 
ATOM     82  C   UNL A   1      43.423  24.645  26.113  1.00  0.00     0.012 A 
ATOM     83  C   UNL A   1      42.158  23.013  27.391  1.00  0.00     0.148 A 
ATOM     84  C   UNL A   1      43.512  23.750  25.046  1.00  0.00     0.002 A 
ATOM     85  C   UNL A   1      42.301  22.104  26.350  1.00  0.00     0.091 A 
ATOM     86  F   UNL A   1      41.494  22.703  28.514  1.00  0.00    -0.205 F 
ATOM     87  C   UNL A   1      42.959  22.477  25.168  1.00  0.00     0.022 A 
BRANCH  85  88
ATOM     88  S   UNL A   1      41.744  20.402  26.477  1.00  0.00     0.127 S 
ATOM     89  O   UNL A   1      40.295  20.554  26.380  1.00  0.00    -0.237 OA
ATOM     90  O   UNL A   1      42.381  19.790  25.310  1.00  0.00    -0.237 OA
ATOM     91  O   UNL A   1      42.244  19.918  27.757  1.00  0.00    -0.744 OA
ENDBRANCH  85  88
ENDBRANCH  57  81
BRANCH  69  92
ATOM     92  C   UNL A   1      46.503  25.432  33.045  1.00  0.00     0.023 A 
ATOM     93  C   UNL A   1      46.333  24.440  34.032  1.00  0.00     0.012 A 
ATOM     94  C   UNL A   1      47.800  25.732  32.586  1.00  0.00     0.148 A 
ATOM     95  C   UNL A   1      47.438  23.797  34.588  1.00  0.00     0.002 A 
ATOM     96  C   UNL A   1      48.892  25.047  33.104  1.00  0.00     0.091 A 
ATOM     97  F   UNL A   1      47.947  26.691  31.659  1.00  0.00    -0.205 F 
ATOM     98  C   UNL A   1      48.715  24.091  34.118  1.00  0.00     0.022 A 
BRANCH  96  99
ATOM     99  S   UNL A   1      50.560  25.290  32.484  1.00  0.00     0.127 S 
ATOM    100  O   UNL A   1      50.776  26.709  32.761  1.00  0.00    -0.237 OA
ATOM    101  O   UNL A   1      51.339  24.379  33.325  1.00  0.00    -0.237 OA
ATOM    102  O   UNL A   1      50.522  24.924  31.075  1.00  0.00    -0.744 OA
ENDBRANCH  96  99
ENDBRANCH  69  92
ENDBRANCH  43  44
ENDBRANCH  35  38
ENDBRANCH  33  34
ENDBRANCH  32  33
ENDBRANCH   1  32
TORSDOF 19
ENDMDL
