MODEL 1
REMARK VINA RESULT:     -11.6      0.000      0.000
REMARK SMILES COc1cccc(-c2cccnc2C(=O)NCCCCCCNC(=O)c2ccc(-c3c4nc(c(-c5cccc(S(=O)(=O)[O-])c5F)c5ccc([nH]5)c(-c5cccc(S(=O)(=O)[O-])c5F)c5nc(c(-c6cccc(S(=O)(=O)[O-])c6F)c6ccc3[nH]6)C=C5)C=C4)cc2)c1F
REMARK SMILES IDX 20 1 19 2 18 3 17 4 16 5 14 6 15 7 13 9 8 10 9 11 10 12
REMARK SMILES IDX 12 13 11 14 7 15 3 16 4 17 89 18 5 19 90 20 6 21 2 22 1 23
REMARK SMILES IDX 21 24 22 25 23 26 24 27 25 29 26 30 27 31 88 32 28 33 87 34
REMARK SMILES IDX 29 35 30 36 31 37 81 38 32 39 86 40 80 41 82 42 33 43 85 44
REMARK SMILES IDX 79 45 78 46 34 48 66 49 46 50 65 51 47 52 50 53 64 54 83 55
REMARK SMILES IDX 48 56 49 57 63 59 84 60 51 61 35 62 36 63 44 64 37 65 39 66
REMARK SMILES IDX 45 67 38 68 40 69 41 70 42 71 43 72 67 73 68 74 76 75 69 76
REMARK SMILES IDX 71 77 77 78 70 79 72 80 73 81 74 82 75 83 52 84 53 85 61 86
REMARK SMILES IDX 54 87 56 88 62 89 55 90 57 91 58 92 59 93 60 94
REMARK H PARENT 16 8 23 28 82 47 50 58
REMARK Flexibility Score: inf
ROOT
ATOM      1  C   UNL A   1      31.480  27.136  25.903  1.00  0.00     0.002 C 
ENDROOT
BRANCH   1   2
ATOM      2  C   UNL A   1      31.661  25.685  26.359  1.00  0.00     0.002 C 
BRANCH   2   3
ATOM      3  C   UNL A   1      33.061  25.069  26.319  1.00  0.00     0.021 C 
BRANCH   3   4
ATOM      4  C   UNL A   1      33.195  23.561  26.471  1.00  0.00     0.116 C 
BRANCH   4   5
ATOM      5  N   UNL A   1      34.483  22.976  26.228  1.00  0.00    -0.351 N 
ATOM      6  C   UNL A   1      34.840  21.956  25.364  1.00  0.00     0.270 C 
ATOM      7  O   UNL A   1      36.058  21.755  25.265  1.00  0.00    -0.267 OA
ATOM      8  H   UNL A   1      35.222  23.356  26.754  1.00  0.00     0.163 HD
BRANCH   6   9
ATOM      9  C   UNL A   1      33.889  21.032  24.607  1.00  0.00     0.136 A 
ATOM     10  C   UNL A   1      32.868  21.361  23.696  1.00  0.00     0.016 A 
ATOM     11  C   UNL A   1      32.198  20.281  23.069  1.00  0.00     0.013 A 
ATOM     12  C   UNL A   1      32.534  18.961  23.332  1.00  0.00     0.021 A 
ATOM     13  N   UNL A   1      34.214  19.718  24.865  1.00  0.00    -0.250 NA
ATOM     14  C   UNL A   1      33.546  18.732  24.232  1.00  0.00     0.112 A 
BRANCH  10  15
ATOM     15  C   UNL A   1      32.398  22.694  23.307  1.00  0.00     0.024 A 
ATOM     16  C   UNL A   1      32.902  24.876  22.298  1.00  0.00     0.155 A 
ATOM     17  C   UNL A   1      31.601  25.288  22.581  1.00  0.00     0.049 A 
ATOM     18  C   UNL A   1      33.303  23.607  22.715  1.00  0.00     0.172 A 
ATOM     19  C   UNL A   1      30.696  24.416  23.196  1.00  0.00     0.005 A 
ATOM     20  F   UNL A   1      34.563  23.192  22.495  1.00  0.00    -0.202 F 
ATOM     21  C   UNL A   1      31.086  23.121  23.549  1.00  0.00     0.012 A 
BRANCH  16  22
ATOM     22  O   UNL A   1      33.664  25.781  21.611  1.00  0.00    -0.494 OA
ATOM     23  C   UNL A   1      33.606  27.130  22.066  1.00  0.00     0.278 C 
ENDBRANCH  16  22
ENDBRANCH  10  15
ENDBRANCH   6   9
ENDBRANCH   4   5
ENDBRANCH   3   4
ENDBRANCH   2   3
ENDBRANCH   1   2
BRANCH   1  24
ATOM     24  C   UNL A   1      32.713  28.042  25.852  1.00  0.00     0.021 C 
BRANCH  24  25
ATOM     25  C   UNL A   1      33.253  28.587  27.170  1.00  0.00     0.116 C 
BRANCH  25  26
ATOM     26  N   UNL A   1      33.374  30.032  27.180  1.00  0.00    -0.352 N 
ATOM     27  C   UNL A   1      34.363  30.850  27.670  1.00  0.00     0.251 C 
ATOM     28  H   UNL A   1      32.618  30.508  26.765  1.00  0.00     0.163 HD
ATOM     29  O   UNL A   1      34.167  32.065  27.678  1.00  0.00    -0.269 OA
BRANCH  27  30
ATOM     30  C   UNL A   1      35.645  30.318  28.200  1.00  0.00     0.039 A 
ATOM     31  C   UNL A   1      36.760  30.320  27.353  1.00  0.00     0.014 A 
ATOM     32  C   UNL A   1      35.759  29.749  29.472  1.00  0.00     0.014 A 
ATOM     33  C   UNL A   1      37.982  29.795  27.787  1.00  0.00     0.010 A 
ATOM     34  C   UNL A   1      36.998  29.286  29.930  1.00  0.00     0.010 A 
ATOM     35  C   UNL A   1      38.122  29.291  29.090  1.00  0.00    -0.014 A 
BRANCH  35  36
ATOM     36  C   UNL A   1      39.434  28.773  29.571  1.00  0.00     0.031 A 
ATOM     37  C   UNL A   1      40.175  29.464  30.687  1.00  0.00     0.074 A 
ATOM     38  C   UNL A   1      39.989  27.700  28.972  1.00  0.00     0.049 A 
ATOM     39  N   UNL A   1      41.327  29.153  31.225  1.00  0.00    -0.248 NA
ATOM     40  C   UNL A   1      39.555  30.667  31.265  1.00  0.00     0.031 C 
ATOM     41  C   UNL A   1      39.412  26.980  27.835  1.00  0.00     0.029 A 
ATOM     42  N   UNL A   1      41.168  27.037  29.218  1.00  0.00    -0.354 N 
ATOM     43  C   UNL A   1      41.586  30.134  32.176  1.00  0.00     0.074 A 
ATOM     44  C   UNL A   1      40.482  31.067  32.126  1.00  0.00     0.031 C 
ATOM     45  C   UNL A   1      40.232  25.975  27.488  1.00  0.00     0.029 A 
ATOM     46  C   UNL A   1      41.408  25.994  28.354  1.00  0.00     0.049 A 
ATOM     47  H   UNL A   1      41.784  27.287  29.945  1.00  0.00     0.167 HD
ATOM     48  C   UNL A   1      42.630  30.233  33.032  1.00  0.00     0.034 A 
ATOM     49  C   UNL A   1      42.455  25.148  28.259  1.00  0.00     0.034 A 
ATOM     50  C   UNL A   1      43.699  29.274  33.120  1.00  0.00     0.049 A 
ATOM     51  C   UNL A   1      43.583  25.257  29.249  1.00  0.00     0.074 A 
ATOM     52  C   UNL A   1      44.744  29.241  34.026  1.00  0.00     0.029 A 
ATOM     53  N   UNL A   1      43.868  28.190  32.274  1.00  0.00    -0.354 N 
ATOM     54  N   UNL A   1      43.725  26.097  30.244  1.00  0.00    -0.248 NA
ATOM     55  C   UNL A   1      44.679  24.282  29.129  1.00  0.00     0.031 C 
ATOM     56  C   UNL A   1      45.564  28.157  33.708  1.00  0.00     0.029 A 
ATOM     57  C   UNL A   1      45.010  27.493  32.625  1.00  0.00     0.049 A 
ATOM     58  H   UNL A   1      43.265  27.953  31.532  1.00  0.00     0.167 HD
ATOM     59  C   UNL A   1      44.906  25.737  30.884  1.00  0.00     0.074 A 
ATOM     60  C   UNL A   1      45.432  24.589  30.178  1.00  0.00     0.031 C 
ATOM     61  C   UNL A   1      45.504  26.319  31.952  1.00  0.00     0.034 A 
BRANCH  48  62
ATOM     62  C   UNL A   1      42.657  31.386  34.001  1.00  0.00     0.023 A 
ATOM     63  C   UNL A   1      43.251  32.603  33.613  1.00  0.00     0.012 A 
ATOM     64  C   UNL A   1      41.982  31.309  35.236  1.00  0.00     0.148 A 
ATOM     65  C   UNL A   1      43.190  33.721  34.445  1.00  0.00     0.002 A 
ATOM     66  C   UNL A   1      41.885  32.439  36.039  1.00  0.00     0.091 A 
ATOM     67  F   UNL A   1      41.435  30.138  35.592  1.00  0.00    -0.205 F 
ATOM     68  C   UNL A   1      42.495  33.643  35.649  1.00  0.00     0.022 A 
BRANCH  66  69
ATOM     69  S   UNL A   1      40.938  32.470  37.566  1.00  0.00     0.127 S 
ATOM     70  O   UNL A   1      40.783  33.908  37.787  1.00  0.00    -0.237 OA
ATOM     71  O   UNL A   1      39.709  31.778  37.178  1.00  0.00    -0.237 OA
ATOM     72  O   UNL A   1      41.745  31.775  38.557  1.00  0.00    -0.744 OA
ENDBRANCH  66  69
ENDBRANCH  48  62
BRANCH  49  73
ATOM     73  C   UNL A   1      42.446  24.082  27.215  1.00  0.00     0.023 A 
ATOM     74  C   UNL A   1      43.315  24.182  26.113  1.00  0.00     0.012 A 
ATOM     75  C   UNL A   1      41.626  22.943  27.342  1.00  0.00     0.148 A 
ATOM     76  C   UNL A   1      43.355  23.178  25.145  1.00  0.00     0.002 A 
ATOM     77  C   UNL A   1      41.714  21.919  26.407  1.00  0.00     0.091 A 
ATOM     78  F   UNL A   1      40.793  22.875  28.391  1.00  0.00    -0.205 F 
ATOM     79  C   UNL A   1      42.566  22.041  25.299  1.00  0.00     0.022 A 
BRANCH  77  80
ATOM     80  S   UNL A   1      40.848  20.357  26.608  1.00  0.00     0.127 S 
ATOM     81  O   UNL A   1      40.999  20.113  28.042  1.00  0.00    -0.237 OA
ATOM     82  O   UNL A   1      39.490  20.710  26.185  1.00  0.00    -0.237 OA
ATOM     83  O   UNL A   1      41.523  19.415  25.732  1.00  0.00    -0.744 OA
ENDBRANCH  77  80
ENDBRANCH  49  73
BRANCH  61  84
ATOM     84  C   UNL A   1      46.794  25.731  32.461  1.00  0.00     0.023 A 
ATOM     85  C   UNL A   1      48.023  26.263  32.024  1.00  0.00     0.012 A 
ATOM     86  C   UNL A   1      46.785  24.752  33.477  1.00  0.00     0.148 A 
ATOM     87  C   UNL A   1      49.223  25.822  32.580  1.00  0.00     0.002 A 
ATOM     88  C   UNL A   1      47.981  24.355  34.062  1.00  0.00     0.091 A 
ATOM     89  F   UNL A   1      45.605  24.250  33.868  1.00  0.00    -0.205 F 
ATOM     90  C   UNL A   1      49.201  24.882  33.609  1.00  0.00     0.022 A 
BRANCH  88  91
ATOM     91  S   UNL A   1      48.048  23.232  35.463  1.00  0.00     0.127 S 
ATOM     92  O   UNL A   1      49.488  23.020  35.606  1.00  0.00    -0.237 OA
ATOM     93  O   UNL A   1      47.440  24.030  36.527  1.00  0.00    -0.237 OA
ATOM     94  O   UNL A   1      47.284  22.055  35.074  1.00  0.00    -0.744 OA
ENDBRANCH  88  91
ENDBRANCH  61  84
ENDBRANCH  35  36
ENDBRANCH  27  30
ENDBRANCH  25  26
ENDBRANCH  24  25
ENDBRANCH   1  24
TORSDOF 18
ENDMDL
MODEL 2
REMARK VINA RESULT:     -11.4      4.732      9.635
REMARK SMILES COc1cccc(-c2cccnc2C(=O)NCCCCCCNC(=O)c2ccc(-c3c4nc(c(-c5cccc(S(=O)(=O)[O-])c5F)c5ccc([nH]5)c(-c5cccc(S(=O)(=O)[O-])c5F)c5nc(c(-c6cccc(S(=O)(=O)[O-])c6F)c6ccc3[nH]6)C=C5)C=C4)cc2)c1F
REMARK SMILES IDX 20 1 19 2 18 3 17 4 16 5 14 6 15 7 13 9 8 10 9 11 10 12
REMARK SMILES IDX 12 13 11 14 7 15 3 16 4 17 89 18 5 19 90 20 6 21 2 22 1 23
REMARK SMILES IDX 21 24 22 25 23 26 24 27 25 29 26 30 27 31 88 32 28 33 87 34
REMARK SMILES IDX 29 35 30 36 31 37 81 38 32 39 86 40 80 41 82 42 33 43 85 44
REMARK SMILES IDX 79 45 78 46 34 48 66 49 46 50 65 51 47 52 50 53 64 54 83 55
REMARK SMILES IDX 48 56 49 57 63 59 84 60 51 61 35 62 36 63 44 64 37 65 39 66
REMARK SMILES IDX 45 67 38 68 40 69 41 70 42 71 43 72 67 73 68 74 76 75 69 76
REMARK SMILES IDX 71 77 77 78 70 79 72 80 73 81 74 82 75 83 52 84 53 85 61 86
REMARK SMILES IDX 54 87 56 88 62 89 55 90 57 91 58 92 59 93 60 94
REMARK H PARENT 16 8 23 28 82 47 50 58
REMARK Flexibility Score: inf
ROOT
ATOM      1  C   UNL A   1      34.607  23.889  26.222  1.00  0.00     0.002 C 
ENDROOT
BRANCH   1   2
ATOM      2  C   UNL A   1      34.295  25.132  25.383  1.00  0.00     0.002 C 
BRANCH   2   3
ATOM      3  C   UNL A   1      33.981  26.446  26.101  1.00  0.00     0.021 C 
BRANCH   3   4
ATOM      4  C   UNL A   1      33.330  27.570  25.308  1.00  0.00     0.116 C 
BRANCH   4   5
ATOM      5  N   UNL A   1      33.594  27.634  23.899  1.00  0.00    -0.351 N 
ATOM      6  C   UNL A   1      32.728  27.887  22.849  1.00  0.00     0.270 C 
ATOM      7  O   UNL A   1      33.270  28.017  21.743  1.00  0.00    -0.267 OA
ATOM      8  H   UNL A   1      34.529  27.475  23.640  1.00  0.00     0.163 HD
BRANCH   6   9
ATOM      9  C   UNL A   1      31.204  27.936  22.921  1.00  0.00     0.136 A 
ATOM     10  C   UNL A   1      30.307  26.973  23.420  1.00  0.00     0.016 A 
ATOM     11  C   UNL A   1      28.936  27.329  23.445  1.00  0.00     0.013 A 
ATOM     12  C   UNL A   1      28.494  28.569  23.008  1.00  0.00     0.021 A 
ATOM     13  N   UNL A   1      30.756  29.163  22.485  1.00  0.00    -0.250 NA
ATOM     14  C   UNL A   1      29.440  29.448  22.541  1.00  0.00     0.112 A 
BRANCH  10  15
ATOM     15  C   UNL A   1      30.610  25.628  23.921  1.00  0.00     0.024 A 
ATOM     16  C   UNL A   1      30.744  24.090  25.831  1.00  0.00     0.155 A 
ATOM     17  C   UNL A   1      31.224  23.099  24.977  1.00  0.00     0.049 A 
ATOM     18  C   UNL A   1      30.498  25.359  25.305  1.00  0.00     0.172 A 
ATOM     19  C   UNL A   1      31.375  23.350  23.609  1.00  0.00     0.005 A 
ATOM     20  F   UNL A   1      30.074  26.351  26.108  1.00  0.00    -0.202 F 
ATOM     21  C   UNL A   1      31.061  24.604  23.078  1.00  0.00     0.012 A 
BRANCH  16  22
ATOM     22  O   UNL A   1      30.549  23.700  27.128  1.00  0.00    -0.494 OA
ATOM     23  C   UNL A   1      29.425  22.859  27.371  1.00  0.00     0.278 C 
ENDBRANCH  16  22
ENDBRANCH  10  15
ENDBRANCH   6   9
ENDBRANCH   4   5
ENDBRANCH   3   4
ENDBRANCH   2   3
ENDBRANCH   1   2
BRANCH   1  24
ATOM     24  C   UNL A   1      35.560  22.841  25.642  1.00  0.00     0.021 C 
BRANCH  24  25
ATOM     25  C   UNL A   1      36.997  23.265  25.353  1.00  0.00     0.116 C 
BRANCH  25  26
ATOM     26  N   UNL A   1      37.979  22.351  25.903  1.00  0.00    -0.352 N 
ATOM     27  C   UNL A   1      39.168  22.589  26.550  1.00  0.00     0.251 C 
ATOM     28  H   UNL A   1      37.758  21.398  25.792  1.00  0.00     0.163 HD
ATOM     29  O   UNL A   1      39.898  21.632  26.805  1.00  0.00    -0.269 OA
BRANCH  27  30
ATOM     30  C   UNL A   1      39.602  23.956  26.937  1.00  0.00     0.039 A 
ATOM     31  C   UNL A   1      39.354  24.380  28.248  1.00  0.00     0.014 A 
ATOM     32  C   UNL A   1      40.173  24.854  26.029  1.00  0.00     0.014 A 
ATOM     33  C   UNL A   1      39.707  25.672  28.656  1.00  0.00     0.010 A 
ATOM     34  C   UNL A   1      40.587  26.121  26.455  1.00  0.00     0.010 A 
ATOM     35  C   UNL A   1      40.348  26.551  27.769  1.00  0.00    -0.014 A 
BRANCH  35  36
ATOM     36  C   UNL A   1      40.767  27.910  28.213  1.00  0.00     0.031 A 
ATOM     37  C   UNL A   1      42.221  28.307  28.221  1.00  0.00     0.074 A 
ATOM     38  C   UNL A   1      39.840  28.784  28.657  1.00  0.00     0.049 A 
ATOM     39  N   UNL A   1      42.762  29.444  28.580  1.00  0.00    -0.248 NA
ATOM     40  C   UNL A   1      43.199  27.296  27.786  1.00  0.00     0.031 C 
ATOM     41  C   UNL A   1      38.406  28.504  28.768  1.00  0.00     0.029 A 
ATOM     42  N   UNL A   1      39.960  30.074  29.115  1.00  0.00    -0.354 N 
ATOM     43  C   UNL A   1      44.135  29.277  28.448  1.00  0.00     0.074 A 
ATOM     44  C   UNL A   1      44.351  27.919  27.999  1.00  0.00     0.031 C 
ATOM     45  C   UNL A   1      37.783  29.589  29.254  1.00  0.00     0.029 A 
ATOM     46  C   UNL A   1      38.769  30.632  29.519  1.00  0.00     0.049 A 
ATOM     47  H   UNL A   1      40.820  30.554  29.151  1.00  0.00     0.167 HD
ATOM     48  C   UNL A   1      45.125  30.178  28.653  1.00  0.00     0.034 A 
ATOM     49  C   UNL A   1      38.496  31.843  30.050  1.00  0.00     0.034 A 
ATOM     50  C   UNL A   1      44.907  31.544  29.046  1.00  0.00     0.049 A 
ATOM     51  C   UNL A   1      39.610  32.838  30.230  1.00  0.00     0.074 A 
ATOM     52  C   UNL A   1      45.843  32.554  29.178  1.00  0.00     0.029 A 
ATOM     53  N   UNL A   1      43.678  32.092  29.377  1.00  0.00    -0.354 N 
ATOM     54  N   UNL A   1      40.882  32.709  29.943  1.00  0.00    -0.248 NA
ATOM     55  C   UNL A   1      39.250  34.159  30.771  1.00  0.00     0.031 C 
ATOM     56  C   UNL A   1      45.186  33.705  29.621  1.00  0.00     0.029 A 
ATOM     57  C   UNL A   1      43.834  33.420  29.730  1.00  0.00     0.049 A 
ATOM     58  H   UNL A   1      42.821  31.607  29.363  1.00  0.00     0.167 HD
ATOM     59  C   UNL A   1      41.468  33.934  30.242  1.00  0.00     0.074 A 
ATOM     60  C   UNL A   1      40.409  34.802  30.712  1.00  0.00     0.031 C 
ATOM     61  C   UNL A   1      42.770  34.297  30.148  1.00  0.00     0.034 A 
BRANCH  48  62
ATOM     62  C   UNL A   1      46.548  29.751  28.401  1.00  0.00     0.023 A 
ATOM     63  C   UNL A   1      47.187  30.144  27.208  1.00  0.00     0.012 A 
ATOM     64  C   UNL A   1      47.289  29.081  29.395  1.00  0.00     0.148 A 
ATOM     65  C   UNL A   1      48.537  29.861  26.999  1.00  0.00     0.002 A 
ATOM     66  C   UNL A   1      48.644  28.843  29.199  1.00  0.00     0.091 A 
ATOM     67  F   UNL A   1      46.657  28.704  30.516  1.00  0.00    -0.205 F 
ATOM     68  C   UNL A   1      49.267  29.225  27.999  1.00  0.00     0.022 A 
BRANCH  66  69
ATOM     69  S   UNL A   1      49.695  28.111  30.459  1.00  0.00     0.127 S 
ATOM     70  O   UNL A   1      50.964  27.976  29.743  1.00  0.00    -0.237 OA
ATOM     71  O   UNL A   1      49.689  29.141  31.499  1.00  0.00    -0.237 OA
ATOM     72  O   UNL A   1      49.061  26.857  30.837  1.00  0.00    -0.744 OA
ENDBRANCH  66  69
ENDBRANCH  48  62
BRANCH  49  73
ATOM     73  C   UNL A   1      37.086  32.193  30.390  1.00  0.00     0.023 A 
ATOM     74  C   UNL A   1      36.612  31.975  31.697  1.00  0.00     0.012 A 
ATOM     75  C   UNL A   1      36.236  32.798  29.442  1.00  0.00     0.148 A 
ATOM     76  C   UNL A   1      35.310  32.333  32.051  1.00  0.00     0.002 A 
ATOM     77  C   UNL A   1      34.962  33.208  29.818  1.00  0.00     0.091 A 
ATOM     78  F   UNL A   1      36.701  32.983  28.199  1.00  0.00    -0.205 F 
ATOM     79  C   UNL A   1      34.491  32.961  31.116  1.00  0.00     0.022 A 
BRANCH  77  80
ATOM     80  S   UNL A   1      33.897  34.158  28.726  1.00  0.00     0.127 S 
ATOM     81  O   UNL A   1      32.842  34.593  29.641  1.00  0.00    -0.237 OA
ATOM     82  O   UNL A   1      34.799  35.222  28.277  1.00  0.00    -0.237 OA
ATOM     83  O   UNL A   1      33.485  33.240  27.677  1.00  0.00    -0.744 OA
ENDBRANCH  77  80
ENDBRANCH  49  73
BRANCH  61  84
ATOM     84  C   UNL A   1      43.154  35.701  30.536  1.00  0.00     0.023 A 
ATOM     85  C   UNL A   1      43.639  35.957  31.834  1.00  0.00     0.012 A 
ATOM     86  C   UNL A   1      43.169  36.733  29.575  1.00  0.00     0.148 A 
ATOM     87  C   UNL A   1      44.122  37.220  32.172  1.00  0.00     0.002 A 
ATOM     88  C   UNL A   1      43.699  37.974  29.904  1.00  0.00     0.091 A 
ATOM     89  F   UNL A   1      42.690  36.470  28.350  1.00  0.00    -0.205 F 
ATOM     90  C   UNL A   1      44.167  38.222  31.205  1.00  0.00     0.022 A 
BRANCH  88  91
ATOM     91  S   UNL A   1      43.897  39.293  28.701  1.00  0.00     0.127 S 
ATOM     92  O   UNL A   1      44.535  40.336  29.504  1.00  0.00    -0.237 OA
ATOM     93  O   UNL A   1      44.770  38.672  27.704  1.00  0.00    -0.237 OA
ATOM     94  O   UNL A   1      42.559  39.610  28.223  1.00  0.00    -0.744 OA
ENDBRANCH  88  91
ENDBRANCH  61  84
ENDBRANCH  35  36
ENDBRANCH  27  30
ENDBRANCH  25  26
ENDBRANCH  24  25
ENDBRANCH   1  24
TORSDOF 18
ENDMDL
MODEL 3
REMARK VINA RESULT:     -11.4      4.586      9.375
REMARK SMILES COc1cccc(-c2cccnc2C(=O)NCCCCCCNC(=O)c2ccc(-c3c4nc(c(-c5cccc(S(=O)(=O)[O-])c5F)c5ccc([nH]5)c(-c5cccc(S(=O)(=O)[O-])c5F)c5nc(c(-c6cccc(S(=O)(=O)[O-])c6F)c6ccc3[nH]6)C=C5)C=C4)cc2)c1F
REMARK SMILES IDX 20 1 19 2 18 3 17 4 16 5 14 6 15 7 13 9 8 10 9 11 10 12
REMARK SMILES IDX 12 13 11 14 7 15 3 16 4 17 89 18 5 19 90 20 6 21 2 22 1 23
REMARK SMILES IDX 21 24 22 25 23 26 24 27 25 29 26 30 27 31 88 32 28 33 87 34
REMARK SMILES IDX 29 35 30 36 31 37 81 38 32 39 86 40 80 41 82 42 33 43 85 44
REMARK SMILES IDX 79 45 78 46 34 48 66 49 46 50 65 51 47 52 50 53 64 54 83 55
REMARK SMILES IDX 48 56 49 57 63 59 84 60 51 61 35 62 36 63 44 64 37 65 39 66
REMARK SMILES IDX 45 67 38 68 40 69 41 70 42 71 43 72 67 73 68 74 76 75 69 76
REMARK SMILES IDX 71 77 77 78 70 79 72 80 73 81 74 82 75 83 52 84 53 85 61 86
REMARK SMILES IDX 54 87 56 88 62 89 55 90 57 91 58 92 59 93 60 94
REMARK H PARENT 16 8 23 28 82 47 50 58
REMARK Flexibility Score: inf
ROOT
ATOM      1  C   UNL A   1      34.833  22.903  24.648  1.00  0.00     0.002 C 
ENDROOT
BRANCH   1   2
ATOM      2  C   UNL A   1      34.545  21.478  25.130  1.00  0.00     0.002 C 
BRANCH   2   3
ATOM      3  C   UNL A   1      33.438  21.259  26.163  1.00  0.00     0.021 C 
BRANCH   3   4
ATOM      4  C   UNL A   1      33.311  22.248  27.313  1.00  0.00     0.116 C 
BRANCH   4   5
ATOM      5  N   UNL A   1      32.004  22.753  27.620  1.00  0.00    -0.351 N 
ATOM      6  C   UNL A   1      31.095  23.404  26.805  1.00  0.00     0.270 C 
ATOM      7  O   UNL A   1      29.982  23.601  27.313  1.00  0.00    -0.267 OA
ATOM      8  H   UNL A   1      31.709  22.616  28.548  1.00  0.00     0.163 HD
BRANCH   6   9
ATOM      9  C   UNL A   1      31.362  23.957  25.407  1.00  0.00     0.136 A 
ATOM     10  C   UNL A   1      31.813  25.236  25.029  1.00  0.00     0.016 A 
ATOM     11  C   UNL A   1      32.064  25.443  23.650  1.00  0.00     0.013 A 
ATOM     12  C   UNL A   1      31.884  24.436  22.715  1.00  0.00     0.021 A 
ATOM     13  N   UNL A   1      31.183  22.963  24.471  1.00  0.00    -0.250 NA
ATOM     14  C   UNL A   1      31.446  23.218  23.173  1.00  0.00     0.112 A 
BRANCH  10  15
ATOM     15  C   UNL A   1      32.056  26.399  25.888  1.00  0.00     0.024 A 
ATOM     16  C   UNL A   1      33.642  28.064  26.753  1.00  0.00     0.155 A 
ATOM     17  C   UNL A   1      32.627  28.591  27.549  1.00  0.00     0.049 A 
ATOM     18  C   UNL A   1      33.361  26.939  25.977  1.00  0.00     0.172 A 
ATOM     19  C   UNL A   1      31.335  28.054  27.505  1.00  0.00     0.005 A 
ATOM     20  F   UNL A   1      34.327  26.379  25.228  1.00  0.00    -0.202 F 
ATOM     21  C   UNL A   1      31.046  26.970  26.671  1.00  0.00     0.012 A 
BRANCH  16  22
ATOM     22  O   UNL A   1      34.835  28.730  26.811  1.00  0.00    -0.494 OA
ATOM     23  C   UNL A   1      34.821  29.995  27.466  1.00  0.00     0.278 C 
ENDBRANCH  16  22
ENDBRANCH  10  15
ENDBRANCH   6   9
ENDBRANCH   4   5
ENDBRANCH   3   4
ENDBRANCH   2   3
ENDBRANCH   1   2
BRANCH   1  24
ATOM     24  C   UNL A   1      35.992  23.668  25.290  1.00  0.00     0.021 C 
BRANCH  24  25
ATOM     25  C   UNL A   1      37.387  23.476  24.703  1.00  0.00     0.116 C 
BRANCH  25  26
ATOM     26  N   UNL A   1      38.179  22.504  25.431  1.00  0.00    -0.352 N 
ATOM     27  C   UNL A   1      39.198  22.669  26.337  1.00  0.00     0.251 C 
ATOM     28  H   UNL A   1      37.948  21.565  25.242  1.00  0.00     0.163 HD
ATOM     29  O   UNL A   1      39.810  21.672  26.719  1.00  0.00    -0.269 OA
BRANCH  27  30
ATOM     30  C   UNL A   1      39.592  24.005  26.856  1.00  0.00     0.039 A 
ATOM     31  C   UNL A   1      40.249  24.883  25.985  1.00  0.00     0.014 A 
ATOM     32  C   UNL A   1      39.402  24.385  28.188  1.00  0.00     0.014 A 
ATOM     33  C   UNL A   1      40.676  26.138  26.431  1.00  0.00     0.010 A 
ATOM     34  C   UNL A   1      39.768  25.667  28.615  1.00  0.00     0.010 A 
ATOM     35  C   UNL A   1      40.422  26.554  27.747  1.00  0.00    -0.014 A 
BRANCH  35  36
ATOM     36  C   UNL A   1      40.834  27.909  28.212  1.00  0.00     0.031 A 
ATOM     37  C   UNL A   1      42.288  28.306  28.242  1.00  0.00     0.074 A 
ATOM     38  C   UNL A   1      39.901  28.776  28.656  1.00  0.00     0.049 A 
ATOM     39  N   UNL A   1      42.823  29.439  28.621  1.00  0.00    -0.248 NA
ATOM     40  C   UNL A   1      43.272  27.302  27.806  1.00  0.00     0.031 C 
ATOM     41  C   UNL A   1      38.467  28.493  28.747  1.00  0.00     0.029 A 
ATOM     42  N   UNL A   1      40.015  30.060  29.132  1.00  0.00    -0.354 N 
ATOM     43  C   UNL A   1      44.198  29.275  28.504  1.00  0.00     0.074 A 
ATOM     44  C   UNL A   1      44.420  27.923  28.040  1.00  0.00     0.031 C 
ATOM     45  C   UNL A   1      37.836  29.571  29.239  1.00  0.00     0.029 A 
ATOM     46  C   UNL A   1      38.818  30.612  29.529  1.00  0.00     0.049 A 
ATOM     47  H   UNL A   1      40.874  30.540  29.183  1.00  0.00     0.167 HD
ATOM     48  C   UNL A   1      45.184  30.174  28.731  1.00  0.00     0.034 A 
ATOM     49  C   UNL A   1      38.538  31.816  30.071  1.00  0.00     0.034 A 
ATOM     50  C   UNL A   1      44.960  31.535  29.138  1.00  0.00     0.049 A 
ATOM     51  C   UNL A   1      39.648  32.810  30.276  1.00  0.00     0.074 A 
ATOM     52  C   UNL A   1      45.894  32.545  29.294  1.00  0.00     0.029 A 
ATOM     53  N   UNL A   1      43.727  32.078  29.461  1.00  0.00    -0.354 N 
ATOM     54  N   UNL A   1      40.924  32.685  30.003  1.00  0.00    -0.248 NA
ATOM     55  C   UNL A   1      39.281  34.123  30.830  1.00  0.00     0.031 C 
ATOM     56  C   UNL A   1      45.231  33.689  29.743  1.00  0.00     0.029 A 
ATOM     57  C   UNL A   1      43.878  33.402  29.833  1.00  0.00     0.049 A 
ATOM     58  H   UNL A   1      42.871  31.592  29.431  1.00  0.00     0.167 HD
ATOM     59  C   UNL A   1      41.505  33.907  30.324  1.00  0.00     0.074 A 
ATOM     60  C   UNL A   1      40.441  34.768  30.792  1.00  0.00     0.031 C 
ATOM     61  C   UNL A   1      42.808  34.273  30.249  1.00  0.00     0.034 A 
BRANCH  48  62
ATOM     62  C   UNL A   1      46.610  29.752  28.490  1.00  0.00     0.023 A 
ATOM     63  C   UNL A   1      47.219  30.043  27.253  1.00  0.00     0.012 A 
ATOM     64  C   UNL A   1      47.383  29.190  29.526  1.00  0.00     0.148 A 
ATOM     65  C   UNL A   1      48.570  29.767  27.043  1.00  0.00     0.002 A 
ATOM     66  C   UNL A   1      48.739  28.960  29.325  1.00  0.00     0.091 A 
ATOM     67  F   UNL A   1      46.781  28.908  30.691  1.00  0.00    -0.205 F 
ATOM     68  C   UNL A   1      49.332  29.241  28.083  1.00  0.00     0.022 A 
BRANCH  66  69
ATOM     69  S   UNL A   1      49.828  28.368  30.626  1.00  0.00     0.127 S 
ATOM     70  O   UNL A   1      49.260  27.050  30.908  1.00  0.00    -0.237 OA
ATOM     71  O   UNL A   1      51.126  28.339  29.950  1.00  0.00    -0.237 OA
ATOM     72  O   UNL A   1      49.726  29.332  31.711  1.00  0.00    -0.744 OA
ENDBRANCH  66  69
ENDBRANCH  48  62
BRANCH  49  73
ATOM     73  C   UNL A   1      37.124  32.161  30.399  1.00  0.00     0.023 A 
ATOM     74  C   UNL A   1      36.629  31.909  31.692  1.00  0.00     0.012 A 
ATOM     75  C   UNL A   1      36.289  32.792  29.455  1.00  0.00     0.148 A 
ATOM     76  C   UNL A   1      35.323  32.261  32.036  1.00  0.00     0.002 A 
ATOM     77  C   UNL A   1      35.011  33.195  29.822  1.00  0.00     0.091 A 
ATOM     78  F   UNL A   1      36.774  33.009  28.225  1.00  0.00    -0.205 F 
ATOM     79  C   UNL A   1      34.520  32.916  31.106  1.00  0.00     0.022 A 
BRANCH  77  80
ATOM     80  S   UNL A   1      33.965  34.177  28.740  1.00  0.00     0.127 S 
ATOM     81  O   UNL A   1      32.858  34.526  29.630  1.00  0.00    -0.237 OA
ATOM     82  O   UNL A   1      34.851  35.291  28.394  1.00  0.00    -0.237 OA
ATOM     83  O   UNL A   1      33.628  33.311  27.623  1.00  0.00    -0.744 OA
ENDBRANCH  77  80
ENDBRANCH  49  73
BRANCH  61  84
ATOM     84  C   UNL A   1      43.186  35.672  30.660  1.00  0.00     0.023 A 
ATOM     85  C   UNL A   1      43.595  35.923  31.984  1.00  0.00     0.012 A 
ATOM     86  C   UNL A   1      43.273  36.702  29.700  1.00  0.00     0.148 A 
ATOM     87  C   UNL A   1      44.072  37.180  32.350  1.00  0.00     0.002 A 
ATOM     88  C   UNL A   1      43.798  37.937  30.061  1.00  0.00     0.091 A 
ATOM     89  F   UNL A   1      42.866  36.444  28.449  1.00  0.00    -0.205 F 
ATOM     90  C   UNL A   1      44.189  38.180  31.388  1.00  0.00     0.022 A 
BRANCH  88  91
ATOM     91  S   UNL A   1      44.087  39.251  28.871  1.00  0.00     0.127 S 
ATOM     92  O   UNL A   1      44.674  40.293  29.713  1.00  0.00    -0.237 OA
ATOM     93  O   UNL A   1      45.022  38.622  27.938  1.00  0.00    -0.237 OA
ATOM     94  O   UNL A   1      42.786  39.575  28.302  1.00  0.00    -0.744 OA
ENDBRANCH  88  91
ENDBRANCH  61  84
ENDBRANCH  35  36
ENDBRANCH  27  30
ENDBRANCH  25  26
ENDBRANCH  24  25
ENDBRANCH   1  24
TORSDOF 18
ENDMDL
