MODEL 1
REMARK VINA RESULT:     -11.5      0.000      0.000
REMARK SMILES CC1(C)CCC[C@H]1NC(=O)N[C@@H]1COC[C@@]1(C)C(=O)NCCCCCCNC(=O)c1ccc(-c2c3nc(c(-c4cccc(S(=O)(=O)[O-])c4F)c4ccc([nH]4)c(-c4cccc(S(=O)(=O)[O-])c4F)c4nc(c(-c5cccc(S(=O)(=O)[O-])c5F)c5ccc2[nH]5)C=C4)C=C3)cc1
REMARK SMILES IDX 24 1 23 2 22 3 21 4 20 5 18 6 19 7 16 9 12 10 13 11 14 12
REMARK SMILES IDX 15 13 17 14 11 15 8 16 9 17 10 19 7 21 1 22 2 23 3 24 4 25
REMARK SMILES IDX 5 26 6 27 25 28 26 29 27 30 28 31 29 33 30 34 31 35 92 36
REMARK SMILES IDX 32 37 91 38 33 39 34 40 35 41 85 42 36 43 90 44 84 45 86 46
REMARK SMILES IDX 37 47 89 48 83 49 82 50 38 52 70 53 50 54 69 55 51 56 54 57
REMARK SMILES IDX 68 58 87 59 52 60 53 61 67 63 88 64 55 65 39 66 40 67 48 68
REMARK SMILES IDX 41 69 43 70 49 71 42 72 44 73 45 74 46 75 47 76 71 77 72 78
REMARK SMILES IDX 80 79 73 80 75 81 81 82 74 83 76 84 77 85 78 86 79 87 56 88
REMARK SMILES IDX 57 89 65 90 58 91 60 92 66 93 59 94 61 95 62 96 63 97 64 98
REMARK H PARENT 20 8 8 18 11 20 27 32 86 51 54 62
REMARK Flexibility Score: inf
ROOT
ATOM      1  C   UNL A   1      37.948  22.871  25.830  1.00  0.00     0.002 C 
ENDROOT
BRANCH   1   2
ATOM      2  C   UNL A   1      36.701  23.741  26.001  1.00  0.00     0.002 C 
BRANCH   2   3
ATOM      3  C   UNL A   1      35.574  23.480  25.004  1.00  0.00     0.021 C 
BRANCH   3   4
ATOM      4  C   UNL A   1      34.339  24.377  25.132  1.00  0.00     0.116 C 
BRANCH   4   5
ATOM      5  N   UNL A   1      33.580  24.220  26.362  1.00  0.00    -0.355 N 
ATOM      6  C   UNL A   1      32.454  23.500  26.639  1.00  0.00     0.230 C 
ATOM      7  O   UNL A   1      32.151  23.391  27.832  1.00  0.00    -0.274 OA
ATOM      8  H   UNL A   1      33.943  24.721  27.129  1.00  0.00     0.163 HD
BRANCH   6   9
ATOM      9  C   UNL A   1      31.552  22.933  25.529  1.00  0.00     0.092 C 
ATOM     10  C   UNL A   1      31.388  23.828  24.284  1.00  0.00     0.127 C 
ATOM     11  C   UNL A   1      31.646  22.944  23.067  1.00  0.00     0.186 C 
ATOM     12  O   UNL A   1      31.774  21.604  23.545  1.00  0.00    -0.378 OA
ATOM     13  C   UNL A   1      32.240  21.701  24.900  1.00  0.00     0.179 C 
ATOM     14  C   UNL A   1      30.281  22.458  26.199  1.00  0.00     0.026 C 
BRANCH  10  15
ATOM     15  N   UNL A   1      30.219  24.703  24.132  1.00  0.00    -0.332 N 
ATOM     16  N   UNL A   1      30.511  26.990  24.741  1.00  0.00    -0.335 N 
ATOM     17  C   UNL A   1      29.820  25.961  24.270  1.00  0.00     0.315 C 
ATOM     18  H   UNL A   1      30.064  27.842  24.534  1.00  0.00     0.165 HD
ATOM     19  O   UNL A   1      28.673  26.202  23.881  1.00  0.00    -0.249 OA
ATOM     20  H   UNL A   1      29.459  24.163  23.814  1.00  0.00     0.165 HD
BRANCH  16  21
ATOM     21  C   UNL A   1      31.750  27.214  25.482  1.00  0.00     0.089 C 
ATOM     22  C   UNL A   1      32.344  28.893  23.519  1.00  0.00     0.013 C 
ATOM     23  C   UNL A   1      32.552  28.473  24.985  1.00  0.00    -0.015 C 
ATOM     24  C   UNL A   1      34.071  28.294  25.233  1.00  0.00     0.013 C 
ATOM     25  C   UNL A   1      32.020  29.591  25.897  1.00  0.00     0.008 C 
ATOM     26  C   UNL A   1      31.907  28.930  27.256  1.00  0.00     0.003 C 
ATOM     27  C   UNL A   1      31.397  27.523  26.958  1.00  0.00     0.025 C 
ENDBRANCH  16  21
ENDBRANCH  10  15
ENDBRANCH   6   9
ENDBRANCH   4   5
ENDBRANCH   3   4
ENDBRANCH   2   3
ENDBRANCH   1   2
BRANCH   1  28
ATOM     28  C   UNL A   1      37.728  21.366  26.008  1.00  0.00     0.021 C 
BRANCH  28  29
ATOM     29  C   UNL A   1      38.441  20.489  24.980  1.00  0.00     0.116 C 
BRANCH  29  30
ATOM     30  N   UNL A   1      39.301  19.506  25.623  1.00  0.00    -0.352 N 
ATOM     31  C   UNL A   1      40.566  19.657  26.136  1.00  0.00     0.251 C 
ATOM     32  H   UNL A   1      38.921  18.602  25.701  1.00  0.00     0.163 HD
ATOM     33  O   UNL A   1      41.253  18.666  26.367  1.00  0.00    -0.269 OA
BRANCH  31  34
ATOM     34  C   UNL A   1      41.097  21.007  26.419  1.00  0.00     0.039 A 
ATOM     35  C   UNL A   1      41.731  21.722  25.399  1.00  0.00     0.014 A 
ATOM     36  C   UNL A   1      41.014  21.547  27.706  1.00  0.00     0.014 A 
ATOM     37  C   UNL A   1      42.241  22.997  25.658  1.00  0.00     0.010 A 
ATOM     38  C   UNL A   1      41.462  22.843  27.946  1.00  0.00     0.010 A 
ATOM     39  C   UNL A   1      42.092  23.576  26.929  1.00  0.00    -0.014 A 
BRANCH  39  40
ATOM     40  C   UNL A   1      42.592  24.945  27.219  1.00  0.00     0.031 A 
ATOM     41  C   UNL A   1      41.695  25.952  27.888  1.00  0.00     0.074 A 
ATOM     42  C   UNL A   1      43.819  25.308  26.797  1.00  0.00     0.049 A 
ATOM     43  N   UNL A   1      41.929  27.208  28.167  1.00  0.00    -0.248 NA
ATOM     44  C   UNL A   1      40.348  25.496  28.270  1.00  0.00     0.031 C 
ATOM     45  C   UNL A   1      44.752  24.444  26.070  1.00  0.00     0.029 A 
ATOM     46  N   UNL A   1      44.482  26.504  26.896  1.00  0.00    -0.354 N 
ATOM     47  C   UNL A   1      40.754  27.700  28.723  1.00  0.00     0.074 A 
ATOM     48  C   UNL A   1      39.795  26.617  28.708  1.00  0.00     0.031 C 
ATOM     49  C   UNL A   1      45.867  25.137  25.793  1.00  0.00     0.029 A 
ATOM     50  C   UNL A   1      45.720  26.499  26.297  1.00  0.00     0.049 A 
ATOM     51  H   UNL A   1      44.108  27.292  27.352  1.00  0.00     0.167 HD
ATOM     52  C   UNL A   1      40.503  28.931  29.229  1.00  0.00     0.034 A 
ATOM     53  C   UNL A   1      46.632  27.482  26.166  1.00  0.00     0.034 A 
ATOM     54  C   UNL A   1      41.473  29.991  29.280  1.00  0.00     0.049 A 
ATOM     55  C   UNL A   1      46.344  28.831  26.769  1.00  0.00     0.074 A 
ATOM     56  C   UNL A   1      41.348  31.247  29.848  1.00  0.00     0.029 A 
ATOM     57  N   UNL A   1      42.748  29.923  28.738  1.00  0.00    -0.354 N 
ATOM     58  N   UNL A   1      45.285  29.228  27.431  1.00  0.00    -0.248 NA
ATOM     59  C   UNL A   1      47.391  29.854  26.637  1.00  0.00     0.031 C 
ATOM     60  C   UNL A   1      42.542  31.944  29.633  1.00  0.00     0.029 A 
ATOM     61  C   UNL A   1      43.419  31.116  28.951  1.00  0.00     0.049 A 
ATOM     62  H   UNL A   1      43.121  29.141  28.270  1.00  0.00     0.167 HD
ATOM     63  C   UNL A   1      45.551  30.534  27.827  1.00  0.00     0.074 A 
ATOM     64  C   UNL A   1      46.881  30.852  27.347  1.00  0.00     0.031 C 
ATOM     65  C   UNL A   1      44.762  31.398  28.513  1.00  0.00     0.034 A 
BRANCH  52  66
ATOM     66  C   UNL A   1      39.139  29.177  29.824  1.00  0.00     0.023 A 
ATOM     67  C   UNL A   1      38.833  28.647  31.095  1.00  0.00     0.012 A 
ATOM     68  C   UNL A   1      38.181  29.962  29.156  1.00  0.00     0.148 A 
ATOM     69  C   UNL A   1      37.581  28.858  31.673  1.00  0.00     0.002 A 
ATOM     70  C   UNL A   1      36.951  30.207  29.759  1.00  0.00     0.091 A 
ATOM     71  F   UNL A   1      38.479  30.443  27.940  1.00  0.00    -0.205 F 
ATOM     72  C   UNL A   1      36.645  29.645  31.010  1.00  0.00     0.022 A 
BRANCH  70  73
ATOM     73  S   UNL A   1      35.705  31.272  29.020  1.00  0.00     0.127 S 
ATOM     74  O   UNL A   1      35.020  30.345  28.120  1.00  0.00    -0.237 OA
ATOM     75  O   UNL A   1      34.920  31.683  30.185  1.00  0.00    -0.237 OA
ATOM     76  O   UNL A   1      36.437  32.351  28.372  1.00  0.00    -0.744 OA
ENDBRANCH  70  73
ENDBRANCH  52  66
BRANCH  53  77
ATOM     77  C   UNL A   1      47.939  27.200  25.506  1.00  0.00     0.023 A 
ATOM     78  C   UNL A   1      48.987  26.647  26.269  1.00  0.00     0.012 A 
ATOM     79  C   UNL A   1      48.140  27.436  24.132  1.00  0.00     0.148 A 
ATOM     80  C   UNL A   1      50.221  26.364  25.684  1.00  0.00     0.002 A 
ATOM     81  C   UNL A   1      49.356  27.102  23.544  1.00  0.00     0.091 A 
ATOM     82  F   UNL A   1      47.135  27.972  23.427  1.00  0.00    -0.205 F 
ATOM     83  C   UNL A   1      50.402  26.581  24.321  1.00  0.00     0.022 A 
BRANCH  81  84
ATOM     84  S   UNL A   1      49.638  27.225  21.774  1.00  0.00     0.127 S 
ATOM     85  O   UNL A   1      49.199  28.588  21.494  1.00  0.00    -0.237 OA
ATOM     86  O   UNL A   1      51.083  27.010  21.683  1.00  0.00    -0.237 OA
ATOM     87  O   UNL A   1      48.837  26.164  21.175  1.00  0.00    -0.744 OA
ENDBRANCH  81  84
ENDBRANCH  53  77
BRANCH  65  88
ATOM     88  C   UNL A   1      45.321  32.764  28.817  1.00  0.00     0.023 A 
ATOM     89  C   UNL A   1      46.046  32.973  30.005  1.00  0.00     0.012 A 
ATOM     90  C   UNL A   1      45.188  33.817  27.891  1.00  0.00     0.148 A 
ATOM     91  C   UNL A   1      46.606  34.221  30.283  1.00  0.00     0.002 A 
ATOM     92  C   UNL A   1      45.789  35.043  28.152  1.00  0.00     0.091 A 
ATOM     93  F   UNL A   1      44.476  33.604  26.774  1.00  0.00    -0.205 F 
ATOM     94  C   UNL A   1      46.488  35.249  29.353  1.00  0.00     0.022 A 
BRANCH  92  95
ATOM     95  S   UNL A   1      45.770  36.395  26.969  1.00  0.00     0.127 S 
ATOM     96  O   UNL A   1      44.343  36.698  26.885  1.00  0.00    -0.237 OA
ATOM     97  O   UNL A   1      46.571  37.414  27.649  1.00  0.00    -0.237 OA
ATOM     98  O   UNL A   1      46.372  35.870  25.751  1.00  0.00    -0.744 OA
ENDBRANCH  92  95
ENDBRANCH  65  88
ENDBRANCH  39  40
ENDBRANCH  31  34
ENDBRANCH  29  30
ENDBRANCH  28  29
ENDBRANCH   1  28
TORSDOF 18
ENDMDL
MODEL 2
REMARK VINA RESULT:     -11.5      5.202      8.720
REMARK SMILES CC1(C)CCC[C@H]1NC(=O)N[C@@H]1COC[C@@]1(C)C(=O)NCCCCCCNC(=O)c1ccc(-c2c3nc(c(-c4cccc(S(=O)(=O)[O-])c4F)c4ccc([nH]4)c(-c4cccc(S(=O)(=O)[O-])c4F)c4nc(c(-c5cccc(S(=O)(=O)[O-])c5F)c5ccc2[nH]5)C=C4)C=C3)cc1
REMARK SMILES IDX 24 1 23 2 22 3 21 4 20 5 18 6 19 7 16 9 12 10 13 11 14 12
REMARK SMILES IDX 15 13 17 14 11 15 8 16 9 17 10 19 7 21 1 22 2 23 3 24 4 25
REMARK SMILES IDX 5 26 6 27 25 28 26 29 27 30 28 31 29 33 30 34 31 35 92 36
REMARK SMILES IDX 32 37 91 38 33 39 34 40 35 41 85 42 36 43 90 44 84 45 86 46
REMARK SMILES IDX 37 47 89 48 83 49 82 50 38 52 70 53 50 54 69 55 51 56 54 57
REMARK SMILES IDX 68 58 87 59 52 60 53 61 67 63 88 64 55 65 39 66 40 67 48 68
REMARK SMILES IDX 41 69 43 70 49 71 42 72 44 73 45 74 46 75 47 76 71 77 72 78
REMARK SMILES IDX 80 79 73 80 75 81 81 82 74 83 76 84 77 85 78 86 79 87 56 88
REMARK SMILES IDX 57 89 65 90 58 91 60 92 66 93 59 94 61 95 62 96 63 97 64 98
REMARK H PARENT 20 8 8 18 11 20 27 32 86 51 54 62
REMARK Flexibility Score: inf
ROOT
ATOM      1  C   UNL A   1      31.119  29.596  23.965  1.00  0.00     0.002 C 
ENDROOT
BRANCH   1   2
ATOM      2  C   UNL A   1      29.706  29.234  23.504  1.00  0.00     0.002 C 
BRANCH   2   3
ATOM      3  C   UNL A   1      29.539  27.825  22.936  1.00  0.00     0.021 C 
BRANCH   3   4
ATOM      4  C   UNL A   1      29.242  26.719  23.953  1.00  0.00     0.116 C 
BRANCH   4   5
ATOM      5  N   UNL A   1      29.701  25.391  23.581  1.00  0.00    -0.355 N 
ATOM      6  C   UNL A   1      30.734  24.631  24.051  1.00  0.00     0.230 C 
ATOM      7  O   UNL A   1      30.757  23.450  23.686  1.00  0.00    -0.274 OA
ATOM      8  H   UNL A   1      29.174  24.965  22.866  1.00  0.00     0.163 HD
BRANCH   6   9
ATOM      9  C   UNL A   1      31.864  25.227  24.907  1.00  0.00     0.092 C 
ATOM     10  C   UNL A   1      33.073  24.301  25.151  1.00  0.00     0.127 C 
ATOM     11  C   UNL A   1      34.324  25.112  24.827  1.00  0.00     0.186 C 
ATOM     12  O   UNL A   1      33.899  26.455  24.586  1.00  0.00    -0.378 OA
ATOM     13  C   UNL A   1      32.542  26.373  24.123  1.00  0.00     0.179 C 
ATOM     14  C   UNL A   1      31.211  25.832  26.132  1.00  0.00     0.026 C 
BRANCH  10  15
ATOM     15  N   UNL A   1      33.189  23.521  26.390  1.00  0.00    -0.332 N 
ATOM     16  N   UNL A   1      34.884  21.844  26.440  1.00  0.00    -0.335 N 
ATOM     17  C   UNL A   1      33.899  22.559  26.966  1.00  0.00     0.315 C 
ATOM     18  H   UNL A   1      35.381  21.358  27.137  1.00  0.00     0.165 HD
ATOM     19  O   UNL A   1      33.623  22.329  28.148  1.00  0.00    -0.249 OA
ATOM     20  H   UNL A   1      32.489  23.817  27.017  1.00  0.00     0.165 HD
BRANCH  16  21
ATOM     21  C   UNL A   1      35.438  21.575  25.116  1.00  0.00     0.089 C 
ATOM     22  C   UNL A   1      37.102  23.564  25.665  1.00  0.00     0.013 C 
ATOM     23  C   UNL A   1      36.824  22.277  24.868  1.00  0.00    -0.015 C 
ATOM     24  C   UNL A   1      37.028  22.580  23.362  1.00  0.00     0.013 C 
ATOM     25  C   UNL A   1      37.830  21.200  25.306  1.00  0.00     0.008 C 
ATOM     26  C   UNL A   1      37.236  19.909  24.777  1.00  0.00     0.003 C 
ATOM     27  C   UNL A   1      35.733  20.059  25.000  1.00  0.00     0.025 C 
ENDBRANCH  16  21
ENDBRANCH  10  15
ENDBRANCH   6   9
ENDBRANCH   4   5
ENDBRANCH   3   4
ENDBRANCH   2   3
ENDBRANCH   1   2
BRANCH   1  28
ATOM     28  C   UNL A   1      31.401  29.373  25.454  1.00  0.00     0.021 C 
BRANCH  28  29
ATOM     29  C   UNL A   1      32.716  29.971  25.952  1.00  0.00     0.116 C 
BRANCH  29  30
ATOM     30  N   UNL A   1      32.573  31.385  26.266  1.00  0.00    -0.352 N 
ATOM     31  C   UNL A   1      33.178  32.126  27.251  1.00  0.00     0.251 C 
ATOM     32  H   UNL A   1      31.951  31.883  25.688  1.00  0.00     0.163 HD
ATOM     33  O   UNL A   1      32.719  33.222  27.560  1.00  0.00    -0.269 OA
BRANCH  31  34
ATOM     34  C   UNL A   1      34.383  31.610  27.934  1.00  0.00     0.039 A 
ATOM     35  C   UNL A   1      35.493  32.444  28.091  1.00  0.00     0.014 A 
ATOM     36  C   UNL A   1      34.435  30.284  28.377  1.00  0.00     0.014 A 
ATOM     37  C   UNL A   1      36.638  31.963  28.731  1.00  0.00     0.010 A 
ATOM     38  C   UNL A   1      35.550  29.828  29.072  1.00  0.00     0.010 A 
ATOM     39  C   UNL A   1      36.668  30.657  29.245  1.00  0.00    -0.014 A 
BRANCH  39  40
ATOM     40  C   UNL A   1      37.860  30.135  29.963  1.00  0.00     0.031 A 
ATOM     41  C   UNL A   1      38.161  30.596  31.364  1.00  0.00     0.074 A 
ATOM     42  C   UNL A   1      38.718  29.319  29.321  1.00  0.00     0.049 A 
ATOM     43  N   UNL A   1      39.181  30.302  32.128  1.00  0.00    -0.248 NA
ATOM     44  C   UNL A   1      37.203  31.531  31.979  1.00  0.00     0.031 C 
ATOM     45  C   UNL A   1      38.575  28.864  27.937  1.00  0.00     0.029 A 
ATOM     46  N   UNL A   1      39.895  28.751  29.739  1.00  0.00    -0.354 N 
ATOM     47  C   UNL A   1      39.008  31.039  33.294  1.00  0.00     0.074 A 
ATOM     48  C   UNL A   1      37.803  31.822  33.124  1.00  0.00     0.031 C 
ATOM     49  C   UNL A   1      39.620  28.082  27.622  1.00  0.00     0.029 A 
ATOM     50  C   UNL A   1      40.519  28.002  28.768  1.00  0.00     0.049 A 
ATOM     51  H   UNL A   1      40.257  28.866  30.646  1.00  0.00     0.167 HD
ATOM     52  C   UNL A   1      39.764  31.041  34.419  1.00  0.00     0.034 A 
ATOM     53  C   UNL A   1      41.687  27.330  28.799  1.00  0.00     0.034 A 
ATOM     54  C   UNL A   1      40.936  30.228  34.599  1.00  0.00     0.049 A 
ATOM     55  C   UNL A   1      42.490  27.319  30.072  1.00  0.00     0.074 A 
ATOM     56  C   UNL A   1      41.724  30.092  35.729  1.00  0.00     0.029 A 
ATOM     57  N   UNL A   1      41.494  29.417  33.623  1.00  0.00    -0.354 N 
ATOM     58  N   UNL A   1      42.226  27.897  31.218  1.00  0.00    -0.248 NA
ATOM     59  C   UNL A   1      43.733  26.534  30.066  1.00  0.00     0.031 C 
ATOM     60  C   UNL A   1      42.769  29.211  35.428  1.00  0.00     0.029 A 
ATOM     61  C   UNL A   1      42.620  28.782  34.119  1.00  0.00     0.049 A 
ATOM     62  H   UNL A   1      41.141  29.309  32.711  1.00  0.00     0.167 HD
ATOM     63  C   UNL A   1      43.248  27.518  32.081  1.00  0.00     0.074 A 
ATOM     64  C   UNL A   1      44.125  26.643  31.328  1.00  0.00     0.031 C 
ATOM     65  C   UNL A   1      43.452  27.872  33.374  1.00  0.00     0.034 A 
BRANCH  52  66
ATOM     66  C   UNL A   1      39.307  31.909  35.564  1.00  0.00     0.023 A 
ATOM     67  C   UNL A   1      39.639  33.280  35.570  1.00  0.00     0.012 A 
ATOM     68  C   UNL A   1      38.518  31.387  36.607  1.00  0.00     0.148 A 
ATOM     69  C   UNL A   1      39.230  34.109  36.614  1.00  0.00     0.002 A 
ATOM     70  C   UNL A   1      38.075  32.230  37.622  1.00  0.00     0.091 A 
ATOM     71  F   UNL A   1      38.228  30.079  36.599  1.00  0.00    -0.205 F 
ATOM     72  C   UNL A   1      38.441  33.586  37.633  1.00  0.00     0.022 A 
BRANCH  70  73
ATOM     73  S   UNL A   1      36.989  31.670  38.941  1.00  0.00     0.127 S 
ATOM     74  O   UNL A   1      35.892  32.634  38.848  1.00  0.00    -0.237 OA
ATOM     75  O   UNL A   1      36.648  30.315  38.507  1.00  0.00    -0.237 OA
ATOM     76  O   UNL A   1      37.779  31.734  40.162  1.00  0.00    -0.744 OA
ENDBRANCH  70  73
ENDBRANCH  52  66
BRANCH  53  77
ATOM     77  C   UNL A   1      42.123  26.543  27.610  1.00  0.00     0.023 A 
ATOM     78  C   UNL A   1      42.839  27.191  26.584  1.00  0.00     0.012 A 
ATOM     79  C   UNL A   1      41.870  25.162  27.505  1.00  0.00     0.148 A 
ATOM     80  C   UNL A   1      43.269  26.485  25.461  1.00  0.00     0.002 A 
ATOM     81  C   UNL A   1      42.347  24.454  26.407  1.00  0.00     0.091 A 
ATOM     82  F   UNL A   1      41.178  24.566  28.485  1.00  0.00    -0.205 F 
ATOM     83  C   UNL A   1      43.033  25.116  25.376  1.00  0.00     0.022 A 
BRANCH  81  84
ATOM     84  S   UNL A   1      42.205  22.668  26.273  1.00  0.00     0.127 S 
ATOM     85  O   UNL A   1      42.856  22.409  24.993  1.00  0.00    -0.237 OA
ATOM     86  O   UNL A   1      42.951  22.216  27.449  1.00  0.00    -0.237 OA
ATOM     87  O   UNL A   1      40.775  22.383  26.327  1.00  0.00    -0.744 OA
ENDBRANCH  81  84
ENDBRANCH  53  77
BRANCH  65  88
ATOM     88  C   UNL A   1      44.653  27.293  34.076  1.00  0.00     0.023 A 
ATOM     89  C   UNL A   1      45.880  27.982  34.044  1.00  0.00     0.012 A 
ATOM     90  C   UNL A   1      44.544  26.105  34.825  1.00  0.00     0.148 A 
ATOM     91  C   UNL A   1      46.991  27.482  34.724  1.00  0.00     0.002 A 
ATOM     92  C   UNL A   1      45.642  25.638  35.539  1.00  0.00     0.091 A 
ATOM     93  F   UNL A   1      43.371  25.453  34.827  1.00  0.00    -0.205 F 
ATOM     94  C   UNL A   1      46.868  26.319  35.480  1.00  0.00     0.022 A 
BRANCH  92  95
ATOM     95  S   UNL A   1      45.549  24.203  36.616  1.00  0.00     0.127 S 
ATOM     96  O   UNL A   1      46.923  24.108  37.105  1.00  0.00    -0.237 OA
ATOM     97  O   UNL A   1      44.572  24.629  37.618  1.00  0.00    -0.237 OA
ATOM     98  O   UNL A   1      45.107  23.099  35.775  1.00  0.00    -0.744 OA
ENDBRANCH  92  95
ENDBRANCH  65  88
ENDBRANCH  39  40
ENDBRANCH  31  34
ENDBRANCH  29  30
ENDBRANCH  28  29
ENDBRANCH   1  28
TORSDOF 18
ENDMDL
MODEL 3
REMARK VINA RESULT:     -11.4      6.219     11.391
REMARK SMILES CC1(C)CCC[C@H]1NC(=O)N[C@@H]1COC[C@@]1(C)C(=O)NCCCCCCNC(=O)c1ccc(-c2c3nc(c(-c4cccc(S(=O)(=O)[O-])c4F)c4ccc([nH]4)c(-c4cccc(S(=O)(=O)[O-])c4F)c4nc(c(-c5cccc(S(=O)(=O)[O-])c5F)c5ccc2[nH]5)C=C4)C=C3)cc1
REMARK SMILES IDX 24 1 23 2 22 3 21 4 20 5 18 6 19 7 16 9 12 10 13 11 14 12
REMARK SMILES IDX 15 13 17 14 11 15 8 16 9 17 10 19 7 21 1 22 2 23 3 24 4 25
REMARK SMILES IDX 5 26 6 27 25 28 26 29 27 30 28 31 29 33 30 34 31 35 92 36
REMARK SMILES IDX 32 37 91 38 33 39 34 40 35 41 85 42 36 43 90 44 84 45 86 46
REMARK SMILES IDX 37 47 89 48 83 49 82 50 38 52 70 53 50 54 69 55 51 56 54 57
REMARK SMILES IDX 68 58 87 59 52 60 53 61 67 63 88 64 55 65 39 66 40 67 48 68
REMARK SMILES IDX 41 69 43 70 49 71 42 72 44 73 45 74 46 75 47 76 71 77 72 78
REMARK SMILES IDX 80 79 73 80 75 81 81 82 74 83 76 84 77 85 78 86 79 87 56 88
REMARK SMILES IDX 57 89 65 90 58 91 60 92 66 93 59 94 61 95 62 96 63 97 64 98
REMARK H PARENT 20 8 8 18 11 20 27 32 86 51 54 62
REMARK Flexibility Score: inf
ROOT
ATOM      1  C   UNL A   1      34.460  30.897  28.058  1.00  0.00     0.002 C 
ENDROOT
BRANCH   1   2
ATOM      2  C   UNL A   1      34.780  29.541  27.428  1.00  0.00     0.002 C 
BRANCH   2   3
ATOM      3  C   UNL A   1      33.579  28.631  27.174  1.00  0.00     0.021 C 
BRANCH   3   4
ATOM      4  C   UNL A   1      33.709  27.655  26.001  1.00  0.00     0.116 C 
BRANCH   4   5
ATOM      5  N   UNL A   1      33.723  28.264  24.682  1.00  0.00    -0.355 N 
ATOM      6  C   UNL A   1      32.864  28.145  23.627  1.00  0.00     0.230 C 
ATOM      7  O   UNL A   1      33.018  28.947  22.700  1.00  0.00    -0.274 OA
ATOM      8  H   UNL A   1      34.484  28.868  24.522  1.00  0.00     0.163 HD
BRANCH   6   9
ATOM      9  C   UNL A   1      31.822  27.016  23.544  1.00  0.00     0.092 C 
ATOM     10  C   UNL A   1      32.377  25.586  23.695  1.00  0.00     0.127 C 
ATOM     11  C   UNL A   1      31.506  24.879  24.729  1.00  0.00     0.186 C 
ATOM     12  O   UNL A   1      30.421  25.759  25.030  1.00  0.00    -0.378 OA
ATOM     13  C   UNL A   1      30.898  27.090  24.781  1.00  0.00     0.179 C 
ATOM     14  C   UNL A   1      30.974  27.293  22.321  1.00  0.00     0.026 C 
BRANCH  10  15
ATOM     15  N   UNL A   1      32.666  24.760  22.515  1.00  0.00    -0.332 N 
ATOM     16  N   UNL A   1      34.394  23.132  22.751  1.00  0.00    -0.335 N 
ATOM     17  C   UNL A   1      33.431  23.761  22.092  1.00  0.00     0.315 C 
ATOM     18  H   UNL A   1      34.649  22.297  22.295  1.00  0.00     0.165 HD
ATOM     19  O   UNL A   1      33.187  23.351  20.952  1.00  0.00    -0.249 OA
ATOM     20  H   UNL A   1      32.087  25.052  21.775  1.00  0.00     0.165 HD
BRANCH  16  21
ATOM     21  C   UNL A   1      35.183  23.331  23.963  1.00  0.00     0.089 C 
ATOM     22  C   UNL A   1      33.441  21.680  25.087  1.00  0.00     0.013 C 
ATOM     23  C   UNL A   1      34.853  22.291  25.097  1.00  0.00    -0.015 C 
ATOM     24  C   UNL A   1      35.113  22.900  26.498  1.00  0.00     0.013 C 
ATOM     25  C   UNL A   1      35.875  21.173  24.835  1.00  0.00     0.008 C 
ATOM     26  C   UNL A   1      37.147  21.917  24.478  1.00  0.00     0.003 C 
ATOM     27  C   UNL A   1      36.677  23.094  23.628  1.00  0.00     0.025 C 
ENDBRANCH  16  21
ENDBRANCH  10  15
ENDBRANCH   6   9
ENDBRANCH   4   5
ENDBRANCH   3   4
ENDBRANCH   2   3
ENDBRANCH   1   2
BRANCH   1  28
ATOM     28  C   UNL A   1      33.776  31.907  27.131  1.00  0.00     0.021 C 
BRANCH  28  29
ATOM     29  C   UNL A   1      32.493  32.520  27.689  1.00  0.00     0.116 C 
BRANCH  29  30
ATOM     30  N   UNL A   1      32.586  33.971  27.765  1.00  0.00    -0.352 N 
ATOM     31  C   UNL A   1      33.337  34.753  28.607  1.00  0.00     0.251 C 
ATOM     32  H   UNL A   1      32.028  34.462  27.120  1.00  0.00     0.163 HD
ATOM     33  O   UNL A   1      33.068  35.945  28.735  1.00  0.00    -0.269 OA
BRANCH  31  34
ATOM     34  C   UNL A   1      34.470  34.167  29.353  1.00  0.00     0.039 A 
ATOM     35  C   UNL A   1      34.223  33.461  30.533  1.00  0.00     0.014 A 
ATOM     36  C   UNL A   1      35.783  34.359  28.913  1.00  0.00     0.014 A 
ATOM     37  C   UNL A   1      35.289  32.907  31.247  1.00  0.00     0.010 A 
ATOM     38  C   UNL A   1      36.838  33.751  29.588  1.00  0.00     0.010 A 
ATOM     39  C   UNL A   1      36.604  33.031  30.769  1.00  0.00    -0.014 A 
BRANCH  39  40
ATOM     40  C   UNL A   1      37.750  32.419  31.490  1.00  0.00     0.031 A 
ATOM     41  C   UNL A   1      38.506  31.273  30.874  1.00  0.00     0.074 A 
ATOM     42  C   UNL A   1      38.051  32.835  32.735  1.00  0.00     0.049 A 
ATOM     43  N   UNL A   1      39.491  30.571  31.373  1.00  0.00    -0.248 NA
ATOM     44  C   UNL A   1      38.083  30.838  29.532  1.00  0.00     0.031 C 
ATOM     45  C   UNL A   1      37.342  33.886  33.469  1.00  0.00     0.029 A 
ATOM     46  N   UNL A   1      39.012  32.407  33.615  1.00  0.00    -0.354 N 
ATOM     47  C   UNL A   1      39.781  29.596  30.426  1.00  0.00     0.074 A 
ATOM     48  C   UNL A   1      38.845  29.772  29.338  1.00  0.00     0.031 C 
ATOM     49  C   UNL A   1      37.896  34.025  34.684  1.00  0.00     0.029 A 
ATOM     50  C   UNL A   1      38.979  33.058  34.827  1.00  0.00     0.049 A 
ATOM     51  H   UNL A   1      39.665  31.703  33.399  1.00  0.00     0.167 HD
ATOM     52  C   UNL A   1      40.759  28.657  30.444  1.00  0.00     0.034 A 
ATOM     53  C   UNL A   1      39.734  32.889  35.930  1.00  0.00     0.034 A 
ATOM     54  C   UNL A   1      41.715  28.515  31.508  1.00  0.00     0.049 A 
ATOM     55  C   UNL A   1      40.837  31.865  35.911  1.00  0.00     0.074 A 
ATOM     56  C   UNL A   1      42.796  27.654  31.585  1.00  0.00     0.029 A 
ATOM     57  N   UNL A   1      41.702  29.247  32.686  1.00  0.00    -0.354 N 
ATOM     58  N   UNL A   1      41.196  31.058  34.942  1.00  0.00    -0.248 NA
ATOM     59  C   UNL A   1      41.660  31.753  37.124  1.00  0.00     0.031 C 
ATOM     60  C   UNL A   1      43.427  27.855  32.818  1.00  0.00     0.029 A 
ATOM     61  C   UNL A   1      42.752  28.855  33.500  1.00  0.00     0.049 A 
ATOM     62  H   UNL A   1      41.044  29.943  32.910  1.00  0.00     0.167 HD
ATOM     63  C   UNL A   1      42.308  30.369  35.412  1.00  0.00     0.074 A 
ATOM     64  C   UNL A   1      42.575  30.870  36.747  1.00  0.00     0.031 C 
ATOM     65  C   UNL A   1      43.035  29.400  34.804  1.00  0.00     0.034 A 
BRANCH  52  66
ATOM     66  C   UNL A   1      40.879  27.752  29.245  1.00  0.00     0.023 A 
ATOM     67  C   UNL A   1      40.118  26.564  29.195  1.00  0.00     0.012 A 
ATOM     68  C   UNL A   1      41.700  28.089  28.152  1.00  0.00     0.148 A 
ATOM     69  C   UNL A   1      40.205  25.707  28.099  1.00  0.00     0.002 A 
ATOM     70  C   UNL A   1      41.747  27.252  27.042  1.00  0.00     0.091 A 
ATOM     71  F   UNL A   1      42.432  29.210  28.222  1.00  0.00    -0.205 F 
ATOM     72  C   UNL A   1      41.011  26.055  27.020  1.00  0.00     0.022 A 
BRANCH  70  73
ATOM     73  S   UNL A   1      42.695  27.650  25.567  1.00  0.00     0.127 S 
ATOM     74  O   UNL A   1      42.004  28.846  25.087  1.00  0.00    -0.237 OA
ATOM     75  O   UNL A   1      44.029  27.896  26.115  1.00  0.00    -0.237 OA
ATOM     76  O   UNL A   1      42.601  26.481  24.705  1.00  0.00    -0.744 OA
ENDBRANCH  70  73
ENDBRANCH  52  66
BRANCH  53  77
ATOM     77  C   UNL A   1      39.526  33.770  37.115  1.00  0.00     0.023 A 
ATOM     78  C   UNL A   1      39.969  35.106  37.061  1.00  0.00     0.012 A 
ATOM     79  C   UNL A   1      38.863  33.311  38.270  1.00  0.00     0.148 A 
ATOM     80  C   UNL A   1      39.784  35.962  38.148  1.00  0.00     0.002 A 
ATOM     81  C   UNL A   1      38.636  34.184  39.329  1.00  0.00     0.091 A 
ATOM     82  F   UNL A   1      38.459  32.034  38.305  1.00  0.00    -0.205 F 
ATOM     83  C   UNL A   1      39.110  35.504  39.277  1.00  0.00     0.022 A 
BRANCH  81  84
ATOM     84  S   UNL A   1      37.665  33.724  40.768  1.00  0.00     0.127 S 
ATOM     85  O   UNL A   1      37.533  35.000  41.463  1.00  0.00    -0.237 OA
ATOM     86  O   UNL A   1      36.433  33.224  40.155  1.00  0.00    -0.237 OA
ATOM     87  O   UNL A   1      38.445  32.703  41.458  1.00  0.00    -0.744 OA
ENDBRANCH  81  84
ENDBRANCH  53  77
BRANCH  65  88
ATOM     88  C   UNL A   1      44.211  28.831  35.555  1.00  0.00     0.023 A 
ATOM     89  C   UNL A   1      45.487  29.403  35.392  1.00  0.00     0.012 A 
ATOM     90  C   UNL A   1      44.035  27.780  36.475  1.00  0.00     0.148 A 
ATOM     91  C   UNL A   1      46.579  28.917  36.112  1.00  0.00     0.002 A 
ATOM     92  C   UNL A   1      45.118  27.332  37.224  1.00  0.00     0.091 A 
ATOM     93  F   UNL A   1      42.816  27.235  36.602  1.00  0.00    -0.205 F 
ATOM     94  C   UNL A   1      46.392  27.891  37.035  1.00  0.00     0.022 A 
BRANCH  92  95
ATOM     95  S   UNL A   1      44.951  26.081  38.504  1.00  0.00     0.127 S 
ATOM     96  O   UNL A   1      44.257  25.013  37.788  1.00  0.00    -0.237 OA
ATOM     97  O   UNL A   1      46.346  25.788  38.835  1.00  0.00    -0.237 OA
ATOM     98  O   UNL A   1      44.195  26.707  39.579  1.00  0.00    -0.744 OA
ENDBRANCH  92  95
ENDBRANCH  65  88
ENDBRANCH  39  40
ENDBRANCH  31  34
ENDBRANCH  29  30
ENDBRANCH  28  29
ENDBRANCH   1  28
TORSDOF 18
ENDMDL
