MODEL 1
REMARK VINA RESULT:     -12.1      0.000      0.000
REMARK SMILES CC(C)Cn1c([C@@H](O)[C@@H](O)C(=O)NCCCCCCNC(=O)c2ccc(-c3c4nc(c(-c5cccc(S(=O)(=O)[O-])c5F)c5ccc([nH]5)c(-c5cccc(S(=O)(=O)[O-])c5F)c5nc(c(-c6cccc(S(=O)(=O)[O-])c6F)c6ccc3[nH]6)C=C5)C=C4)cc2)nc2cc(Cl)ccc21
REMARK SMILES IDX 16 1 15 2 14 3 13 4 11 5 12 6 9 8 7 9 6 10 5 11 93 12 86 13
REMARK SMILES IDX 87 14 92 15 88 16 91 17 89 18 90 19 4 20 2 21 1 22 3 23 8 24
REMARK SMILES IDX 10 26 17 28 18 29 19 30 20 31 21 32 22 34 23 35 24 36 85 37
REMARK SMILES IDX 25 38 84 39 26 40 27 41 28 42 78 43 29 44 83 45 77 46 79 47
REMARK SMILES IDX 30 48 82 49 76 50 75 51 31 53 63 54 43 55 62 56 44 57 47 58
REMARK SMILES IDX 61 59 80 60 45 61 46 62 60 64 81 65 48 66 32 67 33 68 41 69
REMARK SMILES IDX 34 70 36 71 42 72 35 73 37 74 38 75 39 76 40 77 64 78 65 79
REMARK SMILES IDX 73 80 66 81 68 82 74 83 67 84 69 85 70 86 71 87 72 88 49 89
REMARK SMILES IDX 50 90 58 91 51 92 53 93 59 94 52 95 54 96 55 97 56 98 57 99
REMARK H PARENT 13 7 8 25 10 27 20 33 79 52 47 63
REMARK Flexibility Score: inf
ROOT
ATOM      1  C   UNL A   1      32.380  27.840  26.400  1.00  0.00     0.002 C 
ENDROOT
BRANCH   1   2
ATOM      2  C   UNL A   1      31.381  27.456  25.305  1.00  0.00     0.021 C 
BRANCH   2   3
ATOM      3  C   UNL A   1      30.428  26.336  25.719  1.00  0.00     0.116 C 
BRANCH   3   4
ATOM      4  N   UNL A   1      31.030  25.477  26.717  1.00  0.00    -0.354 N 
ATOM      5  C   UNL A   1      31.147  24.116  26.745  1.00  0.00     0.252 C 
ATOM      6  O   UNL A   1      31.743  23.619  27.707  1.00  0.00    -0.272 OA
ATOM      7  H   UNL A   1      31.413  25.945  27.493  1.00  0.00     0.163 HD
BRANCH   5   8
ATOM      8  C   UNL A   1      30.612  23.230  25.603  1.00  0.00     0.239 C 
BRANCH   8   9
ATOM      9  C   UNL A   1      31.541  23.177  24.376  1.00  0.00     0.219 C 
BRANCH   9  10
ATOM     10  C   UNL A   1      32.340  21.893  24.367  1.00  0.00     0.142 A 
ATOM     11  N   UNL A   1      33.594  21.732  24.926  1.00  0.00    -0.325 N 
ATOM     12  C   UNL A   1      34.010  20.440  24.673  1.00  0.00     0.068 A 
ATOM     13  N   UNL A   1      31.928  20.763  23.819  1.00  0.00    -0.230 NA
ATOM     14  C   UNL A   1      32.930  19.851  24.025  1.00  0.00     0.090 A 
ATOM     15  C   UNL A   1      35.189  19.739  24.961  1.00  0.00     0.030 A 
ATOM     16  C   UNL A   1      32.982  18.494  23.675  1.00  0.00     0.051 A 
ATOM     17  C   UNL A   1      35.235  18.391  24.590  1.00  0.00     0.023 A 
ATOM     18  C   UNL A   1      34.145  17.779  23.971  1.00  0.00     0.043 A 
ATOM     19  Cl  UNL A   1      34.237  16.109  23.559  1.00  0.00    -0.084 Cl
BRANCH  11  20
ATOM     20  C   UNL A   1      34.368  22.722  25.659  1.00  0.00     0.127 C 
BRANCH  20  21
ATOM     21  C   UNL A   1      35.136  23.707  24.764  1.00  0.00     0.003 C 
ATOM     22  C   UNL A   1      34.563  25.122  24.779  1.00  0.00     0.009 C 
ATOM     23  C   UNL A   1      36.617  23.725  25.140  1.00  0.00     0.009 C 
ENDBRANCH  20  21
ENDBRANCH  11  20
ENDBRANCH   9  10
BRANCH   9  24
ATOM     24  O   UNL A   1      30.792  23.215  23.155  1.00  0.00    -0.382 OA
ATOM     25  H   UNL A   1      31.018  22.444  22.612  1.00  0.00     0.211 HD
ENDBRANCH   9  24
ENDBRANCH   8   9
BRANCH   8  26
ATOM     26  O   UNL A   1      30.327  21.915  26.100  1.00  0.00    -0.380 OA
ATOM     27  H   UNL A   1      30.090  21.968  27.040  1.00  0.00     0.211 HD
ENDBRANCH   8  26
ENDBRANCH   5   8
ENDBRANCH   3   4
ENDBRANCH   2   3
ENDBRANCH   1   2
BRANCH   1  28
ATOM     28  C   UNL A   1      31.920  28.984  27.311  1.00  0.00     0.002 C 
BRANCH  28  29
ATOM     29  C   UNL A   1      32.332  30.391  26.860  1.00  0.00     0.021 C 
BRANCH  29  30
ATOM     30  C   UNL A   1      33.835  30.666  26.943  1.00  0.00     0.116 C 
BRANCH  30  31
ATOM     31  N   UNL A   1      34.181  31.730  27.860  1.00  0.00    -0.352 N 
ATOM     32  C   UNL A   1      35.327  32.127  28.492  1.00  0.00     0.251 C 
ATOM     33  H   UNL A   1      33.411  32.303  28.081  1.00  0.00     0.163 HD
ATOM     34  O   UNL A   1      35.238  33.159  29.161  1.00  0.00    -0.269 OA
BRANCH  32  35
ATOM     35  C   UNL A   1      36.615  31.382  28.475  1.00  0.00     0.039 A 
ATOM     36  C   UNL A   1      36.819  30.133  27.889  1.00  0.00     0.014 A 
ATOM     37  C   UNL A   1      37.686  31.981  29.166  1.00  0.00     0.014 A 
ATOM     38  C   UNL A   1      38.010  29.447  28.089  1.00  0.00     0.010 A 
ATOM     39  C   UNL A   1      38.892  31.311  29.343  1.00  0.00     0.010 A 
ATOM     40  C   UNL A   1      39.027  30.016  28.855  1.00  0.00    -0.014 A 
BRANCH  40  41
ATOM     41  C   UNL A   1      40.219  29.209  29.084  1.00  0.00     0.031 A 
ATOM     42  C   UNL A   1      40.485  28.834  30.502  1.00  0.00     0.074 A 
ATOM     43  C   UNL A   1      41.016  28.774  28.089  1.00  0.00     0.049 A 
ATOM     44  N   UNL A   1      41.473  29.203  31.256  1.00  0.00    -0.248 NA
ATOM     45  C   UNL A   1      39.467  28.029  31.193  1.00  0.00     0.031 C 
ATOM     46  C   UNL A   1      40.765  28.806  26.646  1.00  0.00     0.029 A 
ATOM     47  N   UNL A   1      42.183  28.078  28.185  1.00  0.00    -0.354 N 
ATOM     48  C   UNL A   1      41.306  28.516  32.457  1.00  0.00     0.074 A 
ATOM     49  C   UNL A   1      39.995  27.917  32.411  1.00  0.00     0.031 C 
ATOM     50  C   UNL A   1      41.600  27.935  26.035  1.00  0.00     0.029 A 
ATOM     51  C   UNL A   1      42.527  27.404  27.017  1.00  0.00     0.049 A 
ATOM     52  H   UNL A   1      42.731  28.054  29.001  1.00  0.00     0.167 HD
ATOM     53  C   UNL A   1      42.319  28.313  33.343  1.00  0.00     0.034 A 
ATOM     54  C   UNL A   1      43.441  26.409  26.919  1.00  0.00     0.034 A 
ATOM     55  C   UNL A   1      43.468  29.129  33.084  1.00  0.00     0.049 A 
ATOM     56  C   UNL A   1      44.349  26.536  28.083  1.00  0.00     0.074 A 
ATOM     57  C   UNL A   1      43.724  30.484  33.051  1.00  0.00     0.029 A 
ATOM     58  N   UNL A   1      44.530  28.528  32.455  1.00  0.00    -0.354 N 
ATOM     59  N   UNL A   1      45.169  27.532  28.265  1.00  0.00    -0.248 NA
ATOM     60  C   UNL A   1      44.079  25.721  29.257  1.00  0.00     0.031 C 
ATOM     61  C   UNL A   1      44.664  30.653  31.993  1.00  0.00     0.029 A 
ATOM     62  C   UNL A   1      44.942  29.388  31.472  1.00  0.00     0.049 A 
ATOM     63  H   UNL A   1      44.921  27.652  32.671  1.00  0.00     0.167 HD
ATOM     64  C   UNL A   1      45.181  27.726  29.639  1.00  0.00     0.074 A 
ATOM     65  C   UNL A   1      44.584  26.519  30.200  1.00  0.00     0.031 C 
ATOM     66  C   UNL A   1      45.412  28.959  30.176  1.00  0.00     0.034 A 
BRANCH  53  67
ATOM     67  C   UNL A   1      42.391  27.132  34.268  1.00  0.00     0.023 A 
ATOM     68  C   UNL A   1      41.883  27.258  35.577  1.00  0.00     0.012 A 
ATOM     69  C   UNL A   1      43.167  25.989  33.974  1.00  0.00     0.148 A 
ATOM     70  C   UNL A   1      42.130  26.281  36.548  1.00  0.00     0.002 A 
ATOM     71  C   UNL A   1      43.347  24.988  34.919  1.00  0.00     0.091 A 
ATOM     72  F   UNL A   1      43.835  25.932  32.815  1.00  0.00    -0.205 F 
ATOM     73  C   UNL A   1      42.848  25.136  36.215  1.00  0.00     0.022 A 
BRANCH  71  74
ATOM     74  S   UNL A   1      44.225  23.475  34.514  1.00  0.00     0.127 S 
ATOM     75  O   UNL A   1      45.423  24.002  33.858  1.00  0.00    -0.237 OA
ATOM     76  O   UNL A   1      44.453  22.898  35.843  1.00  0.00    -0.237 OA
ATOM     77  O   UNL A   1      43.313  22.715  33.682  1.00  0.00    -0.744 OA
ENDBRANCH  71  74
ENDBRANCH  53  67
BRANCH  54  78
ATOM     78  C   UNL A   1      43.404  25.170  26.100  1.00  0.00     0.023 A 
ATOM     79  C   UNL A   1      44.437  24.951  25.163  1.00  0.00     0.012 A 
ATOM     80  C   UNL A   1      42.576  24.078  26.439  1.00  0.00     0.148 A 
ATOM     81  C   UNL A   1      44.683  23.676  24.642  1.00  0.00     0.002 A 
ATOM     82  C   UNL A   1      42.815  22.814  25.905  1.00  0.00     0.091 A 
ATOM     83  F   UNL A   1      41.619  24.243  27.361  1.00  0.00    -0.205 F 
ATOM     84  C   UNL A   1      43.882  22.605  25.023  1.00  0.00     0.022 A 
BRANCH  82  85
ATOM     85  S   UNL A   1      41.817  21.390  26.363  1.00  0.00     0.127 S 
ATOM     86  O   UNL A   1      41.972  21.360  27.819  1.00  0.00    -0.237 OA
ATOM     87  O   UNL A   1      40.491  21.785  25.897  1.00  0.00    -0.237 OA
ATOM     88  O   UNL A   1      42.423  20.254  25.679  1.00  0.00    -0.744 OA
ENDBRANCH  82  85
ENDBRANCH  54  78
BRANCH  66  89
ATOM     89  C   UNL A   1      45.933  30.040  29.268  1.00  0.00     0.023 A 
ATOM     90  C   UNL A   1      47.313  30.251  29.072  1.00  0.00     0.012 A 
ATOM     91  C   UNL A   1      45.012  30.729  28.461  1.00  0.00     0.148 A 
ATOM     92  C   UNL A   1      47.764  31.144  28.095  1.00  0.00     0.002 A 
ATOM     93  C   UNL A   1      45.464  31.585  27.467  1.00  0.00     0.091 A 
ATOM     94  F   UNL A   1      43.704  30.502  28.660  1.00  0.00    -0.205 F 
ATOM     95  C   UNL A   1      46.841  31.800  27.285  1.00  0.00     0.022 A 
BRANCH  93  96
ATOM     96  S   UNL A   1      44.338  32.372  26.314  1.00  0.00     0.127 S 
ATOM     97  O   UNL A   1      45.237  32.775  25.234  1.00  0.00    -0.237 OA
ATOM     98  O   UNL A   1      43.425  31.279  25.976  1.00  0.00    -0.237 OA
ATOM     99  O   UNL A   1      43.710  33.466  27.045  1.00  0.00    -0.744 OA
ENDBRANCH  93  96
ENDBRANCH  66  89
ENDBRANCH  40  41
ENDBRANCH  32  35
ENDBRANCH  30  31
ENDBRANCH  29  30
ENDBRANCH  28  29
ENDBRANCH   1  28
TORSDOF 22
ENDMDL
MODEL 2
REMARK VINA RESULT:     -11.6      3.466      9.191
REMARK SMILES CC(C)Cn1c([C@@H](O)[C@@H](O)C(=O)NCCCCCCNC(=O)c2ccc(-c3c4nc(c(-c5cccc(S(=O)(=O)[O-])c5F)c5ccc([nH]5)c(-c5cccc(S(=O)(=O)[O-])c5F)c5nc(c(-c6cccc(S(=O)(=O)[O-])c6F)c6ccc3[nH]6)C=C5)C=C4)cc2)nc2cc(Cl)ccc21
REMARK SMILES IDX 16 1 15 2 14 3 13 4 11 5 12 6 9 8 7 9 6 10 5 11 93 12 86 13
REMARK SMILES IDX 87 14 92 15 88 16 91 17 89 18 90 19 4 20 2 21 1 22 3 23 8 24
REMARK SMILES IDX 10 26 17 28 18 29 19 30 20 31 21 32 22 34 23 35 24 36 85 37
REMARK SMILES IDX 25 38 84 39 26 40 27 41 28 42 78 43 29 44 83 45 77 46 79 47
REMARK SMILES IDX 30 48 82 49 76 50 75 51 31 53 63 54 43 55 62 56 44 57 47 58
REMARK SMILES IDX 61 59 80 60 45 61 46 62 60 64 81 65 48 66 32 67 33 68 41 69
REMARK SMILES IDX 34 70 36 71 42 72 35 73 37 74 38 75 39 76 40 77 64 78 65 79
REMARK SMILES IDX 73 80 66 81 68 82 74 83 67 84 69 85 70 86 71 87 72 88 49 89
REMARK SMILES IDX 50 90 58 91 51 92 53 93 59 94 52 95 54 96 55 97 56 98 57 99
REMARK H PARENT 13 7 8 25 10 27 20 33 79 52 47 63
REMARK Flexibility Score: inf
ROOT
ATOM      1  C   UNL A   1      35.261  20.810  24.876  1.00  0.00     0.002 C 
ENDROOT
BRANCH   1   2
ATOM      2  C   UNL A   1      33.780  21.011  25.209  1.00  0.00     0.021 C 
BRANCH   2   3
ATOM      3  C   UNL A   1      33.192  22.286  24.609  1.00  0.00     0.116 C 
BRANCH   3   4
ATOM      4  N   UNL A   1      33.484  22.385  23.195  1.00  0.00    -0.354 N 
ATOM      5  C   UNL A   1      33.119  23.342  22.290  1.00  0.00     0.252 C 
ATOM      6  O   UNL A   1      33.531  23.212  21.132  1.00  0.00    -0.272 OA
ATOM      7  H   UNL A   1      34.028  21.650  22.829  1.00  0.00     0.163 HD
BRANCH   5   8
ATOM      8  C   UNL A   1      32.277  24.566  22.697  1.00  0.00     0.239 C 
BRANCH   8   9
ATOM      9  C   UNL A   1      32.493  25.793  21.790  1.00  0.00     0.219 C 
BRANCH   9  10
ATOM     10  C   UNL A   1      31.758  26.996  22.336  1.00  0.00     0.142 A 
ATOM     11  N   UNL A   1      32.200  27.795  23.375  1.00  0.00    -0.325 N 
ATOM     12  C   UNL A   1      31.238  28.756  23.612  1.00  0.00     0.068 A 
ATOM     13  N   UNL A   1      30.596  27.430  21.880  1.00  0.00    -0.230 NA
ATOM     14  C   UNL A   1      30.276  28.529  22.633  1.00  0.00     0.090 A 
ATOM     15  C   UNL A   1      31.127  29.791  24.550  1.00  0.00     0.030 A 
ATOM     16  C   UNL A   1      29.167  29.381  22.534  1.00  0.00     0.051 A 
ATOM     17  C   UNL A   1      30.007  30.623  24.452  1.00  0.00     0.023 A 
ATOM     18  C   UNL A   1      29.053  30.427  23.453  1.00  0.00     0.043 A 
ATOM     19  Cl  UNL A   1      27.704  31.495  23.353  1.00  0.00    -0.084 Cl
BRANCH  11  20
ATOM     20  C   UNL A   1      33.451  27.678  24.109  1.00  0.00     0.127 C 
BRANCH  20  21
ATOM     21  C   UNL A   1      33.310  27.011  25.486  1.00  0.00     0.003 C 
ATOM     22  C   UNL A   1      34.034  25.672  25.594  1.00  0.00     0.009 C 
ATOM     23  C   UNL A   1      33.775  27.962  26.589  1.00  0.00     0.009 C 
ENDBRANCH  20  21
ENDBRANCH  11  20
ENDBRANCH   9  10
BRANCH   9  24
ATOM     24  O   UNL A   1      33.881  26.145  21.717  1.00  0.00    -0.382 OA
ATOM     25  H   UNL A   1      34.423  25.349  21.836  1.00  0.00     0.211 HD
ENDBRANCH   9  24
ENDBRANCH   8   9
BRANCH   8  26
ATOM     26  O   UNL A   1      30.891  24.204  22.762  1.00  0.00    -0.380 OA
ATOM     27  H   UNL A   1      30.489  24.302  21.884  1.00  0.00     0.211 HD
ENDBRANCH   8  26
ENDBRANCH   5   8
ENDBRANCH   3   4
ENDBRANCH   2   3
ENDBRANCH   1   2
BRANCH   1  28
ATOM     28  C   UNL A   1      36.202  21.853  25.492  1.00  0.00     0.002 C 
BRANCH  28  29
ATOM     29  C   UNL A   1      37.686  21.467  25.517  1.00  0.00     0.021 C 
BRANCH  29  30
ATOM     30  C   UNL A   1      38.597  22.502  26.180  1.00  0.00     0.116 C 
BRANCH  30  31
ATOM     31  N   UNL A   1      39.897  21.982  26.546  1.00  0.00    -0.352 N 
ATOM     32  C   UNL A   1      40.992  22.486  27.193  1.00  0.00     0.251 C 
ATOM     33  H   UNL A   1      40.022  21.048  26.265  1.00  0.00     0.163 HD
ATOM     34  O   UNL A   1      41.912  21.687  27.386  1.00  0.00    -0.269 OA
BRANCH  32  35
ATOM     35  C   UNL A   1      41.163  23.904  27.608  1.00  0.00     0.039 A 
ATOM     36  C   UNL A   1      42.011  24.354  28.620  1.00  0.00     0.014 A 
ATOM     37  C   UNL A   1      40.347  24.845  26.950  1.00  0.00     0.014 A 
ATOM     38  C   UNL A   1      41.958  25.674  29.048  1.00  0.00     0.010 A 
ATOM     39  C   UNL A   1      40.313  26.176  27.355  1.00  0.00     0.010 A 
ATOM     40  C   UNL A   1      41.076  26.572  28.447  1.00  0.00    -0.014 A 
BRANCH  40  41
ATOM     41  C   UNL A   1      41.022  27.921  28.997  1.00  0.00     0.031 A 
ATOM     42  C   UNL A   1      41.989  28.897  28.418  1.00  0.00     0.074 A 
ATOM     43  C   UNL A   1      40.129  28.299  29.932  1.00  0.00     0.049 A 
ATOM     44  N   UNL A   1      42.988  29.478  29.006  1.00  0.00    -0.248 NA
ATOM     45  C   UNL A   1      41.888  29.179  26.979  1.00  0.00     0.031 C 
ATOM     46  C   UNL A   1      38.948  27.572  30.405  1.00  0.00     0.029 A 
ATOM     47  N   UNL A   1      40.027  29.500  30.565  1.00  0.00    -0.354 N 
ATOM     48  C   UNL A   1      43.523  30.352  28.061  1.00  0.00     0.074 A 
ATOM     49  C   UNL A   1      42.897  30.033  26.802  1.00  0.00     0.031 C 
ATOM     50  C   UNL A   1      38.119  28.439  31.029  1.00  0.00     0.029 A 
ATOM     51  C   UNL A   1      38.774  29.730  31.125  1.00  0.00     0.049 A 
ATOM     52  H   UNL A   1      40.768  30.145  30.622  1.00  0.00     0.167 HD
ATOM     53  C   UNL A   1      44.304  31.416  28.393  1.00  0.00     0.034 A 
ATOM     54  C   UNL A   1      38.298  30.932  31.531  1.00  0.00     0.034 A 
ATOM     55  C   UNL A   1      44.781  31.367  29.743  1.00  0.00     0.049 A 
ATOM     56  C   UNL A   1      39.471  31.805  31.774  1.00  0.00     0.074 A 
ATOM     57  C   UNL A   1      45.578  30.511  30.474  1.00  0.00     0.029 A 
ATOM     58  N   UNL A   1      44.135  32.158  30.661  1.00  0.00    -0.354 N 
ATOM     59  N   UNL A   1      40.340  31.612  32.725  1.00  0.00    -0.248 NA
ATOM     60  C   UNL A   1      39.891  32.704  30.712  1.00  0.00     0.031 C 
ATOM     61  C   UNL A   1      45.007  30.505  31.780  1.00  0.00     0.029 A 
ATOM     62  C   UNL A   1      43.919  31.380  31.767  1.00  0.00     0.049 A 
ATOM     63  H   UNL A   1      43.879  33.101  30.547  1.00  0.00     0.167 HD
ATOM     64  C   UNL A   1      41.551  32.012  32.177  1.00  0.00     0.074 A 
ATOM     65  C   UNL A   1      41.196  32.774  30.984  1.00  0.00     0.031 C 
ATOM     66  C   UNL A   1      42.728  31.453  32.580  1.00  0.00     0.034 A 
BRANCH  53  67
ATOM     67  C   UNL A   1      44.381  32.677  27.581  1.00  0.00     0.023 A 
ATOM     68  C   UNL A   1      45.399  32.808  26.616  1.00  0.00     0.012 A 
ATOM     69  C   UNL A   1      43.641  33.834  27.914  1.00  0.00     0.148 A 
ATOM     70  C   UNL A   1      45.662  34.037  26.000  1.00  0.00     0.002 A 
ATOM     71  C   UNL A   1      43.857  35.033  27.248  1.00  0.00     0.091 A 
ATOM     72  F   UNL A   1      42.813  33.802  28.965  1.00  0.00    -0.205 F 
ATOM     73  C   UNL A   1      44.879  35.147  26.303  1.00  0.00     0.022 A 
BRANCH  71  74
ATOM     74  S   UNL A   1      42.838  36.474  27.575  1.00  0.00     0.127 S 
ATOM     75  O   UNL A   1      43.091  36.691  29.000  1.00  0.00    -0.237 OA
ATOM     76  O   UNL A   1      43.437  37.472  26.683  1.00  0.00    -0.237 OA
ATOM     77  O   UNL A   1      41.491  36.081  27.209  1.00  0.00    -0.744 OA
ENDBRANCH  71  74
ENDBRANCH  53  67
BRANCH  54  78
ATOM     78  C   UNL A   1      36.928  31.495  31.411  1.00  0.00     0.023 A 
ATOM     79  C   UNL A   1      36.360  32.127  32.538  1.00  0.00     0.012 A 
ATOM     80  C   UNL A   1      36.316  31.703  30.156  1.00  0.00     0.148 A 
ATOM     81  C   UNL A   1      35.269  32.994  32.407  1.00  0.00     0.002 A 
ATOM     82  C   UNL A   1      35.221  32.555  30.034  1.00  0.00     0.091 A 
ATOM     83  F   UNL A   1      36.862  31.156  29.062  1.00  0.00    -0.205 F 
ATOM     84  C   UNL A   1      34.708  33.219  31.155  1.00  0.00     0.022 A 
BRANCH  82  85
ATOM     85  S   UNL A   1      34.457  32.889  28.441  1.00  0.00     0.127 S 
ATOM     86  O   UNL A   1      33.904  31.581  28.084  1.00  0.00    -0.237 OA
ATOM     87  O   UNL A   1      33.462  33.901  28.786  1.00  0.00    -0.237 OA
ATOM     88  O   UNL A   1      35.542  33.330  27.574  1.00  0.00    -0.744 OA
ENDBRANCH  82  85
ENDBRANCH  54  78
BRANCH  66  89
ATOM     89  C   UNL A   1      42.720  30.605  33.822  1.00  0.00     0.023 A 
ATOM     90  C   UNL A   1      42.898  31.159  35.107  1.00  0.00     0.012 A 
ATOM     91  C   UNL A   1      42.343  29.257  33.703  1.00  0.00     0.148 A 
ATOM     92  C   UNL A   1      42.715  30.376  36.251  1.00  0.00     0.002 A 
ATOM     93  C   UNL A   1      42.124  28.493  34.841  1.00  0.00     0.091 A 
ATOM     94  F   UNL A   1      42.168  28.757  32.470  1.00  0.00    -0.205 F 
ATOM     95  C   UNL A   1      42.314  29.048  36.118  1.00  0.00     0.022 A 
BRANCH  93  96
ATOM     96  S   UNL A   1      41.497  26.816  34.746  1.00  0.00     0.127 S 
ATOM     97  O   UNL A   1      42.652  26.085  34.229  1.00  0.00    -0.237 OA
ATOM     98  O   UNL A   1      41.165  26.528  36.142  1.00  0.00    -0.237 OA
ATOM     99  O   UNL A   1      40.341  26.865  33.858  1.00  0.00    -0.744 OA
ENDBRANCH  93  96
ENDBRANCH  66  89
ENDBRANCH  40  41
ENDBRANCH  32  35
ENDBRANCH  30  31
ENDBRANCH  29  30
ENDBRANCH  28  29
ENDBRANCH   1  28
TORSDOF 22
ENDMDL
MODEL 3
REMARK VINA RESULT:     -11.3      4.961      8.050
REMARK SMILES CC(C)Cn1c([C@@H](O)[C@@H](O)C(=O)NCCCCCCNC(=O)c2ccc(-c3c4nc(c(-c5cccc(S(=O)(=O)[O-])c5F)c5ccc([nH]5)c(-c5cccc(S(=O)(=O)[O-])c5F)c5nc(c(-c6cccc(S(=O)(=O)[O-])c6F)c6ccc3[nH]6)C=C5)C=C4)cc2)nc2cc(Cl)ccc21
REMARK SMILES IDX 16 1 15 2 14 3 13 4 11 5 12 6 9 8 7 9 6 10 5 11 93 12 86 13
REMARK SMILES IDX 87 14 92 15 88 16 91 17 89 18 90 19 4 20 2 21 1 22 3 23 8 24
REMARK SMILES IDX 10 26 17 28 18 29 19 30 20 31 21 32 22 34 23 35 24 36 85 37
REMARK SMILES IDX 25 38 84 39 26 40 27 41 28 42 78 43 29 44 83 45 77 46 79 47
REMARK SMILES IDX 30 48 82 49 76 50 75 51 31 53 63 54 43 55 62 56 44 57 47 58
REMARK SMILES IDX 61 59 80 60 45 61 46 62 60 64 81 65 48 66 32 67 33 68 41 69
REMARK SMILES IDX 34 70 36 71 42 72 35 73 37 74 38 75 39 76 40 77 64 78 65 79
REMARK SMILES IDX 73 80 66 81 68 82 74 83 67 84 69 85 70 86 71 87 72 88 49 89
REMARK SMILES IDX 50 90 58 91 51 92 53 93 59 94 52 95 54 96 55 97 56 98 57 99
REMARK H PARENT 13 7 8 25 10 27 20 33 79 52 47 63
REMARK Flexibility Score: inf
ROOT
ATOM      1  C   UNL A   1      34.230  35.381  28.371  1.00  0.00     0.002 C 
ENDROOT
BRANCH   1   2
ATOM      2  C   UNL A   1      33.252  36.175  29.242  1.00  0.00     0.021 C 
BRANCH   2   3
ATOM      3  C   UNL A   1      33.033  35.559  30.622  1.00  0.00     0.116 C 
BRANCH   3   4
ATOM      4  N   UNL A   1      33.158  36.553  31.667  1.00  0.00    -0.354 N 
ATOM      5  C   UNL A   1      34.064  36.642  32.687  1.00  0.00     0.252 C 
ATOM      6  O   UNL A   1      33.977  37.620  33.437  1.00  0.00    -0.272 OA
ATOM      7  H   UNL A   1      32.490  37.275  31.638  1.00  0.00     0.163 HD
BRANCH   5   8
ATOM      8  C   UNL A   1      35.185  35.601  32.872  1.00  0.00     0.239 C 
BRANCH   8   9
ATOM      9  C   UNL A   1      34.785  34.416  33.772  1.00  0.00     0.219 C 
BRANCH   9  10
ATOM     10  C   UNL A   1      35.737  33.257  33.582  1.00  0.00     0.142 A 
ATOM     11  N   UNL A   1      37.015  33.183  34.103  1.00  0.00    -0.325 N 
ATOM     12  C   UNL A   1      37.582  32.001  33.674  1.00  0.00     0.068 A 
ATOM     13  N   UNL A   1      35.454  32.167  32.890  1.00  0.00    -0.230 NA
ATOM     14  C   UNL A   1      36.567  31.370  32.962  1.00  0.00     0.090 A 
ATOM     15  C   UNL A   1      38.846  31.423  33.854  1.00  0.00     0.030 A 
ATOM     16  C   UNL A   1      36.779  30.090  32.431  1.00  0.00     0.051 A 
ATOM     17  C   UNL A   1      39.050  30.153  33.304  1.00  0.00     0.023 A 
ATOM     18  C   UNL A   1      38.029  29.496  32.617  1.00  0.00     0.043 A 
ATOM     19  Cl  UNL A   1      38.317  27.920  31.982  1.00  0.00    -0.084 Cl
BRANCH  11  20
ATOM     20  C   UNL A   1      37.678  34.157  34.957  1.00  0.00     0.127 C 
BRANCH  20  21
ATOM     21  C   UNL A   1      38.247  33.567  36.257  1.00  0.00     0.003 C 
ATOM     22  C   UNL A   1      39.294  34.455  36.926  1.00  0.00     0.009 C 
ATOM     23  C   UNL A   1      37.118  33.242  37.234  1.00  0.00     0.009 C 
ENDBRANCH  20  21
ENDBRANCH  11  20
ENDBRANCH   9  10
BRANCH   9  24
ATOM     24  O   UNL A   1      34.833  34.778  35.158  1.00  0.00    -0.382 OA
ATOM     25  H   UNL A   1      33.930  34.890  35.494  1.00  0.00     0.211 HD
ENDBRANCH   9  24
ENDBRANCH   8   9
BRANCH   8  26
ATOM     26  O   UNL A   1      35.647  35.150  31.591  1.00  0.00    -0.380 OA
ATOM     27  H   UNL A   1      35.873  35.917  31.041  1.00  0.00     0.211 HD
ENDBRANCH   8  26
ENDBRANCH   5   8
ENDBRANCH   3   4
ENDBRANCH   2   3
ENDBRANCH   1   2
BRANCH   1  28
ATOM     28  C   UNL A   1      33.872  33.901  28.194  1.00  0.00     0.002 C 
BRANCH  28  29
ATOM     29  C   UNL A   1      34.883  32.906  28.778  1.00  0.00     0.021 C 
BRANCH  29  30
ATOM     30  C   UNL A   1      36.346  33.258  28.505  1.00  0.00     0.116 C 
BRANCH  30  31
ATOM     31  N   UNL A   1      37.045  33.775  29.662  1.00  0.00    -0.352 N 
ATOM     32  C   UNL A   1      38.211  33.464  30.306  1.00  0.00     0.251 C 
ATOM     33  H   UNL A   1      36.570  34.527  30.084  1.00  0.00     0.163 HD
ATOM     34  O   UNL A   1      38.517  34.204  31.244  1.00  0.00    -0.269 OA
BRANCH  32  35
ATOM     35  C   UNL A   1      39.072  32.290  29.996  1.00  0.00     0.039 A 
ATOM     36  C   UNL A   1      38.638  31.100  29.415  1.00  0.00     0.014 A 
ATOM     37  C   UNL A   1      40.421  32.392  30.387  1.00  0.00     0.014 A 
ATOM     38  C   UNL A   1      39.486  30.003  29.338  1.00  0.00     0.010 A 
ATOM     39  C   UNL A   1      41.284  31.306  30.284  1.00  0.00     0.010 A 
ATOM     40  C   UNL A   1      40.794  30.092  29.815  1.00  0.00    -0.014 A 
BRANCH  40  41
ATOM     41  C   UNL A   1      41.604  28.881  29.770  1.00  0.00     0.031 A 
ATOM     42  C   UNL A   1      42.471  28.636  30.958  1.00  0.00     0.074 A 
ATOM     43  C   UNL A   1      41.551  27.998  28.755  1.00  0.00     0.049 A 
ATOM     44  N   UNL A   1      43.766  28.631  31.016  1.00  0.00    -0.248 NA
ATOM     45  C   UNL A   1      41.807  28.479  32.260  1.00  0.00     0.031 C 
ATOM     46  C   UNL A   1      40.577  27.930  27.662  1.00  0.00     0.029 A 
ATOM     47  N   UNL A   1      42.302  26.877  28.570  1.00  0.00    -0.354 N 
ATOM     48  C   UNL A   1      44.082  28.272  32.325  1.00  0.00     0.074 A 
ATOM     49  C   UNL A   1      42.850  28.321  33.075  1.00  0.00     0.031 C 
ATOM     50  C   UNL A   1      40.630  26.699  27.102  1.00  0.00     0.029 A 
ATOM     51  C   UNL A   1      41.728  25.959  27.695  1.00  0.00     0.049 A 
ATOM     52  H   UNL A   1      43.168  26.729  29.013  1.00  0.00     0.167 HD
ATOM     53  C   UNL A   1      45.294  27.769  32.685  1.00  0.00     0.034 A 
ATOM     54  C   UNL A   1      42.085  24.658  27.569  1.00  0.00     0.034 A 
ATOM     55  C   UNL A   1      46.298  27.941  31.678  1.00  0.00     0.049 A 
ATOM     56  C   UNL A   1      43.468  24.534  28.087  1.00  0.00     0.074 A 
ATOM     57  C   UNL A   1      46.893  29.019  31.056  1.00  0.00     0.029 A 
ATOM     58  N   UNL A   1      46.601  26.846  30.907  1.00  0.00    -0.354 N 
ATOM     59  N   UNL A   1      44.510  25.075  27.523  1.00  0.00    -0.248 NA
ATOM     60  C   UNL A   1      43.649  24.104  29.464  1.00  0.00     0.031 C 
ATOM     61  C   UNL A   1      47.101  28.596  29.711  1.00  0.00     0.029 A 
ATOM     62  C   UNL A   1      46.648  27.279  29.610  1.00  0.00     0.049 A 
ATOM     63  H   UNL A   1      46.757  25.928  31.226  1.00  0.00     0.167 HD
ATOM     64  C   UNL A   1      45.329  25.440  28.584  1.00  0.00     0.074 A 
ATOM     65  C   UNL A   1      44.801  24.721  29.738  1.00  0.00     0.031 C 
ATOM     66  C   UNL A   1      46.177  26.503  28.486  1.00  0.00     0.034 A 
BRANCH  53  67
ATOM     67  C   UNL A   1      45.495  26.828  33.838  1.00  0.00     0.023 A 
ATOM     68  C   UNL A   1      46.508  27.106  34.779  1.00  0.00     0.012 A 
ATOM     69  C   UNL A   1      44.890  25.553  33.885  1.00  0.00     0.148 A 
ATOM     70  C   UNL A   1      46.893  26.156  35.732  1.00  0.00     0.002 A 
ATOM     71  C   UNL A   1      45.225  24.641  34.878  1.00  0.00     0.091 A 
ATOM     72  F   UNL A   1      44.079  25.176  32.889  1.00  0.00    -0.205 F 
ATOM     73  C   UNL A   1      46.239  24.929  35.793  1.00  0.00     0.022 A 
BRANCH  71  74
ATOM     74  S   UNL A   1      44.372  23.068  35.020  1.00  0.00     0.127 S 
ATOM     75  O   UNL A   1      44.840  22.375  33.819  1.00  0.00    -0.237 OA
ATOM     76  O   UNL A   1      44.912  22.549  36.281  1.00  0.00    -0.237 OA
ATOM     77  O   UNL A   1      42.962  23.400  35.068  1.00  0.00    -0.744 OA
ENDBRANCH  71  74
ENDBRANCH  53  67
BRANCH  54  78
ATOM     78  C   UNL A   1      41.232  23.462  27.350  1.00  0.00     0.023 A 
ATOM     79  C   UNL A   1      39.862  23.655  27.068  1.00  0.00     0.012 A 
ATOM     80  C   UNL A   1      41.786  22.188  27.098  1.00  0.00     0.148 A 
ATOM     81  C   UNL A   1      39.093  22.640  26.488  1.00  0.00     0.002 A 
ATOM     82  C   UNL A   1      41.012  21.177  26.535  1.00  0.00     0.091 A 
ATOM     83  F   UNL A   1      43.093  21.989  27.309  1.00  0.00    -0.205 F 
ATOM     84  C   UNL A   1      39.669  21.406  26.209  1.00  0.00     0.022 A 
BRANCH  82  85
ATOM     85  S   UNL A   1      41.703  19.563  26.146  1.00  0.00     0.127 S 
ATOM     86  O   UNL A   1      42.239  19.137  27.440  1.00  0.00    -0.237 OA
ATOM     87  O   UNL A   1      40.524  18.826  25.700  1.00  0.00    -0.237 OA
ATOM     88  O   UNL A   1      42.722  19.810  25.134  1.00  0.00    -0.744 OA
ENDBRANCH  82  85
ENDBRANCH  54  78
BRANCH  66  89
ATOM     89  C   UNL A   1      46.418  27.095  27.124  1.00  0.00     0.023 A 
ATOM     90  C   UNL A   1      45.778  28.278  26.699  1.00  0.00     0.012 A 
ATOM     91  C   UNL A   1      47.446  26.551  26.337  1.00  0.00     0.148 A 
ATOM     92  C   UNL A   1      46.150  28.897  25.502  1.00  0.00     0.002 A 
ATOM     93  C   UNL A   1      47.839  27.189  25.169  1.00  0.00     0.091 A 
ATOM     94  F   UNL A   1      48.048  25.432  26.769  1.00  0.00    -0.205 F 
ATOM     95  C   UNL A   1      47.189  28.361  24.745  1.00  0.00     0.022 A 
BRANCH  93  96
ATOM     96  S   UNL A   1      49.242  26.620  24.208  1.00  0.00     0.127 S 
ATOM     97  O   UNL A   1      50.104  26.042  25.237  1.00  0.00    -0.237 OA
ATOM     98  O   UNL A   1      48.627  25.646  23.305  1.00  0.00    -0.237 OA
ATOM     99  O   UNL A   1      49.777  27.799  23.536  1.00  0.00    -0.744 OA
ENDBRANCH  93  96
ENDBRANCH  66  89
ENDBRANCH  40  41
ENDBRANCH  32  35
ENDBRANCH  30  31
ENDBRANCH  29  30
ENDBRANCH  28  29
ENDBRANCH   1  28
TORSDOF 22
ENDMDL
