MODEL 1
REMARK VINA RESULT:     -10.8      0.000      0.000
REMARK SMILES C[C@@H](NC1=[NH+]CCC1)C(=O)NCCCCCCNC(=O)c1ccc(-c2c3nc(c(-c4cccc(S(=O)(=O)[O-])c4F)c4ccc([nH]4)c(-c4cccc(S(=O)(=O)[O-])c4F)c4nc(c(-c5cccc(S(=O)(=O)[O-])c5F)c5ccc2[nH]5)C=C4)C=C3)cc1
REMARK SMILES IDX 15 1 14 2 13 3 12 4 11 5 9 6 10 7 2 9 1 10 3 11 4 12 5 14
REMARK SMILES IDX 8 15 6 16 7 18 16 19 17 20 18 21 19 22 20 24 21 25 22 26
REMARK SMILES IDX 83 27 23 28 82 29 24 30 25 31 26 32 76 33 27 34 81 35 75 36
REMARK SMILES IDX 77 37 28 38 80 39 74 40 73 41 29 43 61 44 41 45 60 46 42 47
REMARK SMILES IDX 45 48 59 49 78 50 43 51 44 52 58 54 79 55 46 56 30 57 31 58
REMARK SMILES IDX 39 59 32 60 34 61 40 62 33 63 35 64 36 65 37 66 38 67 62 68
REMARK SMILES IDX 63 69 71 70 64 71 66 72 72 73 65 74 67 75 68 76 69 77 70 78
REMARK SMILES IDX 47 79 48 80 56 81 49 82 51 83 57 84 50 85 52 86 53 87 54 88
REMARK SMILES IDX 55 89
REMARK H PARENT 11 8 3 13 5 17 18 23 77 42 45 53
REMARK Flexibility Score: inf
ROOT
ATOM      1  C   UNL A   1      31.745  30.807  26.026  1.00  0.00     0.002 C 
ENDROOT
BRANCH   1   2
ATOM      2  C   UNL A   1      31.824  29.546  26.895  1.00  0.00     0.002 C 
BRANCH   2   3
ATOM      3  C   UNL A   1      33.212  28.900  26.965  1.00  0.00     0.021 C 
BRANCH   3   4
ATOM      4  C   UNL A   1      33.380  27.720  26.016  1.00  0.00     0.116 C 
BRANCH   4   5
ATOM      5  N   UNL A   1      33.904  28.169  24.736  1.00  0.00    -0.352 N 
ATOM      6  C   UNL A   1      33.335  28.141  23.499  1.00  0.00     0.264 C 
ATOM      7  O   UNL A   1      34.010  28.559  22.550  1.00  0.00    -0.270 OA
ATOM      8  H   UNL A   1      34.810  28.552  24.769  1.00  0.00     0.163 HD
BRANCH   6   9
ATOM      9  C   UNL A   1      31.914  27.600  23.272  1.00  0.00     0.258 C 
ATOM     10  C   UNL A   1      30.989  28.750  22.863  1.00  0.00     0.069 C 
BRANCH   9  11
ATOM     11  N   UNL A   1      31.836  26.519  22.295  1.00  0.00    -0.267 N 
ATOM     12  C   UNL A   1      32.284  25.238  22.413  1.00  0.00     0.243 C 
ATOM     13  H   UNL A   1      31.404  26.744  21.440  1.00  0.00     0.305 HD
ATOM     14  N   UNL A   1      32.690  24.615  21.346  1.00  0.00    -0.279 N 
ATOM     15  C   UNL A   1      32.362  24.446  23.688  1.00  0.00     0.131 C 
ATOM     16  C   UNL A   1      33.213  23.315  21.803  1.00  0.00     0.234 C 
ATOM     17  H   UNL A   1      32.654  24.945  20.418  1.00  0.00     0.304 HD
ATOM     18  C   UNL A   1      33.452  23.477  23.294  1.00  0.00     0.058 C 
ENDBRANCH   9  11
ENDBRANCH   6   9
ENDBRANCH   4   5
ENDBRANCH   3   4
ENDBRANCH   2   3
ENDBRANCH   1   2
BRANCH   1  19
ATOM     19  C   UNL A   1      31.475  32.101  26.797  1.00  0.00     0.021 C 
BRANCH  19  20
ATOM     20  C   UNL A   1      32.720  32.749  27.392  1.00  0.00     0.116 C 
BRANCH  20  21
ATOM     21  N   UNL A   1      32.519  34.166  27.659  1.00  0.00    -0.352 N 
ATOM     22  C   UNL A   1      33.110  34.953  28.612  1.00  0.00     0.251 C 
ATOM     23  H   UNL A   1      31.871  34.620  27.074  1.00  0.00     0.163 HD
ATOM     24  O   UNL A   1      32.676  36.083  28.834  1.00  0.00    -0.269 OA
BRANCH  22  25
ATOM     25  C   UNL A   1      34.257  34.430  29.380  1.00  0.00     0.039 A 
ATOM     26  C   UNL A   1      34.021  33.787  30.597  1.00  0.00     0.014 A 
ATOM     27  C   UNL A   1      35.561  34.566  28.893  1.00  0.00     0.014 A 
ATOM     28  C   UNL A   1      35.091  33.233  31.301  1.00  0.00     0.010 A 
ATOM     29  C   UNL A   1      36.614  33.945  29.557  1.00  0.00     0.010 A 
ATOM     30  C   UNL A   1      36.393  33.282  30.772  1.00  0.00    -0.014 A 
BRANCH  30  31
ATOM     31  C   UNL A   1      37.531  32.635  31.473  1.00  0.00     0.031 A 
ATOM     32  C   UNL A   1      38.252  31.477  30.838  1.00  0.00     0.074 A 
ATOM     33  C   UNL A   1      37.866  33.043  32.713  1.00  0.00     0.049 A 
ATOM     34  N   UNL A   1      39.233  30.757  31.317  1.00  0.00    -0.248 NA
ATOM     35  C   UNL A   1      37.798  31.055  29.502  1.00  0.00     0.031 C 
ATOM     36  C   UNL A   1      37.193  34.105  33.466  1.00  0.00     0.029 A 
ATOM     37  N   UNL A   1      38.840  32.596  33.571  1.00  0.00    -0.354 N 
ATOM     38  C   UNL A   1      39.492  29.782  30.361  1.00  0.00     0.074 A 
ATOM     39  C   UNL A   1      38.540  29.978  29.289  1.00  0.00     0.031 C 
ATOM     40  C   UNL A   1      37.776  34.231  34.668  1.00  0.00     0.029 A 
ATOM     41  C   UNL A   1      38.839  33.239  34.788  1.00  0.00     0.049 A 
ATOM     42  H   UNL A   1      39.478  31.884  33.338  1.00  0.00     0.167 HD
ATOM     43  C   UNL A   1      40.452  28.826  30.360  1.00  0.00     0.034 A 
ATOM     44  C   UNL A   1      39.601  33.041  35.882  1.00  0.00     0.034 A 
ATOM     45  C   UNL A   1      41.417  28.657  31.411  1.00  0.00     0.049 A 
ATOM     46  C   UNL A   1      40.674  31.987  35.844  1.00  0.00     0.074 A 
ATOM     47  C   UNL A   1      42.479  27.771  31.467  1.00  0.00     0.029 A 
ATOM     48  N   UNL A   1      41.434  29.375  32.595  1.00  0.00    -0.354 N 
ATOM     49  N   UNL A   1      41.002  31.177  34.866  1.00  0.00    -0.248 NA
ATOM     50  C   UNL A   1      41.508  31.844  37.047  1.00  0.00     0.031 C 
ATOM     51  C   UNL A   1      43.118  27.932  32.700  1.00  0.00     0.029 A 
ATOM     52  C   UNL A   1      42.479  28.946  33.396  1.00  0.00     0.049 A 
ATOM     53  H   UNL A   1      40.796  30.087  32.834  1.00  0.00     0.167 HD
ATOM     54  C   UNL A   1      42.101  30.458  35.320  1.00  0.00     0.074 A 
ATOM     55  C   UNL A   1      42.397  30.943  36.652  1.00  0.00     0.031 C 
ATOM     56  C   UNL A   1      42.796  29.474  34.698  1.00  0.00     0.034 A 
BRANCH  43  57
ATOM     57  C   UNL A   1      40.538  27.917  29.161  1.00  0.00     0.023 A 
ATOM     58  C   UNL A   1      39.658  26.821  29.052  1.00  0.00     0.012 A 
ATOM     59  C   UNL A   1      41.438  28.188  28.111  1.00  0.00     0.148 A 
ATOM     60  C   UNL A   1      39.693  25.990  27.933  1.00  0.00     0.002 A 
ATOM     61  C   UNL A   1      41.433  27.384  26.978  1.00  0.00     0.091 A 
ATOM     62  F   UNL A   1      42.278  29.224  28.241  1.00  0.00    -0.205 F 
ATOM     63  C   UNL A   1      40.571  26.278  26.892  1.00  0.00     0.022 A 
BRANCH  61  64
ATOM     64  S   UNL A   1      42.467  27.717  25.547  1.00  0.00     0.127 S 
ATOM     65  O   UNL A   1      43.796  27.791  26.154  1.00  0.00    -0.237 OA
ATOM     66  O   UNL A   1      42.240  26.529  24.723  1.00  0.00    -0.237 OA
ATOM     67  O   UNL A   1      41.976  28.961  24.973  1.00  0.00    -0.744 OA
ENDBRANCH  61  64
ENDBRANCH  43  57
BRANCH  44  68
ATOM     68  C   UNL A   1      39.407  33.888  37.094  1.00  0.00     0.023 A 
ATOM     69  C   UNL A   1      39.877  35.216  37.096  1.00  0.00     0.012 A 
ATOM     70  C   UNL A   1      38.759  33.387  38.239  1.00  0.00     0.148 A 
ATOM     71  C   UNL A   1      39.744  36.016  38.231  1.00  0.00     0.002 A 
ATOM     72  C   UNL A   1      38.576  34.209  39.346  1.00  0.00     0.091 A 
ATOM     73  F   UNL A   1      38.327  32.119  38.222  1.00  0.00    -0.205 F 
ATOM     74  C   UNL A   1      39.086  35.516  39.351  1.00  0.00     0.022 A 
BRANCH  72  75
ATOM     75  S   UNL A   1      37.630  33.692  40.782  1.00  0.00     0.127 S 
ATOM     76  O   UNL A   1      38.552  32.762  41.427  1.00  0.00    -0.237 OA
ATOM     77  O   UNL A   1      37.438  34.961  41.487  1.00  0.00    -0.237 OA
ATOM     78  O   UNL A   1      36.405  33.107  40.255  1.00  0.00    -0.744 OA
ENDBRANCH  72  75
ENDBRANCH  44  68
BRANCH  56  79
ATOM     79  C   UNL A   1      43.977  28.883  35.423  1.00  0.00     0.023 A 
ATOM     80  C   UNL A   1      45.255  29.454  35.273  1.00  0.00     0.012 A 
ATOM     81  C   UNL A   1      43.801  27.801  36.309  1.00  0.00     0.148 A 
ATOM     82  C   UNL A   1      46.349  28.934  35.964  1.00  0.00     0.002 A 
ATOM     83  C   UNL A   1      44.884  27.324  37.036  1.00  0.00     0.091 A 
ATOM     84  F   UNL A   1      42.580  27.262  36.426  1.00  0.00    -0.205 F 
ATOM     85  C   UNL A   1      46.162  27.878  36.854  1.00  0.00     0.022 A 
BRANCH  83  86
ATOM     86  S   UNL A   1      44.720  26.036  38.278  1.00  0.00     0.127 S 
ATOM     87  O   UNL A   1      44.011  26.741  39.345  1.00  0.00    -0.237 OA
ATOM     88  O   UNL A   1      43.922  25.030  37.576  1.00  0.00    -0.237 OA
ATOM     89  O   UNL A   1      46.076  25.614  38.603  1.00  0.00    -0.744 OA
ENDBRANCH  83  86
ENDBRANCH  56  79
ENDBRANCH  30  31
ENDBRANCH  22  25
ENDBRANCH  20  21
ENDBRANCH  19  20
ENDBRANCH   1  19
TORSDOF 17
ENDMDL
MODEL 2
REMARK VINA RESULT:     -10.7      5.727      9.116
REMARK SMILES C[C@@H](NC1=[NH+]CCC1)C(=O)NCCCCCCNC(=O)c1ccc(-c2c3nc(c(-c4cccc(S(=O)(=O)[O-])c4F)c4ccc([nH]4)c(-c4cccc(S(=O)(=O)[O-])c4F)c4nc(c(-c5cccc(S(=O)(=O)[O-])c5F)c5ccc2[nH]5)C=C4)C=C3)cc1
REMARK SMILES IDX 15 1 14 2 13 3 12 4 11 5 9 6 10 7 2 9 1 10 3 11 4 12 5 14
REMARK SMILES IDX 8 15 6 16 7 18 16 19 17 20 18 21 19 22 20 24 21 25 22 26
REMARK SMILES IDX 83 27 23 28 82 29 24 30 25 31 26 32 76 33 27 34 81 35 75 36
REMARK SMILES IDX 77 37 28 38 80 39 74 40 73 41 29 43 61 44 41 45 60 46 42 47
REMARK SMILES IDX 45 48 59 49 78 50 43 51 44 52 58 54 79 55 46 56 30 57 31 58
REMARK SMILES IDX 39 59 32 60 34 61 40 62 33 63 35 64 36 65 37 66 38 67 62 68
REMARK SMILES IDX 63 69 71 70 64 71 66 72 72 73 65 74 67 75 68 76 69 77 70 78
REMARK SMILES IDX 47 79 48 80 56 81 49 82 51 83 57 84 50 85 52 86 53 87 54 88
REMARK SMILES IDX 55 89
REMARK H PARENT 11 8 3 13 5 17 18 23 77 42 45 53
REMARK Flexibility Score: inf
ROOT
ATOM      1  C   UNL A   1      35.600  23.070  23.215  1.00  0.00     0.002 C 
ENDROOT
BRANCH   1   2
ATOM      2  C   UNL A   1      34.287  22.910  23.991  1.00  0.00     0.002 C 
BRANCH   2   3
ATOM      3  C   UNL A   1      33.093  23.661  23.392  1.00  0.00     0.021 C 
BRANCH   3   4
ATOM      4  C   UNL A   1      33.043  25.132  23.785  1.00  0.00     0.116 C 
BRANCH   4   5
ATOM      5  N   UNL A   1      33.629  25.957  22.741  1.00  0.00    -0.352 N 
ATOM      6  C   UNL A   1      33.509  27.294  22.510  1.00  0.00     0.264 C 
ATOM      7  O   UNL A   1      34.091  27.758  21.522  1.00  0.00    -0.270 OA
ATOM      8  H   UNL A   1      34.201  25.474  22.102  1.00  0.00     0.163 HD
BRANCH   6   9
ATOM      9  C   UNL A   1      32.675  28.203  23.428  1.00  0.00     0.258 C 
ATOM     10  C   UNL A   1      33.541  28.682  24.596  1.00  0.00     0.069 C 
BRANCH   9  11
ATOM     11  N   UNL A   1      32.071  29.343  22.748  1.00  0.00    -0.267 N 
ATOM     12  C   UNL A   1      30.750  29.607  22.546  1.00  0.00     0.243 C 
ATOM     13  H   UNL A   1      32.700  30.010  22.388  1.00  0.00     0.305 HD
ATOM     14  N   UNL A   1      30.396  30.259  21.478  1.00  0.00    -0.279 N 
ATOM     15  C   UNL A   1      29.623  29.207  23.457  1.00  0.00     0.131 C 
ATOM     16  C   UNL A   1      28.922  30.286  21.482  1.00  0.00     0.234 C 
ATOM     17  H   UNL A   1      30.993  30.656  20.802  1.00  0.00     0.304 HD
ATOM     18  C   UNL A   1      28.500  29.192  22.446  1.00  0.00     0.058 C 
ENDBRANCH   9  11
ENDBRANCH   6   9
ENDBRANCH   4   5
ENDBRANCH   3   4
ENDBRANCH   2   3
ENDBRANCH   1   2
BRANCH   1  19
ATOM     19  C   UNL A   1      36.741  22.170  23.694  1.00  0.00     0.021 C 
BRANCH  19  20
ATOM     20  C   UNL A   1      36.795  21.976  25.206  1.00  0.00     0.116 C 
BRANCH  20  21
ATOM     21  N   UNL A   1      37.705  20.905  25.583  1.00  0.00    -0.352 N 
ATOM     22  C   UNL A   1      38.980  20.994  26.078  1.00  0.00     0.251 C 
ATOM     23  H   UNL A   1      37.357  19.992  25.468  1.00  0.00     0.163 HD
ATOM     24  O   UNL A   1      39.684  19.988  26.153  1.00  0.00    -0.269 OA
BRANCH  22  25
ATOM     25  C   UNL A   1      39.505  22.306  26.505  1.00  0.00     0.039 A 
ATOM     26  C   UNL A   1      40.545  22.350  27.436  1.00  0.00     0.014 A 
ATOM     27  C   UNL A   1      38.975  23.489  25.980  1.00  0.00     0.014 A 
ATOM     28  C   UNL A   1      41.091  23.581  27.800  1.00  0.00     0.010 A 
ATOM     29  C   UNL A   1      39.573  24.708  26.285  1.00  0.00     0.010 A 
ATOM     30  C   UNL A   1      40.629  24.769  27.205  1.00  0.00    -0.014 A 
BRANCH  30  31
ATOM     31  C   UNL A   1      41.247  26.080  27.527  1.00  0.00     0.031 A 
ATOM     32  C   UNL A   1      42.661  26.375  27.107  1.00  0.00     0.074 A 
ATOM     33  C   UNL A   1      40.560  26.975  28.264  1.00  0.00     0.049 A 
ATOM     34  N   UNL A   1      43.384  27.440  27.339  1.00  0.00    -0.248 NA
ATOM     35  C   UNL A   1      43.367  25.328  26.347  1.00  0.00     0.031 C 
ATOM     36  C   UNL A   1      39.210  26.775  28.796  1.00  0.00     0.029 A 
ATOM     37  N   UNL A   1      40.911  28.223  28.715  1.00  0.00    -0.354 N 
ATOM     38  C   UNL A   1      44.632  27.182  26.786  1.00  0.00     0.074 A 
ATOM     39  C   UNL A   1      44.583  25.844  26.238  1.00  0.00     0.031 C 
ATOM     40  C   UNL A   1      38.845  27.861  29.495  1.00  0.00     0.029 A 
ATOM     41  C   UNL A   1      39.945  28.820  29.493  1.00  0.00     0.049 A 
ATOM     42  H   UNL A   1      41.772  28.649  28.503  1.00  0.00     0.167 HD
ATOM     43  C   UNL A   1      45.714  27.994  26.714  1.00  0.00     0.034 A 
ATOM     44  C   UNL A   1      39.951  30.001  30.142  1.00  0.00     0.034 A 
ATOM     45  C   UNL A   1      45.747  29.335  27.230  1.00  0.00     0.049 A 
ATOM     46  C   UNL A   1      41.159  30.891  30.026  1.00  0.00     0.074 A 
ATOM     47  C   UNL A   1      46.767  30.266  27.137  1.00  0.00     0.029 A 
ATOM     48  N   UNL A   1      44.724  29.935  27.946  1.00  0.00    -0.354 N 
ATOM     49  N   UNL A   1      42.273  30.690  29.366  1.00  0.00    -0.248 NA
ATOM     50  C   UNL A   1      41.095  32.189  30.715  1.00  0.00     0.031 C 
ATOM     51  C   UNL A   1      46.373  31.417  27.825  1.00  0.00     0.029 A 
ATOM     52  C   UNL A   1      45.091  31.218  28.313  1.00  0.00     0.049 A 
ATOM     53  H   UNL A   1      43.862  29.510  28.163  1.00  0.00     0.167 HD
ATOM     54  C   UNL A   1      43.026  31.848  29.527  1.00  0.00     0.074 A 
ATOM     55  C   UNL A   1      42.231  32.755  30.328  1.00  0.00     0.031 C 
ATOM     56  C   UNL A   1      44.269  32.131  29.065  1.00  0.00     0.034 A 
BRANCH  43  57
ATOM     57  C   UNL A   1      46.940  27.472  26.011  1.00  0.00     0.023 A 
ATOM     58  C   UNL A   1      47.116  27.726  24.635  1.00  0.00     0.012 A 
ATOM     59  C   UNL A   1      47.951  26.797  26.724  1.00  0.00     0.148 A 
ATOM     60  C   UNL A   1      48.262  27.288  23.972  1.00  0.00     0.002 A 
ATOM     61  C   UNL A   1      49.111  26.406  26.066  1.00  0.00     0.091 A 
ATOM     62  F   UNL A   1      47.758  26.549  28.027  1.00  0.00    -0.205 F 
ATOM     63  C   UNL A   1      49.264  26.639  24.690  1.00  0.00     0.022 A 
BRANCH  61  64
ATOM     64  S   UNL A   1      50.495  25.637  26.915  1.00  0.00     0.127 S 
ATOM     65  O   UNL A   1      50.859  26.670  27.884  1.00  0.00    -0.237 OA
ATOM     66  O   UNL A   1      49.874  24.447  27.498  1.00  0.00    -0.237 OA
ATOM     67  O   UNL A   1      51.496  25.364  25.893  1.00  0.00    -0.744 OA
ENDBRANCH  61  64
ENDBRANCH  43  57
BRANCH  44  68
ATOM     68  C   UNL A   1      38.758  30.433  30.925  1.00  0.00     0.023 A 
ATOM     69  C   UNL A   1      38.696  30.157  32.305  1.00  0.00     0.012 A 
ATOM     70  C   UNL A   1      37.690  31.116  30.313  1.00  0.00     0.148 A 
ATOM     71  C   UNL A   1      37.575  30.515  33.053  1.00  0.00     0.002 A 
ATOM     72  C   UNL A   1      36.601  31.523  31.076  1.00  0.00     0.091 A 
ATOM     73  F   UNL A   1      37.763  31.361  28.998  1.00  0.00    -0.205 F 
ATOM     74  C   UNL A   1      36.532  31.205  32.441  1.00  0.00     0.022 A 
BRANCH  72  75
ATOM     75  S   UNL A   1      35.274  32.526  30.400  1.00  0.00     0.127 S 
ATOM     76  O   UNL A   1      34.343  32.585  31.523  1.00  0.00    -0.237 OA
ATOM     77  O   UNL A   1      35.968  33.782  30.105  1.00  0.00    -0.237 OA
ATOM     78  O   UNL A   1      34.802  31.811  29.222  1.00  0.00    -0.744 OA
ENDBRANCH  72  75
ENDBRANCH  44  68
BRANCH  56  79
ATOM     79  C   UNL A   1      44.836  33.493  29.369  1.00  0.00     0.023 A 
ATOM     80  C   UNL A   1      45.569  33.704  30.554  1.00  0.00     0.012 A 
ATOM     81  C   UNL A   1      44.700  34.545  28.442  1.00  0.00     0.148 A 
ATOM     82  C   UNL A   1      46.124  34.953  30.829  1.00  0.00     0.002 A 
ATOM     83  C   UNL A   1      45.303  35.770  28.698  1.00  0.00     0.091 A 
ATOM     84  F   UNL A   1      43.986  34.329  27.329  1.00  0.00    -0.205 F 
ATOM     85  C   UNL A   1      46.002  35.981  29.897  1.00  0.00     0.022 A 
BRANCH  83  86
ATOM     86  S   UNL A   1      45.285  37.120  27.513  1.00  0.00     0.127 S 
ATOM     87  O   UNL A   1      45.921  38.193  28.275  1.00  0.00    -0.237 OA
ATOM     88  O   UNL A   1      46.096  36.583  26.420  1.00  0.00    -0.237 OA
ATOM     89  O   UNL A   1      43.885  37.342  27.174  1.00  0.00    -0.744 OA
ENDBRANCH  83  86
ENDBRANCH  56  79
ENDBRANCH  30  31
ENDBRANCH  22  25
ENDBRANCH  20  21
ENDBRANCH  19  20
ENDBRANCH   1  19
TORSDOF 17
ENDMDL
MODEL 3
REMARK VINA RESULT:     -10.7      6.014     10.905
REMARK SMILES C[C@@H](NC1=[NH+]CCC1)C(=O)NCCCCCCNC(=O)c1ccc(-c2c3nc(c(-c4cccc(S(=O)(=O)[O-])c4F)c4ccc([nH]4)c(-c4cccc(S(=O)(=O)[O-])c4F)c4nc(c(-c5cccc(S(=O)(=O)[O-])c5F)c5ccc2[nH]5)C=C4)C=C3)cc1
REMARK SMILES IDX 15 1 14 2 13 3 12 4 11 5 9 6 10 7 2 9 1 10 3 11 4 12 5 14
REMARK SMILES IDX 8 15 6 16 7 18 16 19 17 20 18 21 19 22 20 24 21 25 22 26
REMARK SMILES IDX 83 27 23 28 82 29 24 30 25 31 26 32 76 33 27 34 81 35 75 36
REMARK SMILES IDX 77 37 28 38 80 39 74 40 73 41 29 43 61 44 41 45 60 46 42 47
REMARK SMILES IDX 45 48 59 49 78 50 43 51 44 52 58 54 79 55 46 56 30 57 31 58
REMARK SMILES IDX 39 59 32 60 34 61 40 62 33 63 35 64 36 65 37 66 38 67 62 68
REMARK SMILES IDX 63 69 71 70 64 71 66 72 72 73 65 74 67 75 68 76 69 77 70 78
REMARK SMILES IDX 47 79 48 80 56 81 49 82 51 83 57 84 50 85 52 86 53 87 54 88
REMARK SMILES IDX 55 89
REMARK H PARENT 11 8 3 13 5 17 18 23 77 42 45 53
REMARK Flexibility Score: inf
ROOT
ATOM      1  C   UNL A   1      34.940  23.048  23.897  1.00  0.00     0.002 C 
ENDROOT
BRANCH   1   2
ATOM      2  C   UNL A   1      33.681  22.624  23.132  1.00  0.00     0.002 C 
BRANCH   2   3
ATOM      3  C   UNL A   1      32.361  22.921  23.851  1.00  0.00     0.021 C 
BRANCH   3   4
ATOM      4  C   UNL A   1      31.484  23.927  23.118  1.00  0.00     0.116 C 
BRANCH   4   5
ATOM      5  N   UNL A   1      32.226  24.553  22.035  1.00  0.00    -0.352 N 
ATOM      6  C   UNL A   1      32.679  25.831  21.908  1.00  0.00     0.264 C 
ATOM      7  O   UNL A   1      33.264  26.128  20.860  1.00  0.00    -0.270 OA
ATOM      8  H   UNL A   1      32.432  23.961  21.276  1.00  0.00     0.163 HD
BRANCH   6   9
ATOM      9  C   UNL A   1      32.466  26.880  23.012  1.00  0.00     0.258 C 
ATOM     10  C   UNL A   1      33.658  26.858  23.973  1.00  0.00     0.069 C 
BRANCH   9  11
ATOM     11  N   UNL A   1      32.244  28.233  22.514  1.00  0.00    -0.267 N 
ATOM     12  C   UNL A   1      31.108  28.982  22.576  1.00  0.00     0.243 C 
ATOM     13  H   UNL A   1      33.015  28.661  22.077  1.00  0.00     0.305 HD
ATOM     14  N   UNL A   1      30.869  29.838  21.626  1.00  0.00    -0.279 N 
ATOM     15  C   UNL A   1      30.069  28.918  23.659  1.00  0.00     0.131 C 
ATOM     16  C   UNL A   1      29.536  30.401  21.906  1.00  0.00     0.234 C 
ATOM     17  H   UNL A   1      31.460  30.065  20.871  1.00  0.00     0.304 HD
ATOM     18  C   UNL A   1      28.883  29.432  22.876  1.00  0.00     0.058 C 
ENDBRANCH   9  11
ENDBRANCH   6   9
ENDBRANCH   4   5
ENDBRANCH   3   4
ENDBRANCH   2   3
ENDBRANCH   1   2
BRANCH   1  19
ATOM     19  C   UNL A   1      35.495  21.991  24.854  1.00  0.00     0.021 C 
BRANCH  19  20
ATOM     20  C   UNL A   1      36.714  22.445  25.651  1.00  0.00     0.116 C 
BRANCH  20  21
ATOM     21  N   UNL A   1      37.702  21.385  25.782  1.00  0.00    -0.352 N 
ATOM     22  C   UNL A   1      39.027  21.481  26.120  1.00  0.00     0.251 C 
ATOM     23  H   UNL A   1      37.374  20.475  25.604  1.00  0.00     0.163 HD
ATOM     24  O   UNL A   1      39.769  20.509  25.986  1.00  0.00    -0.269 OA
BRANCH  22  25
ATOM     25  C   UNL A   1      39.556  22.761  26.629  1.00  0.00     0.039 A 
ATOM     26  C   UNL A   1      40.544  22.742  27.617  1.00  0.00     0.014 A 
ATOM     27  C   UNL A   1      39.084  23.978  26.126  1.00  0.00     0.014 A 
ATOM     28  C   UNL A   1      41.096  23.943  28.062  1.00  0.00     0.010 A 
ATOM     29  C   UNL A   1      39.691  25.167  26.514  1.00  0.00     0.010 A 
ATOM     30  C   UNL A   1      40.696  25.165  27.493  1.00  0.00    -0.014 A 
BRANCH  30  31
ATOM     31  C   UNL A   1      41.324  26.446  27.903  1.00  0.00     0.031 A 
ATOM     32  C   UNL A   1      40.507  27.504  28.592  1.00  0.00     0.074 A 
ATOM     33  C   UNL A   1      42.613  26.685  27.587  1.00  0.00     0.049 A 
ATOM     34  N   UNL A   1      40.868  28.700  28.980  1.00  0.00    -0.248 NA
ATOM     35  C   UNL A   1      39.093  27.191  28.860  1.00  0.00     0.031 C 
ATOM     36  C   UNL A   1      43.488  25.768  26.853  1.00  0.00     0.029 A 
ATOM     37  N   UNL A   1      43.404  27.782  27.820  1.00  0.00    -0.354 N 
ATOM     38  C   UNL A   1      39.726  29.292  29.506  1.00  0.00     0.074 A 
ATOM     39  C   UNL A   1      38.649  28.338  29.355  1.00  0.00     0.031 C 
ATOM     40  C   UNL A   1      44.694  26.336  26.701  1.00  0.00     0.029 A 
ATOM     41  C   UNL A   1      44.670  27.670  27.292  1.00  0.00     0.049 A 
ATOM     42  H   UNL A   1      43.095  28.573  28.317  1.00  0.00     0.167 HD
ATOM     43  C   UNL A   1      39.589  30.507  30.088  1.00  0.00     0.034 A 
ATOM     44  C   UNL A   1      45.692  28.548  27.276  1.00  0.00     0.034 A 
ATOM     45  C   UNL A   1      40.670  31.438  30.266  1.00  0.00     0.049 A 
ATOM     46  C   UNL A   1      45.518  29.883  27.950  1.00  0.00     0.074 A 
ATOM     47  C   UNL A   1      40.651  32.660  30.915  1.00  0.00     0.029 A 
ATOM     48  N   UNL A   1      41.957  31.260  29.787  1.00  0.00    -0.354 N 
ATOM     49  N   UNL A   1      44.471  30.360  28.578  1.00  0.00    -0.248 NA
ATOM     50  C   UNL A   1      46.679  30.786  27.944  1.00  0.00     0.031 C 
ATOM     51  C   UNL A   1      41.920  33.236  30.798  1.00  0.00     0.029 A 
ATOM     52  C   UNL A   1      42.740  32.354  30.112  1.00  0.00     0.049 A 
ATOM     53  H   UNL A   1      42.270  30.471  29.287  1.00  0.00     0.167 HD
ATOM     54  C   UNL A   1      44.859  31.600  29.076  1.00  0.00     0.074 A 
ATOM     55  C   UNL A   1      46.243  31.789  28.694  1.00  0.00     0.031 C 
ATOM     56  C   UNL A   1      44.131  32.507  29.773  1.00  0.00     0.034 A 
BRANCH  43  57
ATOM     57  C   UNL A   1      38.230  30.884  30.619  1.00  0.00     0.023 A 
ATOM     58  C   UNL A   1      37.891  30.572  31.952  1.00  0.00     0.012 A 
ATOM     59  C   UNL A   1      37.320  31.610  29.826  1.00  0.00     0.148 A 
ATOM     60  C   UNL A   1      36.656  30.947  32.477  1.00  0.00     0.002 A 
ATOM     61  C   UNL A   1      36.110  32.022  30.372  1.00  0.00     0.091 A 
ATOM     62  F   UNL A   1      37.653  31.882  28.557  1.00  0.00    -0.205 F 
ATOM     63  C   UNL A   1      35.771  31.682  31.692  1.00  0.00     0.022 A 
BRANCH  61  64
ATOM     64  S   UNL A   1      34.935  33.041  29.473  1.00  0.00     0.127 S 
ATOM     65  O   UNL A   1      34.360  32.074  28.539  1.00  0.00    -0.237 OA
ATOM     66  O   UNL A   1      34.029  33.474  30.537  1.00  0.00    -0.237 OA
ATOM     67  O   UNL A   1      35.712  34.109  28.860  1.00  0.00    -0.744 OA
ENDBRANCH  61  64
ENDBRANCH  43  57
BRANCH  44  68
ATOM     68  C   UNL A   1      46.988  28.180  26.637  1.00  0.00     0.023 A 
ATOM     69  C   UNL A   1      48.109  27.908  27.446  1.00  0.00     0.012 A 
ATOM     70  C   UNL A   1      47.115  28.096  25.238  1.00  0.00     0.148 A 
ATOM     71  C   UNL A   1      49.342  27.600  26.873  1.00  0.00     0.002 A 
ATOM     72  C   UNL A   1      48.332  27.730  24.674  1.00  0.00     0.091 A 
ATOM     73  F   UNL A   1      46.040  28.367  24.485  1.00  0.00    -0.205 F 
ATOM     74  C   UNL A   1      49.452  27.502  25.488  1.00  0.00     0.022 A 
BRANCH  72  75
ATOM     75  S   UNL A   1      48.532  27.456  22.911  1.00  0.00     0.127 S 
ATOM     76  O   UNL A   1      49.920  27.855  22.702  1.00  0.00    -0.237 OA
ATOM     77  O   UNL A   1      48.278  26.018  22.800  1.00  0.00    -0.237 OA
ATOM     78  O   UNL A   1      47.528  28.293  22.267  1.00  0.00    -0.744 OA
ENDBRANCH  72  75
ENDBRANCH  44  68
BRANCH  56  79
ATOM     79  C   UNL A   1      44.824  33.769  30.216  1.00  0.00     0.023 A 
ATOM     80  C   UNL A   1      45.532  33.796  31.434  1.00  0.00     0.012 A 
ATOM     81  C   UNL A   1      44.829  34.908  29.387  1.00  0.00     0.148 A 
ATOM     82  C   UNL A   1      46.203  34.949  31.837  1.00  0.00     0.002 A 
ATOM     83  C   UNL A   1      45.545  36.036  29.770  1.00  0.00     0.091 A 
ATOM     84  F   UNL A   1      44.136  34.868  28.241  1.00  0.00    -0.205 F 
ATOM     85  C   UNL A   1      46.220  36.064  31.002  1.00  0.00     0.022 A 
BRANCH  83  86
ATOM     86  S   UNL A   1      45.707  37.480  28.714  1.00  0.00     0.127 S 
ATOM     87  O   UNL A   1      46.473  38.387  29.567  1.00  0.00    -0.237 OA
ATOM     88  O   UNL A   1      46.447  36.945  27.571  1.00  0.00    -0.237 OA
ATOM     89  O   UNL A   1      44.349  37.910  28.408  1.00  0.00    -0.744 OA
ENDBRANCH  83  86
ENDBRANCH  56  79
ENDBRANCH  30  31
ENDBRANCH  22  25
ENDBRANCH  20  21
ENDBRANCH  19  20
ENDBRANCH   1  19
TORSDOF 17
ENDMDL
