MODEL 1
REMARK VINA RESULT:      -8.8      0.000      0.000
REMARK SMILES CCCCCCNC(=O)Oc1cccc(-c2ccc([C@@H](C)C(=O)NCCCCCCNC(=O)c3ccc(-c4c5nc(c(-c6cccc(S(=O)(=O)[O-])c6F)c6ccc([nH]6)c(-c6cccc(S(=O)(=O)[O-])c6F)c6nc(c(-c7cccc(S(=O)(=O)[O-])c7F)c7ccc4[nH]7)C=C6)C=C5)cc3)cc2Cl)c1
REMARK SMILES IDX 22 1 23 2 24 3 20 5 21 6 19 7 16 8 17 9 98 10 18 11 97 12
REMARK SMILES IDX 99 13 15 14 11 15 12 16 100 17 13 18 14 19 10 20 8 21 7 22
REMARK SMILES IDX 9 24 6 25 5 26 4 27 3 28 2 29 1 30 25 31 26 32 27 33 28 34
REMARK SMILES IDX 29 35 30 36 31 37 32 38 33 40 34 41 35 42 96 43 36 44 95 45
REMARK SMILES IDX 37 46 38 47 39 48 89 49 40 50 94 51 88 52 90 53 41 54 93 55
REMARK SMILES IDX 87 56 86 57 42 59 74 60 54 61 73 62 55 63 58 64 72 65 91 66
REMARK SMILES IDX 56 67 57 68 71 70 92 71 59 72 43 73 44 74 52 75 45 76 47 77
REMARK SMILES IDX 53 78 46 79 48 80 49 81 50 82 51 83 75 84 76 85 84 86 77 87
REMARK SMILES IDX 79 88 85 89 78 90 80 91 81 92 82 93 83 94 60 95 61 96 69 97
REMARK SMILES IDX 62 98 64 99 70 100 63 101 65 102 66 103 67 104 68 105
REMARK H PARENT 24 4 7 23 31 39 90 58 58 69
REMARK Flexibility Score: inf
ROOT
ATOM      1  C   UNL A   1      41.140  23.856  26.997  1.00  0.00     0.227 C 
ATOM      2  O   UNL A   1      40.048  23.640  27.538  1.00  0.00    -0.274 OA
ATOM      3  N   UNL A   1      41.512  22.987  26.018  1.00  0.00    -0.356 N 
ATOM      4  H   UNL A   1      40.827  22.317  25.792  1.00  0.00     0.163 HD
ENDROOT
BRANCH   1   5
ATOM      5  C   UNL A   1      41.981  25.067  27.432  1.00  0.00     0.105 C 
ATOM      6  C   UNL A   1      43.128  24.721  28.381  1.00  0.00     0.023 C 
BRANCH   5   7
ATOM      7  C   UNL A   1      41.152  26.284  27.809  1.00  0.00    -0.034 A 
ATOM      8  C   UNL A   1      39.806  28.686  28.610  1.00  0.00     0.000 A 
ATOM      9  C   UNL A   1      39.974  28.338  27.258  1.00  0.00     0.010 A 
ATOM     10  C   UNL A   1      40.259  27.749  29.561  1.00  0.00     0.049 A 
ATOM     11  C   UNL A   1      40.591  27.146  26.868  1.00  0.00     0.005 A 
ATOM     12  C   UNL A   1      40.950  26.591  29.164  1.00  0.00     0.025 A 
ATOM     13  Cl  UNL A   1      39.959  27.913  31.261  1.00  0.00    -0.084 Cl
BRANCH   8  14
ATOM     14  C   UNL A   1      39.207  30.002  28.932  1.00  0.00    -0.013 A 
ATOM     15  C   UNL A   1      37.407  31.627  28.731  1.00  0.00     0.133 A 
ATOM     16  C   UNL A   1      38.019  32.472  29.651  1.00  0.00     0.047 A 
ATOM     17  C   UNL A   1      37.981  30.405  28.378  1.00  0.00     0.056 A 
ATOM     18  C   UNL A   1      39.221  32.083  30.230  1.00  0.00     0.004 A 
ATOM     19  C   UNL A   1      39.813  30.869  29.864  1.00  0.00     0.009 A 
BRANCH  15  20
ATOM     20  O   UNL A   1      36.267  32.122  28.076  1.00  0.00    -0.410 OA
BRANCH  20  21
ATOM     21  C   UNL A   1      35.069  31.435  28.183  1.00  0.00     0.412 C 
ATOM     22  N   UNL A   1      34.253  31.945  29.156  1.00  0.00    -0.321 N 
ATOM     23  H   UNL A   1      33.402  31.472  29.312  1.00  0.00     0.167 HD
ATOM     24  O   UNL A   1      34.722  30.471  27.514  1.00  0.00    -0.224 OA
BRANCH  22  25
ATOM     25  C   UNL A   1      34.511  33.108  29.978  1.00  0.00     0.119 C 
BRANCH  25  26
ATOM     26  C   UNL A   1      34.832  32.723  31.423  1.00  0.00     0.021 C 
BRANCH  26  27
ATOM     27  C   UNL A   1      34.264  33.675  32.483  1.00  0.00     0.002 C 
BRANCH  27  28
ATOM     28  C   UNL A   1      35.078  34.953  32.722  1.00  0.00    -0.000 C 
BRANCH  28  29
ATOM     29  C   UNL A   1      34.343  36.066  33.473  1.00  0.00    -0.003 C 
ATOM     30  C   UNL A   1      34.050  37.281  32.608  1.00  0.00     0.004 C 
ENDBRANCH  28  29
ENDBRANCH  27  28
ENDBRANCH  26  27
ENDBRANCH  25  26
ENDBRANCH  22  25
ENDBRANCH  20  21
ENDBRANCH  15  20
ENDBRANCH   8  14
ENDBRANCH   5   7
ENDBRANCH   1   5
BRANCH   3  31
ATOM     31  C   UNL A   1      42.734  22.871  25.249  1.00  0.00     0.116 C 
BRANCH  31  32
ATOM     32  C   UNL A   1      43.505  21.599  25.609  1.00  0.00     0.021 C 
BRANCH  32  33
ATOM     33  C   UNL A   1      45.026  21.786  25.623  1.00  0.00     0.002 C 
BRANCH  33  34
ATOM     34  C   UNL A   1      45.609  22.427  24.358  1.00  0.00     0.002 C 
BRANCH  34  35
ATOM     35  C   UNL A   1      46.723  23.451  24.596  1.00  0.00     0.021 C 
BRANCH  35  36
ATOM     36  C   UNL A   1      46.246  24.790  25.153  1.00  0.00     0.116 C 
BRANCH  36  37
ATOM     37  N   UNL A   1      46.934  25.908  24.522  1.00  0.00    -0.352 N 
ATOM     38  C   UNL A   1      46.802  27.254  24.750  1.00  0.00     0.251 C 
ATOM     39  H   UNL A   1      47.589  25.661  23.830  1.00  0.00     0.163 HD
ATOM     40  O   UNL A   1      47.273  28.059  23.951  1.00  0.00    -0.269 OA
BRANCH  38  41
ATOM     41  C   UNL A   1      46.094  27.734  25.956  1.00  0.00     0.039 A 
ATOM     42  C   UNL A   1      46.839  28.114  27.075  1.00  0.00     0.014 A 
ATOM     43  C   UNL A   1      44.698  27.779  25.991  1.00  0.00     0.014 A 
ATOM     44  C   UNL A   1      46.182  28.590  28.212  1.00  0.00     0.010 A 
ATOM     45  C   UNL A   1      44.051  28.324  27.095  1.00  0.00     0.010 A 
ATOM     46  C   UNL A   1      44.785  28.724  28.222  1.00  0.00    -0.014 A 
BRANCH  46  47
ATOM     47  C   UNL A   1      44.075  29.293  29.396  1.00  0.00     0.031 A 
ATOM     48  C   UNL A   1      43.696  30.748  29.427  1.00  0.00     0.074 A 
ATOM     49  C   UNL A   1      43.858  28.519  30.477  1.00  0.00     0.049 A 
ATOM     50  N   UNL A   1      43.113  31.428  30.380  1.00  0.00    -0.248 NA
ATOM     51  C   UNL A   1      44.044  31.552  28.244  1.00  0.00     0.031 C 
ATOM     52  C   UNL A   1      44.265  27.118  30.605  1.00  0.00     0.029 A 
ATOM     53  N   UNL A   1      43.272  28.808  31.683  1.00  0.00    -0.354 N 
ATOM     54  C   UNL A   1      43.063  32.743  29.933  1.00  0.00     0.074 A 
ATOM     55  C   UNL A   1      43.704  32.771  28.637  1.00  0.00     0.031 C 
ATOM     56  C   UNL A   1      43.916  26.670  31.821  1.00  0.00     0.029 A 
ATOM     57  C   UNL A   1      43.290  27.757  32.569  1.00  0.00     0.049 A 
ATOM     58  H   UNL A   1      42.876  29.684  31.894  1.00  0.00     0.167 HD
ATOM     59  C   UNL A   1      42.509  33.823  30.534  1.00  0.00     0.034 A 
ATOM     60  C   UNL A   1      42.862  27.677  33.843  1.00  0.00     0.034 A 
ATOM     61  C   UNL A   1      41.840  33.781  31.807  1.00  0.00     0.049 A 
ATOM     62  C   UNL A   1      42.202  28.872  34.471  1.00  0.00     0.074 A 
ATOM     63  C   UNL A   1      41.150  34.792  32.450  1.00  0.00     0.029 A 
ATOM     64  N   UNL A   1      41.793  32.673  32.640  1.00  0.00    -0.354 N 
ATOM     65  N   UNL A   1      41.998  30.064  33.961  1.00  0.00    -0.248 NA
ATOM     66  C   UNL A   1      41.674  28.704  35.832  1.00  0.00     0.031 C 
ATOM     67  C   UNL A   1      40.715  34.305  33.688  1.00  0.00     0.029 A 
ATOM     68  C   UNL A   1      41.104  32.979  33.801  1.00  0.00     0.049 A 
ATOM     69  H   UNL A   1      42.193  31.796  32.435  1.00  0.00     0.167 HD
ATOM     70  C   UNL A   1      41.298  30.778  34.925  1.00  0.00     0.074 A 
ATOM     71  C   UNL A   1      41.092  29.877  36.042  1.00  0.00     0.031 C 
ATOM     72  C   UNL A   1      40.874  32.066  34.892  1.00  0.00     0.034 A 
BRANCH  59  73
ATOM     73  C   UNL A   1      42.575  35.138  29.798  1.00  0.00     0.023 A 
ATOM     74  C   UNL A   1      41.676  35.396  28.741  1.00  0.00     0.012 A 
ATOM     75  C   UNL A   1      43.504  36.130  30.169  1.00  0.00     0.148 A 
ATOM     76  C   UNL A   1      41.733  36.597  28.034  1.00  0.00     0.002 A 
ATOM     77  C   UNL A   1      43.522  37.344  29.491  1.00  0.00     0.091 A 
ATOM     78  F   UNL A   1      44.366  35.863  31.160  1.00  0.00    -0.205 F 
ATOM     79  C   UNL A   1      42.649  37.573  28.415  1.00  0.00     0.022 A 
BRANCH  77  80
ATOM     80  S   UNL A   1      44.609  38.695  29.962  1.00  0.00     0.127 S 
ATOM     81  O   UNL A   1      45.917  38.044  29.935  1.00  0.00    -0.237 OA
ATOM     82  O   UNL A   1      44.387  39.660  28.885  1.00  0.00    -0.237 OA
ATOM     83  O   UNL A   1      44.152  39.135  31.272  1.00  0.00    -0.744 OA
ENDBRANCH  77  80
ENDBRANCH  59  73
BRANCH  60  84
ATOM     84  C   UNL A   1      42.995  26.388  34.578  1.00  0.00     0.023 A 
ATOM     85  C   UNL A   1      41.850  25.606  34.820  1.00  0.00     0.012 A 
ATOM     86  C   UNL A   1      44.257  25.903  34.972  1.00  0.00     0.148 A 
ATOM     87  C   UNL A   1      41.957  24.369  35.459  1.00  0.00     0.002 A 
ATOM     88  C   UNL A   1      44.363  24.646  35.556  1.00  0.00     0.091 A 
ATOM     89  F   UNL A   1      45.332  26.668  34.735  1.00  0.00    -0.205 F 
ATOM     90  C   UNL A   1      43.213  23.885  35.815  1.00  0.00     0.022 A 
BRANCH  88  91
ATOM     91  S   UNL A   1      45.947  23.880  35.918  1.00  0.00     0.127 S 
ATOM     92  O   UNL A   1      46.637  23.999  34.636  1.00  0.00    -0.237 OA
ATOM     93  O   UNL A   1      46.462  24.746  36.979  1.00  0.00    -0.237 OA
ATOM     94  O   UNL A   1      45.643  22.521  36.344  1.00  0.00    -0.744 OA
ENDBRANCH  88  91
ENDBRANCH  60  84
BRANCH  72  95
ATOM     95  C   UNL A   1      40.121  32.585  36.090  1.00  0.00     0.023 A 
ATOM     96  C   UNL A   1      38.718  32.470  36.143  1.00  0.00     0.012 A 
ATOM     97  C   UNL A   1      40.812  33.119  37.195  1.00  0.00     0.148 A 
ATOM     98  C   UNL A   1      38.011  32.907  37.263  1.00  0.00     0.002 A 
ATOM     99  C   UNL A   1      40.107  33.507  38.329  1.00  0.00     0.091 A 
ATOM    100  F   UNL A   1      42.145  33.239  37.120  1.00  0.00    -0.205 F 
ATOM    101  C   UNL A   1      38.706  33.414  38.359  1.00  0.00     0.022 A 
BRANCH  99 102
ATOM    102  S   UNL A   1      40.924  34.078  39.822  1.00  0.00     0.127 S 
ATOM    103  O   UNL A   1      41.951  33.055  40.011  1.00  0.00    -0.237 OA
ATOM    104  O   UNL A   1      41.435  35.387  39.414  1.00  0.00    -0.237 OA
ATOM    105  O   UNL A   1      39.893  34.127  40.851  1.00  0.00    -0.744 OA
ENDBRANCH  99 102
ENDBRANCH  72  95
ENDBRANCH  46  47
ENDBRANCH  38  41
ENDBRANCH  36  37
ENDBRANCH  35  36
ENDBRANCH  34  35
ENDBRANCH  33  34
ENDBRANCH  32  33
ENDBRANCH  31  32
ENDBRANCH   3  31
TORSDOF 25
ENDMDL
MODEL 2
REMARK VINA RESULT:      -8.4      4.797     10.669
REMARK SMILES CCCCCCNC(=O)Oc1cccc(-c2ccc([C@@H](C)C(=O)NCCCCCCNC(=O)c3ccc(-c4c5nc(c(-c6cccc(S(=O)(=O)[O-])c6F)c6ccc([nH]6)c(-c6cccc(S(=O)(=O)[O-])c6F)c6nc(c(-c7cccc(S(=O)(=O)[O-])c7F)c7ccc4[nH]7)C=C6)C=C5)cc3)cc2Cl)c1
REMARK SMILES IDX 22 1 23 2 24 3 20 5 21 6 19 7 16 8 17 9 98 10 18 11 97 12
REMARK SMILES IDX 99 13 15 14 11 15 12 16 100 17 13 18 14 19 10 20 8 21 7 22
REMARK SMILES IDX 9 24 6 25 5 26 4 27 3 28 2 29 1 30 25 31 26 32 27 33 28 34
REMARK SMILES IDX 29 35 30 36 31 37 32 38 33 40 34 41 35 42 96 43 36 44 95 45
REMARK SMILES IDX 37 46 38 47 39 48 89 49 40 50 94 51 88 52 90 53 41 54 93 55
REMARK SMILES IDX 87 56 86 57 42 59 74 60 54 61 73 62 55 63 58 64 72 65 91 66
REMARK SMILES IDX 56 67 57 68 71 70 92 71 59 72 43 73 44 74 52 75 45 76 47 77
REMARK SMILES IDX 53 78 46 79 48 80 49 81 50 82 51 83 75 84 76 85 84 86 77 87
REMARK SMILES IDX 79 88 85 89 78 90 80 91 81 92 82 93 83 94 60 95 61 96 69 97
REMARK SMILES IDX 62 98 64 99 70 100 63 101 65 102 66 103 67 104 68 105
REMARK H PARENT 24 4 7 23 31 39 90 58 58 69
REMARK Flexibility Score: inf
ROOT
ATOM      1  C   UNL A   1      34.074  35.556  28.731  1.00  0.00     0.227 C 
ATOM      2  O   UNL A   1      34.428  36.071  27.662  1.00  0.00    -0.274 OA
ATOM      3  N   UNL A   1      33.134  36.232  29.445  1.00  0.00    -0.356 N 
ATOM      4  H   UNL A   1      32.778  37.030  28.989  1.00  0.00     0.163 HD
ENDROOT
BRANCH   1   5
ATOM      5  C   UNL A   1      34.681  34.213  29.170  1.00  0.00     0.105 C 
ATOM      6  C   UNL A   1      36.186  34.263  29.428  1.00  0.00     0.023 C 
BRANCH   5   7
ATOM      7  C   UNL A   1      34.186  33.024  28.362  1.00  0.00    -0.034 A 
ATOM      8  C   UNL A   1      33.222  30.658  27.062  1.00  0.00     0.000 A 
ATOM      9  C   UNL A   1      32.482  31.853  27.084  1.00  0.00     0.010 A 
ATOM     10  C   UNL A   1      34.506  30.703  27.639  1.00  0.00     0.049 A 
ATOM     11  C   UNL A   1      32.970  33.020  27.680  1.00  0.00     0.005 A 
ATOM     12  C   UNL A   1      34.960  31.855  28.307  1.00  0.00     0.025 A 
ATOM     13  Cl  UNL A   1      35.635  29.391  27.529  1.00  0.00    -0.084 Cl
BRANCH   8  14
ATOM     14  C   UNL A   1      32.597  29.450  26.474  1.00  0.00    -0.013 A 
ATOM     15  C   UNL A   1      32.135  28.005  24.570  1.00  0.00     0.133 A 
ATOM     16  C   UNL A   1      31.497  27.077  25.385  1.00  0.00     0.047 A 
ATOM     17  C   UNL A   1      32.688  29.173  25.100  1.00  0.00     0.056 A 
ATOM     18  C   UNL A   1      31.415  27.318  26.751  1.00  0.00     0.004 A 
ATOM     19  C   UNL A   1      31.947  28.498  27.286  1.00  0.00     0.009 A 
BRANCH  15  20
ATOM     20  O   UNL A   1      32.075  27.781  23.186  1.00  0.00    -0.410 OA
BRANCH  20  21
ATOM     21  C   UNL A   1      33.245  27.547  22.482  1.00  0.00     0.412 C 
ATOM     22  N   UNL A   1      33.414  26.228  22.161  1.00  0.00    -0.321 N 
ATOM     23  H   UNL A   1      34.251  25.989  21.698  1.00  0.00     0.167 HD
ATOM     24  O   UNL A   1      34.076  28.384  22.156  1.00  0.00    -0.224 OA
BRANCH  22  25
ATOM     25  C   UNL A   1      32.489  25.148  22.432  1.00  0.00     0.119 C 
BRANCH  25  26
ATOM     26  C   UNL A   1      33.080  24.124  23.403  1.00  0.00     0.021 C 
BRANCH  26  27
ATOM     27  C   UNL A   1      32.875  22.660  22.994  1.00  0.00     0.002 C 
BRANCH  27  28
ATOM     28  C   UNL A   1      33.278  21.621  24.047  1.00  0.00    -0.000 C 
BRANCH  28  29
ATOM     29  C   UNL A   1      32.286  20.473  24.248  1.00  0.00    -0.003 C 
ATOM     30  C   UNL A   1      32.851  19.116  23.859  1.00  0.00     0.004 C 
ENDBRANCH  28  29
ENDBRANCH  27  28
ENDBRANCH  26  27
ENDBRANCH  25  26
ENDBRANCH  22  25
ENDBRANCH  20  21
ENDBRANCH  15  20
ENDBRANCH   8  14
ENDBRANCH   5   7
ENDBRANCH   1   5
BRANCH   3  31
ATOM     31  C   UNL A   1      32.561  35.990  30.753  1.00  0.00     0.116 C 
BRANCH  31  32
ATOM     32  C   UNL A   1      33.544  36.348  31.870  1.00  0.00     0.021 C 
BRANCH  32  33
ATOM     33  C   UNL A   1      33.663  35.271  32.953  1.00  0.00     0.002 C 
BRANCH  33  34
ATOM     34  C   UNL A   1      35.010  34.537  32.987  1.00  0.00     0.002 C 
BRANCH  34  35
ATOM     35  C   UNL A   1      34.953  33.047  32.635  1.00  0.00     0.021 C 
BRANCH  35  36
ATOM     36  C   UNL A   1      36.209  32.260  33.002  1.00  0.00     0.116 C 
BRANCH  36  37
ATOM     37  N   UNL A   1      36.094  30.860  32.619  1.00  0.00    -0.352 N 
ATOM     38  C   UNL A   1      36.891  30.114  31.788  1.00  0.00     0.251 C 
ATOM     39  H   UNL A   1      35.332  30.377  33.014  1.00  0.00     0.163 HD
ATOM     40  O   UNL A   1      36.499  29.025  31.380  1.00  0.00    -0.269 OA
BRANCH  38  41
ATOM     41  C   UNL A   1      38.218  30.624  31.384  1.00  0.00     0.039 A 
ATOM     42  C   UNL A   1      39.202  30.805  32.359  1.00  0.00     0.014 A 
ATOM     43  C   UNL A   1      38.480  30.950  30.051  1.00  0.00     0.014 A 
ATOM     44  C   UNL A   1      40.467  31.264  31.987  1.00  0.00     0.010 A 
ATOM     45  C   UNL A   1      39.763  31.335  29.672  1.00  0.00     0.010 A 
ATOM     46  C   UNL A   1      40.766  31.508  30.637  1.00  0.00    -0.014 A 
BRANCH  46  47
ATOM     47  C   UNL A   1      42.126  31.930  30.214  1.00  0.00     0.031 A 
ATOM     48  C   UNL A   1      42.419  33.375  29.920  1.00  0.00     0.074 A 
ATOM     49  C   UNL A   1      43.072  30.995  30.003  1.00  0.00     0.049 A 
ATOM     50  N   UNL A   1      43.531  33.922  29.501  1.00  0.00    -0.248 NA
ATOM     51  C   UNL A   1      41.311  34.328  30.091  1.00  0.00     0.031 C 
ATOM     52  C   UNL A   1      42.882  29.552  30.161  1.00  0.00     0.029 A 
ATOM     53  N   UNL A   1      44.371  31.116  29.579  1.00  0.00    -0.354 N 
ATOM     54  C   UNL A   1      43.247  35.270  29.317  1.00  0.00     0.074 A 
ATOM     55  C   UNL A   1      41.848  35.452  29.638  1.00  0.00     0.031 C 
ATOM     56  C   UNL A   1      44.021  28.922  29.838  1.00  0.00     0.029 A 
ATOM     57  C   UNL A   1      45.012  29.909  29.422  1.00  0.00     0.049 A 
ATOM     58  H   UNL A   1      44.803  31.983  29.403  1.00  0.00     0.167 HD
ATOM     59  C   UNL A   1      44.080  36.270  28.941  1.00  0.00     0.034 A 
ATOM     60  C   UNL A   1      46.254  29.627  28.983  1.00  0.00     0.034 A 
ATOM     61  C   UNL A   1      45.478  36.088  28.658  1.00  0.00     0.049 A 
ATOM     62  C   UNL A   1      47.178  30.756  28.623  1.00  0.00     0.074 A 
ATOM     63  C   UNL A   1      46.432  37.050  28.378  1.00  0.00     0.029 A 
ATOM     64  N   UNL A   1      46.121  34.861  28.600  1.00  0.00    -0.354 N 
ATOM     65  N   UNL A   1      46.945  32.047  28.630  1.00  0.00    -0.248 NA
ATOM     66  C   UNL A   1      48.549  30.396  28.234  1.00  0.00     0.031 C 
ATOM     67  C   UNL A   1      47.644  36.401  28.118  1.00  0.00     0.029 A 
ATOM     68  C   UNL A   1      47.454  35.036  28.270  1.00  0.00     0.049 A 
ATOM     69  H   UNL A   1      45.692  33.990  28.770  1.00  0.00     0.167 HD
ATOM     70  C   UNL A   1      48.142  32.655  28.274  1.00  0.00     0.074 A 
ATOM     71  C   UNL A   1      49.107  31.590  28.080  1.00  0.00     0.031 C 
ATOM     72  C   UNL A   1      48.415  33.974  28.113  1.00  0.00     0.034 A 
BRANCH  59  73
ATOM     73  C   UNL A   1      43.501  37.659  28.849  1.00  0.00     0.023 A 
ATOM     74  C   UNL A   1      42.763  38.038  27.708  1.00  0.00     0.012 A 
ATOM     75  C   UNL A   1      43.659  38.581  29.902  1.00  0.00     0.148 A 
ATOM     76  C   UNL A   1      42.236  39.324  27.594  1.00  0.00     0.002 A 
ATOM     77  C   UNL A   1      43.089  39.846  29.802  1.00  0.00     0.091 A 
ATOM     78  F   UNL A   1      44.381  38.216  30.971  1.00  0.00    -0.205 F 
ATOM     79  C   UNL A   1      42.391  40.223  28.644  1.00  0.00     0.022 A 
BRANCH  77  80
ATOM     80  S   UNL A   1      43.164  41.045  31.138  1.00  0.00     0.127 S 
ATOM     81  O   UNL A   1      42.206  42.051  30.686  1.00  0.00    -0.237 OA
ATOM     82  O   UNL A   1      42.721  40.255  32.288  1.00  0.00    -0.237 OA
ATOM     83  O   UNL A   1      44.552  41.482  31.204  1.00  0.00    -0.744 OA
ENDBRANCH  77  80
ENDBRANCH  59  73
BRANCH  60  84
ATOM     84  C   UNL A   1      46.702  28.208  28.926  1.00  0.00     0.023 A 
ATOM     85  C   UNL A   1      47.241  27.603  30.077  1.00  0.00     0.012 A 
ATOM     86  C   UNL A   1      46.529  27.438  27.760  1.00  0.00     0.148 A 
ATOM     87  C   UNL A   1      47.618  26.259  30.062  1.00  0.00     0.002 A 
ATOM     88  C   UNL A   1      46.853  26.086  27.769  1.00  0.00     0.091 A 
ATOM     89  F   UNL A   1      46.019  28.037  26.674  1.00  0.00    -0.205 F 
ATOM     90  C   UNL A   1      47.413  25.499  28.914  1.00  0.00     0.022 A 
BRANCH  88  91
ATOM     91  S   UNL A   1      46.493  24.997  26.386  1.00  0.00     0.127 S 
ATOM     92  O   UNL A   1      45.109  25.351  26.079  1.00  0.00    -0.237 OA
ATOM     93  O   UNL A   1      47.477  25.436  25.396  1.00  0.00    -0.237 OA
ATOM     94  O   UNL A   1      46.701  23.643  26.883  1.00  0.00    -0.744 OA
ENDBRANCH  88  91
ENDBRANCH  60  84
BRANCH  72  95
ATOM     95  C   UNL A   1      49.821  34.354  27.725  1.00  0.00     0.023 A 
ATOM     96  C   UNL A   1      50.787  34.589  28.724  1.00  0.00     0.012 A 
ATOM     97  C   UNL A   1      50.202  34.407  26.370  1.00  0.00     0.148 A 
ATOM     98  C   UNL A   1      52.101  34.901  28.380  1.00  0.00     0.002 A 
ATOM     99  C   UNL A   1      51.525  34.669  26.035  1.00  0.00     0.091 A 
ATOM    100  F   UNL A   1      49.265  34.201  25.433  1.00  0.00    -0.205 F 
ATOM    101  C   UNL A   1      52.473  34.929  27.038  1.00  0.00     0.022 A 
BRANCH  99 102
ATOM    102  S   UNL A   1      52.115  34.629  24.339  1.00  0.00     0.127 S 
ATOM    103  O   UNL A   1      51.519  35.845  23.787  1.00  0.00    -0.237 OA
ATOM    104  O   UNL A   1      53.566  34.688  24.514  1.00  0.00    -0.237 OA
ATOM    105  O   UNL A   1      51.626  33.380  23.772  1.00  0.00    -0.744 OA
ENDBRANCH  99 102
ENDBRANCH  72  95
ENDBRANCH  46  47
ENDBRANCH  38  41
ENDBRANCH  36  37
ENDBRANCH  35  36
ENDBRANCH  34  35
ENDBRANCH  33  34
ENDBRANCH  32  33
ENDBRANCH  31  32
ENDBRANCH   3  31
TORSDOF 25
ENDMDL
MODEL 3
REMARK VINA RESULT:      -8.1      4.767     12.048
REMARK SMILES CCCCCCNC(=O)Oc1cccc(-c2ccc([C@@H](C)C(=O)NCCCCCCNC(=O)c3ccc(-c4c5nc(c(-c6cccc(S(=O)(=O)[O-])c6F)c6ccc([nH]6)c(-c6cccc(S(=O)(=O)[O-])c6F)c6nc(c(-c7cccc(S(=O)(=O)[O-])c7F)c7ccc4[nH]7)C=C6)C=C5)cc3)cc2Cl)c1
REMARK SMILES IDX 22 1 23 2 24 3 20 5 21 6 19 7 16 8 17 9 98 10 18 11 97 12
REMARK SMILES IDX 99 13 15 14 11 15 12 16 100 17 13 18 14 19 10 20 8 21 7 22
REMARK SMILES IDX 9 24 6 25 5 26 4 27 3 28 2 29 1 30 25 31 26 32 27 33 28 34
REMARK SMILES IDX 29 35 30 36 31 37 32 38 33 40 34 41 35 42 96 43 36 44 95 45
REMARK SMILES IDX 37 46 38 47 39 48 89 49 40 50 94 51 88 52 90 53 41 54 93 55
REMARK SMILES IDX 87 56 86 57 42 59 74 60 54 61 73 62 55 63 58 64 72 65 91 66
REMARK SMILES IDX 56 67 57 68 71 70 92 71 59 72 43 73 44 74 52 75 45 76 47 77
REMARK SMILES IDX 53 78 46 79 48 80 49 81 50 82 51 83 75 84 76 85 84 86 77 87
REMARK SMILES IDX 79 88 85 89 78 90 80 91 81 92 82 93 83 94 60 95 61 96 69 97
REMARK SMILES IDX 62 98 64 99 70 100 63 101 65 102 66 103 67 104 68 105
REMARK H PARENT 24 4 7 23 31 39 90 58 58 69
REMARK Flexibility Score: inf
ROOT
ATOM      1  C   UNL A   1      34.329  35.000  29.151  1.00  0.00     0.227 C 
ATOM      2  O   UNL A   1      34.598  35.554  28.077  1.00  0.00    -0.274 OA
ATOM      3  N   UNL A   1      33.401  35.616  29.932  1.00  0.00    -0.356 N 
ATOM      4  H   UNL A   1      32.983  36.405  29.517  1.00  0.00     0.163 HD
ENDROOT
BRANCH   1   5
ATOM      5  C   UNL A   1      35.020  33.678  29.523  1.00  0.00     0.105 C 
ATOM      6  C   UNL A   1      36.485  33.833  29.929  1.00  0.00     0.023 C 
BRANCH   5   7
ATOM      7  C   UNL A   1      34.714  32.537  28.567  1.00  0.00    -0.034 A 
ATOM      8  C   UNL A   1      34.150  30.226  26.966  1.00  0.00     0.000 A 
ATOM      9  C   UNL A   1      33.189  31.226  27.201  1.00  0.00     0.010 A 
ATOM     10  C   UNL A   1      35.439  30.458  27.487  1.00  0.00     0.049 A 
ATOM     11  C   UNL A   1      33.478  32.374  27.945  1.00  0.00     0.005 A 
ATOM     12  C   UNL A   1      35.701  31.574  28.301  1.00  0.00     0.025 A 
ATOM     13  Cl  UNL A   1      36.796  29.439  27.130  1.00  0.00    -0.084 Cl
BRANCH   8  14
ATOM     14  C   UNL A   1      33.738  29.009  26.229  1.00  0.00    -0.013 A 
ATOM     15  C   UNL A   1      33.169  27.865  24.157  1.00  0.00     0.133 A 
ATOM     16  C   UNL A   1      33.063  26.646  24.818  1.00  0.00     0.047 A 
ATOM     17  C   UNL A   1      33.510  29.032  24.843  1.00  0.00     0.056 A 
ATOM     18  C   UNL A   1      33.307  26.594  26.185  1.00  0.00     0.004 A 
ATOM     19  C   UNL A   1      33.627  27.765  26.883  1.00  0.00     0.009 A 
BRANCH  15  20
ATOM     20  O   UNL A   1      32.785  27.890  22.807  1.00  0.00    -0.410 OA
BRANCH  20  21
ATOM     21  C   UNL A   1      31.807  27.016  22.361  1.00  0.00     0.412 C 
ATOM     22  N   UNL A   1      30.545  27.412  22.710  1.00  0.00    -0.321 N 
ATOM     23  H   UNL A   1      29.807  26.808  22.460  1.00  0.00     0.167 HD
ATOM     24  O   UNL A   1      31.989  25.987  21.723  1.00  0.00    -0.224 OA
BRANCH  22  25
ATOM     25  C   UNL A   1      30.183  28.627  23.409  1.00  0.00     0.119 C 
BRANCH  25  26
ATOM     26  C   UNL A   1      29.818  29.752  22.439  1.00  0.00     0.021 C 
BRANCH  26  27
ATOM     27  C   UNL A   1      28.323  29.858  22.113  1.00  0.00     0.002 C 
BRANCH  27  28
ATOM     28  C   UNL A   1      27.651  31.172  22.529  1.00  0.00    -0.000 C 
BRANCH  28  29
ATOM     29  C   UNL A   1      28.286  32.442  21.959  1.00  0.00    -0.003 C 
ATOM     30  C   UNL A   1      27.751  32.816  20.585  1.00  0.00     0.004 C 
ENDBRANCH  28  29
ENDBRANCH  27  28
ENDBRANCH  26  27
ENDBRANCH  25  26
ENDBRANCH  22  25
ENDBRANCH  20  21
ENDBRANCH  15  20
ENDBRANCH   8  14
ENDBRANCH   5   7
ENDBRANCH   1   5
BRANCH   3  31
ATOM     31  C   UNL A   1      32.914  35.319  31.264  1.00  0.00     0.116 C 
BRANCH  31  32
ATOM     32  C   UNL A   1      34.064  35.203  32.268  1.00  0.00     0.021 C 
BRANCH  32  33
ATOM     33  C   UNL A   1      33.953  33.987  33.192  1.00  0.00     0.002 C 
BRANCH  33  34
ATOM     34  C   UNL A   1      35.234  33.639  33.960  1.00  0.00     0.002 C 
BRANCH  34  35
ATOM     35  C   UNL A   1      36.299  32.890  33.153  1.00  0.00     0.021 C 
BRANCH  35  36
ATOM     36  C   UNL A   1      37.087  31.854  33.950  1.00  0.00     0.116 C 
BRANCH  36  37
ATOM     37  N   UNL A   1      36.910  30.514  33.410  1.00  0.00    -0.352 N 
ATOM     38  C   UNL A   1      37.498  29.929  32.318  1.00  0.00     0.251 C 
ATOM     39  H   UNL A   1      36.274  29.944  33.900  1.00  0.00     0.163 HD
ATOM     40  O   UNL A   1      37.041  28.885  31.862  1.00  0.00    -0.269 OA
BRANCH  38  41
ATOM     41  C   UNL A   1      38.681  30.556  31.691  1.00  0.00     0.039 A 
ATOM     42  C   UNL A   1      39.752  30.946  32.499  1.00  0.00     0.014 A 
ATOM     43  C   UNL A   1      38.719  30.785  30.313  1.00  0.00     0.014 A 
ATOM     44  C   UNL A   1      40.884  31.519  31.916  1.00  0.00     0.010 A 
ATOM     45  C   UNL A   1      39.878  31.286  29.726  1.00  0.00     0.010 A 
ATOM     46  C   UNL A   1      40.967  31.670  30.522  1.00  0.00    -0.014 A 
BRANCH  46  47
ATOM     47  C   UNL A   1      42.191  32.213  29.879  1.00  0.00     0.031 A 
ATOM     48  C   UNL A   1      43.357  31.313  29.577  1.00  0.00     0.074 A 
ATOM     49  C   UNL A   1      42.288  33.537  29.655  1.00  0.00     0.049 A 
ATOM     50  N   UNL A   1      44.519  31.616  29.059  1.00  0.00    -0.248 NA
ATOM     51  C   UNL A   1      43.211  29.892  29.929  1.00  0.00     0.031 C 
ATOM     52  C   UNL A   1      41.262  34.526  29.992  1.00  0.00     0.029 A 
ATOM     53  N   UNL A   1      43.307  34.283  29.121  1.00  0.00    -0.354 N 
ATOM     54  C   UNL A   1      45.257  30.438  29.062  1.00  0.00     0.074 A 
ATOM     55  C   UNL A   1      44.422  29.422  29.665  1.00  0.00     0.031 C 
ATOM     56  C   UNL A   1      41.705  35.748  29.658  1.00  0.00     0.029 A 
ATOM     57  C   UNL A   1      43.054  35.635  29.112  1.00  0.00     0.049 A 
ATOM     58  H   UNL A   1      44.142  33.889  28.777  1.00  0.00     0.167 HD
ATOM     59  C   UNL A   1      46.504  30.215  28.583  1.00  0.00     0.034 A 
ATOM     60  C   UNL A   1      43.822  36.668  28.718  1.00  0.00     0.034 A 
ATOM     61  C   UNL A   1      47.315  31.222  27.952  1.00  0.00     0.049 A 
ATOM     62  C   UNL A   1      45.181  36.392  28.140  1.00  0.00     0.074 A 
ATOM     63  C   UNL A   1      48.544  31.074  27.335  1.00  0.00     0.029 A 
ATOM     64  N   UNL A   1      46.987  32.567  27.874  1.00  0.00    -0.354 N 
ATOM     65  N   UNL A   1      45.793  35.242  27.983  1.00  0.00    -0.248 NA
ATOM     66  C   UNL A   1      45.942  37.549  27.646  1.00  0.00     0.031 C 
ATOM     67  C   UNL A   1      48.975  32.338  26.913  1.00  0.00     0.029 A 
ATOM     68  C   UNL A   1      47.998  33.266  27.236  1.00  0.00     0.049 A 
ATOM     69  H   UNL A   1      46.157  32.967  28.221  1.00  0.00     0.167 HD
ATOM     70  C   UNL A   1      46.995  35.531  27.350  1.00  0.00     0.074 A 
ATOM     71  C   UNL A   1      47.016  36.964  27.132  1.00  0.00     0.031 C 
ATOM     72  C   UNL A   1      47.995  34.687  26.992  1.00  0.00     0.034 A 
BRANCH  59  73
ATOM     73  C   UNL A   1      47.051  28.814  28.695  1.00  0.00     0.023 A 
ATOM     74  C   UNL A   1      47.822  28.450  29.819  1.00  0.00     0.012 A 
ATOM     75  C   UNL A   1      46.780  27.850  27.705  1.00  0.00     0.148 A 
ATOM     76  C   UNL A   1      48.355  27.166  29.933  1.00  0.00     0.002 A 
ATOM     77  C   UNL A   1      47.274  26.557  27.850  1.00  0.00     0.091 A 
ATOM     78  F   UNL A   1      46.065  28.215  26.632  1.00  0.00    -0.205 F 
ATOM     79  C   UNL A   1      48.073  26.219  28.953  1.00  0.00     0.022 A 
BRANCH  77  80
ATOM     80  S   UNL A   1      46.895  25.245  26.682  1.00  0.00     0.127 S 
ATOM     81  O   UNL A   1      47.716  24.149  27.193  1.00  0.00    -0.237 OA
ATOM     82  O   UNL A   1      45.455  25.067  26.874  1.00  0.00    -0.237 OA
ATOM     83  O   UNL A   1      47.271  25.756  25.372  1.00  0.00    -0.744 OA
ENDBRANCH  77  80
ENDBRANCH  59  73
BRANCH  60  84
ATOM     84  C   UNL A   1      43.282  38.054  28.806  1.00  0.00     0.023 A 
ATOM     85  C   UNL A   1      42.518  38.570  27.743  1.00  0.00     0.012 A 
ATOM     86  C   UNL A   1      43.462  38.831  29.967  1.00  0.00     0.148 A 
ATOM     87  C   UNL A   1      41.956  39.845  27.826  1.00  0.00     0.002 A 
ATOM     88  C   UNL A   1      42.853  40.076  30.066  1.00  0.00     0.091 A 
ATOM     89  F   UNL A   1      44.197  38.320  30.964  1.00  0.00    -0.205 F 
ATOM     90  C   UNL A   1      42.113  40.592  28.990  1.00  0.00     0.022 A 
BRANCH  88  91
ATOM     91  S   UNL A   1      42.881  41.048  31.577  1.00  0.00     0.127 S 
ATOM     92  O   UNL A   1      44.149  41.761  31.451  1.00  0.00    -0.237 OA
ATOM     93  O   UNL A   1      41.687  41.879  31.419  1.00  0.00    -0.237 OA
ATOM     94  O   UNL A   1      42.806  40.086  32.669  1.00  0.00    -0.744 OA
ENDBRANCH  88  91
ENDBRANCH  60  84
BRANCH  72  95
ATOM     95  C   UNL A   1      49.197  35.280  26.303  1.00  0.00     0.023 A 
ATOM     96  C   UNL A   1      49.160  35.534  24.918  1.00  0.00     0.012 A 
ATOM     97  C   UNL A   1      50.336  35.654  27.044  1.00  0.00     0.148 A 
ATOM     98  C   UNL A   1      50.249  36.121  24.275  1.00  0.00     0.002 A 
ATOM     99  C   UNL A   1      51.398  36.284  26.405  1.00  0.00     0.091 A 
ATOM    100  F   UNL A   1      50.362  35.387  28.357  1.00  0.00    -0.205 F 
ATOM    101  C   UNL A   1      51.361  36.506  25.019  1.00  0.00     0.022 A 
BRANCH  99 102
ATOM    102  S   UNL A   1      52.827  36.903  27.299  1.00  0.00     0.127 S 
ATOM    103  O   UNL A   1      53.514  37.676  26.264  1.00  0.00    -0.237 OA
ATOM    104  O   UNL A   1      52.210  37.710  28.352  1.00  0.00    -0.237 OA
ATOM    105  O   UNL A   1      53.541  35.728  27.779  1.00  0.00    -0.744 OA
ENDBRANCH  99 102
ENDBRANCH  72  95
ENDBRANCH  46  47
ENDBRANCH  38  41
ENDBRANCH  36  37
ENDBRANCH  35  36
ENDBRANCH  34  35
ENDBRANCH  33  34
ENDBRANCH  32  33
ENDBRANCH  31  32
ENDBRANCH   3  31
TORSDOF 25
ENDMDL
