MODEL 1
REMARK VINA RESULT:     -10.7      0.000      0.000
REMARK SMILES Cn1ncc(SCC(=O)NCCCCCCNC(=O)c2ccc(-c3c4nc(c(-c5cccc(S(=O)(=O)[O-])c5F)c5ccc([nH]5)c(-c5cccc(S(=O)(=O)[O-])c5F)c5nc(c(-c6cccc(S(=O)(=O)[O-])c6F)c6ccc3[nH]6)C=C5)C=C4)cc2)c(Cl)c1=O
REMARK SMILES IDX 14 1 13 2 12 3 11 4 10 5 8 6 9 7 7 9 6 10 5 11 1 12 2 13
REMARK SMILES IDX 3 14 85 15 4 16 83 17 86 18 84 19 15 20 16 21 17 22 18 23
REMARK SMILES IDX 19 25 20 26 21 27 82 28 22 29 81 30 23 31 24 32 25 33 75 34
REMARK SMILES IDX 26 35 80 36 74 37 76 38 27 39 79 40 73 41 72 42 28 44 60 45
REMARK SMILES IDX 40 46 59 47 41 48 44 49 58 50 77 51 42 52 43 53 57 55 78 56
REMARK SMILES IDX 45 57 29 58 30 59 38 60 31 61 33 62 39 63 32 64 34 65 35 66
REMARK SMILES IDX 36 67 37 68 61 69 62 70 70 71 63 72 65 73 71 74 64 75 66 76
REMARK SMILES IDX 67 77 68 78 69 79 46 80 47 81 55 82 48 83 50 84 56 85 49 86
REMARK SMILES IDX 51 87 52 88 53 89 54 90
REMARK H PARENT 10 8 17 24 76 43 44 54
REMARK Flexibility Score: inf
ROOT
ATOM      1  C   UNL A   1      31.565  30.387  26.455  1.00  0.00     0.002 C 
ENDROOT
BRANCH   1   2
ATOM      2  C   UNL A   1      32.686  29.701  27.243  1.00  0.00     0.002 C 
BRANCH   2   3
ATOM      3  C   UNL A   1      32.601  28.169  27.310  1.00  0.00     0.021 C 
BRANCH   3   4
ATOM      4  C   UNL A   1      31.547  27.552  26.389  1.00  0.00     0.116 C 
BRANCH   4   5
ATOM      5  N   UNL A   1      31.070  26.296  26.938  1.00  0.00    -0.355 N 
ATOM      6  C   UNL A   1      31.154  25.033  26.442  1.00  0.00     0.230 C 
ATOM      7  O   UNL A   1      30.553  24.143  27.045  1.00  0.00    -0.274 OA
ATOM      8  H   UNL A   1      30.615  26.370  27.808  1.00  0.00     0.163 HD
BRANCH   6   9
ATOM      9  C   UNL A   1      32.017  24.726  25.238  1.00  0.00     0.175 C 
BRANCH   9  10
ATOM     10  S   UNL A   1      31.140  24.499  23.678  1.00  0.00    -0.113 SA
BRANCH  10  11
ATOM     11  C   UNL A   1      30.413  26.002  23.245  1.00  0.00     0.052 A 
ATOM     12  C   UNL A   1      27.978  29.483  23.048  1.00  0.00     0.178 C 
ATOM     13  N   UNL A   1      28.824  28.300  23.054  1.00  0.00    -0.232 N 
ATOM     14  N   UNL A   1      28.262  27.184  23.611  1.00  0.00    -0.177 NA
ATOM     15  C   UNL A   1      30.118  28.352  22.545  1.00  0.00     0.286 A 
ATOM     16  C   UNL A   1      29.002  26.127  23.677  1.00  0.00     0.150 A 
ATOM     17  C   UNL A   1      30.950  27.118  22.737  1.00  0.00     0.123 A 
ATOM     18  O   UNL A   1      30.583  29.353  21.999  1.00  0.00    -0.266 OA
ATOM     19  Cl  UNL A   1      32.631  27.300  22.360  1.00  0.00    -0.077 Cl
ENDBRANCH  10  11
ENDBRANCH   9  10
ENDBRANCH   6   9
ENDBRANCH   4   5
ENDBRANCH   3   4
ENDBRANCH   2   3
ENDBRANCH   1   2
BRANCH   1  20
ATOM     20  C   UNL A   1      31.446  31.897  26.679  1.00  0.00     0.021 C 
BRANCH  20  21
ATOM     21  C   UNL A   1      32.774  32.607  26.925  1.00  0.00     0.116 C 
BRANCH  21  22
ATOM     22  N   UNL A   1      32.582  33.934  27.489  1.00  0.00    -0.352 N 
ATOM     23  C   UNL A   1      33.199  34.497  28.578  1.00  0.00     0.251 C 
ATOM     24  H   UNL A   1      31.923  34.503  27.029  1.00  0.00     0.163 HD
ATOM     25  O   UNL A   1      32.786  35.553  29.049  1.00  0.00    -0.269 OA
BRANCH  23  26
ATOM     26  C   UNL A   1      34.358  33.813  29.187  1.00  0.00     0.039 A 
ATOM     27  C   UNL A   1      34.134  32.736  30.047  1.00  0.00     0.014 A 
ATOM     28  C   UNL A   1      35.659  34.241  28.905  1.00  0.00     0.014 A 
ATOM     29  C   UNL A   1      35.224  32.057  30.595  1.00  0.00     0.010 A 
ATOM     30  C   UNL A   1      36.744  33.530  29.412  1.00  0.00     0.010 A 
ATOM     31  C   UNL A   1      36.535  32.442  30.271  1.00  0.00    -0.014 A 
BRANCH  31  32
ATOM     32  C   UNL A   1      37.701  31.739  30.855  1.00  0.00     0.031 A 
ATOM     33  C   UNL A   1      38.147  32.069  32.252  1.00  0.00     0.074 A 
ATOM     34  C   UNL A   1      38.387  30.846  30.117  1.00  0.00     0.049 A 
ATOM     35  N   UNL A   1      39.152  31.579  32.929  1.00  0.00    -0.248 NA
ATOM     36  C   UNL A   1      37.374  33.092  32.977  1.00  0.00     0.031 C 
ATOM     37  C   UNL A   1      38.083  30.482  28.732  1.00  0.00     0.029 A 
ATOM     38  N   UNL A   1      39.492  30.094  30.425  1.00  0.00    -0.354 N 
ATOM     39  C   UNL A   1      39.145  32.245  34.148  1.00  0.00     0.074 A 
ATOM     40  C   UNL A   1      38.055  33.194  34.110  1.00  0.00     0.031 C 
ATOM     41  C   UNL A   1      38.978  29.573  28.312  1.00  0.00     0.029 A 
ATOM     42  C   UNL A   1      39.927  29.301  29.389  1.00  0.00     0.049 A 
ATOM     43  H   UNL A   1      39.933  30.119  31.305  1.00  0.00     0.167 HD
ATOM     44  C   UNL A   1      39.951  32.056  35.217  1.00  0.00     0.034 A 
ATOM     45  C   UNL A   1      40.968  28.449  29.318  1.00  0.00     0.034 A 
ATOM     46  C   UNL A   1      41.002  31.080  35.274  1.00  0.00     0.049 A 
ATOM     47  C   UNL A   1      41.839  28.244  30.526  1.00  0.00     0.074 A 
ATOM     48  C   UNL A   1      41.822  30.767  36.344  1.00  0.00     0.029 A 
ATOM     49  N   UNL A   1      41.381  30.263  34.222  1.00  0.00    -0.354 N 
ATOM     50  N   UNL A   1      41.737  28.790  31.714  1.00  0.00    -0.248 NA
ATOM     51  C   UNL A   1      42.950  27.289  30.398  1.00  0.00     0.031 C 
ATOM     52  C   UNL A   1      42.704  29.761  35.935  1.00  0.00     0.029 A 
ATOM     53  C   UNL A   1      42.427  29.447  34.614  1.00  0.00     0.049 A 
ATOM     54  H   UNL A   1      40.966  30.262  33.330  1.00  0.00     0.167 HD
ATOM     55  C   UNL A   1      42.754  28.231  32.479  1.00  0.00     0.074 A 
ATOM     56  C   UNL A   1      43.453  27.293  31.626  1.00  0.00     0.031 C 
ATOM     57  C   UNL A   1      43.084  28.486  33.768  1.00  0.00     0.034 A 
BRANCH  44  58
ATOM     58  C   UNL A   1      39.683  32.873  36.448  1.00  0.00     0.023 A 
ATOM     59  C   UNL A   1      40.266  34.151  36.560  1.00  0.00     0.012 A 
ATOM     60  C   UNL A   1      38.796  32.422  37.444  1.00  0.00     0.148 A 
ATOM     61  C   UNL A   1      39.979  34.966  37.652  1.00  0.00     0.002 A 
ATOM     62  C   UNL A   1      38.491  33.253  38.515  1.00  0.00     0.091 A 
ATOM     63  F   UNL A   1      38.268  31.196  37.320  1.00  0.00    -0.205 F 
ATOM     64  C   UNL A   1      39.084  34.522  38.622  1.00  0.00     0.022 A 
BRANCH  62  65
ATOM     65  S   UNL A   1      37.315  32.801  39.794  1.00  0.00     0.127 S 
ATOM     66  O   UNL A   1      36.076  32.681  39.026  1.00  0.00    -0.237 OA
ATOM     67  O   UNL A   1      37.860  31.531  40.275  1.00  0.00    -0.237 OA
ATOM     68  O   UNL A   1      37.336  33.886  40.765  1.00  0.00    -0.744 OA
ENDBRANCH  62  65
ENDBRANCH  44  58
BRANCH  45  69
ATOM     69  C   UNL A   1      41.187  27.668  28.072  1.00  0.00     0.023 A 
ATOM     70  C   UNL A   1      41.755  28.308  26.953  1.00  0.00     0.012 A 
ATOM     71  C   UNL A   1      40.901  26.290  28.010  1.00  0.00     0.148 A 
ATOM     72  C   UNL A   1      42.025  27.591  25.787  1.00  0.00     0.002 A 
ATOM     73  C   UNL A   1      41.208  25.573  26.859  1.00  0.00     0.091 A 
ATOM     74  F   UNL A   1      40.361  25.707  29.089  1.00  0.00    -0.205 F 
ATOM     75  C   UNL A   1      41.760  26.224  25.743  1.00  0.00     0.022 A 
BRANCH  73  76
ATOM     76  S   UNL A   1      40.998  23.794  26.737  1.00  0.00     0.127 S 
ATOM     77  O   UNL A   1      39.597  23.683  26.340  1.00  0.00    -0.237 OA
ATOM     78  O   UNL A   1      41.964  23.452  25.692  1.00  0.00    -0.237 OA
ATOM     79  O   UNL A   1      41.318  23.264  28.055  1.00  0.00    -0.744 OA
ENDBRANCH  73  76
ENDBRANCH  45  69
BRANCH  57  80
ATOM     80  C   UNL A   1      44.253  27.749  34.359  1.00  0.00     0.023 A 
ATOM     81  C   UNL A   1      45.525  28.351  34.342  1.00  0.00     0.012 A 
ATOM     82  C   UNL A   1      44.066  26.532  35.043  1.00  0.00     0.148 A 
ATOM     83  C   UNL A   1      46.599  27.749  34.994  1.00  0.00     0.002 A 
ATOM     84  C   UNL A   1      45.134  25.954  35.720  1.00  0.00     0.091 A 
ATOM     85  F   UNL A   1      42.846  25.976  35.036  1.00  0.00    -0.205 F 
ATOM     86  C   UNL A   1      46.402  26.561  35.693  1.00  0.00     0.022 A 
BRANCH  84  87
ATOM     87  S   UNL A   1      44.963  24.466  36.712  1.00  0.00     0.127 S 
ATOM     88  O   UNL A   1      46.356  24.156  37.025  1.00  0.00    -0.237 OA
ATOM     89  O   UNL A   1      44.173  24.942  37.848  1.00  0.00    -0.237 OA
ATOM     90  O   UNL A   1      44.284  23.493  35.867  1.00  0.00    -0.744 OA
ENDBRANCH  84  87
ENDBRANCH  57  80
ENDBRANCH  31  32
ENDBRANCH  23  26
ENDBRANCH  21  22
ENDBRANCH  20  21
ENDBRANCH   1  20
TORSDOF 18
ENDMDL
MODEL 2
REMARK VINA RESULT:     -10.4      6.830     10.253
REMARK SMILES Cn1ncc(SCC(=O)NCCCCCCNC(=O)c2ccc(-c3c4nc(c(-c5cccc(S(=O)(=O)[O-])c5F)c5ccc([nH]5)c(-c5cccc(S(=O)(=O)[O-])c5F)c5nc(c(-c6cccc(S(=O)(=O)[O-])c6F)c6ccc3[nH]6)C=C5)C=C4)cc2)c(Cl)c1=O
REMARK SMILES IDX 14 1 13 2 12 3 11 4 10 5 8 6 9 7 7 9 6 10 5 11 1 12 2 13
REMARK SMILES IDX 3 14 85 15 4 16 83 17 86 18 84 19 15 20 16 21 17 22 18 23
REMARK SMILES IDX 19 25 20 26 21 27 82 28 22 29 81 30 23 31 24 32 25 33 75 34
REMARK SMILES IDX 26 35 80 36 74 37 76 38 27 39 79 40 73 41 72 42 28 44 60 45
REMARK SMILES IDX 40 46 59 47 41 48 44 49 58 50 77 51 42 52 43 53 57 55 78 56
REMARK SMILES IDX 45 57 29 58 30 59 38 60 31 61 33 62 39 63 32 64 34 65 35 66
REMARK SMILES IDX 36 67 37 68 61 69 62 70 70 71 63 72 65 73 71 74 64 75 66 76
REMARK SMILES IDX 67 77 68 78 69 79 46 80 47 81 55 82 48 83 50 84 56 85 49 86
REMARK SMILES IDX 51 87 52 88 53 89 54 90
REMARK H PARENT 10 8 17 24 76 43 44 54
REMARK Flexibility Score: inf
ROOT
ATOM      1  C   UNL A   1      37.626  21.169  24.633  1.00  0.00     0.002 C 
ENDROOT
BRANCH   1   2
ATOM      2  C   UNL A   1      37.976  22.397  25.480  1.00  0.00     0.002 C 
BRANCH   2   3
ATOM      3  C   UNL A   1      36.800  23.333  25.800  1.00  0.00     0.021 C 
BRANCH   3   4
ATOM      4  C   UNL A   1      35.991  23.775  24.580  1.00  0.00     0.116 C 
BRANCH   4   5
ATOM      5  N   UNL A   1      34.831  24.542  24.995  1.00  0.00    -0.355 N 
ATOM      6  C   UNL A   1      33.518  24.384  24.684  1.00  0.00     0.230 C 
ATOM      7  O   UNL A   1      32.733  25.254  25.067  1.00  0.00    -0.274 OA
ATOM      8  H   UNL A   1      35.027  25.296  25.598  1.00  0.00     0.163 HD
BRANCH   6   9
ATOM      9  C   UNL A   1      33.033  23.148  23.961  1.00  0.00     0.175 C 
BRANCH   9  10
ATOM     10  S   UNL A   1      32.016  22.016  24.931  1.00  0.00    -0.113 SA
BRANCH  10  11
ATOM     11  C   UNL A   1      32.440  20.402  24.494  1.00  0.00     0.052 A 
ATOM     12  C   UNL A   1      33.124  16.205  24.440  1.00  0.00     0.178 C 
ATOM     13  N   UNL A   1      32.934  17.646  24.413  1.00  0.00    -0.232 N 
ATOM     14  N   UNL A   1      32.979  18.264  25.632  1.00  0.00    -0.177 NA
ATOM     15  C   UNL A   1      32.696  18.307  23.211  1.00  0.00     0.286 A 
ATOM     16  C   UNL A   1      32.765  19.538  25.652  1.00  0.00     0.150 A 
ATOM     17  C   UNL A   1      32.367  19.767  23.318  1.00  0.00     0.123 A 
ATOM     18  O   UNL A   1      32.714  17.738  22.120  1.00  0.00    -0.266 OA
ATOM     19  Cl  UNL A   1      31.797  20.500  21.856  1.00  0.00    -0.077 Cl
ENDBRANCH  10  11
ENDBRANCH   9  10
ENDBRANCH   6   9
ENDBRANCH   4   5
ENDBRANCH   3   4
ENDBRANCH   2   3
ENDBRANCH   1   2
BRANCH   1  20
ATOM     20  C   UNL A   1      38.407  19.900  24.979  1.00  0.00     0.021 C 
BRANCH  20  21
ATOM     21  C   UNL A   1      39.392  20.057  26.133  1.00  0.00     0.116 C 
BRANCH  21  22
ATOM     22  N   UNL A   1      40.504  19.125  26.028  1.00  0.00    -0.352 N 
ATOM     23  C   UNL A   1      41.848  19.400  25.978  1.00  0.00     0.251 C 
ATOM     24  H   UNL A   1      40.260  18.172  25.986  1.00  0.00     0.163 HD
ATOM     25  O   UNL A   1      42.652  18.519  25.689  1.00  0.00    -0.269 OA
BRANCH  23  26
ATOM     26  C   UNL A   1      42.316  20.771  26.264  1.00  0.00     0.039 A 
ATOM     27  C   UNL A   1      42.545  21.147  27.590  1.00  0.00     0.014 A 
ATOM     28  C   UNL A   1      42.527  21.678  25.221  1.00  0.00     0.014 A 
ATOM     29  C   UNL A   1      43.027  22.428  27.868  1.00  0.00     0.010 A 
ATOM     30  C   UNL A   1      43.056  22.937  25.496  1.00  0.00     0.010 A 
ATOM     31  C   UNL A   1      43.297  23.325  26.821  1.00  0.00    -0.014 A 
BRANCH  31  32
ATOM     32  C   UNL A   1      43.797  24.691  27.102  1.00  0.00     0.031 A 
ATOM     33  C   UNL A   1      42.856  25.734  27.636  1.00  0.00     0.074 A 
ATOM     34  C   UNL A   1      45.077  25.009  26.830  1.00  0.00     0.049 A 
ATOM     35  N   UNL A   1      43.097  26.986  27.925  1.00  0.00    -0.248 NA
ATOM     36  C   UNL A   1      41.459  25.323  27.862  1.00  0.00     0.031 C 
ATOM     37  C   UNL A   1      46.071  24.098  26.258  1.00  0.00     0.029 A 
ATOM     38  N   UNL A   1      45.756  26.191  26.983  1.00  0.00    -0.354 N 
ATOM     39  C   UNL A   1      41.884  27.515  28.346  1.00  0.00     0.074 A 
ATOM     40  C   UNL A   1      40.901  26.460  28.250  1.00  0.00     0.031 C 
ATOM     41  C   UNL A   1      47.233  24.755  26.113  1.00  0.00     0.029 A 
ATOM     42  C   UNL A   1      47.065  26.134  26.565  1.00  0.00     0.049 A 
ATOM     43  H   UNL A   1      45.345  27.004  27.355  1.00  0.00     0.167 HD
ATOM     44  C   UNL A   1      41.621  28.760  28.807  1.00  0.00     0.034 A 
ATOM     45  C   UNL A   1      48.020  27.083  26.553  1.00  0.00     0.034 A 
ATOM     46  C   UNL A   1      42.607  29.794  28.950  1.00  0.00     0.049 A 
ATOM     47  C   UNL A   1      47.708  28.453  27.086  1.00  0.00     0.074 A 
ATOM     48  C   UNL A   1      42.446  31.062  29.479  1.00  0.00     0.029 A 
ATOM     49  N   UNL A   1      43.931  29.682  28.562  1.00  0.00    -0.354 N 
ATOM     50  N   UNL A   1      46.587  28.898  27.601  1.00  0.00    -0.248 NA
ATOM     51  C   UNL A   1      48.793  29.445  27.066  1.00  0.00     0.031 C 
ATOM     52  C   UNL A   1      43.677  31.722  29.405  1.00  0.00     0.029 A 
ATOM     53  C   UNL A   1      44.602  30.861  28.835  1.00  0.00     0.049 A 
ATOM     54  H   UNL A   1      44.336  28.883  28.154  1.00  0.00     0.167 HD
ATOM     55  C   UNL A   1      46.837  30.210  27.984  1.00  0.00     0.074 A 
ATOM     56  C   UNL A   1      48.219  30.486  27.656  1.00  0.00     0.031 C 
ATOM     57  C   UNL A   1      45.989  31.107  28.543  1.00  0.00     0.034 A 
BRANCH  44  58
ATOM     58  C   UNL A   1      40.222  29.055  29.265  1.00  0.00     0.023 A 
ATOM     59  C   UNL A   1      39.242  29.372  28.304  1.00  0.00     0.012 A 
ATOM     60  C   UNL A   1      39.857  28.935  30.619  1.00  0.00     0.148 A 
ATOM     61  C   UNL A   1      37.918  29.576  28.685  1.00  0.00     0.002 A 
ATOM     62  C   UNL A   1      38.530  29.112  30.988  1.00  0.00     0.091 A 
ATOM     63  F   UNL A   1      40.813  28.649  31.515  1.00  0.00    -0.205 F 
ATOM     64  C   UNL A   1      37.560  29.436  30.023  1.00  0.00     0.022 A 
BRANCH  62  65
ATOM     65  S   UNL A   1      37.951  28.906  32.676  1.00  0.00     0.127 S 
ATOM     66  O   UNL A   1      36.622  29.514  32.607  1.00  0.00    -0.237 OA
ATOM     67  O   UNL A   1      37.950  27.451  32.822  1.00  0.00    -0.237 OA
ATOM     68  O   UNL A   1      38.908  29.608  33.519  1.00  0.00    -0.744 OA
ENDBRANCH  62  65
ENDBRANCH  44  58
BRANCH  45  69
ATOM     69  C   UNL A   1      49.389  26.735  26.086  1.00  0.00     0.023 A 
ATOM     70  C   UNL A   1      50.196  25.905  26.889  1.00  0.00     0.012 A 
ATOM     71  C   UNL A   1      49.867  27.162  24.832  1.00  0.00     0.148 A 
ATOM     72  C   UNL A   1      51.463  25.515  26.455  1.00  0.00     0.002 A 
ATOM     73  C   UNL A   1      51.115  26.738  24.389  1.00  0.00     0.091 A 
ATOM     74  F   UNL A   1      49.079  27.951  24.090  1.00  0.00    -0.205 F 
ATOM     75  C   UNL A   1      51.918  25.923  25.204  1.00  0.00     0.022 A 
BRANCH  73  76
ATOM     76  S   UNL A   1      51.750  27.127  22.754  1.00  0.00     0.127 S 
ATOM     77  O   UNL A   1      52.912  26.246  22.667  1.00  0.00    -0.237 OA
ATOM     78  O   UNL A   1      50.623  26.748  21.901  1.00  0.00    -0.237 OA
ATOM     79  O   UNL A   1      52.046  28.553  22.771  1.00  0.00    -0.744 OA
ENDBRANCH  73  76
ENDBRANCH  45  69
BRANCH  57  80
ATOM     80  C   UNL A   1      46.514  32.482  28.847  1.00  0.00     0.023 A 
ATOM     81  C   UNL A   1      47.116  32.728  30.096  1.00  0.00     0.012 A 
ATOM     82  C   UNL A   1      46.532  33.483  27.856  1.00  0.00     0.148 A 
ATOM     83  C   UNL A   1      47.724  33.954  30.357  1.00  0.00     0.002 A 
ATOM     84  C   UNL A   1      47.170  34.691  28.112  1.00  0.00     0.091 A 
ATOM     85  F   UNL A   1      45.944  33.226  26.679  1.00  0.00    -0.205 F 
ATOM     86  C   UNL A   1      47.763  34.928  29.363  1.00  0.00     0.022 A 
BRANCH  84  87
ATOM     87  S   UNL A   1      47.341  35.979  26.870  1.00  0.00     0.127 S 
ATOM     88  O   UNL A   1      48.047  37.018  27.617  1.00  0.00    -0.237 OA
ATOM     89  O   UNL A   1      48.142  35.312  25.843  1.00  0.00    -0.237 OA
ATOM     90  O   UNL A   1      45.987  36.323  26.456  1.00  0.00    -0.744 OA
ENDBRANCH  84  87
ENDBRANCH  57  80
ENDBRANCH  31  32
ENDBRANCH  23  26
ENDBRANCH  21  22
ENDBRANCH  20  21
ENDBRANCH   1  20
TORSDOF 18
ENDMDL
MODEL 3
REMARK VINA RESULT:     -10.3      2.088      8.251
REMARK SMILES Cn1ncc(SCC(=O)NCCCCCCNC(=O)c2ccc(-c3c4nc(c(-c5cccc(S(=O)(=O)[O-])c5F)c5ccc([nH]5)c(-c5cccc(S(=O)(=O)[O-])c5F)c5nc(c(-c6cccc(S(=O)(=O)[O-])c6F)c6ccc3[nH]6)C=C5)C=C4)cc2)c(Cl)c1=O
REMARK SMILES IDX 14 1 13 2 12 3 11 4 10 5 8 6 9 7 7 9 6 10 5 11 1 12 2 13
REMARK SMILES IDX 3 14 85 15 4 16 83 17 86 18 84 19 15 20 16 21 17 22 18 23
REMARK SMILES IDX 19 25 20 26 21 27 82 28 22 29 81 30 23 31 24 32 25 33 75 34
REMARK SMILES IDX 26 35 80 36 74 37 76 38 27 39 79 40 73 41 72 42 28 44 60 45
REMARK SMILES IDX 40 46 59 47 41 48 44 49 58 50 77 51 42 52 43 53 57 55 78 56
REMARK SMILES IDX 45 57 29 58 30 59 38 60 31 61 33 62 39 63 32 64 34 65 35 66
REMARK SMILES IDX 36 67 37 68 61 69 62 70 70 71 63 72 65 73 71 74 64 75 66 76
REMARK SMILES IDX 67 77 68 78 69 79 46 80 47 81 55 82 48 83 50 84 56 85 49 86
REMARK SMILES IDX 51 87 52 88 53 89 54 90
REMARK H PARENT 10 8 17 24 76 43 44 54
REMARK Flexibility Score: inf
ROOT
ATOM      1  C   UNL A   1      31.666  30.946  25.880  1.00  0.00     0.002 C 
ENDROOT
BRANCH   1   2
ATOM      2  C   UNL A   1      31.834  29.498  26.352  1.00  0.00     0.002 C 
BRANCH   2   3
ATOM      3  C   UNL A   1      32.815  28.648  25.531  1.00  0.00     0.021 C 
BRANCH   3   4
ATOM      4  C   UNL A   1      32.199  27.396  24.905  1.00  0.00     0.116 C 
BRANCH   4   5
ATOM      5  N   UNL A   1      33.105  26.822  23.928  1.00  0.00    -0.355 N 
ATOM      6  C   UNL A   1      32.858  25.976  22.893  1.00  0.00     0.230 C 
ATOM      7  O   UNL A   1      33.829  25.528  22.280  1.00  0.00    -0.274 OA
ATOM      8  H   UNL A   1      34.048  27.087  24.031  1.00  0.00     0.163 HD
BRANCH   6   9
ATOM      9  C   UNL A   1      31.442  25.660  22.467  1.00  0.00     0.175 C 
BRANCH   9  10
ATOM     10  S   UNL A   1      30.581  24.419  23.452  1.00  0.00    -0.113 SA
BRANCH  10  11
ATOM     11  C   UNL A   1      31.760  23.518  24.334  1.00  0.00     0.052 A 
ATOM     12  C   UNL A   1      33.968  21.482  27.344  1.00  0.00     0.178 C 
ATOM     13  N   UNL A   1      33.267  22.185  26.282  1.00  0.00    -0.232 N 
ATOM     14  N   UNL A   1      32.461  23.211  26.694  1.00  0.00    -0.177 NA
ATOM     15  C   UNL A   1      33.410  21.789  24.955  1.00  0.00     0.286 A 
ATOM     16  C   UNL A   1      31.785  23.827  25.782  1.00  0.00     0.150 A 
ATOM     17  C   UNL A   1      32.527  22.487  23.962  1.00  0.00     0.123 A 
ATOM     18  O   UNL A   1      34.182  20.898  24.603  1.00  0.00    -0.266 OA
ATOM     19  Cl  UNL A   1      32.512  21.789  22.377  1.00  0.00    -0.077 Cl
ENDBRANCH  10  11
ENDBRANCH   9  10
ENDBRANCH   6   9
ENDBRANCH   4   5
ENDBRANCH   3   4
ENDBRANCH   2   3
ENDBRANCH   1   2
BRANCH   1  20
ATOM     20  C   UNL A   1      31.582  31.987  27.000  1.00  0.00     0.021 C 
BRANCH  20  21
ATOM     21  C   UNL A   1      32.872  32.763  27.240  1.00  0.00     0.116 C 
BRANCH  21  22
ATOM     22  N   UNL A   1      32.611  34.129  27.667  1.00  0.00    -0.352 N 
ATOM     23  C   UNL A   1      33.149  34.809  28.731  1.00  0.00     0.251 C 
ATOM     24  H   UNL A   1      31.963  34.631  27.122  1.00  0.00     0.163 HD
ATOM     25  O   UNL A   1      32.680  35.889  29.080  1.00  0.00    -0.269 OA
BRANCH  23  26
ATOM     26  C   UNL A   1      34.291  34.223  29.462  1.00  0.00     0.039 A 
ATOM     27  C   UNL A   1      34.044  33.454  30.602  1.00  0.00     0.014 A 
ATOM     28  C   UNL A   1      35.600  34.436  29.017  1.00  0.00     0.014 A 
ATOM     29  C   UNL A   1      35.113  32.862  31.276  1.00  0.00     0.010 A 
ATOM     30  C   UNL A   1      36.659  33.802  29.661  1.00  0.00     0.010 A 
ATOM     31  C   UNL A   1      36.426  33.022  30.802  1.00  0.00    -0.014 A 
BRANCH  31  32
ATOM     32  C   UNL A   1      37.572  32.410  31.515  1.00  0.00     0.031 A 
ATOM     33  C   UNL A   1      38.311  31.262  30.887  1.00  0.00     0.074 A 
ATOM     34  C   UNL A   1      37.914  32.848  32.740  1.00  0.00     0.049 A 
ATOM     35  N   UNL A   1      39.323  30.582  31.360  1.00  0.00    -0.248 NA
ATOM     36  C   UNL A   1      37.845  30.807  29.566  1.00  0.00     0.031 C 
ATOM     37  C   UNL A   1      37.238  33.920  33.475  1.00  0.00     0.029 A 
ATOM     38  N   UNL A   1      38.908  32.436  33.591  1.00  0.00    -0.354 N 
ATOM     39  C   UNL A   1      39.602  29.611  30.407  1.00  0.00     0.074 A 
ATOM     40  C   UNL A   1      38.638  29.769  29.341  1.00  0.00     0.031 C 
ATOM     41  C   UNL A   1      37.839  34.081  34.665  1.00  0.00     0.029 A 
ATOM     42  C   UNL A   1      38.932  33.119  34.785  1.00  0.00     0.049 A 
ATOM     43  H   UNL A   1      39.544  31.718  33.369  1.00  0.00     0.167 HD
ATOM     44  C   UNL A   1      40.597  28.694  30.402  1.00  0.00     0.034 A 
ATOM     45  C   UNL A   1      39.744  32.987  35.851  1.00  0.00     0.034 A 
ATOM     46  C   UNL A   1      41.585  28.569  31.436  1.00  0.00     0.049 A 
ATOM     47  C   UNL A   1      40.853  31.972  35.815  1.00  0.00     0.074 A 
ATOM     48  C   UNL A   1      42.675  27.718  31.479  1.00  0.00     0.029 A 
ATOM     49  N   UNL A   1      41.605  29.311  32.605  1.00  0.00    -0.354 N 
ATOM     50  N   UNL A   1      41.180  31.149  34.848  1.00  0.00    -0.248 NA
ATOM     51  C   UNL A   1      41.720  31.883  36.998  1.00  0.00     0.031 C 
ATOM     52  C   UNL A   1      43.352  27.941  32.682  1.00  0.00     0.029 A 
ATOM     53  C   UNL A   1      42.685  28.935  33.382  1.00  0.00     0.049 A 
ATOM     54  H   UNL A   1      40.948  30.003  32.846  1.00  0.00     0.167 HD
ATOM     55  C   UNL A   1      42.301  30.461  35.296  1.00  0.00     0.074 A 
ATOM     56  C   UNL A   1      42.607  30.973  36.616  1.00  0.00     0.031 C 
ATOM     57  C   UNL A   1      43.003  29.484  34.673  1.00  0.00     0.034 A 
BRANCH  44  58
ATOM     58  C   UNL A   1      40.715  27.797  29.204  1.00  0.00     0.023 A 
ATOM     59  C   UNL A   1      39.871  26.672  29.108  1.00  0.00     0.012 A 
ATOM     60  C   UNL A   1      41.587  28.107  28.144  1.00  0.00     0.148 A 
ATOM     61  C   UNL A   1      39.901  25.861  27.976  1.00  0.00     0.002 A 
ATOM     62  C   UNL A   1      41.590  27.310  27.006  1.00  0.00     0.091 A 
ATOM     63  F   UNL A   1      42.390  29.173  28.269  1.00  0.00    -0.205 F 
ATOM     64  C   UNL A   1      40.751  26.185  26.922  1.00  0.00     0.022 A 
BRANCH  62  65
ATOM     65  S   UNL A   1      42.609  27.665  25.570  1.00  0.00     0.127 S 
ATOM     66  O   UNL A   1      42.005  28.904  25.080  1.00  0.00    -0.237 OA
ATOM     67  O   UNL A   1      43.933  27.826  26.169  1.00  0.00    -0.237 OA
ATOM     68  O   UNL A   1      42.471  26.519  24.683  1.00  0.00    -0.744 OA
ENDBRANCH  62  65
ENDBRANCH  44  58
BRANCH  45  69
ATOM     69  C   UNL A   1      39.579  33.902  37.012  1.00  0.00     0.023 A 
ATOM     70  C   UNL A   1      39.960  35.252  36.879  1.00  0.00     0.012 A 
ATOM     71  C   UNL A   1      38.992  33.464  38.214  1.00  0.00     0.148 A 
ATOM     72  C   UNL A   1      39.768  36.149  37.929  1.00  0.00     0.002 A 
ATOM     73  C   UNL A   1      38.768  34.371  39.243  1.00  0.00     0.091 A 
ATOM     74  F   UNL A   1      38.640  32.175  38.313  1.00  0.00    -0.205 F 
ATOM     75  C   UNL A   1      39.165  35.712  39.106  1.00  0.00     0.022 A 
BRANCH  73  76
ATOM     76  S   UNL A   1      37.909  33.932  40.758  1.00  0.00     0.127 S 
ATOM     77  O   UNL A   1      36.740  33.224  40.245  1.00  0.00    -0.237 OA
ATOM     78  O   UNL A   1      38.899  33.086  41.425  1.00  0.00    -0.237 OA
ATOM     79  O   UNL A   1      37.630  35.189  41.437  1.00  0.00    -0.744 OA
ENDBRANCH  73  76
ENDBRANCH  45  69
BRANCH  57  80
ATOM     80  C   UNL A   1      44.179  28.887  35.394  1.00  0.00     0.023 A 
ATOM     81  C   UNL A   1      45.448  29.481  35.250  1.00  0.00     0.012 A 
ATOM     82  C   UNL A   1      44.004  27.832  36.311  1.00  0.00     0.148 A 
ATOM     83  C   UNL A   1      46.528  29.030  36.005  1.00  0.00     0.002 A 
ATOM     84  C   UNL A   1      45.079  27.409  37.084  1.00  0.00     0.091 A 
ATOM     85  F   UNL A   1      42.788  27.278  36.422  1.00  0.00    -0.205 F 
ATOM     86  C   UNL A   1      46.342  28.005  36.929  1.00  0.00     0.022 A 
BRANCH  84  87
ATOM     87  S   UNL A   1      44.922  26.150  38.357  1.00  0.00     0.127 S 
ATOM     88  O   UNL A   1      44.529  24.982  37.571  1.00  0.00    -0.237 OA
ATOM     89  O   UNL A   1      46.278  26.092  38.903  1.00  0.00    -0.237 OA
ATOM     90  O   UNL A   1      43.913  26.640  39.287  1.00  0.00    -0.744 OA
ENDBRANCH  84  87
ENDBRANCH  57  80
ENDBRANCH  31  32
ENDBRANCH  23  26
ENDBRANCH  21  22
ENDBRANCH  20  21
ENDBRANCH   1  20
TORSDOF 18
ENDMDL
