MODEL 1
REMARK VINA RESULT:     -12.2      0.000      0.000
REMARK SMILES O=C(NCCCCCCNC(=O)[C@@H]1CC=CC[C@@H]1C(=O)Nc1sc2c(c1C(=O)N1CCCCC1)CCCC2)c1ccc(-c2c3nc(c(-c4cccc(S(=O)(=O)[O-])c4F)c4ccc([nH]4)c(-c4cccc(S(=O)(=O)[O-])c4F)c4nc(c(-c5cccc(S(=O)(=O)[O-])c5F)c5ccc2[nH]5)C=C4)C=C3)cc1
REMARK SMILES IDX 6 1 5 2 4 3 3 4 1 5 2 6 39 8 40 9 101 10 41 11 100 12 42 13
REMARK SMILES IDX 43 14 44 15 94 16 45 17 99 18 93 19 95 20 46 21 98 22 92 23
REMARK SMILES IDX 91 24 47 26 79 27 59 28 78 29 60 30 63 31 77 32 96 33 61 34
REMARK SMILES IDX 62 35 76 37 97 38 64 39 48 40 49 41 57 42 50 43 52 44 58 45
REMARK SMILES IDX 51 46 53 47 54 48 55 49 56 50 80 51 81 52 89 53 82 54 84 55
REMARK SMILES IDX 90 56 83 57 85 58 86 59 87 60 88 61 65 62 66 63 74 64 67 65
REMARK SMILES IDX 69 66 75 67 68 68 70 69 71 70 72 71 73 72 7 73 8 74 9 75
REMARK SMILES IDX 10 76 11 77 12 79 13 80 14 81 18 82 15 83 17 84 16 85 19 86
REMARK SMILES IDX 20 87 21 88 22 90 23 91 26 92 24 93 25 94 38 95 35 96 37 97
REMARK SMILES IDX 36 98 27 99 28 100 29 101 30 102 34 103 31 104 33 105 32 106
REMARK H PARENT 3 7 95 25 63 36 10 78 21 89
REMARK Flexibility Score: inf
ROOT
ATOM      1  C   UNL A   1      36.749  20.258  25.057  1.00  0.00     0.002 C 
ENDROOT
BRANCH   1   2
ATOM      2  C   UNL A   1      37.836  21.311  24.896  1.00  0.00     0.021 C 
BRANCH   2   3
ATOM      3  C   UNL A   1      38.920  21.277  25.959  1.00  0.00     0.116 C 
BRANCH   3   4
ATOM      4  N   UNL A   1      39.731  20.072  25.916  1.00  0.00    -0.352 N 
ATOM      5  O   UNL A   1      41.664  18.897  25.921  1.00  0.00    -0.269 OA
ATOM      6  C   UNL A   1      41.095  19.964  26.092  1.00  0.00     0.251 C 
ATOM      7  H   UNL A   1      39.249  19.231  25.741  1.00  0.00     0.163 HD
BRANCH   6   8
ATOM      8  C   UNL A   1      41.854  21.187  26.442  1.00  0.00     0.039 A 
ATOM      9  C   UNL A   1      42.002  21.557  27.781  1.00  0.00     0.014 A 
ATOM     10  C   UNL A   1      42.316  22.021  25.423  1.00  0.00     0.014 A 
ATOM     11  C   UNL A   1      42.428  22.842  28.090  1.00  0.00     0.010 A 
ATOM     12  C   UNL A   1      42.851  23.273  25.748  1.00  0.00     0.010 A 
ATOM     13  C   UNL A   1      42.861  23.717  27.079  1.00  0.00    -0.014 A 
BRANCH  13  14
ATOM     14  C   UNL A   1      43.350  25.072  27.453  1.00  0.00     0.031 A 
ATOM     15  C   UNL A   1      44.806  25.447  27.339  1.00  0.00     0.074 A 
ATOM     16  C   UNL A   1      42.455  25.982  27.886  1.00  0.00     0.049 A 
ATOM     17  N   UNL A   1      45.380  26.596  27.591  1.00  0.00    -0.248 NA
ATOM     18  C   UNL A   1      45.742  24.401  26.896  1.00  0.00     0.031 C 
ATOM     19  C   UNL A   1      41.024  25.728  28.079  1.00  0.00     0.029 A 
ATOM     20  N   UNL A   1      42.606  27.299  28.238  1.00  0.00    -0.354 N 
ATOM     21  C   UNL A   1      46.742  26.401  27.392  1.00  0.00     0.074 A 
ATOM     22  C   UNL A   1      46.912  25.018  26.998  1.00  0.00     0.031 C 
ATOM     23  C   UNL A   1      40.423  26.860  28.470  1.00  0.00     0.029 A 
ATOM     24  C   UNL A   1      41.431  27.901  28.621  1.00  0.00     0.049 A 
ATOM     25  H   UNL A   1      43.472  27.767  28.217  1.00  0.00     0.167 HD
ATOM     26  C   UNL A   1      47.756  27.292  27.514  1.00  0.00     0.034 A 
ATOM     27  C   UNL A   1      41.186  29.150  29.060  1.00  0.00     0.034 A 
ATOM     28  C   UNL A   1      47.576  28.678  27.864  1.00  0.00     0.049 A 
ATOM     29  C   UNL A   1      42.326  30.124  29.150  1.00  0.00     0.074 A 
ATOM     30  C   UNL A   1      48.532  29.677  27.942  1.00  0.00     0.029 A 
ATOM     31  N   UNL A   1      46.365  29.261  28.201  1.00  0.00    -0.354 N 
ATOM     32  N   UNL A   1      43.586  29.949  28.838  1.00  0.00    -0.248 NA
ATOM     33  C   UNL A   1      42.003  31.474  29.626  1.00  0.00     0.031 C 
ATOM     34  C   UNL A   1      47.903  30.856  28.356  1.00  0.00     0.029 A 
ATOM     35  C   UNL A   1      46.548  30.602  28.500  1.00  0.00     0.049 A 
ATOM     36  H   UNL A   1      45.500  28.792  28.226  1.00  0.00     0.167 HD
ATOM     37  C   UNL A   1      44.200  31.178  29.042  1.00  0.00     0.074 A 
ATOM     38  C   UNL A   1      43.167  32.093  29.484  1.00  0.00     0.031 C 
ATOM     39  C   UNL A   1      45.505  31.515  28.888  1.00  0.00     0.034 A 
BRANCH  26  40
ATOM     40  C   UNL A   1      49.161  26.810  27.247  1.00  0.00     0.023 A 
ATOM     41  C   UNL A   1      49.803  25.965  28.174  1.00  0.00     0.012 A 
ATOM     42  C   UNL A   1      49.818  27.134  26.042  1.00  0.00     0.148 A 
ATOM     43  C   UNL A   1      51.088  25.479  27.925  1.00  0.00     0.002 A 
ATOM     44  C   UNL A   1      51.079  26.610  25.780  1.00  0.00     0.091 A 
ATOM     45  F   UNL A   1      49.202  27.953  25.178  1.00  0.00    -0.205 F 
ATOM     46  C   UNL A   1      51.720  25.793  26.725  1.00  0.00     0.022 A 
BRANCH  44  47
ATOM     47  S   UNL A   1      51.941  26.888  24.227  1.00  0.00     0.127 S 
ATOM     48  O   UNL A   1      52.903  25.786  24.223  1.00  0.00    -0.237 OA
ATOM     49  O   UNL A   1      50.863  26.758  23.247  1.00  0.00    -0.237 OA
ATOM     50  O   UNL A   1      52.519  28.221  24.322  1.00  0.00    -0.744 OA
ENDBRANCH  44  47
ENDBRANCH  26  40
BRANCH  27  51
ATOM     51  C   UNL A   1      39.794  29.558  29.397  1.00  0.00     0.023 A 
ATOM     52  C   UNL A   1      38.886  29.842  28.359  1.00  0.00     0.012 A 
ATOM     53  C   UNL A   1      39.357  29.626  30.733  1.00  0.00     0.148 A 
ATOM     54  C   UNL A   1      37.575  30.219  28.648  1.00  0.00     0.002 A 
ATOM     55  C   UNL A   1      38.033  29.943  31.012  1.00  0.00     0.091 A 
ATOM     56  F   UNL A   1      40.241  29.361  31.706  1.00  0.00    -0.205 F 
ATOM     57  C   UNL A   1      37.145  30.257  29.973  1.00  0.00     0.022 A 
BRANCH  55  58
ATOM     58  S   UNL A   1      37.361  29.879  32.677  1.00  0.00     0.127 S 
ATOM     59  O   UNL A   1      37.503  28.463  33.001  1.00  0.00    -0.237 OA
ATOM     60  O   UNL A   1      38.267  30.773  33.401  1.00  0.00    -0.237 OA
ATOM     61  O   UNL A   1      35.995  30.372  32.568  1.00  0.00    -0.744 OA
ENDBRANCH  55  58
ENDBRANCH  27  51
BRANCH  39  62
ATOM     62  C   UNL A   1      45.883  32.950  29.149  1.00  0.00     0.023 A 
ATOM     63  C   UNL A   1      46.407  33.327  30.401  1.00  0.00     0.012 A 
ATOM     64  C   UNL A   1      45.765  33.916  28.130  1.00  0.00     0.148 A 
ATOM     65  C   UNL A   1      46.765  34.651  30.649  1.00  0.00     0.002 A 
ATOM     66  C   UNL A   1      46.174  35.222  28.367  1.00  0.00     0.091 A 
ATOM     67  F   UNL A   1      45.244  33.543  26.951  1.00  0.00    -0.205 F 
ATOM     68  C   UNL A   1      46.659  35.596  29.631  1.00  0.00     0.022 A 
BRANCH  66  69
ATOM     69  S   UNL A   1      46.167  36.477  27.082  1.00  0.00     0.127 S 
ATOM     70  O   UNL A   1      46.939  35.825  26.025  1.00  0.00    -0.237 OA
ATOM     71  O   UNL A   1      44.739  36.620  26.794  1.00  0.00    -0.237 OA
ATOM     72  O   UNL A   1      46.783  37.657  27.674  1.00  0.00    -0.744 OA
ENDBRANCH  66  69
ENDBRANCH  39  62
ENDBRANCH  13  14
ENDBRANCH   6   8
ENDBRANCH   3   4
ENDBRANCH   2   3
ENDBRANCH   1   2
BRANCH   1  73
ATOM     73  C   UNL A   1      35.315  20.771  24.961  1.00  0.00     0.002 C 
BRANCH  73  74
ATOM     74  C   UNL A   1      34.179  19.755  25.109  1.00  0.00     0.021 C 
BRANCH  74  75
ATOM     75  C   UNL A   1      32.762  20.166  24.714  1.00  0.00     0.116 C 
BRANCH  75  76
ATOM     76  N   UNL A   1      32.123  21.115  25.598  1.00  0.00    -0.356 N 
ATOM     77  C   UNL A   1      31.930  22.446  25.458  1.00  0.00     0.224 C 
ATOM     78  H   UNL A   1      31.773  20.731  26.436  1.00  0.00     0.163 HD
ATOM     79  O   UNL A   1      30.970  22.939  26.061  1.00  0.00    -0.275 OA
BRANCH  77  80
ATOM     80  C   UNL A   1      32.790  23.318  24.560  1.00  0.00     0.095 C 
ATOM     81  C   UNL A   1      33.834  23.993  25.472  1.00  0.00     0.041 C 
ATOM     82  C   UNL A   1      32.121  24.126  23.408  1.00  0.00     0.095 C 
ATOM     83  C   UNL A   1      34.338  25.322  25.041  1.00  0.00    -0.030 C 
ATOM     84  C   UNL A   1      33.018  25.309  22.920  1.00  0.00     0.041 C 
ATOM     85  C   UNL A   1      33.967  25.914  23.906  1.00  0.00    -0.030 C 
BRANCH  82  86
ATOM     86  C   UNL A   1      30.660  24.615  23.484  1.00  0.00     0.229 C 
ATOM     87  O   UNL A   1      29.793  23.968  22.872  1.00  0.00    -0.274 OA
ATOM     88  N   UNL A   1      30.167  25.646  24.240  1.00  0.00    -0.317 N 
ATOM     89  H   UNL A   1      29.185  25.621  24.296  1.00  0.00     0.170 HD
BRANCH  88  90
ATOM     90  C   UNL A   1      30.697  26.716  24.948  1.00  0.00     0.108 A 
ATOM     91  S   UNL A   1      31.142  26.536  26.562  1.00  0.00    -0.122 S 
ATOM     92  C   UNL A   1      30.913  28.036  24.492  1.00  0.00     0.078 A 
ATOM     93  C   UNL A   1      32.089  27.923  26.525  1.00  0.00     0.011 A 
ATOM     94  C   UNL A   1      31.764  28.744  25.461  1.00  0.00    -0.019 A 
ATOM     95  C   UNL A   1      33.099  28.199  27.593  1.00  0.00     0.047 C 
ATOM     96  C   UNL A   1      32.281  30.155  25.459  1.00  0.00     0.037 C 
ATOM     97  C   UNL A   1      33.304  29.704  27.755  1.00  0.00     0.006 C 
ATOM     98  C   UNL A   1      33.480  30.380  26.396  1.00  0.00     0.005 C 
BRANCH  92  99
ATOM     99  C   UNL A   1      30.284  28.509  23.225  1.00  0.00     0.257 C 
ATOM    100  O   UNL A   1      30.585  27.992  22.147  1.00  0.00    -0.269 OA
ATOM    101  N   UNL A   1      29.224  29.417  23.284  1.00  0.00    -0.339 N 
ATOM    102  C   UNL A   1      27.974  29.060  22.620  1.00  0.00     0.120 C 
ATOM    103  C   UNL A   1      29.432  30.837  23.549  1.00  0.00     0.120 C 
ATOM    104  C   UNL A   1      27.645  29.954  21.424  1.00  0.00     0.022 C 
ATOM    105  C   UNL A   1      29.120  31.732  22.350  1.00  0.00     0.022 C 
ATOM    106  C   UNL A   1      27.729  31.428  21.803  1.00  0.00     0.004 C 
ENDBRANCH  92  99
ENDBRANCH  88  90
ENDBRANCH  82  86
ENDBRANCH  77  80
ENDBRANCH  75  76
ENDBRANCH  74  75
ENDBRANCH  73  74
ENDBRANCH   1  73
TORSDOF 19
ENDMDL
MODEL 2
REMARK VINA RESULT:     -12.2      0.542      7.294
REMARK SMILES O=C(NCCCCCCNC(=O)[C@@H]1CC=CC[C@@H]1C(=O)Nc1sc2c(c1C(=O)N1CCCCC1)CCCC2)c1ccc(-c2c3nc(c(-c4cccc(S(=O)(=O)[O-])c4F)c4ccc([nH]4)c(-c4cccc(S(=O)(=O)[O-])c4F)c4nc(c(-c5cccc(S(=O)(=O)[O-])c5F)c5ccc2[nH]5)C=C4)C=C3)cc1
REMARK SMILES IDX 6 1 5 2 4 3 3 4 1 5 2 6 39 8 40 9 101 10 41 11 100 12 42 13
REMARK SMILES IDX 43 14 44 15 94 16 45 17 99 18 93 19 95 20 46 21 98 22 92 23
REMARK SMILES IDX 91 24 47 26 79 27 59 28 78 29 60 30 63 31 77 32 96 33 61 34
REMARK SMILES IDX 62 35 76 37 97 38 64 39 48 40 49 41 57 42 50 43 52 44 58 45
REMARK SMILES IDX 51 46 53 47 54 48 55 49 56 50 80 51 81 52 89 53 82 54 84 55
REMARK SMILES IDX 90 56 83 57 85 58 86 59 87 60 88 61 65 62 66 63 74 64 67 65
REMARK SMILES IDX 69 66 75 67 68 68 70 69 71 70 72 71 73 72 7 73 8 74 9 75
REMARK SMILES IDX 10 76 11 77 12 79 13 80 14 81 18 82 15 83 17 84 16 85 19 86
REMARK SMILES IDX 20 87 21 88 22 90 23 91 26 92 24 93 25 94 38 95 35 96 37 97
REMARK SMILES IDX 36 98 27 99 28 100 29 101 30 102 34 103 31 104 33 105 32 106
REMARK H PARENT 3 7 95 25 63 36 10 78 21 89
REMARK Flexibility Score: inf
ROOT
ATOM      1  C   UNL A   1      36.614  20.182  25.006  1.00  0.00     0.002 C 
ENDROOT
BRANCH   1   2
ATOM      2  C   UNL A   1      37.720  21.209  24.817  1.00  0.00     0.021 C 
BRANCH   2   3
ATOM      3  C   UNL A   1      38.778  21.216  25.906  1.00  0.00     0.116 C 
BRANCH   3   4
ATOM      4  N   UNL A   1      39.582  20.006  25.937  1.00  0.00    -0.352 N 
ATOM      5  O   UNL A   1      41.507  18.822  26.028  1.00  0.00    -0.269 OA
ATOM      6  C   UNL A   1      40.943  19.899  26.136  1.00  0.00     0.251 C 
ATOM      7  H   UNL A   1      39.097  19.160  25.798  1.00  0.00     0.163 HD
BRANCH   6   8
ATOM      8  C   UNL A   1      41.704  21.135  26.433  1.00  0.00     0.039 A 
ATOM      9  C   UNL A   1      41.749  21.629  27.739  1.00  0.00     0.014 A 
ATOM     10  C   UNL A   1      42.276  21.856  25.384  1.00  0.00     0.014 A 
ATOM     11  C   UNL A   1      42.184  22.929  27.961  1.00  0.00     0.010 A 
ATOM     12  C   UNL A   1      42.817  23.121  25.634  1.00  0.00     0.010 A 
ATOM     13  C   UNL A   1      42.728  23.693  26.912  1.00  0.00    -0.014 A 
BRANCH  13  14
ATOM     14  C   UNL A   1      43.223  25.067  27.198  1.00  0.00     0.031 A 
ATOM     15  C   UNL A   1      42.321  26.128  27.773  1.00  0.00     0.074 A 
ATOM     16  C   UNL A   1      44.517  25.349  26.947  1.00  0.00     0.049 A 
ATOM     17  N   UNL A   1      42.613  27.359  28.111  1.00  0.00    -0.248 NA
ATOM     18  C   UNL A   1      40.910  25.773  27.991  1.00  0.00     0.031 C 
ATOM     19  C   UNL A   1      45.481  24.418  26.352  1.00  0.00     0.029 A 
ATOM     20  N   UNL A   1      45.249  26.489  27.162  1.00  0.00    -0.354 N 
ATOM     21  C   UNL A   1      41.421  27.940  28.527  1.00  0.00     0.074 A 
ATOM     22  C   UNL A   1      40.396  26.926  28.399  1.00  0.00     0.031 C 
ATOM     23  C   UNL A   1      46.683  25.006  26.290  1.00  0.00     0.029 A 
ATOM     24  C   UNL A   1      46.564  26.375  26.777  1.00  0.00     0.049 A 
ATOM     25  H   UNL A   1      44.869  27.308  27.554  1.00  0.00     0.167 HD
ATOM     26  C   UNL A   1      41.201  29.198  28.984  1.00  0.00     0.034 A 
ATOM     27  C   UNL A   1      47.566  27.274  26.797  1.00  0.00     0.034 A 
ATOM     28  C   UNL A   1      42.233  30.189  29.151  1.00  0.00     0.049 A 
ATOM     29  C   UNL A   1      47.298  28.647  27.342  1.00  0.00     0.074 A 
ATOM     30  C   UNL A   1      42.123  31.466  29.675  1.00  0.00     0.029 A 
ATOM     31  N   UNL A   1      43.561  30.021  28.791  1.00  0.00    -0.354 N 
ATOM     32  N   UNL A   1      46.190  29.133  27.844  1.00  0.00    -0.248 NA
ATOM     33  C   UNL A   1      48.428  29.585  27.350  1.00  0.00     0.031 C 
ATOM     34  C   UNL A   1      43.378  32.080  29.603  1.00  0.00     0.029 A 
ATOM     35  C   UNL A   1      44.279  31.173  29.070  1.00  0.00     0.049 A 
ATOM     36  H   UNL A   1      43.940  29.204  28.395  1.00  0.00     0.167 HD
ATOM     37  C   UNL A   1      46.498  30.420  28.264  1.00  0.00     0.074 A 
ATOM     38  C   UNL A   1      47.903  30.629  27.976  1.00  0.00     0.031 C 
ATOM     39  C   UNL A   1      45.687  31.351  28.827  1.00  0.00     0.034 A 
BRANCH  26  40
ATOM     40  C   UNL A   1      39.790  29.579  29.363  1.00  0.00     0.023 A 
ATOM     41  C   UNL A   1      38.848  29.878  28.358  1.00  0.00     0.012 A 
ATOM     42  C   UNL A   1      39.378  29.570  30.711  1.00  0.00     0.148 A 
ATOM     43  C   UNL A   1      37.530  30.195  28.689  1.00  0.00     0.002 A 
ATOM     44  C   UNL A   1      38.052  29.842  31.031  1.00  0.00     0.091 A 
ATOM     45  F   UNL A   1      40.289  29.301  31.657  1.00  0.00    -0.205 F 
ATOM     46  C   UNL A   1      37.130  30.167  30.022  1.00  0.00     0.022 A 
BRANCH  44  47
ATOM     47  S   UNL A   1      37.421  29.750  32.711  1.00  0.00     0.127 S 
ATOM     48  O   UNL A   1      38.369  30.600  33.430  1.00  0.00    -0.237 OA
ATOM     49  O   UNL A   1      36.080  30.318  32.569  1.00  0.00    -0.237 OA
ATOM     50  O   UNL A   1      37.447  28.339  33.072  1.00  0.00    -0.744 OA
ENDBRANCH  44  47
ENDBRANCH  26  40
BRANCH  27  51
ATOM     51  C   UNL A   1      48.924  26.880  26.331  1.00  0.00     0.023 A 
ATOM     52  C   UNL A   1      49.704  26.014  27.121  1.00  0.00     0.012 A 
ATOM     53  C   UNL A   1      49.429  27.325  25.094  1.00  0.00     0.148 A 
ATOM     54  C   UNL A   1      50.976  25.624  26.703  1.00  0.00     0.002 A 
ATOM     55  C   UNL A   1      50.672  26.885  24.655  1.00  0.00     0.091 A 
ATOM     56  F   UNL A   1      48.674  28.157  24.362  1.00  0.00    -0.205 F 
ATOM     57  C   UNL A   1      51.454  26.049  25.465  1.00  0.00     0.022 A 
BRANCH  55  58
ATOM     58  S   UNL A   1      51.303  27.269  23.018  1.00  0.00     0.127 S 
ATOM     59  O   UNL A   1      51.421  28.723  23.079  1.00  0.00    -0.237 OA
ATOM     60  O   UNL A   1      52.576  26.546  23.009  1.00  0.00    -0.237 OA
ATOM     61  O   UNL A   1      50.314  26.751  22.084  1.00  0.00    -0.744 OA
ENDBRANCH  55  58
ENDBRANCH  27  51
BRANCH  39  62
ATOM     62  C   UNL A   1      46.311  32.665  29.219  1.00  0.00     0.023 A 
ATOM     63  C   UNL A   1      46.914  32.812  30.485  1.00  0.00     0.012 A 
ATOM     64  C   UNL A   1      46.342  33.740  28.310  1.00  0.00     0.148 A 
ATOM     65  C   UNL A   1      47.497  34.023  30.854  1.00  0.00     0.002 A 
ATOM     66  C   UNL A   1      46.973  34.926  28.665  1.00  0.00     0.091 A 
ATOM     67  F   UNL A   1      45.744  33.589  27.119  1.00  0.00    -0.205 F 
ATOM     68  C   UNL A   1      47.537  35.075  29.942  1.00  0.00     0.022 A 
BRANCH  66  69
ATOM     69  S   UNL A   1      47.158  36.294  27.516  1.00  0.00     0.127 S 
ATOM     70  O   UNL A   1      47.939  35.679  26.444  1.00  0.00    -0.237 OA
ATOM     71  O   UNL A   1      45.770  36.596  27.164  1.00  0.00    -0.237 OA
ATOM     72  O   UNL A   1      47.834  37.350  28.260  1.00  0.00    -0.744 OA
ENDBRANCH  66  69
ENDBRANCH  39  62
ENDBRANCH  13  14
ENDBRANCH   6   8
ENDBRANCH   3   4
ENDBRANCH   2   3
ENDBRANCH   1   2
BRANCH   1  73
ATOM     73  C   UNL A   1      35.191  20.701  24.814  1.00  0.00     0.002 C 
BRANCH  73  74
ATOM     74  C   UNL A   1      34.033  19.757  25.146  1.00  0.00     0.021 C 
BRANCH  74  75
ATOM     75  C   UNL A   1      32.610  20.173  24.778  1.00  0.00     0.116 C 
BRANCH  75  76
ATOM     76  N   UNL A   1      32.002  21.145  25.659  1.00  0.00    -0.356 N 
ATOM     77  C   UNL A   1      31.848  22.481  25.511  1.00  0.00     0.224 C 
ATOM     78  H   UNL A   1      31.642  20.777  26.498  1.00  0.00     0.163 HD
ATOM     79  O   UNL A   1      30.904  23.005  26.114  1.00  0.00    -0.275 OA
BRANCH  77  80
ATOM     80  C   UNL A   1      32.732  23.322  24.607  1.00  0.00     0.095 C 
ATOM     81  C   UNL A   1      33.780  23.993  25.517  1.00  0.00     0.041 C 
ATOM     82  C   UNL A   1      32.087  24.124  23.437  1.00  0.00     0.095 C 
ATOM     83  C   UNL A   1      34.312  25.305  25.069  1.00  0.00    -0.030 C 
ATOM     84  C   UNL A   1      33.009  25.282  22.937  1.00  0.00     0.041 C 
ATOM     85  C   UNL A   1      33.962  25.885  23.921  1.00  0.00    -0.030 C 
BRANCH  82  86
ATOM     86  C   UNL A   1      30.635  24.641  23.492  1.00  0.00     0.229 C 
ATOM     87  O   UNL A   1      29.763  24.006  22.874  1.00  0.00    -0.274 OA
ATOM     88  N   UNL A   1      30.152  25.685  24.236  1.00  0.00    -0.317 N 
ATOM     89  H   UNL A   1      29.169  25.678  24.280  1.00  0.00     0.170 HD
BRANCH  88  90
ATOM     90  C   UNL A   1      30.693  26.749  24.945  1.00  0.00     0.108 A 
ATOM     91  S   UNL A   1      31.143  26.562  26.557  1.00  0.00    -0.122 S 
ATOM     92  C   UNL A   1      30.920  28.068  24.490  1.00  0.00     0.078 A 
ATOM     93  C   UNL A   1      32.101  27.941  26.520  1.00  0.00     0.011 A 
ATOM     94  C   UNL A   1      31.779  28.767  25.458  1.00  0.00    -0.019 A 
ATOM     95  C   UNL A   1      33.117  28.206  27.585  1.00  0.00     0.047 C 
ATOM     96  C   UNL A   1      32.309  30.172  25.457  1.00  0.00     0.037 C 
ATOM     97  C   UNL A   1      33.336  29.709  27.749  1.00  0.00     0.006 C 
ATOM     98  C   UNL A   1      33.513  30.385  26.391  1.00  0.00     0.005 C 
BRANCH  92  99
ATOM     99  C   UNL A   1      30.291  28.549  23.226  1.00  0.00     0.257 C 
ATOM    100  O   UNL A   1      30.593  28.040  22.145  1.00  0.00    -0.269 OA
ATOM    101  N   UNL A   1      29.229  29.454  23.291  1.00  0.00    -0.339 N 
ATOM    102  C   UNL A   1      27.980  29.101  22.623  1.00  0.00     0.120 C 
ATOM    103  C   UNL A   1      29.435  30.873  23.567  1.00  0.00     0.120 C 
ATOM    104  C   UNL A   1      27.651  30.002  21.434  1.00  0.00     0.022 C 
ATOM    105  C   UNL A   1      29.122  31.776  22.373  1.00  0.00     0.022 C 
ATOM    106  C   UNL A   1      27.732  31.474  21.823  1.00  0.00     0.004 C 
ENDBRANCH  92  99
ENDBRANCH  88  90
ENDBRANCH  82  86
ENDBRANCH  77  80
ENDBRANCH  75  76
ENDBRANCH  74  75
ENDBRANCH  73  74
ENDBRANCH   1  73
TORSDOF 19
ENDMDL
MODEL 3
REMARK VINA RESULT:     -11.7      5.347     10.187
REMARK SMILES O=C(NCCCCCCNC(=O)[C@@H]1CC=CC[C@@H]1C(=O)Nc1sc2c(c1C(=O)N1CCCCC1)CCCC2)c1ccc(-c2c3nc(c(-c4cccc(S(=O)(=O)[O-])c4F)c4ccc([nH]4)c(-c4cccc(S(=O)(=O)[O-])c4F)c4nc(c(-c5cccc(S(=O)(=O)[O-])c5F)c5ccc2[nH]5)C=C4)C=C3)cc1
REMARK SMILES IDX 6 1 5 2 4 3 3 4 1 5 2 6 39 8 40 9 101 10 41 11 100 12 42 13
REMARK SMILES IDX 43 14 44 15 94 16 45 17 99 18 93 19 95 20 46 21 98 22 92 23
REMARK SMILES IDX 91 24 47 26 79 27 59 28 78 29 60 30 63 31 77 32 96 33 61 34
REMARK SMILES IDX 62 35 76 37 97 38 64 39 48 40 49 41 57 42 50 43 52 44 58 45
REMARK SMILES IDX 51 46 53 47 54 48 55 49 56 50 80 51 81 52 89 53 82 54 84 55
REMARK SMILES IDX 90 56 83 57 85 58 86 59 87 60 88 61 65 62 66 63 74 64 67 65
REMARK SMILES IDX 69 66 75 67 68 68 70 69 71 70 72 71 73 72 7 73 8 74 9 75
REMARK SMILES IDX 10 76 11 77 12 79 13 80 14 81 18 82 15 83 17 84 16 85 19 86
REMARK SMILES IDX 20 87 21 88 22 90 23 91 26 92 24 93 25 94 38 95 35 96 37 97
REMARK SMILES IDX 36 98 27 99 28 100 29 101 30 102 34 103 31 104 33 105 32 106
REMARK H PARENT 3 7 95 25 63 36 10 78 21 89
REMARK Flexibility Score: inf
ROOT
ATOM      1  C   UNL A   1      33.501  30.075  27.271  1.00  0.00     0.002 C 
ENDROOT
BRANCH   1   2
ATOM      2  C   UNL A   1      32.778  31.394  27.502  1.00  0.00     0.021 C 
BRANCH   2   3
ATOM      3  C   UNL A   1      33.627  32.634  27.284  1.00  0.00     0.116 C 
BRANCH   3   4
ATOM      4  N   UNL A   1      32.974  33.861  27.709  1.00  0.00    -0.352 N 
ATOM      5  O   UNL A   1      32.517  35.554  29.138  1.00  0.00    -0.269 OA
ATOM      6  C   UNL A   1      33.219  34.598  28.850  1.00  0.00     0.251 C 
ATOM      7  H   UNL A   1      32.273  34.208  27.111  1.00  0.00     0.163 HD
BRANCH   6   8
ATOM      8  C   UNL A   1      34.321  34.164  29.739  1.00  0.00     0.039 A 
ATOM      9  C   UNL A   1      35.637  34.536  29.452  1.00  0.00     0.014 A 
ATOM     10  C   UNL A   1      34.048  33.291  30.793  1.00  0.00     0.014 A 
ATOM     11  C   UNL A   1      36.684  33.882  30.086  1.00  0.00     0.010 A 
ATOM     12  C   UNL A   1      35.107  32.720  31.506  1.00  0.00     0.010 A 
ATOM     13  C   UNL A   1      36.435  32.967  31.125  1.00  0.00    -0.014 A 
BRANCH  13  14
ATOM     14  C   UNL A   1      37.586  32.317  31.810  1.00  0.00     0.031 A 
ATOM     15  C   UNL A   1      38.374  31.213  31.155  1.00  0.00     0.074 A 
ATOM     16  C   UNL A   1      37.930  32.751  33.039  1.00  0.00     0.049 A 
ATOM     17  N   UNL A   1      39.423  30.573  31.608  1.00  0.00    -0.248 NA
ATOM     18  C   UNL A   1      37.928  30.755  29.830  1.00  0.00     0.031 C 
ATOM     19  C   UNL A   1      37.220  33.786  33.795  1.00  0.00     0.029 A 
ATOM     20  N   UNL A   1      38.961  32.387  33.868  1.00  0.00    -0.354 N 
ATOM     21  C   UNL A   1      39.730  29.608  30.655  1.00  0.00     0.074 A 
ATOM     22  C   UNL A   1      38.753  29.743  29.596  1.00  0.00     0.031 C 
ATOM     23  C   UNL A   1      37.858  34.005  34.953  1.00  0.00     0.029 A 
ATOM     24  C   UNL A   1      38.982  33.081  35.053  1.00  0.00     0.049 A 
ATOM     25  H   UNL A   1      39.621  31.694  33.635  1.00  0.00     0.167 HD
ATOM     26  C   UNL A   1      40.738  28.702  30.656  1.00  0.00     0.034 A 
ATOM     27  C   UNL A   1      39.803  32.983  36.116  1.00  0.00     0.034 A 
ATOM     28  C   UNL A   1      41.733  28.601  31.693  1.00  0.00     0.049 A 
ATOM     29  C   UNL A   1      40.931  31.992  36.071  1.00  0.00     0.074 A 
ATOM     30  C   UNL A   1      42.836  27.765  31.750  1.00  0.00     0.029 A 
ATOM     31  N   UNL A   1      41.746  29.353  32.857  1.00  0.00    -0.354 N 
ATOM     32  N   UNL A   1      41.273  31.176  35.105  1.00  0.00    -0.248 NA
ATOM     33  C   UNL A   1      41.802  31.932  37.251  1.00  0.00     0.031 C 
ATOM     34  C   UNL A   1      43.497  27.990  32.962  1.00  0.00     0.029 A 
ATOM     35  C   UNL A   1      42.829  28.994  33.645  1.00  0.00     0.049 A 
ATOM     36  H   UNL A   1      41.083  30.041  33.093  1.00  0.00     0.167 HD
ATOM     37  C   UNL A   1      42.423  30.532  35.544  1.00  0.00     0.074 A 
ATOM     38  C   UNL A   1      42.728  31.070  36.854  1.00  0.00     0.031 C 
ATOM     39  C   UNL A   1      43.153  29.572  34.923  1.00  0.00     0.034 A 
BRANCH  26  40
ATOM     40  C   UNL A   1      40.839  27.750  29.489  1.00  0.00     0.023 A 
ATOM     41  C   UNL A   1      40.033  26.594  29.453  1.00  0.00     0.012 A 
ATOM     42  C   UNL A   1      41.677  28.038  28.393  1.00  0.00     0.148 A 
ATOM     43  C   UNL A   1      40.085  25.723  28.363  1.00  0.00     0.002 A 
ATOM     44  C   UNL A   1      41.691  27.191  27.291  1.00  0.00     0.091 A 
ATOM     45  F   UNL A   1      42.451  29.132  28.450  1.00  0.00    -0.205 F 
ATOM     46  C   UNL A   1      40.905  26.027  27.280  1.00  0.00     0.022 A 
BRANCH  44  47
ATOM     47  S   UNL A   1      42.650  27.539  25.811  1.00  0.00     0.127 S 
ATOM     48  O   UNL A   1      44.002  27.190  26.248  1.00  0.00    -0.237 OA
ATOM     49  O   UNL A   1      42.066  26.614  24.840  1.00  0.00    -0.237 OA
ATOM     50  O   UNL A   1      42.433  28.948  25.515  1.00  0.00    -0.744 OA
ENDBRANCH  44  47
ENDBRANCH  26  40
BRANCH  27  51
ATOM     51  C   UNL A   1      39.613  33.884  37.286  1.00  0.00     0.023 A 
ATOM     52  C   UNL A   1      40.050  35.220  37.209  1.00  0.00     0.012 A 
ATOM     53  C   UNL A   1      38.968  33.436  38.455  1.00  0.00     0.148 A 
ATOM     54  C   UNL A   1      39.878  36.086  38.288  1.00  0.00     0.002 A 
ATOM     55  C   UNL A   1      38.744  34.321  39.503  1.00  0.00     0.091 A 
ATOM     56  F   UNL A   1      38.569  32.158  38.510  1.00  0.00    -0.205 F 
ATOM     57  C   UNL A   1      39.214  35.640  39.429  1.00  0.00     0.022 A 
BRANCH  55  58
ATOM     58  S   UNL A   1      37.778  33.871  40.948  1.00  0.00     0.127 S 
ATOM     59  O   UNL A   1      38.698  32.987  41.658  1.00  0.00    -0.237 OA
ATOM     60  O   UNL A   1      37.561  35.173  41.582  1.00  0.00    -0.237 OA
ATOM     61  O   UNL A   1      36.567  33.247  40.433  1.00  0.00    -0.744 OA
ENDBRANCH  55  58
ENDBRANCH  27  51
BRANCH  39  62
ATOM     62  C   UNL A   1      44.388  29.078  35.629  1.00  0.00     0.023 A 
ATOM     63  C   UNL A   1      45.633  29.695  35.394  1.00  0.00     0.012 A 
ATOM     64  C   UNL A   1      44.303  28.029  36.566  1.00  0.00     0.148 A 
ATOM     65  C   UNL A   1      46.780  29.247  36.047  1.00  0.00     0.002 A 
ATOM     66  C   UNL A   1      45.440  27.624  37.253  1.00  0.00     0.091 A 
ATOM     67  F   UNL A   1      43.114  27.439  36.761  1.00  0.00    -0.205 F 
ATOM     68  C   UNL A   1      46.683  28.220  36.983  1.00  0.00     0.022 A 
BRANCH  66  69
ATOM     69  S   UNL A   1      45.385  26.380  38.547  1.00  0.00     0.127 S 
ATOM     70  O   UNL A   1      45.014  25.183  37.794  1.00  0.00    -0.237 OA
ATOM     71  O   UNL A   1      46.761  26.386  39.044  1.00  0.00    -0.237 OA
ATOM     72  O   UNL A   1      44.396  26.849  39.509  1.00  0.00    -0.744 OA
ENDBRANCH  66  69
ENDBRANCH  39  62
ENDBRANCH  13  14
ENDBRANCH   6   8
ENDBRANCH   3   4
ENDBRANCH   2   3
ENDBRANCH   1   2
BRANCH   1  73
ATOM     73  C   UNL A   1      33.254  29.416  25.917  1.00  0.00     0.002 C 
BRANCH  73  74
ATOM     74  C   UNL A   1      31.831  28.954  25.594  1.00  0.00     0.021 C 
BRANCH  74  75
ATOM     75  C   UNL A   1      31.634  27.727  24.705  1.00  0.00     0.116 C 
BRANCH  75  76
ATOM     76  N   UNL A   1      30.996  26.597  25.343  1.00  0.00    -0.356 N 
ATOM     77  C   UNL A   1      31.208  25.270  25.183  1.00  0.00     0.224 C 
ATOM     78  H   UNL A   1      30.297  26.829  25.997  1.00  0.00     0.163 HD
ATOM     79  O   UNL A   1      30.928  24.540  26.141  1.00  0.00    -0.275 OA
BRANCH  77  80
ATOM     80  C   UNL A   1      31.819  24.674  23.927  1.00  0.00     0.095 C 
ATOM     81  C   UNL A   1      31.048  23.370  23.640  1.00  0.00     0.041 C 
ATOM     82  C   UNL A   1      33.363  24.728  23.727  1.00  0.00     0.095 C 
ATOM     83  C   UNL A   1      31.793  22.294  22.938  1.00  0.00    -0.030 C 
ATOM     84  C   UNL A   1      33.859  23.676  22.684  1.00  0.00     0.041 C 
ATOM     85  C   UNL A   1      33.051  22.427  22.518  1.00  0.00    -0.030 C 
BRANCH  82  86
ATOM     86  C   UNL A   1      34.349  24.747  24.914  1.00  0.00     0.229 C 
ATOM     87  O   UNL A   1      34.809  25.844  25.275  1.00  0.00    -0.274 OA
ATOM     88  N   UNL A   1      34.717  23.691  25.704  1.00  0.00    -0.317 N 
ATOM     89  H   UNL A   1      35.173  23.990  26.524  1.00  0.00     0.170 HD
BRANCH  88  90
ATOM     90  C   UNL A   1      34.614  22.308  25.647  1.00  0.00     0.108 A 
ATOM     91  S   UNL A   1      33.240  21.530  26.232  1.00  0.00    -0.122 S 
ATOM     92  C   UNL A   1      35.565  21.386  25.156  1.00  0.00     0.078 A 
ATOM     93  C   UNL A   1      33.597  20.120  25.391  1.00  0.00     0.011 A 
ATOM     94  C   UNL A   1      34.925  20.071  25.004  1.00  0.00    -0.019 A 
ATOM     95  C   UNL A   1      32.563  19.060  25.183  1.00  0.00     0.047 C 
ATOM     96  C   UNL A   1      35.484  18.760  24.531  1.00  0.00     0.037 C 
ATOM     97  C   UNL A   1      33.226  17.689  25.055  1.00  0.00     0.006 C 
ATOM     98  C   UNL A   1      34.413  17.745  24.095  1.00  0.00     0.005 C 
BRANCH  92  99
ATOM     99  C   UNL A   1      36.973  21.813  24.911  1.00  0.00     0.257 C 
ATOM    100  O   UNL A   1      37.245  22.556  23.965  1.00  0.00    -0.269 OA
ATOM    101  N   UNL A   1      37.955  21.516  25.859  1.00  0.00    -0.339 N 
ATOM    102  C   UNL A   1      38.751  22.615  26.396  1.00  0.00     0.120 C 
ATOM    103  C   UNL A   1      38.529  20.180  25.989  1.00  0.00     0.120 C 
ATOM    104  C   UNL A   1      40.225  22.549  25.998  1.00  0.00     0.022 C 
ATOM    105  C   UNL A   1      39.999  20.106  25.576  1.00  0.00     0.022 C 
ATOM    106  C   UNL A   1      40.812  21.174  26.299  1.00  0.00     0.004 C 
ENDBRANCH  92  99
ENDBRANCH  88  90
ENDBRANCH  82  86
ENDBRANCH  77  80
ENDBRANCH  75  76
ENDBRANCH  74  75
ENDBRANCH  73  74
ENDBRANCH   1  73
TORSDOF 19
ENDMDL
