MODEL 1
REMARK VINA RESULT:     -11.6      0.000      0.000
REMARK SMILES CC(C)COc1cccc(N2C[C@@H](C(=O)NCCCCCCNC(=O)c3ccc(-c4c5nc(c(-c6cccc(S(=O)(=O)[O-])c6F)c6ccc([nH]6)c(-c6cccc(S(=O)(=O)[O-])c6F)c6nc(c(-c7cccc(S(=O)(=O)[O-])c7F)c7ccc4[nH]7)C=C6)C=C5)cc3)CC2=O)c1
REMARK SMILES IDX 19 1 18 2 17 3 16 4 14 5 15 6 13 8 11 9 12 10 90 11 89 12
REMARK SMILES IDX 91 13 10 14 6 15 7 16 92 17 8 18 9 19 5 20 4 21 2 22 1 23
REMARK SMILES IDX 3 24 20 25 21 26 22 27 23 28 24 29 25 31 26 32 27 33 88 34
REMARK SMILES IDX 28 35 87 36 29 37 30 38 31 39 81 40 32 41 86 42 80 43 82 44
REMARK SMILES IDX 33 45 85 46 79 47 78 48 34 50 66 51 46 52 65 53 47 54 50 55
REMARK SMILES IDX 64 56 83 57 48 58 49 59 63 61 84 62 51 63 35 64 36 65 44 66
REMARK SMILES IDX 37 67 39 68 45 69 38 70 40 71 41 72 42 73 43 74 67 75 68 76
REMARK SMILES IDX 76 77 69 78 71 79 77 80 70 81 72 82 73 83 74 84 75 85 52 86
REMARK SMILES IDX 53 87 61 88 54 89 56 90 62 91 55 92 57 93 58 94 59 95 60 96
REMARK H PARENT 16 7 23 30 82 49 50 60
REMARK Flexibility Score: inf
ROOT
ATOM      1  C   UNL A   1      32.061  30.016  26.957  1.00  0.00     0.002 C 
ENDROOT
BRANCH   1   2
ATOM      2  C   UNL A   1      32.456  28.703  26.268  1.00  0.00     0.021 C 
BRANCH   2   3
ATOM      3  C   UNL A   1      33.923  28.616  25.839  1.00  0.00     0.116 C 
BRANCH   3   4
ATOM      4  N   UNL A   1      34.073  28.832  24.409  1.00  0.00    -0.356 N 
ATOM      5  C   UNL A   1      33.873  28.027  23.335  1.00  0.00     0.225 C 
ATOM      6  O   UNL A   1      34.101  28.509  22.222  1.00  0.00    -0.275 OA
ATOM      7  H   UNL A   1      34.378  29.737  24.174  1.00  0.00     0.163 HD
BRANCH   5   8
ATOM      8  C   UNL A   1      33.364  26.605  23.437  1.00  0.00     0.107 C 
ATOM      9  N   UNL A   1      34.174  24.408  23.642  1.00  0.00    -0.311 N 
ATOM     10  C   UNL A   1      34.269  25.710  24.261  1.00  0.00     0.139 C 
ATOM     11  C   UNL A   1      33.564  24.468  22.386  1.00  0.00     0.227 C 
ATOM     12  C   UNL A   1      33.143  25.889  22.118  1.00  0.00     0.116 C 
ATOM     13  O   UNL A   1      33.369  23.567  21.587  1.00  0.00    -0.274 OA
BRANCH   9  14
ATOM     14  C   UNL A   1      34.907  23.303  24.147  1.00  0.00     0.047 A 
ATOM     15  C   UNL A   1      34.851  21.062  25.042  1.00  0.00     0.121 A 
ATOM     16  C   UNL A   1      36.200  20.879  24.767  1.00  0.00     0.046 A 
ATOM     17  C   UNL A   1      34.246  22.299  24.853  1.00  0.00     0.072 A 
ATOM     18  C   UNL A   1      36.916  21.925  24.187  1.00  0.00     0.006 A 
ATOM     19  C   UNL A   1      36.260  23.111  23.832  1.00  0.00     0.026 A 
BRANCH  15  20
ATOM     20  O   UNL A   1      34.078  20.024  25.483  1.00  0.00    -0.493 OA
BRANCH  20  21
ATOM     21  C   UNL A   1      33.187  19.543  24.447  1.00  0.00     0.232 C 
BRANCH  21  22
ATOM     22  C   UNL A   1      33.276  18.011  24.227  1.00  0.00     0.020 C 
ATOM     23  C   UNL A   1      34.721  17.488  24.252  1.00  0.00     0.011 C 
ATOM     24  C   UNL A   1      32.502  17.258  25.313  1.00  0.00     0.011 C 
ENDBRANCH  21  22
ENDBRANCH  20  21
ENDBRANCH  15  20
ENDBRANCH   9  14
ENDBRANCH   5   8
ENDBRANCH   3   4
ENDBRANCH   2   3
ENDBRANCH   1   2
BRANCH   1  25
ATOM     25  C   UNL A   1      31.295  31.016  26.086  1.00  0.00     0.002 C 
BRANCH  25  26
ATOM     26  C   UNL A   1      31.317  32.464  26.581  1.00  0.00     0.021 C 
BRANCH  26  27
ATOM     27  C   UNL A   1      32.597  32.878  27.301  1.00  0.00     0.116 C 
BRANCH  27  28
ATOM     28  N   UNL A   1      32.544  34.254  27.774  1.00  0.00    -0.352 N 
ATOM     29  C   UNL A   1      33.272  34.858  28.771  1.00  0.00     0.251 C 
ATOM     30  H   UNL A   1      31.894  34.833  27.316  1.00  0.00     0.163 HD
ATOM     31  O   UNL A   1      32.961  35.979  29.162  1.00  0.00    -0.269 OA
BRANCH  29  32
ATOM     32  C   UNL A   1      34.416  34.148  29.384  1.00  0.00     0.039 A 
ATOM     33  C   UNL A   1      35.711  34.461  28.965  1.00  0.00     0.014 A 
ATOM     34  C   UNL A   1      34.213  33.177  30.369  1.00  0.00     0.014 A 
ATOM     35  C   UNL A   1      36.805  33.844  29.577  1.00  0.00     0.010 A 
ATOM     36  C   UNL A   1      35.305  32.622  31.030  1.00  0.00     0.010 A 
ATOM     37  C   UNL A   1      36.613  32.944  30.639  1.00  0.00    -0.014 A 
BRANCH  37  38
ATOM     38  C   UNL A   1      37.767  32.342  31.356  1.00  0.00     0.031 A 
ATOM     39  C   UNL A   1      38.531  31.197  30.746  1.00  0.00     0.074 A 
ATOM     40  C   UNL A   1      38.077  32.772  32.596  1.00  0.00     0.049 A 
ATOM     41  N   UNL A   1      39.529  30.514  31.245  1.00  0.00    -0.248 NA
ATOM     42  C   UNL A   1      38.103  30.743  29.413  1.00  0.00     0.031 C 
ATOM     43  C   UNL A   1      37.366  33.823  33.328  1.00  0.00     0.029 A 
ATOM     44  N   UNL A   1      39.054  32.362  33.471  1.00  0.00    -0.354 N 
ATOM     45  C   UNL A   1      39.824  29.532  30.308  1.00  0.00     0.074 A 
ATOM     46  C   UNL A   1      38.878  29.684  29.225  1.00  0.00     0.031 C 
ATOM     47  C   UNL A   1      37.933  33.977  34.536  1.00  0.00     0.029 A 
ATOM     48  C   UNL A   1      39.021  33.016  34.681  1.00  0.00     0.049 A 
ATOM     49  H   UNL A   1      39.714  31.666  33.252  1.00  0.00     0.167 HD
ATOM     50  C   UNL A   1      40.810  28.603  30.331  1.00  0.00     0.034 A 
ATOM     51  C   UNL A   1      39.771  32.851  35.787  1.00  0.00     0.034 A 
ATOM     52  C   UNL A   1      41.771  28.474  31.394  1.00  0.00     0.049 A 
ATOM     53  C   UNL A   1      40.876  31.829  35.778  1.00  0.00     0.074 A 
ATOM     54  C   UNL A   1      42.858  27.623  31.471  1.00  0.00     0.029 A 
ATOM     55  N   UNL A   1      41.752  29.205  32.572  1.00  0.00    -0.354 N 
ATOM     56  N   UNL A   1      41.238  31.015  34.815  1.00  0.00    -0.248 NA
ATOM     57  C   UNL A   1      41.698  31.727  36.991  1.00  0.00     0.031 C 
ATOM     58  C   UNL A   1      43.476  27.813  32.711  1.00  0.00     0.029 A 
ATOM     59  C   UNL A   1      42.799  28.813  33.389  1.00  0.00     0.049 A 
ATOM     60  H   UNL A   1      41.091  29.900  32.795  1.00  0.00     0.167 HD
ATOM     61  C   UNL A   1      42.352  30.333  35.293  1.00  0.00     0.074 A 
ATOM     62  C   UNL A   1      42.616  30.845  36.622  1.00  0.00     0.031 C 
ATOM     63  C   UNL A   1      43.082  29.364  34.689  1.00  0.00     0.034 A 
BRANCH  50  64
ATOM     64  C   UNL A   1      40.928  27.673  29.150  1.00  0.00     0.023 A 
ATOM     65  C   UNL A   1      40.147  26.500  29.104  1.00  0.00     0.012 A 
ATOM     66  C   UNL A   1      41.761  27.991  28.059  1.00  0.00     0.148 A 
ATOM     67  C   UNL A   1      40.221  25.638  28.010  1.00  0.00     0.002 A 
ATOM     68  C   UNL A   1      41.793  27.153  26.950  1.00  0.00     0.091 A 
ATOM     69  F   UNL A   1      42.510  29.100  28.129  1.00  0.00    -0.205 F 
ATOM     70  C   UNL A   1      41.034  25.970  26.930  1.00  0.00     0.022 A 
BRANCH  68  71
ATOM     71  S   UNL A   1      42.743  27.532  25.474  1.00  0.00     0.127 S 
ATOM     72  O   UNL A   1      42.582  26.304  24.697  1.00  0.00    -0.237 OA
ATOM     73  O   UNL A   1      42.025  28.690  24.939  1.00  0.00    -0.237 OA
ATOM     74  O   UNL A   1      44.097  27.811  25.927  1.00  0.00    -0.744 OA
ENDBRANCH  68  71
ENDBRANCH  50  64
BRANCH  51  75
ATOM     75  C   UNL A   1      39.536  33.709  36.983  1.00  0.00     0.023 A 
ATOM     76  C   UNL A   1      39.931  35.061  36.959  1.00  0.00     0.012 A 
ATOM     77  C   UNL A   1      38.908  33.199  38.136  1.00  0.00     0.148 A 
ATOM     78  C   UNL A   1      39.740  35.879  38.073  1.00  0.00     0.002 A 
ATOM     79  C   UNL A   1      38.665  34.034  39.220  1.00  0.00     0.091 A 
ATOM     80  F   UNL A   1      38.545  31.908  38.143  1.00  0.00    -0.205 F 
ATOM     81  C   UNL A   1      39.100  35.369  39.199  1.00  0.00     0.022 A 
BRANCH  79  82
ATOM     82  S   UNL A   1      37.728  33.500  40.656  1.00  0.00     0.127 S 
ATOM     83  O   UNL A   1      37.636  34.735  41.429  1.00  0.00    -0.237 OA
ATOM     84  O   UNL A   1      36.472  33.058  40.048  1.00  0.00    -0.237 OA
ATOM     85  O   UNL A   1      38.508  32.430  41.262  1.00  0.00    -0.744 OA
ENDBRANCH  79  82
ENDBRANCH  51  75
BRANCH  63  86
ATOM     86  C   UNL A   1      44.272  28.816  35.435  1.00  0.00     0.023 A 
ATOM     87  C   UNL A   1      45.545  29.395  35.260  1.00  0.00     0.012 A 
ATOM     88  C   UNL A   1      44.111  27.772  36.367  1.00  0.00     0.148 A 
ATOM     89  C   UNL A   1      46.645  28.919  35.973  1.00  0.00     0.002 A 
ATOM     90  C   UNL A   1      45.199  27.339  37.114  1.00  0.00     0.091 A 
ATOM     91  F   UNL A   1      42.895  27.222  36.508  1.00  0.00    -0.205 F 
ATOM     92  C   UNL A   1      46.470  27.901  36.908  1.00  0.00     0.022 A 
BRANCH  90  93
ATOM     93  S   UNL A   1      45.051  26.104  38.409  1.00  0.00     0.127 S 
ATOM     94  O   UNL A   1      46.441  25.956  38.841  1.00  0.00    -0.237 OA
ATOM     95  O   UNL A   1      44.179  26.772  39.376  1.00  0.00    -0.237 OA
ATOM     96  O   UNL A   1      44.467  24.927  37.779  1.00  0.00    -0.744 OA
ENDBRANCH  90  93
ENDBRANCH  63  86
ENDBRANCH  37  38
ENDBRANCH  29  32
ENDBRANCH  27  28
ENDBRANCH  26  27
ENDBRANCH  25  26
ENDBRANCH   1  25
TORSDOF 20
ENDMDL
MODEL 2
REMARK VINA RESULT:     -11.3      1.733      2.176
REMARK SMILES CC(C)COc1cccc(N2C[C@@H](C(=O)NCCCCCCNC(=O)c3ccc(-c4c5nc(c(-c6cccc(S(=O)(=O)[O-])c6F)c6ccc([nH]6)c(-c6cccc(S(=O)(=O)[O-])c6F)c6nc(c(-c7cccc(S(=O)(=O)[O-])c7F)c7ccc4[nH]7)C=C6)C=C5)cc3)CC2=O)c1
REMARK SMILES IDX 19 1 18 2 17 3 16 4 14 5 15 6 13 8 11 9 12 10 90 11 89 12
REMARK SMILES IDX 91 13 10 14 6 15 7 16 92 17 8 18 9 19 5 20 4 21 2 22 1 23
REMARK SMILES IDX 3 24 20 25 21 26 22 27 23 28 24 29 25 31 26 32 27 33 88 34
REMARK SMILES IDX 28 35 87 36 29 37 30 38 31 39 81 40 32 41 86 42 80 43 82 44
REMARK SMILES IDX 33 45 85 46 79 47 78 48 34 50 66 51 46 52 65 53 47 54 50 55
REMARK SMILES IDX 64 56 83 57 48 58 49 59 63 61 84 62 51 63 35 64 36 65 44 66
REMARK SMILES IDX 37 67 39 68 45 69 38 70 40 71 41 72 42 73 43 74 67 75 68 76
REMARK SMILES IDX 76 77 69 78 71 79 77 80 70 81 72 82 73 83 74 84 75 85 52 86
REMARK SMILES IDX 53 87 61 88 54 89 56 90 62 91 55 92 57 93 58 94 59 95 60 96
REMARK H PARENT 16 7 23 30 82 49 50 60
REMARK Flexibility Score: inf
ROOT
ATOM      1  C   UNL A   1      31.714  28.909  27.027  1.00  0.00     0.002 C 
ENDROOT
BRANCH   1   2
ATOM      2  C   UNL A   1      32.304  27.581  26.531  1.00  0.00     0.021 C 
BRANCH   2   3
ATOM      3  C   UNL A   1      32.057  27.280  25.050  1.00  0.00     0.116 C 
BRANCH   3   4
ATOM      4  N   UNL A   1      30.636  27.173  24.759  1.00  0.00    -0.356 N 
ATOM      5  C   UNL A   1      29.918  26.300  24.009  1.00  0.00     0.225 C 
ATOM      6  O   UNL A   1      28.698  26.482  23.949  1.00  0.00    -0.275 OA
ATOM      7  H   UNL A   1      30.089  27.868  25.190  1.00  0.00     0.163 HD
BRANCH   5   8
ATOM      8  C   UNL A   1      30.528  25.120  23.283  1.00  0.00     0.107 C 
ATOM      9  N   UNL A   1      32.118  23.423  23.615  1.00  0.00    -0.311 N 
ATOM     10  C   UNL A   1      30.938  23.999  24.217  1.00  0.00     0.139 C 
ATOM     11  C   UNL A   1      32.638  24.231  22.602  1.00  0.00     0.227 C 
ATOM     12  C   UNL A   1      31.742  25.428  22.428  1.00  0.00     0.116 C 
ATOM     13  O   UNL A   1      33.642  24.063  21.928  1.00  0.00    -0.274 OA
BRANCH   9  14
ATOM     14  C   UNL A   1      32.796  22.336  24.228  1.00  0.00     0.047 A 
ATOM     15  C   UNL A   1      32.786  19.990  24.794  1.00  0.00     0.121 A 
ATOM     16  C   UNL A   1      34.158  19.998  25.008  1.00  0.00     0.046 A 
ATOM     17  C   UNL A   1      32.098  21.170  24.535  1.00  0.00     0.072 A 
ATOM     18  C   UNL A   1      34.858  21.193  24.843  1.00  0.00     0.006 A 
ATOM     19  C   UNL A   1      34.187  22.343  24.405  1.00  0.00     0.026 A 
BRANCH  15  20
ATOM     20  O   UNL A   1      32.080  18.819  24.810  1.00  0.00    -0.493 OA
BRANCH  20  21
ATOM     21  C   UNL A   1      32.839  17.746  25.420  1.00  0.00     0.232 C 
BRANCH  21  22
ATOM     22  C   UNL A   1      32.923  16.476  24.535  1.00  0.00     0.020 C 
ATOM     23  C   UNL A   1      34.174  16.455  23.641  1.00  0.00     0.011 C 
ATOM     24  C   UNL A   1      32.961  15.212  25.398  1.00  0.00     0.011 C 
ENDBRANCH  21  22
ENDBRANCH  20  21
ENDBRANCH  15  20
ENDBRANCH   9  14
ENDBRANCH   5   8
ENDBRANCH   3   4
ENDBRANCH   2   3
ENDBRANCH   1   2
BRANCH   1  25
ATOM     25  C   UNL A   1      31.780  30.074  26.034  1.00  0.00     0.002 C 
BRANCH  25  26
ATOM     26  C   UNL A   1      31.562  31.462  26.641  1.00  0.00     0.021 C 
BRANCH  26  27
ATOM     27  C   UNL A   1      32.836  32.272  26.864  1.00  0.00     0.116 C 
BRANCH  27  28
ATOM     28  N   UNL A   1      32.555  33.636  27.287  1.00  0.00    -0.352 N 
ATOM     29  C   UNL A   1      33.100  34.353  28.325  1.00  0.00     0.251 C 
ATOM     30  H   UNL A   1      31.878  34.112  26.755  1.00  0.00     0.163 HD
ATOM     31  O   UNL A   1      32.607  35.429  28.651  1.00  0.00    -0.269 OA
BRANCH  29  32
ATOM     32  C   UNL A   1      34.267  33.818  29.060  1.00  0.00     0.039 A 
ATOM     33  C   UNL A   1      34.058  32.877  30.070  1.00  0.00     0.014 A 
ATOM     34  C   UNL A   1      35.563  34.242  28.753  1.00  0.00     0.014 A 
ATOM     35  C   UNL A   1      35.154  32.316  30.732  1.00  0.00     0.010 A 
ATOM     36  C   UNL A   1      36.655  33.626  29.359  1.00  0.00     0.010 A 
ATOM     37  C   UNL A   1      36.464  32.661  30.358  1.00  0.00    -0.014 A 
BRANCH  37  38
ATOM     38  C   UNL A   1      37.642  32.013  30.993  1.00  0.00     0.031 A 
ATOM     39  C   UNL A   1      38.429  30.968  30.250  1.00  0.00     0.074 A 
ATOM     40  C   UNL A   1      37.954  32.308  32.272  1.00  0.00     0.049 A 
ATOM     41  N   UNL A   1      39.451  30.261  30.660  1.00  0.00    -0.248 NA
ATOM     42  C   UNL A   1      37.999  30.657  28.878  1.00  0.00     0.031 C 
ATOM     43  C   UNL A   1      37.223  33.248  33.125  1.00  0.00     0.029 A 
ATOM     44  N   UNL A   1      38.951  31.829  33.086  1.00  0.00    -0.354 N 
ATOM     45  C   UNL A   1      39.762  29.401  29.614  1.00  0.00     0.074 A 
ATOM     46  C   UNL A   1      38.800  29.649  28.563  1.00  0.00     0.031 C 
ATOM     47  C   UNL A   1      37.798  33.280  34.338  1.00  0.00     0.029 A 
ATOM     48  C   UNL A   1      38.913  32.339  34.363  1.00  0.00     0.049 A 
ATOM     49  H   UNL A   1      39.627  31.181  32.784  1.00  0.00     0.167 HD
ATOM     50  C   UNL A   1      40.773  28.503  29.523  1.00  0.00     0.034 A 
ATOM     51  C   UNL A   1      39.680  32.070  35.438  1.00  0.00     0.034 A 
ATOM     52  C   UNL A   1      41.748  28.281  30.557  1.00  0.00     0.049 A 
ATOM     53  C   UNL A   1      40.812  31.087  35.303  1.00  0.00     0.074 A 
ATOM     54  C   UNL A   1      42.859  27.456  30.528  1.00  0.00     0.029 A 
ATOM     55  N   UNL A   1      41.723  28.871  31.811  1.00  0.00    -0.354 N 
ATOM     56  N   UNL A   1      41.185  30.399  34.251  1.00  0.00    -0.248 NA
ATOM     57  C   UNL A   1      41.650  30.870  36.490  1.00  0.00     0.031 C 
ATOM     58  C   UNL A   1      43.485  27.521  31.776  1.00  0.00     0.029 A 
ATOM     59  C   UNL A   1      42.788  28.418  32.569  1.00  0.00     0.049 A 
ATOM     60  H   UNL A   1      41.046  29.518  32.117  1.00  0.00     0.167 HD
ATOM     61  C   UNL A   1      42.322  29.698  34.638  1.00  0.00     0.074 A 
ATOM     62  C   UNL A   1      42.587  30.062  36.015  1.00  0.00     0.031 C 
ATOM     63  C   UNL A   1      43.071  28.825  33.922  1.00  0.00     0.034 A 
BRANCH  50  64
ATOM     64  C   UNL A   1      40.902  27.717  28.243  1.00  0.00     0.023 A 
ATOM     65  C   UNL A   1      41.529  28.302  27.124  1.00  0.00     0.012 A 
ATOM     66  C   UNL A   1      40.463  26.380  28.168  1.00  0.00     0.148 A 
ATOM     67  C   UNL A   1      41.682  27.585  25.938  1.00  0.00     0.002 A 
ATOM     68  C   UNL A   1      40.663  25.655  26.998  1.00  0.00     0.091 A 
ATOM     69  F   UNL A   1      39.853  25.846  29.235  1.00  0.00    -0.205 F 
ATOM     70  C   UNL A   1      41.260  26.260  25.879  1.00  0.00     0.022 A 
BRANCH  68  71
ATOM     71  S   UNL A   1      40.231  23.918  26.848  1.00  0.00     0.127 S 
ATOM     72  O   UNL A   1      40.615  23.405  28.161  1.00  0.00    -0.237 OA
ATOM     73  O   UNL A   1      38.788  23.982  26.615  1.00  0.00    -0.237 OA
ATOM     74  O   UNL A   1      41.006  23.406  25.727  1.00  0.00    -0.744 OA
ENDBRANCH  68  71
ENDBRANCH  50  64
BRANCH  51  75
ATOM     75  C   UNL A   1      39.435  32.779  36.726  1.00  0.00     0.023 A 
ATOM     76  C   UNL A   1      40.120  33.979  37.001  1.00  0.00     0.012 A 
ATOM     77  C   UNL A   1      38.515  32.283  37.670  1.00  0.00     0.148 A 
ATOM     78  C   UNL A   1      39.923  34.651  38.209  1.00  0.00     0.002 A 
ATOM     79  C   UNL A   1      38.278  32.987  38.843  1.00  0.00     0.091 A 
ATOM     80  F   UNL A   1      37.878  31.136  37.393  1.00  0.00    -0.205 F 
ATOM     81  C   UNL A   1      38.997  34.160  39.124  1.00  0.00     0.022 A 
BRANCH  79  82
ATOM     82  S   UNL A   1      37.007  32.504  40.016  1.00  0.00     0.127 S 
ATOM     83  O   UNL A   1      35.814  32.484  39.174  1.00  0.00    -0.237 OA
ATOM     84  O   UNL A   1      37.480  31.187  40.446  1.00  0.00    -0.237 OA
ATOM     85  O   UNL A   1      37.027  33.517  41.062  1.00  0.00    -0.744 OA
ENDBRANCH  79  82
ENDBRANCH  51  75
BRANCH  63  86
ATOM     86  C   UNL A   1      44.284  28.229  34.591  1.00  0.00     0.023 A 
ATOM     87  C   UNL A   1      45.529  28.883  34.511  1.00  0.00     0.012 A 
ATOM     88  C   UNL A   1      44.169  27.055  35.362  1.00  0.00     0.148 A 
ATOM     89  C   UNL A   1      46.648  28.359  35.158  1.00  0.00     0.002 A 
ATOM     90  C   UNL A   1      45.274  26.568  36.048  1.00  0.00     0.091 A 
ATOM     91  F   UNL A   1      42.979  26.438  35.412  1.00  0.00    -0.205 F 
ATOM     92  C   UNL A   1      46.518  27.210  35.935  1.00  0.00     0.022 A 
BRANCH  90  93
ATOM     93  S   UNL A   1      45.180  25.154  37.151  1.00  0.00     0.127 S 
ATOM     94  O   UNL A   1      44.738  24.097  36.243  1.00  0.00    -0.237 OA
ATOM     95  O   UNL A   1      46.564  25.027  37.609  1.00  0.00    -0.237 OA
ATOM     96  O   UNL A   1      44.229  25.518  38.192  1.00  0.00    -0.744 OA
ENDBRANCH  90  93
ENDBRANCH  63  86
ENDBRANCH  37  38
ENDBRANCH  29  32
ENDBRANCH  27  28
ENDBRANCH  26  27
ENDBRANCH  25  26
ENDBRANCH   1  25
TORSDOF 20
ENDMDL
MODEL 3
REMARK VINA RESULT:     -11.3      3.310      8.505
REMARK SMILES CC(C)COc1cccc(N2C[C@@H](C(=O)NCCCCCCNC(=O)c3ccc(-c4c5nc(c(-c6cccc(S(=O)(=O)[O-])c6F)c6ccc([nH]6)c(-c6cccc(S(=O)(=O)[O-])c6F)c6nc(c(-c7cccc(S(=O)(=O)[O-])c7F)c7ccc4[nH]7)C=C6)C=C5)cc3)CC2=O)c1
REMARK SMILES IDX 19 1 18 2 17 3 16 4 14 5 15 6 13 8 11 9 12 10 90 11 89 12
REMARK SMILES IDX 91 13 10 14 6 15 7 16 92 17 8 18 9 19 5 20 4 21 2 22 1 23
REMARK SMILES IDX 3 24 20 25 21 26 22 27 23 28 24 29 25 31 26 32 27 33 88 34
REMARK SMILES IDX 28 35 87 36 29 37 30 38 31 39 81 40 32 41 86 42 80 43 82 44
REMARK SMILES IDX 33 45 85 46 79 47 78 48 34 50 66 51 46 52 65 53 47 54 50 55
REMARK SMILES IDX 64 56 83 57 48 58 49 59 63 61 84 62 51 63 35 64 36 65 44 66
REMARK SMILES IDX 37 67 39 68 45 69 38 70 40 71 41 72 42 73 43 74 67 75 68 76
REMARK SMILES IDX 76 77 69 78 71 79 77 80 70 81 72 82 73 83 74 84 75 85 52 86
REMARK SMILES IDX 53 87 61 88 54 89 56 90 62 91 55 92 57 93 58 94 59 95 60 96
REMARK H PARENT 16 7 23 30 82 49 50 60
REMARK Flexibility Score: inf
ROOT
ATOM      1  C   UNL A   1      32.646  29.057  23.467  1.00  0.00     0.002 C 
ENDROOT
BRANCH   1   2
ATOM      2  C   UNL A   1      31.405  28.919  22.574  1.00  0.00     0.021 C 
BRANCH   2   3
ATOM      3  C   UNL A   1      30.859  27.494  22.445  1.00  0.00     0.116 C 
BRANCH   3   4
ATOM      4  N   UNL A   1      31.701  26.677  21.586  1.00  0.00    -0.356 N 
ATOM      5  C   UNL A   1      32.734  25.838  21.847  1.00  0.00     0.225 C 
ATOM      6  O   UNL A   1      33.264  25.283  20.879  1.00  0.00    -0.275 OA
ATOM      7  H   UNL A   1      31.478  26.747  20.630  1.00  0.00     0.163 HD
BRANCH   5   8
ATOM      8  C   UNL A   1      33.234  25.532  23.242  1.00  0.00     0.107 C 
ATOM      9  N   UNL A   1      34.203  23.776  24.468  1.00  0.00    -0.311 N 
ATOM     10  C   UNL A   1      34.382  24.542  23.256  1.00  0.00     0.139 C 
ATOM     11  C   UNL A   1      32.942  23.978  25.034  1.00  0.00     0.227 C 
ATOM     12  C   UNL A   1      32.197  24.995  24.211  1.00  0.00     0.116 C 
ATOM     13  O   UNL A   1      32.457  23.457  26.025  1.00  0.00    -0.274 OA
BRANCH   9  14
ATOM     14  C   UNL A   1      35.101  22.733  24.813  1.00  0.00     0.047 A 
ATOM     15  C   UNL A   1      35.559  20.363  24.828  1.00  0.00     0.121 A 
ATOM     16  C   UNL A   1      36.914  20.589  25.032  1.00  0.00     0.046 A 
ATOM     17  C   UNL A   1      34.650  21.415  24.848  1.00  0.00     0.072 A 
ATOM     18  C   UNL A   1      37.368  21.902  25.142  1.00  0.00     0.006 A 
ATOM     19  C   UNL A   1      36.473  22.969  24.981  1.00  0.00     0.026 A 
BRANCH  15  20
ATOM     20  O   UNL A   1      35.087  19.104  24.579  1.00  0.00    -0.493 OA
BRANCH  20  21
ATOM     21  C   UNL A   1      33.665  19.006  24.838  1.00  0.00     0.232 C 
BRANCH  21  22
ATOM     22  C   UNL A   1      33.046  17.669  24.353  1.00  0.00     0.020 C 
ATOM     23  C   UNL A   1      34.006  16.854  23.471  1.00  0.00     0.011 C 
ATOM     24  C   UNL A   1      32.660  16.784  25.541  1.00  0.00     0.011 C 
ENDBRANCH  21  22
ENDBRANCH  20  21
ENDBRANCH  15  20
ENDBRANCH   9  14
ENDBRANCH   5   8
ENDBRANCH   3   4
ENDBRANCH   2   3
ENDBRANCH   1   2
BRANCH   1  25
ATOM     25  C   UNL A   1      32.446  28.685  24.939  1.00  0.00     0.002 C 
BRANCH  25  26
ATOM     26  C   UNL A   1      33.732  28.460  25.737  1.00  0.00     0.021 C 
BRANCH  26  27
ATOM     27  C   UNL A   1      33.622  28.752  27.230  1.00  0.00     0.116 C 
BRANCH  27  28
ATOM     28  N   UNL A   1      33.627  30.180  27.514  1.00  0.00    -0.352 N 
ATOM     29  C   UNL A   1      34.569  30.930  28.177  1.00  0.00     0.251 C 
ATOM     30  H   UNL A   1      32.846  30.679  27.185  1.00  0.00     0.163 HD
ATOM     31  O   UNL A   1      34.318  32.091  28.489  1.00  0.00    -0.269 OA
BRANCH  29  32
ATOM     32  C   UNL A   1      35.874  30.332  28.531  1.00  0.00     0.039 A 
ATOM     33  C   UNL A   1      36.952  30.494  27.658  1.00  0.00     0.014 A 
ATOM     34  C   UNL A   1      36.036  29.614  29.720  1.00  0.00     0.014 A 
ATOM     35  C   UNL A   1      38.207  29.987  28.006  1.00  0.00     0.010 A 
ATOM     36  C   UNL A   1      37.302  29.179  30.100  1.00  0.00     0.010 A 
ATOM     37  C   UNL A   1      38.401  29.355  29.246  1.00  0.00    -0.014 A 
BRANCH  37  38
ATOM     38  C   UNL A   1      39.747  28.885  29.669  1.00  0.00     0.031 A 
ATOM     39  C   UNL A   1      40.486  29.586  30.777  1.00  0.00     0.074 A 
ATOM     40  C   UNL A   1      40.339  27.875  28.999  1.00  0.00     0.049 A 
ATOM     41  N   UNL A   1      41.684  29.350  31.245  1.00  0.00    -0.248 NA
ATOM     42  C   UNL A   1      39.801  30.714  31.428  1.00  0.00     0.031 C 
ATOM     43  C   UNL A   1      39.759  27.164  27.857  1.00  0.00     0.029 A 
ATOM     44  N   UNL A   1      41.571  27.290  29.162  1.00  0.00    -0.354 N 
ATOM     45  C   UNL A   1      41.910  30.317  32.216  1.00  0.00     0.074 A 
ATOM     46  C   UNL A   1      40.739  31.166  32.248  1.00  0.00     0.031 C 
ATOM     47  C   UNL A   1      40.630  26.237  27.428  1.00  0.00     0.029 A 
ATOM     48  C   UNL A   1      41.843  26.310  28.236  1.00  0.00     0.049 A 
ATOM     49  H   UNL A   1      42.199  27.549  29.875  1.00  0.00     0.167 HD
ATOM     50  C   UNL A   1      42.983  30.473  33.029  1.00  0.00     0.034 A 
ATOM     51  C   UNL A   1      42.949  25.563  28.049  1.00  0.00     0.034 A 
ATOM     52  C   UNL A   1      44.133  29.608  33.018  1.00  0.00     0.049 A 
ATOM     53  C   UNL A   1      44.117  25.739  28.981  1.00  0.00     0.074 A 
ATOM     54  C   UNL A   1      45.232  29.630  33.858  1.00  0.00     0.029 A 
ATOM     55  N   UNL A   1      44.342  28.578  32.115  1.00  0.00    -0.354 N 
ATOM     56  N   UNL A   1      44.247  26.558  29.997  1.00  0.00    -0.248 NA
ATOM     57  C   UNL A   1      45.278  24.863  28.765  1.00  0.00     0.031 C 
ATOM     58  C   UNL A   1      46.122  28.636  33.440  1.00  0.00     0.029 A 
ATOM     59  C   UNL A   1      45.558  27.966  32.367  1.00  0.00     0.049 A 
ATOM     60  H   UNL A   1      43.717  28.318  31.400  1.00  0.00     0.167 HD
ATOM     61  C   UNL A   1      45.483  26.270  30.563  1.00  0.00     0.074 A 
ATOM     62  C   UNL A   1      46.055  25.187  29.789  1.00  0.00     0.031 C 
ATOM     63  C   UNL A   1      46.095  26.857  31.621  1.00  0.00     0.034 A 
BRANCH  50  64
ATOM     64  C   UNL A   1      42.950  31.599  34.030  1.00  0.00     0.023 A 
ATOM     65  C   UNL A   1      43.528  32.842  33.703  1.00  0.00     0.012 A 
ATOM     66  C   UNL A   1      42.292  31.448  35.267  1.00  0.00     0.148 A 
ATOM     67  C   UNL A   1      43.487  33.906  34.604  1.00  0.00     0.002 A 
ATOM     68  C   UNL A   1      42.212  32.527  36.140  1.00  0.00     0.091 A 
ATOM     69  F   UNL A   1      41.765  30.253  35.569  1.00  0.00    -0.205 F 
ATOM     70  C   UNL A   1      42.820  33.752  35.816  1.00  0.00     0.022 A 
BRANCH  68  71
ATOM     71  S   UNL A   1      41.304  32.458  37.688  1.00  0.00     0.127 S 
ATOM     72  O   UNL A   1      40.051  31.834  37.267  1.00  0.00    -0.237 OA
ATOM     73  O   UNL A   1      42.165  31.604  38.508  1.00  0.00    -0.237 OA
ATOM     74  O   UNL A   1      41.192  33.833  38.152  1.00  0.00    -0.744 OA
ENDBRANCH  68  71
ENDBRANCH  50  64
BRANCH  51  75
ATOM     75  C   UNL A   1      42.988  24.546  26.961  1.00  0.00     0.023 A 
ATOM     76  C   UNL A   1      43.603  24.862  25.734  1.00  0.00     0.012 A 
ATOM     77  C   UNL A   1      42.437  23.262  27.141  1.00  0.00     0.148 A 
ATOM     78  C   UNL A   1      43.634  23.933  24.692  1.00  0.00     0.002 A 
ATOM     79  C   UNL A   1      42.524  22.321  26.122  1.00  0.00     0.091 A 
ATOM     80  F   UNL A   1      41.850  22.982  28.313  1.00  0.00    -0.205 F 
ATOM     81  C   UNL A   1      43.104  22.662  24.890  1.00  0.00     0.022 A 
BRANCH  79  82
ATOM     82  S   UNL A   1      41.990  20.620  26.335  1.00  0.00     0.127 S 
ATOM     83  O   UNL A   1      42.273  20.392  27.750  1.00  0.00    -0.237 OA
ATOM     84  O   UNL A   1      40.569  20.707  25.998  1.00  0.00    -0.237 OA
ATOM     85  O   UNL A   1      42.781  19.836  25.397  1.00  0.00    -0.744 OA
ENDBRANCH  79  82
ENDBRANCH  51  75
BRANCH  63  86
ATOM     86  C   UNL A   1      47.437  26.315  32.044  1.00  0.00     0.023 A 
ATOM     87  C   UNL A   1      48.617  26.805  31.450  1.00  0.00     0.012 A 
ATOM     88  C   UNL A   1      47.529  25.370  33.086  1.00  0.00     0.148 A 
ATOM     89  C   UNL A   1      49.865  26.336  31.860  1.00  0.00     0.002 A 
ATOM     90  C   UNL A   1      48.776  24.948  33.527  1.00  0.00     0.091 A 
ATOM     91  F   UNL A   1      46.394  24.904  33.627  1.00  0.00    -0.205 F 
ATOM     92  C   UNL A   1      49.945  25.419  32.906  1.00  0.00     0.022 A 
BRANCH  90  93
ATOM     93  S   UNL A   1      48.982  23.847  34.930  1.00  0.00     0.127 S 
ATOM     94  O   UNL A   1      48.329  24.600  36.000  1.00  0.00    -0.237 OA
ATOM     95  O   UNL A   1      48.258  22.652  34.494  1.00  0.00    -0.237 OA
ATOM     96  O   UNL A   1      50.418  23.659  35.088  1.00  0.00    -0.744 OA
ENDBRANCH  90  93
ENDBRANCH  63  86
ENDBRANCH  37  38
ENDBRANCH  29  32
ENDBRANCH  27  28
ENDBRANCH  26  27
ENDBRANCH  25  26
ENDBRANCH   1  25
TORSDOF 20
ENDMDL
