MODEL 1
REMARK VINA RESULT:     -11.4      0.000      0.000
REMARK SMILES C[C@@H](C(=O)NCCCCCCNC(=O)c1ccc(-c2c3nc(c(-c4cccc(S(=O)(=O)[O-])c4F)c4ccc([nH]4)c(-c4cccc(S(=O)(=O)[O-])c4F)c4nc(c(-c5cccc(S(=O)(=O)[O-])c5F)c5ccc2[nH]5)C=C4)C=C3)cc1)c1ccc(-c2cccc(OC(=O)NC3CC3)c2)c(F)c1
REMARK SMILES IDX 7 1 6 2 5 3 3 4 4 5 2 7 1 8 78 9 79 10 97 11 80 12 95 13
REMARK SMILES IDX 81 14 96 15 82 16 83 17 94 18 84 19 86 20 85 21 87 22 88 23
REMARK SMILES IDX 89 24 90 25 91 27 92 28 93 29 8 30 9 31 10 32 11 33 12 34
REMARK SMILES IDX 13 35 14 37 15 38 16 39 77 40 17 41 76 42 18 43 19 44 20 45
REMARK SMILES IDX 70 46 21 47 75 48 69 49 71 50 22 51 74 52 68 53 67 54 23 56
REMARK SMILES IDX 55 57 35 58 54 59 36 60 39 61 53 62 72 63 37 64 38 65 52 67
REMARK SMILES IDX 73 68 40 69 24 70 25 71 33 72 26 73 28 74 34 75 27 76 29 77
REMARK SMILES IDX 30 78 31 79 32 80 56 81 57 82 65 83 58 84 60 85 66 86 59 87
REMARK SMILES IDX 61 88 62 89 63 90 64 91 41 92 42 93 50 94 43 95 45 96 51 97
REMARK SMILES IDX 44 98 46 99 47 100 48 101 49 102
REMARK H PARENT 5 6 90 26 12 36 71 55 39 66
REMARK Flexibility Score: inf
ROOT
ATOM      1  C   UNL A   1      33.028  22.584  22.948  1.00  0.00     0.021 C 
ENDROOT
BRANCH   1   2
ATOM      2  C   UNL A   1      32.002  23.596  23.460  1.00  0.00     0.116 C 
BRANCH   2   3
ATOM      3  N   UNL A   1      31.986  24.755  22.595  1.00  0.00    -0.356 N 
ATOM      4  C   UNL A   1      31.278  25.910  22.709  1.00  0.00     0.227 C 
ATOM      5  O   UNL A   1      31.295  26.663  21.732  1.00  0.00    -0.274 OA
ATOM      6  H   UNL A   1      32.576  24.700  21.809  1.00  0.00     0.163 HD
BRANCH   4   7
ATOM      7  C   UNL A   1      30.565  26.241  24.031  1.00  0.00     0.105 C 
ATOM      8  C   UNL A   1      29.131  26.751  23.854  1.00  0.00     0.023 C 
BRANCH   7   9
ATOM      9  C   UNL A   1      31.347  27.259  24.849  1.00  0.00    -0.033 A 
ATOM     10  C   UNL A   1      32.080  28.273  24.218  1.00  0.00     0.005 A 
ATOM     11  C   UNL A   1      31.368  27.173  26.248  1.00  0.00     0.044 A 
ATOM     12  C   UNL A   1      32.853  29.158  24.975  1.00  0.00     0.012 A 
ATOM     13  C   UNL A   1      32.132  28.058  26.990  1.00  0.00     0.131 A 
ATOM     14  C   UNL A   1      32.910  29.046  26.372  1.00  0.00     0.018 A 
ATOM     15  F   UNL A   1      32.140  27.923  28.326  1.00  0.00    -0.206 F 
BRANCH  14  16
ATOM     16  C   UNL A   1      33.840  29.857  27.158  1.00  0.00    -0.012 A 
ATOM     17  C   UNL A   1      35.134  29.423  27.473  1.00  0.00     0.009 A 
ATOM     18  C   UNL A   1      33.411  31.109  27.627  1.00  0.00     0.056 A 
ATOM     19  C   UNL A   1      35.984  30.230  28.233  1.00  0.00     0.004 A 
ATOM     20  C   UNL A   1      34.255  31.910  28.382  1.00  0.00     0.133 A 
ATOM     21  C   UNL A   1      35.544  31.474  28.688  1.00  0.00     0.047 A 
BRANCH  20  22
ATOM     22  O   UNL A   1      33.892  33.180  28.891  1.00  0.00    -0.410 OA
BRANCH  22  23
ATOM     23  C   UNL A   1      34.191  34.412  28.314  1.00  0.00     0.412 C 
ATOM     24  O   UNL A   1      34.779  34.600  27.253  1.00  0.00    -0.224 OA
ATOM     25  N   UNL A   1      33.774  35.488  29.053  1.00  0.00    -0.318 N 
ATOM     26  H   UNL A   1      34.011  36.368  28.680  1.00  0.00     0.167 HD
BRANCH  25  27
ATOM     27  C   UNL A   1      33.053  35.525  30.279  1.00  0.00     0.085 C 
ATOM     28  C   UNL A   1      33.608  35.321  31.659  1.00  0.00     0.027 C 
ATOM     29  C   UNL A   1      33.265  36.702  31.197  1.00  0.00     0.027 C 
ENDBRANCH  25  27
ENDBRANCH  22  23
ENDBRANCH  20  22
ENDBRANCH  14  16
ENDBRANCH   7   9
ENDBRANCH   4   7
ENDBRANCH   2   3
ENDBRANCH   1   2
BRANCH   1  30
ATOM     30  C   UNL A   1      33.672  21.749  24.064  1.00  0.00     0.002 C 
BRANCH  30  31
ATOM     31  C   UNL A   1      35.113  22.143  24.402  1.00  0.00     0.002 C 
BRANCH  31  32
ATOM     32  C   UNL A   1      35.251  23.018  25.649  1.00  0.00     0.021 C 
BRANCH  32  33
ATOM     33  C   UNL A   1      36.688  23.394  25.984  1.00  0.00     0.116 C 
BRANCH  33  34
ATOM     34  N   UNL A   1      37.525  22.216  26.146  1.00  0.00    -0.352 N 
ATOM     35  C   UNL A   1      38.881  22.140  26.324  1.00  0.00     0.251 C 
ATOM     36  H   UNL A   1      37.051  21.353  26.125  1.00  0.00     0.163 HD
ATOM     37  O   UNL A   1      39.455  21.061  26.210  1.00  0.00    -0.269 OA
BRANCH  35  38
ATOM     38  C   UNL A   1      39.647  23.364  26.645  1.00  0.00     0.039 A 
ATOM     39  C   UNL A   1      39.597  24.444  25.762  1.00  0.00     0.014 A 
ATOM     40  C   UNL A   1      40.430  23.436  27.801  1.00  0.00     0.014 A 
ATOM     41  C   UNL A   1      40.313  25.606  26.052  1.00  0.00     0.010 A 
ATOM     42  C   UNL A   1      41.069  24.626  28.133  1.00  0.00     0.010 A 
ATOM     43  C   UNL A   1      41.044  25.712  27.246  1.00  0.00    -0.014 A 
BRANCH  43  44
ATOM     44  C   UNL A   1      41.816  26.940  27.565  1.00  0.00     0.031 A 
ATOM     45  C   UNL A   1      43.242  27.078  27.099  1.00  0.00     0.074 A 
ATOM     46  C   UNL A   1      41.253  27.907  28.315  1.00  0.00     0.049 A 
ATOM     47  N   UNL A   1      44.074  28.071  27.276  1.00  0.00    -0.248 NA
ATOM     48  C   UNL A   1      43.820  25.940  26.363  1.00  0.00     0.031 C 
ATOM     49  C   UNL A   1      39.906  27.859  28.887  1.00  0.00     0.029 A 
ATOM     50  N   UNL A   1      41.750  29.114  28.738  1.00  0.00    -0.354 N 
ATOM     51  C   UNL A   1      45.279  27.664  26.714  1.00  0.00     0.074 A 
ATOM     52  C   UNL A   1      45.082  26.319  26.223  1.00  0.00     0.031 C 
ATOM     53  C   UNL A   1      39.676  28.995  29.566  1.00  0.00     0.029 A 
ATOM     54  C   UNL A   1      40.867  29.835  29.506  1.00  0.00     0.049 A 
ATOM     55  H   UNL A   1      42.653  29.434  28.513  1.00  0.00     0.167 HD
ATOM     56  C   UNL A   1      46.437  28.355  26.592  1.00  0.00     0.034 A 
ATOM     57  C   UNL A   1      41.001  31.039  30.095  1.00  0.00     0.034 A 
ATOM     58  C   UNL A   1      46.613  29.708  27.045  1.00  0.00     0.049 A 
ATOM     59  C   UNL A   1      42.286  31.802  29.910  1.00  0.00     0.074 A 
ATOM     60  C   UNL A   1      47.713  30.531  26.883  1.00  0.00     0.029 A 
ATOM     61  N   UNL A   1      45.673  30.431  27.762  1.00  0.00    -0.354 N 
ATOM     62  N   UNL A   1      43.359  31.464  29.236  1.00  0.00    -0.248 NA
ATOM     63  C   UNL A   1      42.362  33.130  30.535  1.00  0.00     0.031 C 
ATOM     64  C   UNL A   1      47.454  31.739  27.540  1.00  0.00     0.029 A 
ATOM     65  C   UNL A   1      46.173  31.685  28.068  1.00  0.00     0.049 A 
ATOM     66  H   UNL A   1      44.782  30.101  28.018  1.00  0.00     0.167 HD
ATOM     67  C   UNL A   1      44.217  32.555  29.315  1.00  0.00     0.074 A 
ATOM     68  C   UNL A   1      43.531  33.569  30.090  1.00  0.00     0.031 C 
ATOM     69  C   UNL A   1      45.462  32.703  28.798  1.00  0.00     0.034 A 
BRANCH  56  70
ATOM     70  C   UNL A   1      47.597  27.668  25.917  1.00  0.00     0.023 A 
ATOM     71  C   UNL A   1      47.790  27.812  24.528  1.00  0.00     0.012 A 
ATOM     72  C   UNL A   1      48.524  26.921  26.669  1.00  0.00     0.148 A 
ATOM     73  C   UNL A   1      48.862  27.188  23.890  1.00  0.00     0.002 A 
ATOM     74  C   UNL A   1      49.619  26.345  26.035  1.00  0.00     0.091 A 
ATOM     75  F   UNL A   1      48.313  26.777  27.985  1.00  0.00    -0.205 F 
ATOM     76  C   UNL A   1      49.782  26.464  24.645  1.00  0.00     0.022 A 
BRANCH  74  77
ATOM     77  S   UNL A   1      50.904  25.468  26.931  1.00  0.00     0.127 S 
ATOM     78  O   UNL A   1      50.128  24.454  27.644  1.00  0.00    -0.237 OA
ATOM     79  O   UNL A   1      51.734  24.947  25.845  1.00  0.00    -0.237 OA
ATOM     80  O   UNL A   1      51.557  26.459  27.773  1.00  0.00    -0.744 OA
ENDBRANCH  74  77
ENDBRANCH  56  70
BRANCH  57  81
ATOM     81  C   UNL A   1      39.864  31.634  30.853  1.00  0.00     0.023 A 
ATOM     82  C   UNL A   1      38.925  32.437  30.176  1.00  0.00     0.012 A 
ATOM     83  C   UNL A   1      39.700  31.401  32.232  1.00  0.00     0.148 A 
ATOM     84  C   UNL A   1      37.867  33.029  30.865  1.00  0.00     0.002 A 
ATOM     85  C   UNL A   1      38.612  31.948  32.901  1.00  0.00     0.091 A 
ATOM     86  F   UNL A   1      40.608  30.639  32.859  1.00  0.00    -0.205 F 
ATOM     87  C   UNL A   1      37.705  32.778  32.224  1.00  0.00     0.022 A 
BRANCH  85  88
ATOM     88  S   UNL A   1      38.252  31.578  34.622  1.00  0.00     0.127 S 
ATOM     89  O   UNL A   1      38.155  30.121  34.600  1.00  0.00    -0.237 OA
ATOM     90  O   UNL A   1      39.439  32.108  35.296  1.00  0.00    -0.237 OA
ATOM     91  O   UNL A   1      37.019  32.288  34.929  1.00  0.00    -0.744 OA
ENDBRANCH  85  88
ENDBRANCH  57  81
BRANCH  69  92
ATOM     92  C   UNL A   1      46.150  34.029  28.999  1.00  0.00     0.023 A 
ATOM     93  C   UNL A   1      47.033  34.216  30.080  1.00  0.00     0.012 A 
ATOM     94  C   UNL A   1      45.962  35.073  28.071  1.00  0.00     0.148 A 
ATOM     95  C   UNL A   1      47.684  35.436  30.260  1.00  0.00     0.002 A 
ATOM     96  C   UNL A   1      46.658  36.265  28.224  1.00  0.00     0.091 A 
ATOM     97  F   UNL A   1      45.104  34.883  27.059  1.00  0.00    -0.205 F 
ATOM     98  C   UNL A   1      47.506  36.456  29.327  1.00  0.00     0.022 A 
BRANCH  96  99
ATOM     99  S   UNL A   1      46.571  37.591  27.015  1.00  0.00     0.127 S 
ATOM    100  O   UNL A   1      47.347  38.643  27.670  1.00  0.00    -0.237 OA
ATOM    101  O   UNL A   1      47.218  36.990  25.849  1.00  0.00    -0.237 OA
ATOM    102  O   UNL A   1      45.154  37.879  26.837  1.00  0.00    -0.744 OA
ENDBRANCH  96  99
ENDBRANCH  69  92
ENDBRANCH  43  44
ENDBRANCH  35  38
ENDBRANCH  33  34
ENDBRANCH  32  33
ENDBRANCH  31  32
ENDBRANCH  30  31
ENDBRANCH   1  30
TORSDOF 21
ENDMDL
MODEL 2
REMARK VINA RESULT:     -10.7      4.256      9.263
REMARK SMILES C[C@@H](C(=O)NCCCCCCNC(=O)c1ccc(-c2c3nc(c(-c4cccc(S(=O)(=O)[O-])c4F)c4ccc([nH]4)c(-c4cccc(S(=O)(=O)[O-])c4F)c4nc(c(-c5cccc(S(=O)(=O)[O-])c5F)c5ccc2[nH]5)C=C4)C=C3)cc1)c1ccc(-c2cccc(OC(=O)NC3CC3)c2)c(F)c1
REMARK SMILES IDX 7 1 6 2 5 3 3 4 4 5 2 7 1 8 78 9 79 10 97 11 80 12 95 13
REMARK SMILES IDX 81 14 96 15 82 16 83 17 94 18 84 19 86 20 85 21 87 22 88 23
REMARK SMILES IDX 89 24 90 25 91 27 92 28 93 29 8 30 9 31 10 32 11 33 12 34
REMARK SMILES IDX 13 35 14 37 15 38 16 39 77 40 17 41 76 42 18 43 19 44 20 45
REMARK SMILES IDX 70 46 21 47 75 48 69 49 71 50 22 51 74 52 68 53 67 54 23 56
REMARK SMILES IDX 55 57 35 58 54 59 36 60 39 61 53 62 72 63 37 64 38 65 52 67
REMARK SMILES IDX 73 68 40 69 24 70 25 71 33 72 26 73 28 74 34 75 27 76 29 77
REMARK SMILES IDX 30 78 31 79 32 80 56 81 57 82 65 83 58 84 60 85 66 86 59 87
REMARK SMILES IDX 61 88 62 89 63 90 64 91 41 92 42 93 50 94 43 95 45 96 51 97
REMARK SMILES IDX 44 98 46 99 47 100 48 101 49 102
REMARK H PARENT 5 6 90 26 12 36 71 55 39 66
REMARK Flexibility Score: inf
ROOT
ATOM      1  C   UNL A   1      44.227  23.501  29.025  1.00  0.00     0.021 C 
ENDROOT
BRANCH   1   2
ATOM      2  C   UNL A   1      42.889  24.205  28.792  1.00  0.00     0.116 C 
BRANCH   2   3
ATOM      3  N   UNL A   1      41.881  23.233  28.433  1.00  0.00    -0.356 N 
ATOM      4  C   UNL A   1      40.880  23.321  27.517  1.00  0.00     0.227 C 
ATOM      5  O   UNL A   1      40.032  22.425  27.541  1.00  0.00    -0.274 OA
ATOM      6  H   UNL A   1      41.927  22.381  28.924  1.00  0.00     0.163 HD
BRANCH   4   7
ATOM      7  C   UNL A   1      40.888  24.462  26.486  1.00  0.00     0.105 C 
ATOM      8  C   UNL A   1      42.233  24.647  25.774  1.00  0.00     0.023 C 
BRANCH   7   9
ATOM      9  C   UNL A   1      40.483  25.787  27.114  1.00  0.00    -0.033 A 
ATOM     10  C   UNL A   1      39.707  25.819  28.281  1.00  0.00     0.005 A 
ATOM     11  C   UNL A   1      40.856  26.997  26.512  1.00  0.00     0.044 A 
ATOM     12  C   UNL A   1      39.279  27.040  28.809  1.00  0.00     0.012 A 
ATOM     13  C   UNL A   1      40.432  28.202  27.046  1.00  0.00     0.131 A 
ATOM     14  C   UNL A   1      39.615  28.249  28.183  1.00  0.00     0.018 A 
ATOM     15  F   UNL A   1      40.794  29.334  26.421  1.00  0.00    -0.206 F 
BRANCH  14  16
ATOM     16  C   UNL A   1      39.037  29.517  28.629  1.00  0.00    -0.012 A 
ATOM     17  C   UNL A   1      39.587  30.266  29.677  1.00  0.00     0.009 A 
ATOM     18  C   UNL A   1      37.879  29.991  27.992  1.00  0.00     0.056 A 
ATOM     19  C   UNL A   1      38.995  31.468  30.072  1.00  0.00     0.004 A 
ATOM     20  C   UNL A   1      37.292  31.184  28.384  1.00  0.00     0.133 A 
ATOM     21  C   UNL A   1      37.846  31.927  29.425  1.00  0.00     0.047 A 
BRANCH  20  22
ATOM     22  O   UNL A   1      36.124  31.722  27.792  1.00  0.00    -0.410 OA
BRANCH  22  23
ATOM     23  C   UNL A   1      34.819  31.281  27.999  1.00  0.00     0.412 C 
ATOM     24  O   UNL A   1      34.356  30.191  27.677  1.00  0.00    -0.224 OA
ATOM     25  N   UNL A   1      34.013  32.200  28.617  1.00  0.00    -0.318 N 
ATOM     26  H   UNL A   1      33.077  31.920  28.737  1.00  0.00     0.167 HD
BRANCH  25  27
ATOM     27  C   UNL A   1      34.325  33.498  29.110  1.00  0.00     0.085 C 
ATOM     28  C   UNL A   1      34.643  34.720  28.297  1.00  0.00     0.027 C 
ATOM     29  C   UNL A   1      33.299  34.590  28.943  1.00  0.00     0.027 C 
ENDBRANCH  25  27
ENDBRANCH  22  23
ENDBRANCH  20  22
ENDBRANCH  14  16
ENDBRANCH   7   9
ENDBRANCH   4   7
ENDBRANCH   2   3
ENDBRANCH   1   2
BRANCH   1  30
ATOM     30  C   UNL A   1      45.299  23.868  27.990  1.00  0.00     0.002 C 
BRANCH  30  31
ATOM     31  C   UNL A   1      45.328  22.960  26.757  1.00  0.00     0.002 C 
BRANCH  31  32
ATOM     32  C   UNL A   1      46.150  23.509  25.588  1.00  0.00     0.021 C 
BRANCH  32  33
ATOM     33  C   UNL A   1      47.213  24.518  26.000  1.00  0.00     0.116 C 
BRANCH  33  34
ATOM     34  N   UNL A   1      47.433  25.514  24.964  1.00  0.00    -0.352 N 
ATOM     35  C   UNL A   1      46.908  26.775  24.855  1.00  0.00     0.251 C 
ATOM     36  H   UNL A   1      48.045  25.246  24.241  1.00  0.00     0.163 HD
ATOM     37  O   UNL A   1      47.015  27.395  23.801  1.00  0.00    -0.269 OA
BRANCH  35  38
ATOM     38  C   UNL A   1      46.206  27.378  26.009  1.00  0.00     0.039 A 
ATOM     39  C   UNL A   1      44.817  27.263  26.091  1.00  0.00     0.014 A 
ATOM     40  C   UNL A   1      46.914  28.074  26.993  1.00  0.00     0.014 A 
ATOM     41  C   UNL A   1      44.142  27.826  27.174  1.00  0.00     0.010 A 
ATOM     42  C   UNL A   1      46.249  28.555  28.117  1.00  0.00     0.010 A 
ATOM     43  C   UNL A   1      44.853  28.464  28.203  1.00  0.00    -0.014 A 
BRANCH  43  44
ATOM     44  C   UNL A   1      44.147  29.073  29.359  1.00  0.00     0.031 A 
ATOM     45  C   UNL A   1      43.688  30.506  29.294  1.00  0.00     0.074 A 
ATOM     46  C   UNL A   1      43.964  28.355  30.483  1.00  0.00     0.049 A 
ATOM     47  N   UNL A   1      43.056  31.211  30.197  1.00  0.00    -0.248 NA
ATOM     48  C   UNL A   1      44.005  31.257  28.067  1.00  0.00     0.031 C 
ATOM     49  C   UNL A   1      44.427  26.982  30.696  1.00  0.00     0.029 A 
ATOM     50  N   UNL A   1      43.352  28.685  31.666  1.00  0.00    -0.354 N 
ATOM     51  C   UNL A   1      42.938  32.491  29.667  1.00  0.00     0.074 A 
ATOM     52  C   UNL A   1      43.595  32.477  28.381  1.00  0.00     0.031 C 
ATOM     53  C   UNL A   1      44.062  26.580  31.925  1.00  0.00     0.029 A 
ATOM     54  C   UNL A   1      43.370  27.674  32.599  1.00  0.00     0.049 A 
ATOM     55  H   UNL A   1      42.938  29.563  31.832  1.00  0.00     0.167 HD
ATOM     56  C   UNL A   1      42.315  33.573  30.190  1.00  0.00     0.034 A 
ATOM     57  C   UNL A   1      42.884  27.634  33.854  1.00  0.00     0.034 A 
ATOM     58  C   UNL A   1      41.625  33.568  31.451  1.00  0.00     0.049 A 
ATOM     59  C   UNL A   1      42.162  28.839  34.395  1.00  0.00     0.074 A 
ATOM     60  C   UNL A   1      40.880  34.581  32.027  1.00  0.00     0.029 A 
ATOM     61  N   UNL A   1      41.609  32.505  32.340  1.00  0.00    -0.354 N 
ATOM     62  N   UNL A   1      41.920  29.989  33.813  1.00  0.00    -0.248 NA
ATOM     63  C   UNL A   1      41.610  28.725  35.753  1.00  0.00     0.031 C 
ATOM     64  C   UNL A   1      40.448  34.145  33.284  1.00  0.00     0.029 A 
ATOM     65  C   UNL A   1      40.883  32.842  33.469  1.00  0.00     0.049 A 
ATOM     66  H   UNL A   1      42.051  31.638  32.192  1.00  0.00     0.167 HD
ATOM     67  C   UNL A   1      41.149  30.716  34.713  1.00  0.00     0.074 A 
ATOM     68  C   UNL A   1      40.951  29.869  35.872  1.00  0.00     0.031 C 
ATOM     69  C   UNL A   1      40.653  31.973  34.594  1.00  0.00     0.034 A 
BRANCH  56  70
ATOM     70  C   UNL A   1      42.326  34.847  29.385  1.00  0.00     0.023 A 
ATOM     71  C   UNL A   1      41.363  35.053  28.375  1.00  0.00     0.012 A 
ATOM     72  C   UNL A   1      43.261  35.863  29.662  1.00  0.00     0.148 A 
ATOM     73  C   UNL A   1      41.357  36.229  27.626  1.00  0.00     0.002 A 
ATOM     74  C   UNL A   1      43.215  37.055  28.948  1.00  0.00     0.091 A 
ATOM     75  F   UNL A   1      44.182  35.644  30.611  1.00  0.00    -0.205 F 
ATOM     76  C   UNL A   1      42.276  37.233  27.919  1.00  0.00     0.022 A 
BRANCH  74  77
ATOM     77  S   UNL A   1      44.298  38.441  29.309  1.00  0.00     0.127 S 
ATOM     78  O   UNL A   1      45.534  38.032  28.643  1.00  0.00    -0.237 OA
ATOM     79  O   UNL A   1      43.598  39.552  28.663  1.00  0.00    -0.237 OA
ATOM     80  O   UNL A   1      44.371  38.529  30.760  1.00  0.00    -0.744 OA
ENDBRANCH  74  77
ENDBRANCH  56  70
BRANCH  57  81
ATOM     81  C   UNL A   1      42.995  26.386  34.661  1.00  0.00     0.023 A 
ATOM     82  C   UNL A   1      41.896  25.508  34.734  1.00  0.00     0.012 A 
ATOM     83  C   UNL A   1      44.182  26.059  35.344  1.00  0.00     0.148 A 
ATOM     84  C   UNL A   1      41.963  24.347  35.504  1.00  0.00     0.002 A 
ATOM     85  C   UNL A   1      44.261  24.872  36.063  1.00  0.00     0.091 A 
ATOM     86  F   UNL A   1      45.214  26.910  35.266  1.00  0.00    -0.205 F 
ATOM     87  C   UNL A   1      43.146  24.024  36.161  1.00  0.00     0.022 A 
BRANCH  85  88
ATOM     88  S   UNL A   1      45.782  24.313  36.838  1.00  0.00     0.127 S 
ATOM     89  O   UNL A   1      46.697  24.266  35.701  1.00  0.00    -0.237 OA
ATOM     90  O   UNL A   1      46.042  25.388  37.797  1.00  0.00    -0.237 OA
ATOM     91  O   UNL A   1      45.467  23.028  37.447  1.00  0.00    -0.744 OA
ENDBRANCH  85  88
ENDBRANCH  57  81
BRANCH  69  92
ATOM     92  C   UNL A   1      39.797  32.496  35.719  1.00  0.00     0.023 A 
ATOM     93  C   UNL A   1      38.395  32.368  35.666  1.00  0.00     0.012 A 
ATOM     94  C   UNL A   1      40.396  33.060  36.863  1.00  0.00     0.148 A 
ATOM     95  C   UNL A   1      37.600  32.835  36.712  1.00  0.00     0.002 A 
ATOM     96  C   UNL A   1      39.602  33.470  37.926  1.00  0.00     0.091 A 
ATOM     97  F   UNL A   1      41.730  33.190  36.889  1.00  0.00    -0.205 F 
ATOM     98  C   UNL A   1      38.203  33.375  37.846  1.00  0.00     0.022 A 
BRANCH  96  99
ATOM     99  S   UNL A   1      40.297  34.079  39.467  1.00  0.00     0.127 S 
ATOM    100  O   UNL A   1      40.847  35.370  39.056  1.00  0.00    -0.237 OA
ATOM    101  O   UNL A   1      39.117  34.164  40.327  1.00  0.00    -0.237 OA
ATOM    102  O   UNL A   1      41.278  33.086  39.885  1.00  0.00    -0.744 OA
ENDBRANCH  96  99
ENDBRANCH  69  92
ENDBRANCH  43  44
ENDBRANCH  35  38
ENDBRANCH  33  34
ENDBRANCH  32  33
ENDBRANCH  31  32
ENDBRANCH  30  31
ENDBRANCH   1  30
TORSDOF 21
ENDMDL
MODEL 3
REMARK VINA RESULT:     -10.4      4.235      8.634
REMARK SMILES C[C@@H](C(=O)NCCCCCCNC(=O)c1ccc(-c2c3nc(c(-c4cccc(S(=O)(=O)[O-])c4F)c4ccc([nH]4)c(-c4cccc(S(=O)(=O)[O-])c4F)c4nc(c(-c5cccc(S(=O)(=O)[O-])c5F)c5ccc2[nH]5)C=C4)C=C3)cc1)c1ccc(-c2cccc(OC(=O)NC3CC3)c2)c(F)c1
REMARK SMILES IDX 7 1 6 2 5 3 3 4 4 5 2 7 1 8 78 9 79 10 97 11 80 12 95 13
REMARK SMILES IDX 81 14 96 15 82 16 83 17 94 18 84 19 86 20 85 21 87 22 88 23
REMARK SMILES IDX 89 24 90 25 91 27 92 28 93 29 8 30 9 31 10 32 11 33 12 34
REMARK SMILES IDX 13 35 14 37 15 38 16 39 77 40 17 41 76 42 18 43 19 44 20 45
REMARK SMILES IDX 70 46 21 47 75 48 69 49 71 50 22 51 74 52 68 53 67 54 23 56
REMARK SMILES IDX 55 57 35 58 54 59 36 60 39 61 53 62 72 63 37 64 38 65 52 67
REMARK SMILES IDX 73 68 40 69 24 70 25 71 33 72 26 73 28 74 34 75 27 76 29 77
REMARK SMILES IDX 30 78 31 79 32 80 56 81 57 82 65 83 58 84 60 85 66 86 59 87
REMARK SMILES IDX 61 88 62 89 63 90 64 91 41 92 42 93 50 94 43 95 45 96 51 97
REMARK SMILES IDX 44 98 46 99 47 100 48 101 49 102
REMARK H PARENT 5 6 90 26 12 36 71 55 39 66
REMARK Flexibility Score: inf
ROOT
ATOM      1  C   UNL A   1      44.234  23.699  28.837  1.00  0.00     0.021 C 
ENDROOT
BRANCH   1   2
ATOM      2  C   UNL A   1      42.937  24.467  28.575  1.00  0.00     0.116 C 
BRANCH   2   3
ATOM      3  N   UNL A   1      41.890  23.544  28.199  1.00  0.00    -0.356 N 
ATOM      4  C   UNL A   1      40.915  23.675  27.261  1.00  0.00     0.227 C 
ATOM      5  O   UNL A   1      40.023  22.823  27.272  1.00  0.00    -0.274 OA
ATOM      6  H   UNL A   1      41.883  22.693  28.696  1.00  0.00     0.163 HD
BRANCH   4   7
ATOM      7  C   UNL A   1      41.002  24.807  26.224  1.00  0.00     0.105 C 
ATOM      8  C   UNL A   1      42.409  25.022  25.654  1.00  0.00     0.023 C 
BRANCH   7   9
ATOM      9  C   UNL A   1      40.500  26.127  26.792  1.00  0.00    -0.033 A 
ATOM     10  C   UNL A   1      41.015  27.346  26.334  1.00  0.00     0.005 A 
ATOM     11  C   UNL A   1      39.535  26.134  27.809  1.00  0.00     0.044 A 
ATOM     12  C   UNL A   1      40.599  28.549  26.913  1.00  0.00     0.012 A 
ATOM     13  C   UNL A   1      39.124  27.331  28.373  1.00  0.00     0.131 A 
ATOM     14  C   UNL A   1      39.666  28.555  27.960  1.00  0.00     0.018 A 
ATOM     15  F   UNL A   1      38.215  27.287  29.360  1.00  0.00    -0.206 F 
BRANCH  14  16
ATOM     16  C   UNL A   1      39.349  29.787  28.683  1.00  0.00    -0.012 A 
ATOM     17  C   UNL A   1      40.209  30.339  29.642  1.00  0.00     0.009 A 
ATOM     18  C   UNL A   1      38.129  30.430  28.416  1.00  0.00     0.056 A 
ATOM     19  C   UNL A   1      39.859  31.513  30.311  1.00  0.00     0.004 A 
ATOM     20  C   UNL A   1      37.783  31.597  29.080  1.00  0.00     0.133 A 
ATOM     21  C   UNL A   1      38.645  32.143  30.030  1.00  0.00     0.047 A 
BRANCH  20  22
ATOM     22  O   UNL A   1      36.571  32.298  28.867  1.00  0.00    -0.410 OA
BRANCH  22  23
ATOM     23  C   UNL A   1      35.288  31.761  28.938  1.00  0.00     0.412 C 
ATOM     24  O   UNL A   1      34.735  31.072  28.086  1.00  0.00    -0.224 OA
ATOM     25  N   UNL A   1      34.617  32.077  30.090  1.00  0.00    -0.318 N 
ATOM     26  H   UNL A   1      33.694  31.738  30.141  1.00  0.00     0.167 HD
BRANCH  25  27
ATOM     27  C   UNL A   1      35.053  32.820  31.222  1.00  0.00     0.085 C 
ATOM     28  C   UNL A   1      34.501  32.746  32.617  1.00  0.00     0.027 C 
ATOM     29  C   UNL A   1      35.811  32.095  32.304  1.00  0.00     0.027 C 
ENDBRANCH  25  27
ENDBRANCH  22  23
ENDBRANCH  20  22
ENDBRANCH  14  16
ENDBRANCH   7   9
ENDBRANCH   4   7
ENDBRANCH   2   3
ENDBRANCH   1   2
BRANCH   1  30
ATOM     30  C   UNL A   1      45.316  23.946  27.775  1.00  0.00     0.002 C 
BRANCH  30  31
ATOM     31  C   UNL A   1      45.224  23.031  26.550  1.00  0.00     0.002 C 
BRANCH  31  32
ATOM     32  C   UNL A   1      45.961  23.555  25.316  1.00  0.00     0.021 C 
BRANCH  32  33
ATOM     33  C   UNL A   1      47.263  24.277  25.632  1.00  0.00     0.116 C 
BRANCH  33  34
ATOM     34  N   UNL A   1      47.565  25.295  24.639  1.00  0.00    -0.352 N 
ATOM     35  C   UNL A   1      47.174  26.608  24.604  1.00  0.00     0.251 C 
ATOM     36  H   UNL A   1      48.128  25.000  23.887  1.00  0.00     0.163 HD
ATOM     37  O   UNL A   1      47.323  27.265  23.578  1.00  0.00    -0.269 OA
BRANCH  35  38
ATOM     38  C   UNL A   1      46.567  27.223  25.804  1.00  0.00     0.039 A 
ATOM     39  C   UNL A   1      45.180  27.172  25.962  1.00  0.00     0.014 A 
ATOM     40  C   UNL A   1      47.360  27.867  26.758  1.00  0.00     0.014 A 
ATOM     41  C   UNL A   1      44.593  27.747  27.089  1.00  0.00     0.010 A 
ATOM     42  C   UNL A   1      46.782  28.359  27.924  1.00  0.00     0.010 A 
ATOM     43  C   UNL A   1      45.390  28.333  28.086  1.00  0.00    -0.014 A 
BRANCH  43  44
ATOM     44  C   UNL A   1      44.777  28.954  29.288  1.00  0.00     0.031 A 
ATOM     45  C   UNL A   1      44.585  28.143  30.542  1.00  0.00     0.074 A 
ATOM     46  C   UNL A   1      44.349  30.229  29.235  1.00  0.00     0.049 A 
ATOM     47  N   UNL A   1      44.072  28.507  31.689  1.00  0.00    -0.248 NA
ATOM     48  C   UNL A   1      44.993  26.728  30.496  1.00  0.00     0.031 C 
ATOM     49  C   UNL A   1      44.412  31.097  28.057  1.00  0.00     0.029 A 
ATOM     50  N   UNL A   1      43.760  31.016  30.194  1.00  0.00    -0.354 N 
ATOM     51  C   UNL A   1      44.058  27.365  32.481  1.00  0.00     0.074 A 
ATOM     52  C   UNL A   1      44.578  26.285  31.674  1.00  0.00     0.031 C 
ATOM     53  C   UNL A   1      43.905  32.301  28.369  1.00  0.00     0.029 A 
ATOM     54  C   UNL A   1      43.451  32.282  29.756  1.00  0.00     0.049 A 
ATOM     55  H   UNL A   1      43.576  30.703  31.109  1.00  0.00     0.167 HD
ATOM     56  C   UNL A   1      43.673  27.230  33.772  1.00  0.00     0.034 A 
ATOM     57  C   UNL A   1      42.869  33.312  30.399  1.00  0.00     0.034 A 
ATOM     58  C   UNL A   1      43.197  28.316  34.584  1.00  0.00     0.049 A 
ATOM     59  C   UNL A   1      42.488  33.146  31.846  1.00  0.00     0.074 A 
ATOM     60  C   UNL A   1      42.874  28.307  35.929  1.00  0.00     0.029 A 
ATOM     61  N   UNL A   1      42.959  29.602  34.123  1.00  0.00    -0.354 N 
ATOM     62  N   UNL A   1      42.632  32.101  32.625  1.00  0.00    -0.248 NA
ATOM     63  C   UNL A   1      41.898  34.316  32.513  1.00  0.00     0.031 C 
ATOM     64  C   UNL A   1      42.400  29.578  36.272  1.00  0.00     0.029 A 
ATOM     65  C   UNL A   1      42.476  30.392  35.152  1.00  0.00     0.049 A 
ATOM     66  H   UNL A   1      43.110  29.909  33.200  1.00  0.00     0.167 HD
ATOM     67  C   UNL A   1      42.198  32.501  33.884  1.00  0.00     0.074 A 
ATOM     68  C   UNL A   1      41.800  33.889  33.765  1.00  0.00     0.031 C 
ATOM     69  C   UNL A   1      42.129  31.784  35.033  1.00  0.00     0.034 A 
BRANCH  56  70
ATOM     70  C   UNL A   1      43.779  25.862  34.397  1.00  0.00     0.023 A 
ATOM     71  C   UNL A   1      42.670  24.992  34.384  1.00  0.00     0.012 A 
ATOM     72  C   UNL A   1      44.995  25.421  34.955  1.00  0.00     0.148 A 
ATOM     73  C   UNL A   1      42.755  23.721  34.953  1.00  0.00     0.002 A 
ATOM     74  C   UNL A   1      45.088  24.134  35.473  1.00  0.00     0.091 A 
ATOM     75  F   UNL A   1      46.033  26.268  34.978  1.00  0.00    -0.205 F 
ATOM     76  C   UNL A   1      43.966  23.289  35.487  1.00  0.00     0.022 A 
BRANCH  74  77
ATOM     77  S   UNL A   1      46.626  23.454  36.104  1.00  0.00     0.127 S 
ATOM     78  O   UNL A   1      46.865  24.300  37.272  1.00  0.00    -0.237 OA
ATOM     79  O   UNL A   1      46.245  22.077  36.418  1.00  0.00    -0.237 OA
ATOM     80  O   UNL A   1      47.597  23.587  35.028  1.00  0.00    -0.744 OA
ENDBRANCH  74  77
ENDBRANCH  56  70
BRANCH  57  81
ATOM     81  C   UNL A   1      42.679  34.618  29.706  1.00  0.00     0.023 A 
ATOM     82  C   UNL A   1      41.512  34.835  28.947  1.00  0.00     0.012 A 
ATOM     83  C   UNL A   1      43.636  35.645  29.803  1.00  0.00     0.148 A 
ATOM     84  C   UNL A   1      41.321  36.037  28.265  1.00  0.00     0.002 A 
ATOM     85  C   UNL A   1      43.413  36.861  29.167  1.00  0.00     0.091 A 
ATOM     86  F   UNL A   1      44.742  35.416  30.525  1.00  0.00    -0.205 F 
ATOM     87  C   UNL A   1      42.266  37.051  28.381  1.00  0.00     0.022 A 
BRANCH  85  88
ATOM     88  S   UNL A   1      44.512  38.268  29.362  1.00  0.00     0.127 S 
ATOM     89  O   UNL A   1      43.890  39.256  28.485  1.00  0.00    -0.237 OA
ATOM     90  O   UNL A   1      44.389  38.548  30.794  1.00  0.00    -0.237 OA
ATOM     91  O   UNL A   1      45.829  37.801  28.951  1.00  0.00    -0.744 OA
ENDBRANCH  85  88
ENDBRANCH  57  81
BRANCH  69  92
ATOM     92  C   UNL A   1      41.660  32.498  36.275  1.00  0.00     0.023 A 
ATOM     93  C   UNL A   1      42.537  33.341  36.985  1.00  0.00     0.012 A 
ATOM     94  C   UNL A   1      40.322  32.377  36.699  1.00  0.00     0.148 A 
ATOM     95  C   UNL A   1      42.102  34.017  38.125  1.00  0.00     0.002 A 
ATOM     96  C   UNL A   1      39.880  33.098  37.802  1.00  0.00     0.091 A 
ATOM     97  F   UNL A   1      39.507  31.557  36.021  1.00  0.00    -0.205 F 
ATOM     98  C   UNL A   1      40.772  33.905  38.526  1.00  0.00     0.022 A 
BRANCH  96  99
ATOM     99  S   UNL A   1      38.162  33.097  38.326  1.00  0.00     0.127 S 
ATOM    100  O   UNL A   1      37.491  33.645  37.148  1.00  0.00    -0.237 OA
ATOM    101  O   UNL A   1      37.913  31.675  38.563  1.00  0.00    -0.237 OA
ATOM    102  O   UNL A   1      38.106  33.927  39.521  1.00  0.00    -0.744 OA
ENDBRANCH  96  99
ENDBRANCH  69  92
ENDBRANCH  43  44
ENDBRANCH  35  38
ENDBRANCH  33  34
ENDBRANCH  32  33
ENDBRANCH  31  32
ENDBRANCH  30  31
ENDBRANCH   1  30
TORSDOF 21
ENDMDL
