MODEL 1
REMARK VINA RESULT:     -10.9      0.000      0.000
REMARK SMILES O=C(CSC(=S)NC(=O)c1ccc([N+](=O)[O-])cc1)NCCCCCCNC(=O)c1ccc(-c2c3nc(c(-c4cccc(S(=O)(=O)[O-])c4F)c4ccc([nH]4)c(-c4cccc(S(=O)(=O)[O-])c4F)c4nc(c(-c5cccc(S(=O)(=O)[O-])c5F)c5ccc2[nH]5)C=C4)C=C3)cc1
REMARK SMILES IDX 21 1 20 2 19 3 1 4 2 5 3 7 4 8 5 9 6 10 7 11 8 12 9 14 10 15
REMARK SMILES IDX 11 16 18 17 12 18 17 19 13 20 14 21 15 22 16 23 22 24 23 25
REMARK SMILES IDX 24 26 25 27 26 28 27 29 28 31 29 32 30 33 91 34 31 35 90 36
REMARK SMILES IDX 32 37 33 38 34 39 84 40 35 41 89 42 83 43 85 44 36 45 88 46
REMARK SMILES IDX 82 47 81 48 37 50 69 51 49 52 68 53 50 54 53 55 67 56 86 57
REMARK SMILES IDX 51 58 52 59 66 61 87 62 54 63 38 64 39 65 47 66 40 67 42 68
REMARK SMILES IDX 48 69 41 70 43 71 44 72 45 73 46 74 70 75 71 76 79 77 72 78
REMARK SMILES IDX 74 79 80 80 73 81 75 82 76 83 77 84 78 85 55 86 56 87 64 88
REMARK SMILES IDX 57 89 59 90 65 91 58 92 60 93 61 94 62 95 63 96
REMARK H PARENT 19 6 7 13 26 30 85 49 53 60
REMARK Flexibility Score: inf
ROOT
ATOM      1  C   UNL A   1      31.482  28.166  26.789  1.00  0.00     0.021 C 
ENDROOT
BRANCH   1   2
ATOM      2  C   UNL A   1      32.141  26.793  26.891  1.00  0.00     0.116 C 
BRANCH   2   3
ATOM      3  N   UNL A   1      31.997  26.046  25.664  1.00  0.00    -0.355 N 
ATOM      4  O   UNL A   1      31.951  23.930  26.562  1.00  0.00    -0.274 OA
ATOM      5  C   UNL A   1      31.871  24.678  25.593  1.00  0.00     0.230 C 
ATOM      6  H   UNL A   1      31.991  26.552  24.819  1.00  0.00     0.163 HD
BRANCH   5   7
ATOM      7  C   UNL A   1      31.737  24.143  24.175  1.00  0.00     0.177 C 
BRANCH   7   8
ATOM      8  S   UNL A   1      33.299  24.283  23.254  1.00  0.00    -0.087 SA
BRANCH   8   9
ATOM      9  C   UNL A   1      33.086  25.670  22.216  1.00  0.00     0.141 C 
ATOM     10  S   UNL A   1      32.319  25.679  20.732  1.00  0.00    -0.052 S 
BRANCH   9  11
ATOM     11  N   UNL A   1      33.507  26.906  22.719  1.00  0.00    -0.307 N 
ATOM     12  C   UNL A   1      33.011  28.211  22.807  1.00  0.00     0.256 C 
ATOM     13  H   UNL A   1      34.401  26.838  23.125  1.00  0.00     0.171 HD
ATOM     14  O   UNL A   1      33.775  29.163  22.935  1.00  0.00    -0.269 OA
BRANCH  12  15
ATOM     15  C   UNL A   1      31.561  28.460  22.724  1.00  0.00     0.040 A 
ATOM     16  C   UNL A   1      30.685  27.569  23.355  1.00  0.00     0.021 A 
ATOM     17  C   UNL A   1      31.075  29.597  22.065  1.00  0.00     0.021 A 
ATOM     18  C   UNL A   1      29.322  27.868  23.418  1.00  0.00     0.086 A 
ATOM     19  C   UNL A   1      29.716  29.909  22.140  1.00  0.00     0.086 A 
ATOM     20  C   UNL A   1      28.850  29.055  22.839  1.00  0.00     0.269 A 
BRANCH  20  21
ATOM     21  N   UNL A   1      27.439  29.428  22.995  1.00  0.00     0.062 N 
ATOM     22  O   UNL A   1      27.128  30.608  22.785  1.00  0.00    -0.258 OA
ATOM     23  O   UNL A   1      26.643  28.535  23.320  1.00  0.00    -0.258 OA
ENDBRANCH  20  21
ENDBRANCH  12  15
ENDBRANCH   9  11
ENDBRANCH   8   9
ENDBRANCH   7   8
ENDBRANCH   5   7
ENDBRANCH   2   3
ENDBRANCH   1   2
BRANCH   1  24
ATOM     24  C   UNL A   1      32.444  29.331  26.507  1.00  0.00     0.002 C 
BRANCH  24  25
ATOM     25  C   UNL A   1      31.822  30.572  25.860  1.00  0.00     0.002 C 
BRANCH  25  26
ATOM     26  C   UNL A   1      31.554  31.742  26.808  1.00  0.00     0.021 C 
BRANCH  26  27
ATOM     27  C   UNL A   1      32.797  32.488  27.283  1.00  0.00     0.116 C 
BRANCH  27  28
ATOM     28  N   UNL A   1      32.529  33.886  27.586  1.00  0.00    -0.352 N 
ATOM     29  C   UNL A   1      33.095  34.686  28.548  1.00  0.00     0.251 C 
ATOM     30  H   UNL A   1      31.848  34.319  27.021  1.00  0.00     0.163 HD
ATOM     31  O   UNL A   1      32.633  35.804  28.765  1.00  0.00    -0.269 OA
BRANCH  29  32
ATOM     32  C   UNL A   1      34.243  34.191  29.340  1.00  0.00     0.039 A 
ATOM     33  C   UNL A   1      33.997  33.418  30.479  1.00  0.00     0.014 A 
ATOM     34  C   UNL A   1      35.557  34.477  28.960  1.00  0.00     0.014 A 
ATOM     35  C   UNL A   1      35.070  32.884  31.198  1.00  0.00     0.010 A 
ATOM     36  C   UNL A   1      36.621  33.878  29.630  1.00  0.00     0.010 A 
ATOM     37  C   UNL A   1      36.390  33.081  30.761  1.00  0.00    -0.014 A 
BRANCH  37  38
ATOM     38  C   UNL A   1      37.538  32.452  31.466  1.00  0.00     0.031 A 
ATOM     39  C   UNL A   1      38.297  31.318  30.829  1.00  0.00     0.074 A 
ATOM     40  C   UNL A   1      37.847  32.847  32.717  1.00  0.00     0.049 A 
ATOM     41  N   UNL A   1      39.306  30.633  31.302  1.00  0.00    -0.248 NA
ATOM     42  C   UNL A   1      37.848  30.880  29.497  1.00  0.00     0.031 C 
ATOM     43  C   UNL A   1      37.144  33.883  33.476  1.00  0.00     0.029 A 
ATOM     44  N   UNL A   1      38.822  32.410  33.580  1.00  0.00    -0.354 N 
ATOM     45  C   UNL A   1      39.587  29.661  30.348  1.00  0.00     0.074 A 
ATOM     46  C   UNL A   1      38.618  29.824  29.286  1.00  0.00     0.031 C 
ATOM     47  C   UNL A   1      37.722  34.017  34.680  1.00  0.00     0.029 A 
ATOM     48  C   UNL A   1      38.812  33.054  34.796  1.00  0.00     0.049 A 
ATOM     49  H   UNL A   1      39.467  31.704  33.351  1.00  0.00     0.167 HD
ATOM     50  C   UNL A   1      40.573  28.733  30.343  1.00  0.00     0.034 A 
ATOM     51  C   UNL A   1      39.592  32.887  35.882  1.00  0.00     0.034 A 
ATOM     52  C   UNL A   1      41.555  28.596  31.386  1.00  0.00     0.049 A 
ATOM     53  C   UNL A   1      40.694  31.863  35.843  1.00  0.00     0.074 A 
ATOM     54  C   UNL A   1      42.653  27.755  31.430  1.00  0.00     0.029 A 
ATOM     55  N   UNL A   1      41.547  29.304  32.578  1.00  0.00    -0.354 N 
ATOM     56  N   UNL A   1      41.049  31.068  34.863  1.00  0.00    -0.248 NA
ATOM     57  C   UNL A   1      41.526  31.738  37.049  1.00  0.00     0.031 C 
ATOM     58  C   UNL A   1      43.285  27.925  32.666  1.00  0.00     0.029 A 
ATOM     59  C   UNL A   1      42.607  28.903  33.375  1.00  0.00     0.049 A 
ATOM     60  H   UNL A   1      40.886  29.991  32.823  1.00  0.00     0.167 HD
ATOM     61  C   UNL A   1      42.168  30.380  35.317  1.00  0.00     0.074 A 
ATOM     62  C   UNL A   1      42.442  30.865  36.653  1.00  0.00     0.031 C 
ATOM     63  C   UNL A   1      42.897  29.426  34.687  1.00  0.00     0.034 A 
BRANCH  50  64
ATOM     64  C   UNL A   1      40.657  27.808  29.154  1.00  0.00     0.023 A 
ATOM     65  C   UNL A   1      39.831  26.667  29.092  1.00  0.00     0.012 A 
ATOM     66  C   UNL A   1      41.526  28.089  28.081  1.00  0.00     0.148 A 
ATOM     67  C   UNL A   1      39.903  25.795  28.005  1.00  0.00     0.002 A 
ATOM     68  C   UNL A   1      41.555  27.242  26.978  1.00  0.00     0.091 A 
ATOM     69  F   UNL A   1      42.319  29.166  28.164  1.00  0.00    -0.205 F 
ATOM     70  C   UNL A   1      40.757  26.087  26.946  1.00  0.00     0.022 A 
BRANCH  68  71
ATOM     71  S   UNL A   1      42.558  27.578  25.528  1.00  0.00     0.127 S 
ATOM     72  O   UNL A   1      42.255  26.423  24.685  1.00  0.00    -0.237 OA
ATOM     73  O   UNL A   1      41.997  28.843  25.051  1.00  0.00    -0.237 OA
ATOM     74  O   UNL A   1      43.933  27.666  26.001  1.00  0.00    -0.744 OA
ENDBRANCH  68  71
ENDBRANCH  50  64
BRANCH  51  75
ATOM     75  C   UNL A   1      39.409  33.764  37.074  1.00  0.00     0.023 A 
ATOM     76  C   UNL A   1      39.871  35.095  37.025  1.00  0.00     0.012 A 
ATOM     77  C   UNL A   1      38.768  33.303  38.239  1.00  0.00     0.148 A 
ATOM     78  C   UNL A   1      39.727  35.939  38.126  1.00  0.00     0.002 A 
ATOM     79  C   UNL A   1      38.579  34.165  39.313  1.00  0.00     0.091 A 
ATOM     80  F   UNL A   1      38.342  32.032  38.269  1.00  0.00    -0.205 F 
ATOM     81  C   UNL A   1      39.074  35.478  39.266  1.00  0.00     0.022 A 
BRANCH  79  82
ATOM     82  S   UNL A   1      37.641  33.703  40.773  1.00  0.00     0.127 S 
ATOM     83  O   UNL A   1      36.414  33.171  40.185  1.00  0.00    -0.237 OA
ATOM     84  O   UNL A   1      38.515  32.702  41.386  1.00  0.00    -0.237 OA
ATOM     85  O   UNL A   1      37.489  34.925  41.549  1.00  0.00    -0.744 OA
ENDBRANCH  79  82
ENDBRANCH  51  75
BRANCH  63  86
ATOM     86  C   UNL A   1      44.096  28.868  35.413  1.00  0.00     0.023 A 
ATOM     87  C   UNL A   1      45.368  29.445  35.226  1.00  0.00     0.012 A 
ATOM     88  C   UNL A   1      43.947  27.807  36.329  1.00  0.00     0.148 A 
ATOM     89  C   UNL A   1      46.478  28.951  35.911  1.00  0.00     0.002 A 
ATOM     90  C   UNL A   1      45.047  27.358  37.049  1.00  0.00     0.091 A 
ATOM     91  F   UNL A   1      42.733  27.258  36.480  1.00  0.00    -0.205 F 
ATOM     92  C   UNL A   1      46.315  27.918  36.830  1.00  0.00     0.022 A 
BRANCH  90  93
ATOM     93  S   UNL A   1      44.915  26.101  38.325  1.00  0.00     0.127 S 
ATOM     94  O   UNL A   1      43.995  25.145  37.709  1.00  0.00    -0.237 OA
ATOM     95  O   UNL A   1      46.295  25.630  38.441  1.00  0.00    -0.237 OA
ATOM     96  O   UNL A   1      44.407  26.781  39.509  1.00  0.00    -0.744 OA
ENDBRANCH  90  93
ENDBRANCH  63  86
ENDBRANCH  37  38
ENDBRANCH  29  32
ENDBRANCH  27  28
ENDBRANCH  26  27
ENDBRANCH  25  26
ENDBRANCH  24  25
ENDBRANCH   1  24
TORSDOF 21
ENDMDL
MODEL 2
REMARK VINA RESULT:     -10.7      5.214      8.283
REMARK SMILES O=C(CSC(=S)NC(=O)c1ccc([N+](=O)[O-])cc1)NCCCCCCNC(=O)c1ccc(-c2c3nc(c(-c4cccc(S(=O)(=O)[O-])c4F)c4ccc([nH]4)c(-c4cccc(S(=O)(=O)[O-])c4F)c4nc(c(-c5cccc(S(=O)(=O)[O-])c5F)c5ccc2[nH]5)C=C4)C=C3)cc1
REMARK SMILES IDX 21 1 20 2 19 3 1 4 2 5 3 7 4 8 5 9 6 10 7 11 8 12 9 14 10 15
REMARK SMILES IDX 11 16 18 17 12 18 17 19 13 20 14 21 15 22 16 23 22 24 23 25
REMARK SMILES IDX 24 26 25 27 26 28 27 29 28 31 29 32 30 33 91 34 31 35 90 36
REMARK SMILES IDX 32 37 33 38 34 39 84 40 35 41 89 42 83 43 85 44 36 45 88 46
REMARK SMILES IDX 82 47 81 48 37 50 69 51 49 52 68 53 50 54 53 55 67 56 86 57
REMARK SMILES IDX 51 58 52 59 66 61 87 62 54 63 38 64 39 65 47 66 40 67 42 68
REMARK SMILES IDX 48 69 41 70 43 71 44 72 45 73 46 74 70 75 71 76 79 77 72 78
REMARK SMILES IDX 74 79 80 80 73 81 75 82 76 83 77 84 78 85 55 86 56 87 64 88
REMARK SMILES IDX 57 89 59 90 65 91 58 92 60 93 61 94 62 95 63 96
REMARK H PARENT 19 6 7 13 26 30 85 49 53 60
REMARK Flexibility Score: inf
ROOT
ATOM      1  C   UNL A   1      34.420  22.208  27.307  1.00  0.00     0.021 C 
ENDROOT
BRANCH   1   2
ATOM      2  C   UNL A   1      32.969  22.410  27.737  1.00  0.00     0.116 C 
BRANCH   2   3
ATOM      3  N   UNL A   1      32.100  22.581  26.596  1.00  0.00    -0.355 N 
ATOM      4  O   UNL A   1      31.477  24.762  26.970  1.00  0.00    -0.274 OA
ATOM      5  C   UNL A   1      31.453  23.751  26.275  1.00  0.00     0.230 C 
ATOM      6  H   UNL A   1      31.959  21.803  26.009  1.00  0.00     0.163 HD
BRANCH   5   7
ATOM      7  C   UNL A   1      30.594  23.660  25.023  1.00  0.00     0.177 C 
BRANCH   7   8
ATOM      8  S   UNL A   1      31.576  23.186  23.567  1.00  0.00    -0.087 SA
BRANCH   8   9
ATOM      9  C   UNL A   1      32.414  24.642  23.096  1.00  0.00     0.141 C 
ATOM     10  S   UNL A   1      32.848  25.068  21.540  1.00  0.00    -0.052 S 
BRANCH   9  11
ATOM     11  N   UNL A   1      32.652  25.587  24.101  1.00  0.00    -0.307 N 
ATOM     12  C   UNL A   1      32.369  26.934  24.343  1.00  0.00     0.256 C 
ATOM     13  H   UNL A   1      33.162  25.191  24.845  1.00  0.00     0.171 HD
ATOM     14  O   UNL A   1      33.059  27.589  25.120  1.00  0.00    -0.269 OA
BRANCH  12  15
ATOM     15  C   UNL A   1      31.248  27.593  23.649  1.00  0.00     0.040 A 
ATOM     16  C   UNL A   1      29.947  27.128  23.876  1.00  0.00     0.021 A 
ATOM     17  C   UNL A   1      31.481  28.696  22.817  1.00  0.00     0.021 A 
ATOM     18  C   UNL A   1      28.861  27.832  23.350  1.00  0.00     0.086 A 
ATOM     19  C   UNL A   1      30.398  29.412  22.303  1.00  0.00     0.086 A 
ATOM     20  C   UNL A   1      29.092  28.990  22.594  1.00  0.00     0.269 A 
BRANCH  20  21
ATOM     21  N   UNL A   1      27.955  29.793  22.129  1.00  0.00     0.062 N 
ATOM     22  O   UNL A   1      27.956  30.166  20.948  1.00  0.00    -0.258 OA
ATOM     23  O   UNL A   1      27.058  30.042  22.948  1.00  0.00    -0.258 OA
ENDBRANCH  20  21
ENDBRANCH  12  15
ENDBRANCH   9  11
ENDBRANCH   8   9
ENDBRANCH   7   8
ENDBRANCH   5   7
ENDBRANCH   2   3
ENDBRANCH   1   2
BRANCH   1  24
ATOM     24  C   UNL A   1      34.640  21.113  26.252  1.00  0.00     0.002 C 
BRANCH  24  25
ATOM     25  C   UNL A   1      35.619  21.454  25.126  1.00  0.00     0.002 C 
BRANCH  25  26
ATOM     26  C   UNL A   1      35.790  22.946  24.833  1.00  0.00     0.021 C 
BRANCH  26  27
ATOM     27  C   UNL A   1      37.214  23.474  24.973  1.00  0.00     0.116 C 
BRANCH  27  28
ATOM     28  N   UNL A   1      38.107  22.516  25.605  1.00  0.00    -0.352 N 
ATOM     29  C   UNL A   1      39.207  22.750  26.395  1.00  0.00     0.251 C 
ATOM     30  H   UNL A   1      37.893  21.568  25.446  1.00  0.00     0.163 HD
ATOM     31  O   UNL A   1      39.940  21.817  26.716  1.00  0.00    -0.269 OA
BRANCH  29  32
ATOM     32  C   UNL A   1      39.521  24.127  26.836  1.00  0.00     0.039 A 
ATOM     33  C   UNL A   1      39.209  24.507  28.145  1.00  0.00     0.014 A 
ATOM     34  C   UNL A   1      40.128  25.041  25.969  1.00  0.00     0.014 A 
ATOM     35  C   UNL A   1      39.563  25.780  28.599  1.00  0.00     0.010 A 
ATOM     36  C   UNL A   1      40.550  26.278  26.448  1.00  0.00     0.010 A 
ATOM     37  C   UNL A   1      40.266  26.665  27.766  1.00  0.00    -0.014 A 
BRANCH  37  38
ATOM     38  C   UNL A   1      40.722  27.991  28.260  1.00  0.00     0.031 A 
ATOM     39  C   UNL A   1      42.188  28.333  28.286  1.00  0.00     0.074 A 
ATOM     40  C   UNL A   1      39.821  28.860  28.761  1.00  0.00     0.049 A 
ATOM     41  N   UNL A   1      42.772  29.427  28.703  1.00  0.00    -0.248 NA
ATOM     42  C   UNL A   1      43.123  27.303  27.805  1.00  0.00     0.031 C 
ATOM     43  C   UNL A   1      38.380  28.621  28.861  1.00  0.00     0.029 A 
ATOM     44  N   UNL A   1      39.987  30.113  29.298  1.00  0.00    -0.354 N 
ATOM     45  C   UNL A   1      44.138  29.203  28.574  1.00  0.00     0.074 A 
ATOM     46  C   UNL A   1      44.296  27.855  28.071  1.00  0.00     0.031 C 
ATOM     47  C   UNL A   1      37.791  29.698  29.405  1.00  0.00     0.029 A 
ATOM     48  C   UNL A   1      38.814  30.689  29.726  1.00  0.00     0.049 A 
ATOM     49  H   UNL A   1      40.862  30.556  29.372  1.00  0.00     0.167 HD
ATOM     50  C   UNL A   1      45.167  30.047  28.825  1.00  0.00     0.034 A 
ATOM     51  C   UNL A   1      38.586  31.881  30.313  1.00  0.00     0.034 A 
ATOM     52  C   UNL A   1      45.004  31.398  29.293  1.00  0.00     0.049 A 
ATOM     53  C   UNL A   1      39.744  32.808  30.562  1.00  0.00     0.074 A 
ATOM     54  C   UNL A   1      45.975  32.365  29.484  1.00  0.00     0.029 A 
ATOM     55  N   UNL A   1      43.796  31.967  29.663  1.00  0.00    -0.354 N 
ATOM     56  N   UNL A   1      41.012  32.642  30.276  1.00  0.00    -0.248 NA
ATOM     57  C   UNL A   1      39.434  34.103  31.186  1.00  0.00     0.031 C 
ATOM     58  C   UNL A   1      45.358  33.505  30.008  1.00  0.00     0.029 A 
ATOM     59  C   UNL A   1      43.997  33.264  30.103  1.00  0.00     0.049 A 
ATOM     60  H   UNL A   1      42.922  31.515  29.618  1.00  0.00     0.167 HD
ATOM     61  C   UNL A   1      41.644  33.825  30.644  1.00  0.00     0.074 A 
ATOM     62  C   UNL A   1      40.615  34.704  31.159  1.00  0.00     0.031 C 
ATOM     63  C   UNL A   1      42.959  34.149  30.571  1.00  0.00     0.034 A 
BRANCH  50  64
ATOM     64  C   UNL A   1      46.565  29.540  28.570  1.00  0.00     0.023 A 
ATOM     65  C   UNL A   1      47.177  29.765  27.319  1.00  0.00     0.012 A 
ATOM     66  C   UNL A   1      47.288  28.875  29.580  1.00  0.00     0.148 A 
ATOM     67  C   UNL A   1      48.465  29.294  27.062  1.00  0.00     0.002 A 
ATOM     68  C   UNL A   1      48.590  28.453  29.333  1.00  0.00     0.091 A 
ATOM     69  F   UNL A   1      46.686  28.651  30.757  1.00  0.00    -0.205 F 
ATOM     70  C   UNL A   1      49.173  28.647  28.070  1.00  0.00     0.022 A 
BRANCH  68  71
ATOM     71  S   UNL A   1      49.614  27.688  30.593  1.00  0.00     0.127 S 
ATOM     72  O   UNL A   1      49.421  28.597  31.722  1.00  0.00    -0.237 OA
ATOM     73  O   UNL A   1      48.981  26.378  30.752  1.00  0.00    -0.237 OA
ATOM     74  O   UNL A   1      50.962  27.647  30.045  1.00  0.00    -0.744 OA
ENDBRANCH  68  71
ENDBRANCH  50  64
BRANCH  51  75
ATOM     75  C   UNL A   1      37.191  32.300  30.634  1.00  0.00     0.023 A 
ATOM     76  C   UNL A   1      36.701  32.108  31.942  1.00  0.00     0.012 A 
ATOM     77  C   UNL A   1      36.359  32.900  29.671  1.00  0.00     0.148 A 
ATOM     78  C   UNL A   1      35.397  32.477  32.274  1.00  0.00     0.002 A 
ATOM     79  C   UNL A   1      35.080  33.316  30.023  1.00  0.00     0.091 A 
ATOM     80  F   UNL A   1      36.842  33.068  28.431  1.00  0.00    -0.205 F 
ATOM     81  C   UNL A   1      34.590  33.088  31.319  1.00  0.00     0.022 A 
BRANCH  79  82
ATOM     82  S   UNL A   1      34.013  34.223  28.899  1.00  0.00     0.127 S 
ATOM     83  O   UNL A   1      33.625  33.184  27.950  1.00  0.00    -0.237 OA
ATOM     84  O   UNL A   1      32.946  34.671  29.795  1.00  0.00    -0.237 OA
ATOM     85  O   UNL A   1      34.833  35.297  28.356  1.00  0.00    -0.744 OA
ENDBRANCH  79  82
ENDBRANCH  51  75
BRANCH  63  86
ATOM     86  C   UNL A   1      43.365  35.531  31.016  1.00  0.00     0.023 A 
ATOM     87  C   UNL A   1      43.702  35.770  32.364  1.00  0.00     0.012 A 
ATOM     88  C   UNL A   1      43.472  36.580  30.082  1.00  0.00     0.148 A 
ATOM     89  C   UNL A   1      44.102  37.039  32.779  1.00  0.00     0.002 A 
ATOM     90  C   UNL A   1      43.924  37.828  30.493  1.00  0.00     0.091 A 
ATOM     91  F   UNL A   1      43.129  36.339  28.808  1.00  0.00    -0.205 F 
ATOM     92  C   UNL A   1      44.225  38.063  31.844  1.00  0.00     0.022 A 
BRANCH  90  93
ATOM     93  S   UNL A   1      44.210  39.177  29.342  1.00  0.00     0.127 S 
ATOM     94  O   UNL A   1      45.281  38.635  28.506  1.00  0.00    -0.237 OA
ATOM     95  O   UNL A   1      42.914  39.293  28.673  1.00  0.00    -0.237 OA
ATOM     96  O   UNL A   1      44.576  40.329  30.155  1.00  0.00    -0.744 OA
ENDBRANCH  90  93
ENDBRANCH  63  86
ENDBRANCH  37  38
ENDBRANCH  29  32
ENDBRANCH  27  28
ENDBRANCH  26  27
ENDBRANCH  25  26
ENDBRANCH  24  25
ENDBRANCH   1  24
TORSDOF 21
ENDMDL
MODEL 3
REMARK VINA RESULT:     -10.7      2.605      8.017
REMARK SMILES O=C(CSC(=S)NC(=O)c1ccc([N+](=O)[O-])cc1)NCCCCCCNC(=O)c1ccc(-c2c3nc(c(-c4cccc(S(=O)(=O)[O-])c4F)c4ccc([nH]4)c(-c4cccc(S(=O)(=O)[O-])c4F)c4nc(c(-c5cccc(S(=O)(=O)[O-])c5F)c5ccc2[nH]5)C=C4)C=C3)cc1
REMARK SMILES IDX 21 1 20 2 19 3 1 4 2 5 3 7 4 8 5 9 6 10 7 11 8 12 9 14 10 15
REMARK SMILES IDX 11 16 18 17 12 18 17 19 13 20 14 21 15 22 16 23 22 24 23 25
REMARK SMILES IDX 24 26 25 27 26 28 27 29 28 31 29 32 30 33 91 34 31 35 90 36
REMARK SMILES IDX 32 37 33 38 34 39 84 40 35 41 89 42 83 43 85 44 36 45 88 46
REMARK SMILES IDX 82 47 81 48 37 50 69 51 49 52 68 53 50 54 53 55 67 56 86 57
REMARK SMILES IDX 51 58 52 59 66 61 87 62 54 63 38 64 39 65 47 66 40 67 42 68
REMARK SMILES IDX 48 69 41 70 43 71 44 72 45 73 46 74 70 75 71 76 79 77 72 78
REMARK SMILES IDX 74 79 80 80 73 81 75 82 76 83 77 84 78 85 55 86 56 87 64 88
REMARK SMILES IDX 57 89 59 90 65 91 58 92 60 93 61 94 62 95 63 96
REMARK H PARENT 19 6 7 13 26 30 85 49 53 60
REMARK Flexibility Score: inf
ROOT
ATOM      1  C   UNL A   1      33.528  25.664  26.044  1.00  0.00     0.021 C 
ENDROOT
BRANCH   1   2
ATOM      2  C   UNL A   1      32.528  24.852  26.863  1.00  0.00     0.116 C 
BRANCH   2   3
ATOM      3  N   UNL A   1      32.534  23.461  26.477  1.00  0.00    -0.355 N 
ATOM      4  O   UNL A   1      34.535  22.855  27.432  1.00  0.00    -0.274 OA
ATOM      5  C   UNL A   1      33.512  22.558  26.823  1.00  0.00     0.230 C 
ATOM      6  H   UNL A   1      31.785  23.137  25.925  1.00  0.00     0.163 HD
BRANCH   5   7
ATOM      7  C   UNL A   1      33.279  21.155  26.282  1.00  0.00     0.177 C 
BRANCH   7   8
ATOM      8  S   UNL A   1      31.886  21.109  25.113  1.00  0.00    -0.087 SA
BRANCH   8   9
ATOM      9  C   UNL A   1      32.607  21.363  23.544  1.00  0.00     0.141 C 
ATOM     10  S   UNL A   1      32.005  20.817  22.085  1.00  0.00    -0.052 S 
BRANCH   9  11
ATOM     11  N   UNL A   1      33.739  22.185  23.495  1.00  0.00    -0.307 N 
ATOM     12  C   UNL A   1      34.074  23.456  23.018  1.00  0.00     0.256 C 
ATOM     13  H   UNL A   1      34.515  21.746  23.912  1.00  0.00     0.171 HD
ATOM     14  O   UNL A   1      35.239  23.738  22.754  1.00  0.00    -0.269 OA
BRANCH  12  15
ATOM     15  C   UNL A   1      33.025  24.469  22.806  1.00  0.00     0.040 A 
ATOM     16  C   UNL A   1      31.713  24.174  23.194  1.00  0.00     0.021 A 
ATOM     17  C   UNL A   1      33.349  25.723  22.270  1.00  0.00     0.021 A 
ATOM     18  C   UNL A   1      30.735  25.171  23.143  1.00  0.00     0.086 A 
ATOM     19  C   UNL A   1      32.381  26.728  22.233  1.00  0.00     0.086 A 
ATOM     20  C   UNL A   1      31.084  26.454  22.694  1.00  0.00     0.269 A 
BRANCH  20  21
ATOM     21  N   UNL A   1      30.091  27.533  22.739  1.00  0.00     0.062 N 
ATOM     22  O   UNL A   1      30.259  28.503  21.987  1.00  0.00    -0.258 OA
ATOM     23  O   UNL A   1      29.140  27.404  23.523  1.00  0.00    -0.258 OA
ENDBRANCH  20  21
ENDBRANCH  12  15
ENDBRANCH   9  11
ENDBRANCH   8   9
ENDBRANCH   7   8
ENDBRANCH   5   7
ENDBRANCH   2   3
ENDBRANCH   1   2
BRANCH   1  24
ATOM     24  C   UNL A   1      33.139  27.131  25.809  1.00  0.00     0.002 C 
BRANCH  24  25
ATOM     25  C   UNL A   1      31.714  27.520  26.216  1.00  0.00     0.002 C 
BRANCH  25  26
ATOM     26  C   UNL A   1      31.496  29.006  26.503  1.00  0.00     0.021 C 
BRANCH  26  27
ATOM     27  C   UNL A   1      32.564  29.938  25.941  1.00  0.00     0.116 C 
BRANCH  27  28
ATOM     28  N   UNL A   1      32.365  31.323  26.340  1.00  0.00    -0.352 N 
ATOM     29  C   UNL A   1      33.077  32.073  27.244  1.00  0.00     0.251 C 
ATOM     30  H   UNL A   1      31.616  31.787  25.901  1.00  0.00     0.163 HD
ATOM     31  O   UNL A   1      32.669  33.185  27.575  1.00  0.00    -0.269 OA
BRANCH  29  32
ATOM     32  C   UNL A   1      34.321  31.532  27.837  1.00  0.00     0.039 A 
ATOM     33  C   UNL A   1      35.403  32.392  28.044  1.00  0.00     0.014 A 
ATOM     34  C   UNL A   1      34.420  30.185  28.197  1.00  0.00     0.014 A 
ATOM     35  C   UNL A   1      36.559  31.913  28.667  1.00  0.00     0.010 A 
ATOM     36  C   UNL A   1      35.539  29.731  28.890  1.00  0.00     0.010 A 
ATOM     37  C   UNL A   1      36.624  30.588  29.126  1.00  0.00    -0.014 A 
BRANCH  37  38
ATOM     38  C   UNL A   1      37.813  30.086  29.864  1.00  0.00     0.031 A 
ATOM     39  C   UNL A   1      38.093  30.551  31.269  1.00  0.00     0.074 A 
ATOM     40  C   UNL A   1      38.688  29.270  29.241  1.00  0.00     0.049 A 
ATOM     41  N   UNL A   1      39.090  30.241  32.057  1.00  0.00    -0.248 NA
ATOM     42  C   UNL A   1      37.143  31.510  31.856  1.00  0.00     0.031 C 
ATOM     43  C   UNL A   1      38.572  28.804  27.858  1.00  0.00     0.029 A 
ATOM     44  N   UNL A   1      39.858  28.705  29.684  1.00  0.00    -0.354 N 
ATOM     45  C   UNL A   1      38.911  30.994  33.212  1.00  0.00     0.074 A 
ATOM     46  C   UNL A   1      37.727  31.801  33.007  1.00  0.00     0.031 C 
ATOM     47  C   UNL A   1      39.614  28.008  27.572  1.00  0.00     0.029 A 
ATOM     48  C   UNL A   1      40.492  27.935  28.736  1.00  0.00     0.049 A 
ATOM     49  H   UNL A   1      40.211  28.837  30.593  1.00  0.00     0.167 HD
ATOM     50  C   UNL A   1      39.646  30.996  34.349  1.00  0.00     0.034 A 
ATOM     51  C   UNL A   1      41.651  27.249  28.796  1.00  0.00     0.034 A 
ATOM     52  C   UNL A   1      40.803  30.167  34.561  1.00  0.00     0.049 A 
ATOM     53  C   UNL A   1      42.438  27.252  30.078  1.00  0.00     0.074 A 
ATOM     54  C   UNL A   1      41.559  30.023  35.712  1.00  0.00     0.029 A 
ATOM     55  N   UNL A   1      41.384  29.358  33.598  1.00  0.00    -0.354 N 
ATOM     56  N   UNL A   1      42.161  27.839  31.217  1.00  0.00    -0.248 NA
ATOM     57  C   UNL A   1      43.684  26.471  30.092  1.00  0.00     0.031 C 
ATOM     58  C   UNL A   1      42.621  29.158  35.430  1.00  0.00     0.029 A 
ATOM     59  C   UNL A   1      42.502  28.728  34.119  1.00  0.00     0.049 A 
ATOM     60  H   UNL A   1      41.051  29.246  32.679  1.00  0.00     0.167 HD
ATOM     61  C   UNL A   1      43.171  27.463  32.095  1.00  0.00     0.074 A 
ATOM     62  C   UNL A   1      44.058  26.586  31.359  1.00  0.00     0.031 C 
ATOM     63  C   UNL A   1      43.353  27.820  33.390  1.00  0.00     0.034 A 
BRANCH  50  64
ATOM     64  C   UNL A   1      39.202  31.907  35.467  1.00  0.00     0.023 A 
ATOM     65  C   UNL A   1      38.259  31.453  36.412  1.00  0.00     0.012 A 
ATOM     66  C   UNL A   1      39.746  33.200  35.604  1.00  0.00     0.148 A 
ATOM     67  C   UNL A   1      37.829  32.285  37.445  1.00  0.00     0.002 A 
ATOM     68  C   UNL A   1      39.350  34.005  36.667  1.00  0.00     0.091 A 
ATOM     69  F   UNL A   1      40.627  33.625  34.688  1.00  0.00    -0.205 F 
ATOM     70  C   UNL A   1      38.381  33.556  37.578  1.00  0.00     0.022 A 
BRANCH  68  71
ATOM     71  S   UNL A   1      40.066  35.623  36.972  1.00  0.00     0.127 S 
ATOM     72  O   UNL A   1      39.501  35.953  38.280  1.00  0.00    -0.237 OA
ATOM     73  O   UNL A   1      41.499  35.329  36.986  1.00  0.00    -0.237 OA
ATOM     74  O   UNL A   1      39.631  36.469  35.870  1.00  0.00    -0.744 OA
ENDBRANCH  68  71
ENDBRANCH  50  64
BRANCH  51  75
ATOM     75  C   UNL A   1      42.098  26.436  27.629  1.00  0.00     0.023 A 
ATOM     76  C   UNL A   1      42.915  27.035  26.648  1.00  0.00     0.012 A 
ATOM     77  C   UNL A   1      41.743  25.082  27.492  1.00  0.00     0.148 A 
ATOM     78  C   UNL A   1      43.341  26.308  25.537  1.00  0.00     0.002 A 
ATOM     79  C   UNL A   1      42.216  24.347  26.411  1.00  0.00     0.091 A 
ATOM     80  F   UNL A   1      40.960  24.533  28.432  1.00  0.00    -0.205 F 
ATOM     81  C   UNL A   1      43.000  24.963  25.422  1.00  0.00     0.022 A 
BRANCH  79  82
ATOM     82  S   UNL A   1      41.935  22.582  26.242  1.00  0.00     0.127 S 
ATOM     83  O   UNL A   1      40.479  22.517  26.162  1.00  0.00    -0.237 OA
ATOM     84  O   UNL A   1      42.636  22.285  24.991  1.00  0.00    -0.237 OA
ATOM     85  O   UNL A   1      42.529  21.972  27.423  1.00  0.00    -0.744 OA
ENDBRANCH  79  82
ENDBRANCH  51  75
BRANCH  63  86
ATOM     86  C   UNL A   1      44.533  27.229  34.121  1.00  0.00     0.023 A 
ATOM     87  C   UNL A   1      45.785  27.877  34.083  1.00  0.00     0.012 A 
ATOM     88  C   UNL A   1      44.383  26.062  34.896  1.00  0.00     0.148 A 
ATOM     89  C   UNL A   1      46.875  27.350  34.775  1.00  0.00     0.002 A 
ATOM     90  C   UNL A   1      45.459  25.575  35.627  1.00  0.00     0.091 A 
ATOM     91  F   UNL A   1      43.190  25.450  34.905  1.00  0.00    -0.205 F 
ATOM     92  C   UNL A   1      46.710  26.209  35.555  1.00  0.00     0.022 A 
BRANCH  90  93
ATOM     93  S   UNL A   1      45.313  24.171  36.738  1.00  0.00     0.127 S 
ATOM     94  O   UNL A   1      44.323  24.653  37.700  1.00  0.00    -0.237 OA
ATOM     95  O   UNL A   1      44.832  23.118  35.844  1.00  0.00    -0.237 OA
ATOM     96  O   UNL A   1      46.648  23.944  37.277  1.00  0.00    -0.744 OA
ENDBRANCH  90  93
ENDBRANCH  63  86
ENDBRANCH  37  38
ENDBRANCH  29  32
ENDBRANCH  27  28
ENDBRANCH  26  27
ENDBRANCH  25  26
ENDBRANCH  24  25
ENDBRANCH   1  24
TORSDOF 21
ENDMDL
