MODEL 1
REMARK VINA RESULT:     -11.7      0.000      0.000
REMARK SMILES Nc1c(N2CCCC2)ncnc1N1CCC(C(=O)NCCCCCCNC(=O)c2ccc(-c3c4nc(c(-c5cccc(S(=O)(=O)[O-])c5F)c5ccc([nH]5)c(-c5cccc(S(=O)(=O)[O-])c5F)c5nc(c(-c6cccc(S(=O)(=O)[O-])c6F)c6ccc3[nH]6)C=C5)C=C4)cc2)CC1
REMARK SMILES IDX 23 1 22 2 21 3 20 4 19 5 17 6 18 7 16 9 13 10 14 11 93 12
REMARK SMILES IDX 15 13 92 14 12 15 2 16 3 17 9 18 11 19 10 20 1 21 4 24 5 25
REMARK SMILES IDX 8 26 6 27 7 28 24 29 25 30 26 31 27 32 28 34 29 35 30 36
REMARK SMILES IDX 91 37 31 38 90 39 32 40 33 41 34 42 84 43 35 44 89 45 83 46
REMARK SMILES IDX 85 47 36 48 88 49 82 50 81 51 37 53 69 54 49 55 68 56 50 57
REMARK SMILES IDX 53 58 67 59 86 60 51 61 52 62 66 64 87 65 54 66 38 67 39 68
REMARK SMILES IDX 47 69 40 70 42 71 48 72 41 73 43 74 44 75 45 76 46 77 70 78
REMARK SMILES IDX 71 79 79 80 72 81 74 82 80 83 73 84 75 85 76 86 77 87 78 88
REMARK SMILES IDX 55 89 56 90 64 91 57 92 59 93 65 94 58 95 60 96 61 97 62 98
REMARK SMILES IDX 63 99
REMARK H PARENT 19 8 1 22 1 23 26 33 85 52 53 63
REMARK Flexibility Score: inf
ROOT
ATOM      1  C   UNL A   1      37.005  20.823  24.672  1.00  0.00     0.002 C 
ENDROOT
BRANCH   1   2
ATOM      2  C   UNL A   1      35.562  20.462  25.036  1.00  0.00     0.002 C 
BRANCH   2   3
ATOM      3  C   UNL A   1      34.569  21.625  24.960  1.00  0.00     0.021 C 
BRANCH   3   4
ATOM      4  C   UNL A   1      34.537  22.493  26.217  1.00  0.00     0.116 C 
BRANCH   4   5
ATOM      5  N   UNL A   1      33.198  22.529  26.790  1.00  0.00    -0.356 N 
ATOM      6  C   UNL A   1      32.169  23.395  26.581  1.00  0.00     0.223 C 
ATOM      7  O   UNL A   1      31.135  23.243  27.236  1.00  0.00    -0.275 OA
ATOM      8  H   UNL A   1      33.006  21.810  27.435  1.00  0.00     0.163 HD
BRANCH   6   9
ATOM      9  C   UNL A   1      32.268  24.502  25.543  1.00  0.00     0.082 C 
ATOM     10  N   UNL A   1      30.780  26.443  24.144  1.00  0.00    -0.355 N 
ATOM     11  C   UNL A   1      31.220  25.320  23.350  1.00  0.00     0.119 C 
ATOM     12  C   UNL A   1      31.651  26.949  25.185  1.00  0.00     0.119 C 
ATOM     13  C   UNL A   1      31.519  24.132  24.250  1.00  0.00     0.035 C 
ATOM     14  C   UNL A   1      31.907  25.846  26.195  1.00  0.00     0.035 C 
BRANCH  10  15
ATOM     15  C   UNL A   1      29.637  27.129  23.773  1.00  0.00     0.157 A 
ATOM     16  C   UNL A   1      29.711  28.415  23.218  1.00  0.00     0.118 A 
ATOM     17  C   UNL A   1      28.492  29.068  22.971  1.00  0.00     0.157 A 
ATOM     18  N   UNL A   1      27.311  28.497  23.249  1.00  0.00    -0.217 NA
ATOM     19  N   UNL A   1      28.457  26.520  23.990  1.00  0.00    -0.217 NA
ATOM     20  C   UNL A   1      27.358  27.251  23.741  1.00  0.00     0.226 A 
BRANCH  16  21
ATOM     21  N   UNL A   1      30.937  29.077  23.002  1.00  0.00    -0.393 N 
ATOM     22  H   UNL A   1      31.472  29.382  23.770  1.00  0.00     0.156 HD
ATOM     23  H   UNL A   1      31.256  29.234  22.085  1.00  0.00     0.156 HD
ENDBRANCH  16  21
BRANCH  17  24
ATOM     24  N   UNL A   1      28.523  30.332  22.415  1.00  0.00    -0.355 N 
ATOM     25  C   UNL A   1      28.028  30.560  21.073  1.00  0.00     0.118 C 
ATOM     26  C   UNL A   1      28.353  31.524  23.231  1.00  0.00     0.118 C 
ATOM     27  C   UNL A   1      28.532  31.974  20.835  1.00  0.00     0.023 C 
ATOM     28  C   UNL A   1      28.307  32.655  22.187  1.00  0.00     0.023 C 
ENDBRANCH  17  24
ENDBRANCH  10  15
ENDBRANCH   6   9
ENDBRANCH   4   5
ENDBRANCH   3   4
ENDBRANCH   2   3
ENDBRANCH   1   2
BRANCH   1  29
ATOM     29  C   UNL A   1      38.045  19.751  25.006  1.00  0.00     0.021 C 
BRANCH  29  30
ATOM     30  C   UNL A   1      39.115  20.197  25.996  1.00  0.00     0.116 C 
BRANCH  30  31
ATOM     31  N   UNL A   1      40.253  19.292  26.010  1.00  0.00    -0.352 N 
ATOM     32  C   UNL A   1      41.589  19.586  26.115  1.00  0.00     0.251 C 
ATOM     33  H   UNL A   1      40.035  18.334  25.933  1.00  0.00     0.163 HD
ATOM     34  O   UNL A   1      42.432  18.717  25.906  1.00  0.00    -0.269 OA
BRANCH  32  35
ATOM     35  C   UNL A   1      42.005  20.958  26.469  1.00  0.00     0.039 A 
ATOM     36  C   UNL A   1      42.349  21.847  25.448  1.00  0.00     0.014 A 
ATOM     37  C   UNL A   1      42.050  21.364  27.807  1.00  0.00     0.014 A 
ATOM     38  C   UNL A   1      42.693  23.162  25.768  1.00  0.00     0.010 A 
ATOM     39  C   UNL A   1      42.321  22.693  28.116  1.00  0.00     0.010 A 
ATOM     40  C   UNL A   1      42.658  23.602  27.102  1.00  0.00    -0.014 A 
BRANCH  40  41
ATOM     41  C   UNL A   1      42.983  25.005  27.456  1.00  0.00     0.031 A 
ATOM     42  C   UNL A   1      44.388  25.518  27.295  1.00  0.00     0.074 A 
ATOM     43  C   UNL A   1      42.027  25.799  27.978  1.00  0.00     0.049 A 
ATOM     44  N   UNL A   1      44.870  26.699  27.576  1.00  0.00    -0.248 NA
ATOM     45  C   UNL A   1      45.388  24.573  26.769  1.00  0.00     0.031 C 
ATOM     46  C   UNL A   1      40.645  25.396  28.241  1.00  0.00     0.029 A 
ATOM     47  N   UNL A   1      42.077  27.106  28.397  1.00  0.00    -0.354 N 
ATOM     48  C   UNL A   1      46.227  26.635  27.286  1.00  0.00     0.074 A 
ATOM     49  C   UNL A   1      46.503  25.285  26.847  1.00  0.00     0.031 C 
ATOM     50  C   UNL A   1      39.976  26.436  28.763  1.00  0.00     0.029 A 
ATOM     51  C   UNL A   1      40.884  27.570  28.901  1.00  0.00     0.049 A 
ATOM     52  H   UNL A   1      42.890  27.659  28.343  1.00  0.00     0.167 HD
ATOM     53  C   UNL A   1      47.153  27.620  27.344  1.00  0.00     0.034 A 
ATOM     54  C   UNL A   1      40.558  28.773  29.416  1.00  0.00     0.034 A 
ATOM     55  C   UNL A   1      46.864  28.970  27.742  1.00  0.00     0.049 A 
ATOM     56  C   UNL A   1      41.603  29.856  29.454  1.00  0.00     0.074 A 
ATOM     57  C   UNL A   1      47.716  30.059  27.763  1.00  0.00     0.029 A 
ATOM     58  N   UNL A   1      45.631  29.419  28.191  1.00  0.00    -0.354 N 
ATOM     59  N   UNL A   1      42.847  29.818  29.038  1.00  0.00    -0.248 NA
ATOM     60  C   UNL A   1      41.195  31.158  30.002  1.00  0.00     0.031 C 
ATOM     61  C   UNL A   1      47.007  31.159  28.253  1.00  0.00     0.029 A 
ATOM     62  C   UNL A   1      45.703  30.764  28.507  1.00  0.00     0.049 A 
ATOM     63  H   UNL A   1      44.823  28.862  28.274  1.00  0.00     0.167 HD
ATOM     64  C   UNL A   1      43.360  31.093  29.247  1.00  0.00     0.074 A 
ATOM     65  C   UNL A   1      42.285  31.888  29.803  1.00  0.00     0.031 C 
ATOM     66  C   UNL A   1      44.613  31.558  29.017  1.00  0.00     0.034 A 
BRANCH  53  67
ATOM     67  C   UNL A   1      48.557  27.296  26.904  1.00  0.00     0.023 A 
ATOM     68  C   UNL A   1      49.423  26.625  27.792  1.00  0.00     0.012 A 
ATOM     69  C   UNL A   1      48.992  27.572  25.592  1.00  0.00     0.148 A 
ATOM     70  C   UNL A   1      50.707  26.257  27.392  1.00  0.00     0.002 A 
ATOM     71  C   UNL A   1      50.256  27.160  25.186  1.00  0.00     0.091 A 
ATOM     72  F   UNL A   1      48.162  28.229  24.770  1.00  0.00    -0.205 F 
ATOM     73  C   UNL A   1      51.118  26.513  26.087  1.00  0.00     0.022 A 
BRANCH  71  74
ATOM     74  S   UNL A   1      50.849  27.359  23.502  1.00  0.00     0.127 S 
ATOM     75  O   UNL A   1      52.111  26.621  23.545  1.00  0.00    -0.237 OA
ATOM     76  O   UNL A   1      49.791  26.713  22.727  1.00  0.00    -0.237 OA
ATOM     77  O   UNL A   1      50.976  28.793  23.286  1.00  0.00    -0.744 OA
ENDBRANCH  71  74
ENDBRANCH  53  67
BRANCH  54  78
ATOM     78  C   UNL A   1      39.158  29.032  29.857  1.00  0.00     0.023 A 
ATOM     79  C   UNL A   1      38.775  28.687  31.169  1.00  0.00     0.012 A 
ATOM     80  C   UNL A   1      38.224  29.667  29.015  1.00  0.00     0.148 A 
ATOM     81  C   UNL A   1      37.484  28.950  31.626  1.00  0.00     0.002 A 
ATOM     82  C   UNL A   1      36.957  29.979  29.496  1.00  0.00     0.091 A 
ATOM     83  F   UNL A   1      38.604  29.979  27.769  1.00  0.00    -0.205 F 
ATOM     84  C   UNL A   1      36.580  29.607  30.795  1.00  0.00     0.022 A 
BRANCH  82  85
ATOM     85  S   UNL A   1      35.773  30.946  28.552  1.00  0.00     0.127 S 
ATOM     86  O   UNL A   1      36.642  31.904  27.873  1.00  0.00    -0.237 OA
ATOM     87  O   UNL A   1      35.181  29.928  27.683  1.00  0.00    -0.237 OA
ATOM     88  O   UNL A   1      34.855  31.513  29.529  1.00  0.00    -0.744 OA
ENDBRANCH  82  85
ENDBRANCH  54  78
BRANCH  66  89
ATOM     89  C   UNL A   1      44.909  32.997  29.352  1.00  0.00     0.023 A 
ATOM     90  C   UNL A   1      45.430  33.323  30.620  1.00  0.00     0.012 A 
ATOM     91  C   UNL A   1      44.787  34.006  28.375  1.00  0.00     0.148 A 
ATOM     92  C   UNL A   1      45.804  34.633  30.918  1.00  0.00     0.002 A 
ATOM     93  C   UNL A   1      45.211  35.298  28.662  1.00  0.00     0.091 A 
ATOM     94  F   UNL A   1      44.276  33.679  27.179  1.00  0.00    -0.205 F 
ATOM     95  C   UNL A   1      45.709  35.616  29.936  1.00  0.00     0.022 A 
BRANCH  93  96
ATOM     96  S   UNL A   1      45.232  36.606  27.431  1.00  0.00     0.127 S 
ATOM     97  O   UNL A   1      46.105  36.038  26.406  1.00  0.00    -0.237 OA
ATOM     98  O   UNL A   1      43.822  36.695  27.050  1.00  0.00    -0.237 OA
ATOM     99  O   UNL A   1      45.753  37.788  28.106  1.00  0.00    -0.744 OA
ENDBRANCH  93  96
ENDBRANCH  66  89
ENDBRANCH  40  41
ENDBRANCH  32  35
ENDBRANCH  30  31
ENDBRANCH  29  30
ENDBRANCH   1  29
TORSDOF 19
ENDMDL
MODEL 2
REMARK VINA RESULT:     -11.6      5.852     11.404
REMARK SMILES Nc1c(N2CCCC2)ncnc1N1CCC(C(=O)NCCCCCCNC(=O)c2ccc(-c3c4nc(c(-c5cccc(S(=O)(=O)[O-])c5F)c5ccc([nH]5)c(-c5cccc(S(=O)(=O)[O-])c5F)c5nc(c(-c6cccc(S(=O)(=O)[O-])c6F)c6ccc3[nH]6)C=C5)C=C4)cc2)CC1
REMARK SMILES IDX 23 1 22 2 21 3 20 4 19 5 17 6 18 7 16 9 13 10 14 11 93 12
REMARK SMILES IDX 15 13 92 14 12 15 2 16 3 17 9 18 11 19 10 20 1 21 4 24 5 25
REMARK SMILES IDX 8 26 6 27 7 28 24 29 25 30 26 31 27 32 28 34 29 35 30 36
REMARK SMILES IDX 91 37 31 38 90 39 32 40 33 41 34 42 84 43 35 44 89 45 83 46
REMARK SMILES IDX 85 47 36 48 88 49 82 50 81 51 37 53 69 54 49 55 68 56 50 57
REMARK SMILES IDX 53 58 67 59 86 60 51 61 52 62 66 64 87 65 54 66 38 67 39 68
REMARK SMILES IDX 47 69 40 70 42 71 48 72 41 73 43 74 44 75 45 76 46 77 70 78
REMARK SMILES IDX 71 79 79 80 72 81 74 82 80 83 73 84 75 85 76 86 77 87 78 88
REMARK SMILES IDX 55 89 56 90 64 91 57 92 59 93 65 94 58 95 60 96 61 97 62 98
REMARK SMILES IDX 63 99
REMARK H PARENT 19 8 1 22 1 23 26 33 85 52 53 63
REMARK Flexibility Score: inf
ROOT
ATOM      1  C   UNL A   1      34.216  30.562  27.978  1.00  0.00     0.002 C 
ENDROOT
BRANCH   1   2
ATOM      2  C   UNL A   1      34.959  29.502  27.158  1.00  0.00     0.002 C 
BRANCH   2   3
ATOM      3  C   UNL A   1      34.062  28.441  26.514  1.00  0.00     0.021 C 
BRANCH   3   4
ATOM      4  C   UNL A   1      32.730  28.239  27.234  1.00  0.00     0.116 C 
BRANCH   4   5
ATOM      5  N   UNL A   1      31.669  27.926  26.287  1.00  0.00    -0.356 N 
ATOM      6  C   UNL A   1      31.226  26.727  25.820  1.00  0.00     0.223 C 
ATOM      7  O   UNL A   1      30.333  26.725  24.968  1.00  0.00    -0.275 OA
ATOM      8  H   UNL A   1      31.194  28.708  25.926  1.00  0.00     0.163 HD
BRANCH   6   9
ATOM      9  C   UNL A   1      31.786  25.416  26.352  1.00  0.00     0.082 C 
ATOM     10  N   UNL A   1      32.341  22.740  25.669  1.00  0.00    -0.355 N 
ATOM     11  C   UNL A   1      31.233  22.923  26.577  1.00  0.00     0.119 C 
ATOM     12  C   UNL A   1      33.492  23.611  25.783  1.00  0.00     0.119 C 
ATOM     13  C   UNL A   1      30.693  24.339  26.460  1.00  0.00     0.035 C 
ATOM     14  C   UNL A   1      33.052  25.045  25.563  1.00  0.00     0.035 C 
BRANCH  10  15
ATOM     15  C   UNL A   1      32.365  21.628  24.844  1.00  0.00     0.157 A 
ATOM     16  C   UNL A   1      32.850  20.395  25.304  1.00  0.00     0.118 A 
ATOM     17  C   UNL A   1      32.929  19.356  24.363  1.00  0.00     0.157 A 
ATOM     18  N   UNL A   1      32.561  19.525  23.085  1.00  0.00    -0.217 NA
ATOM     19  N   UNL A   1      31.929  21.789  23.582  1.00  0.00    -0.217 NA
ATOM     20  C   UNL A   1      32.077  20.734  22.764  1.00  0.00     0.226 A 
BRANCH  16  21
ATOM     21  N   UNL A   1      33.331  20.213  26.617  1.00  0.00    -0.393 N 
ATOM     22  H   UNL A   1      33.739  20.967  27.100  1.00  0.00     0.156 HD
ATOM     23  H   UNL A   1      33.257  19.332  27.050  1.00  0.00     0.156 HD
ENDBRANCH  16  21
BRANCH  17  24
ATOM     24  N   UNL A   1      33.391  18.123  24.780  1.00  0.00    -0.355 N 
ATOM     25  C   UNL A   1      32.473  17.022  24.984  1.00  0.00     0.118 C 
ATOM     26  C   UNL A   1      34.700  17.629  24.382  1.00  0.00     0.118 C 
ATOM     27  C   UNL A   1      33.389  16.033  25.688  1.00  0.00     0.023 C 
ATOM     28  C   UNL A   1      34.715  16.194  24.941  1.00  0.00     0.023 C 
ENDBRANCH  17  24
ENDBRANCH  10  15
ENDBRANCH   6   9
ENDBRANCH   4   5
ENDBRANCH   3   4
ENDBRANCH   2   3
ENDBRANCH   1   2
BRANCH   1  29
ATOM     29  C   UNL A   1      33.884  31.850  27.222  1.00  0.00     0.021 C 
BRANCH  29  30
ATOM     30  C   UNL A   1      32.556  32.487  27.613  1.00  0.00     0.116 C 
BRANCH  30  31
ATOM     31  N   UNL A   1      32.666  33.932  27.750  1.00  0.00    -0.352 N 
ATOM     32  C   UNL A   1      33.549  34.662  28.503  1.00  0.00     0.251 C 
ATOM     33  H   UNL A   1      32.015  34.457  27.230  1.00  0.00     0.163 HD
ATOM     34  O   UNL A   1      33.375  35.868  28.664  1.00  0.00    -0.269 OA
BRANCH  32  35
ATOM     35  C   UNL A   1      34.704  33.987  29.128  1.00  0.00     0.039 A 
ATOM     36  C   UNL A   1      34.498  33.207  30.269  1.00  0.00     0.014 A 
ATOM     37  C   UNL A   1      35.985  34.119  28.584  1.00  0.00     0.014 A 
ATOM     38  C   UNL A   1      35.572  32.522  30.838  1.00  0.00     0.010 A 
ATOM     39  C   UNL A   1      37.039  33.378  29.108  1.00  0.00     0.010 A 
ATOM     40  C   UNL A   1      36.846  32.582  30.247  1.00  0.00    -0.014 A 
BRANCH  40  41
ATOM     41  C   UNL A   1      37.991  31.828  30.815  1.00  0.00     0.031 A 
ATOM     42  C   UNL A   1      38.523  32.180  32.178  1.00  0.00     0.074 A 
ATOM     43  C   UNL A   1      38.589  30.870  30.080  1.00  0.00     0.049 A 
ATOM     44  N   UNL A   1      39.529  31.658  32.828  1.00  0.00    -0.248 NA
ATOM     45  C   UNL A   1      37.850  33.275  32.896  1.00  0.00     0.031 C 
ATOM     46  C   UNL A   1      38.204  30.485  28.722  1.00  0.00     0.029 A 
ATOM     47  N   UNL A   1      39.659  30.058  30.365  1.00  0.00    -0.354 N 
ATOM     48  C   UNL A   1      39.627  32.372  34.015  1.00  0.00     0.074 A 
ATOM     49  C   UNL A   1      38.604  33.395  33.980  1.00  0.00     0.031 C 
ATOM     50  C   UNL A   1      39.015  29.503  28.298  1.00  0.00     0.029 A 
ATOM     51  C   UNL A   1      39.996  29.208  29.338  1.00  0.00     0.049 A 
ATOM     52  H   UNL A   1      40.139  30.081  31.224  1.00  0.00     0.167 HD
ATOM     53  C   UNL A   1      40.466  32.172  35.058  1.00  0.00     0.034 A 
ATOM     54  C   UNL A   1      40.983  28.294  29.243  1.00  0.00     0.034 A 
ATOM     55  C   UNL A   1      41.453  31.128  35.104  1.00  0.00     0.049 A 
ATOM     56  C   UNL A   1      41.893  28.081  30.424  1.00  0.00     0.074 A 
ATOM     57  C   UNL A   1      42.301  30.796  36.144  1.00  0.00     0.029 A 
ATOM     58  N   UNL A   1      41.727  30.249  34.067  1.00  0.00    -0.354 N 
ATOM     59  N   UNL A   1      41.875  28.668  31.596  1.00  0.00    -0.248 NA
ATOM     60  C   UNL A   1      42.939  27.057  30.283  1.00  0.00     0.031 C 
ATOM     61  C   UNL A   1      43.110  29.735  35.727  1.00  0.00     0.029 A 
ATOM     62  C   UNL A   1      42.743  29.385  34.437  1.00  0.00     0.049 A 
ATOM     63  H   UNL A   1      41.269  30.241  33.196  1.00  0.00     0.167 HD
ATOM     64  C   UNL A   1      42.885  28.069  32.341  1.00  0.00     0.074 A 
ATOM     65  C   UNL A   1      43.478  27.054  31.495  1.00  0.00     0.031 C 
ATOM     66  C   UNL A   1      43.295  28.346  33.603  1.00  0.00     0.034 A 
BRANCH  53  67
ATOM     67  C   UNL A   1      40.314  33.057  36.267  1.00  0.00     0.023 A 
ATOM     68  C   UNL A   1      40.942  34.320  36.285  1.00  0.00     0.012 A 
ATOM     69  C   UNL A   1      39.483  32.685  37.343  1.00  0.00     0.148 A 
ATOM     70  C   UNL A   1      40.768  35.186  37.363  1.00  0.00     0.002 A 
ATOM     71  C   UNL A   1      39.277  33.573  38.392  1.00  0.00     0.091 A 
ATOM     72  F   UNL A   1      38.911  31.473  37.318  1.00  0.00    -0.205 F 
ATOM     73  C   UNL A   1      39.926  34.818  38.409  1.00  0.00     0.022 A 
BRANCH  71  74
ATOM     74  S   UNL A   1      38.143  33.235  39.744  1.00  0.00     0.127 S 
ATOM     75  O   UNL A   1      38.245  34.465  40.529  1.00  0.00    -0.237 OA
ATOM     76  O   UNL A   1      36.872  33.064  39.042  1.00  0.00    -0.237 OA
ATOM     77  O   UNL A   1      38.644  32.036  40.401  1.00  0.00    -0.744 OA
ENDBRANCH  71  74
ENDBRANCH  53  67
BRANCH  54  78
ATOM     78  C   UNL A   1      41.102  27.461  28.013  1.00  0.00     0.023 A 
ATOM     79  C   UNL A   1      41.707  28.010  26.865  1.00  0.00     0.012 A 
ATOM     80  C   UNL A   1      40.676  26.117  27.987  1.00  0.00     0.148 A 
ATOM     81  C   UNL A   1      41.868  27.245  25.710  1.00  0.00     0.002 A 
ATOM     82  C   UNL A   1      40.892  25.344  26.852  1.00  0.00     0.091 A 
ATOM     83  F   UNL A   1      40.094  25.616  29.085  1.00  0.00    -0.205 F 
ATOM     84  C   UNL A   1      41.473  25.910  25.707  1.00  0.00     0.022 A 
BRANCH  82  85
ATOM     85  S   UNL A   1      40.546  23.582  26.801  1.00  0.00     0.127 S 
ATOM     86  O   UNL A   1      40.915  23.164  28.151  1.00  0.00    -0.237 OA
ATOM     87  O   UNL A   1      39.111  23.566  26.522  1.00  0.00    -0.237 OA
ATOM     88  O   UNL A   1      41.375  23.046  25.730  1.00  0.00    -0.744 OA
ENDBRANCH  82  85
ENDBRANCH  54  78
BRANCH  66  89
ATOM     89  C   UNL A   1      44.438  27.544  34.170  1.00  0.00     0.023 A 
ATOM     90  C   UNL A   1      45.758  28.011  34.019  1.00  0.00     0.012 A 
ATOM     91  C   UNL A   1      44.196  26.397  34.954  1.00  0.00     0.148 A 
ATOM     92  C   UNL A   1      46.822  27.339  34.620  1.00  0.00     0.002 A 
ATOM     93  C   UNL A   1      45.254  25.764  35.593  1.00  0.00     0.091 A 
ATOM     94  F   UNL A   1      42.934  25.960  35.075  1.00  0.00    -0.205 F 
ATOM     95  C   UNL A   1      46.569  26.226  35.418  1.00  0.00     0.022 A 
BRANCH  93  96
ATOM     96  S   UNL A   1      45.019  24.391  36.728  1.00  0.00     0.127 S 
ATOM     97  O   UNL A   1      44.539  23.341  35.831  1.00  0.00    -0.237 OA
ATOM     98  O   UNL A   1      46.371  24.181  37.246  1.00  0.00    -0.237 OA
ATOM     99  O   UNL A   1      44.055  24.848  37.721  1.00  0.00    -0.744 OA
ENDBRANCH  93  96
ENDBRANCH  66  89
ENDBRANCH  40  41
ENDBRANCH  32  35
ENDBRANCH  30  31
ENDBRANCH  29  30
ENDBRANCH   1  29
TORSDOF 19
ENDMDL
MODEL 3
REMARK VINA RESULT:     -11.5      5.337     10.878
REMARK SMILES Nc1c(N2CCCC2)ncnc1N1CCC(C(=O)NCCCCCCNC(=O)c2ccc(-c3c4nc(c(-c5cccc(S(=O)(=O)[O-])c5F)c5ccc([nH]5)c(-c5cccc(S(=O)(=O)[O-])c5F)c5nc(c(-c6cccc(S(=O)(=O)[O-])c6F)c6ccc3[nH]6)C=C5)C=C4)cc2)CC1
REMARK SMILES IDX 23 1 22 2 21 3 20 4 19 5 17 6 18 7 16 9 13 10 14 11 93 12
REMARK SMILES IDX 15 13 92 14 12 15 2 16 3 17 9 18 11 19 10 20 1 21 4 24 5 25
REMARK SMILES IDX 8 26 6 27 7 28 24 29 25 30 26 31 27 32 28 34 29 35 30 36
REMARK SMILES IDX 91 37 31 38 90 39 32 40 33 41 34 42 84 43 35 44 89 45 83 46
REMARK SMILES IDX 85 47 36 48 88 49 82 50 81 51 37 53 69 54 49 55 68 56 50 57
REMARK SMILES IDX 53 58 67 59 86 60 51 61 52 62 66 64 87 65 54 66 38 67 39 68
REMARK SMILES IDX 47 69 40 70 42 71 48 72 41 73 43 74 44 75 45 76 46 77 70 78
REMARK SMILES IDX 71 79 79 80 72 81 74 82 80 83 73 84 75 85 76 86 77 87 78 88
REMARK SMILES IDX 55 89 56 90 64 91 57 92 59 93 65 94 58 95 60 96 61 97 62 98
REMARK SMILES IDX 63 99
REMARK H PARENT 19 8 1 22 1 23 26 33 85 52 53 63
REMARK Flexibility Score: inf
ROOT
ATOM      1  C   UNL A   1      31.253  28.373  25.865  1.00  0.00     0.002 C 
ENDROOT
BRANCH   1   2
ATOM      2  C   UNL A   1      31.315  29.077  24.506  1.00  0.00     0.002 C 
BRANCH   2   3
ATOM      3  C   UNL A   1      30.088  28.865  23.614  1.00  0.00     0.021 C 
BRANCH   3   4
ATOM      4  C   UNL A   1      30.361  28.001  22.384  1.00  0.00     0.116 C 
BRANCH   4   5
ATOM      5  N   UNL A   1      31.787  27.945  22.094  1.00  0.00    -0.356 N 
ATOM      6  C   UNL A   1      32.637  26.883  22.033  1.00  0.00     0.223 C 
ATOM      7  O   UNL A   1      33.832  27.102  21.817  1.00  0.00    -0.275 OA
ATOM      8  H   UNL A   1      32.206  28.817  21.912  1.00  0.00     0.163 HD
BRANCH   6   9
ATOM      9  C   UNL A   1      32.131  25.458  22.191  1.00  0.00     0.082 C 
ATOM     10  N   UNL A   1      32.747  22.938  23.294  1.00  0.00    -0.355 N 
ATOM     11  C   UNL A   1      32.829  23.014  21.854  1.00  0.00     0.119 C 
ATOM     12  C   UNL A   1      31.711  23.687  23.976  1.00  0.00     0.119 C 
ATOM     13  C   UNL A   1      33.010  24.459  21.417  1.00  0.00     0.035 C 
ATOM     14  C   UNL A   1      31.892  25.164  23.681  1.00  0.00     0.035 C 
BRANCH  10  15
ATOM     15  C   UNL A   1      33.524  22.014  23.970  1.00  0.00     0.157 A 
ATOM     16  C   UNL A   1      33.234  20.644  23.912  1.00  0.00     0.118 A 
ATOM     17  C   UNL A   1      34.017  19.797  24.715  1.00  0.00     0.157 A 
ATOM     18  N   UNL A   1      34.997  20.269  25.500  1.00  0.00    -0.217 NA
ATOM     19  N   UNL A   1      34.548  22.490  24.701  1.00  0.00    -0.217 NA
ATOM     20  C   UNL A   1      35.211  21.591  25.447  1.00  0.00     0.226 A 
BRANCH  16  21
ATOM     21  N   UNL A   1      32.153  20.129  23.169  1.00  0.00    -0.393 N 
ATOM     22  H   UNL A   1      31.493  20.742  22.771  1.00  0.00     0.156 HD
ATOM     23  H   UNL A   1      32.057  19.157  23.047  1.00  0.00     0.156 HD
ENDBRANCH  16  21
BRANCH  17  24
ATOM     24  N   UNL A   1      33.770  18.439  24.677  1.00  0.00    -0.355 N 
ATOM     25  C   UNL A   1      34.791  17.516  24.227  1.00  0.00     0.118 C 
ATOM     26  C   UNL A   1      32.896  17.800  25.648  1.00  0.00     0.118 C 
ATOM     27  C   UNL A   1      33.968  16.244  24.098  1.00  0.00     0.023 C 
ATOM     28  C   UNL A   1      33.042  16.304  25.316  1.00  0.00     0.023 C 
ENDBRANCH  17  24
ENDBRANCH  10  15
ENDBRANCH   6   9
ENDBRANCH   4   5
ENDBRANCH   3   4
ENDBRANCH   2   3
ENDBRANCH   1   2
BRANCH   1  29
ATOM     29  C   UNL A   1      31.920  29.127  27.017  1.00  0.00     0.021 C 
BRANCH  29  30
ATOM     30  C   UNL A   1      33.234  29.806  26.649  1.00  0.00     0.116 C 
BRANCH  30  31
ATOM     31  N   UNL A   1      33.201  31.236  26.918  1.00  0.00    -0.352 N 
ATOM     32  C   UNL A   1      34.032  31.984  27.711  1.00  0.00     0.251 C 
ATOM     33  H   UNL A   1      32.481  31.735  26.467  1.00  0.00     0.163 HD
ATOM     34  O   UNL A   1      33.741  33.145  27.990  1.00  0.00    -0.269 OA
BRANCH  32  35
ATOM     35  C   UNL A   1      35.272  31.380  28.239  1.00  0.00     0.039 A 
ATOM     36  C   UNL A   1      36.473  32.084  28.119  1.00  0.00     0.014 A 
ATOM     37  C   UNL A   1      35.246  30.125  28.854  1.00  0.00     0.014 A 
ATOM     38  C   UNL A   1      37.642  31.547  28.662  1.00  0.00     0.010 A 
ATOM     39  C   UNL A   1      36.395  29.627  29.457  1.00  0.00     0.010 A 
ATOM     40  C   UNL A   1      37.608  30.326  29.357  1.00  0.00    -0.014 A 
BRANCH  40  41
ATOM     41  C   UNL A   1      38.832  29.760  29.973  1.00  0.00     0.031 A 
ATOM     42  C   UNL A   1      39.329  30.290  31.290  1.00  0.00     0.074 A 
ATOM     43  C   UNL A   1      39.531  28.811  29.318  1.00  0.00     0.049 A 
ATOM     44  N   UNL A   1      40.390  29.945  31.969  1.00  0.00    -0.248 NA
ATOM     45  C   UNL A   1      38.541  31.365  31.917  1.00  0.00     0.031 C 
ATOM     46  C   UNL A   1      39.184  28.264  28.005  1.00  0.00     0.029 A 
ATOM     47  N   UNL A   1      40.686  28.152  29.658  1.00  0.00    -0.354 N 
ATOM     48  C   UNL A   1      40.413  30.770  33.085  1.00  0.00     0.074 A 
ATOM     49  C   UNL A   1      39.282  31.665  32.974  1.00  0.00     0.031 C 
ATOM     50  C   UNL A   1      40.098  27.344  27.658  1.00  0.00     0.029 A 
ATOM     51  C   UNL A   1      41.111  27.256  28.706  1.00  0.00     0.049 A 
ATOM     52  H   UNL A   1      41.165  28.307  30.504  1.00  0.00     0.167 HD
ATOM     53  C   UNL A   1      41.275  30.761  34.129  1.00  0.00     0.034 A 
ATOM     54  C   UNL A   1      42.194  26.452  28.679  1.00  0.00     0.034 A 
ATOM     55  C   UNL A   1      42.372  29.841  34.254  1.00  0.00     0.049 A 
ATOM     56  C   UNL A   1      43.128  26.449  29.860  1.00  0.00     0.074 A 
ATOM     57  C   UNL A   1      43.258  29.702  35.307  1.00  0.00     0.029 A 
ATOM     58  N   UNL A   1      42.739  28.908  33.296  1.00  0.00    -0.354 N 
ATOM     59  N   UNL A   1      43.050  27.135  30.975  1.00  0.00    -0.248 NA
ATOM     60  C   UNL A   1      44.282  25.540  29.795  1.00  0.00     0.031 C 
ATOM     61  C   UNL A   1      44.178  28.704  34.974  1.00  0.00     0.029 A 
ATOM     62  C   UNL A   1      43.847  28.199  33.727  1.00  0.00     0.049 A 
ATOM     63  H   UNL A   1      42.279  28.770  32.437  1.00  0.00     0.167 HD
ATOM     64  C   UNL A   1      44.125  26.722  31.755  1.00  0.00     0.074 A 
ATOM     65  C   UNL A   1      44.824  25.707  30.995  1.00  0.00     0.031 C 
ATOM     66  C   UNL A   1      44.508  27.157  32.981  1.00  0.00     0.034 A 
BRANCH  53  67
ATOM     67  C   UNL A   1      41.030  31.729  35.256  1.00  0.00     0.023 A 
ATOM     68  C   UNL A   1      41.940  32.786  35.472  1.00  0.00     0.012 A 
ATOM     69  C   UNL A   1      39.863  31.653  36.043  1.00  0.00     0.148 A 
ATOM     70  C   UNL A   1      41.707  33.733  36.468  1.00  0.00     0.002 A 
ATOM     71  C   UNL A   1      39.614  32.628  37.001  1.00  0.00     0.091 A 
ATOM     72  F   UNL A   1      39.020  30.631  35.837  1.00  0.00    -0.205 F 
ATOM     73  C   UNL A   1      40.539  33.662  37.222  1.00  0.00     0.022 A 
BRANCH  71  74
ATOM     74  S   UNL A   1      38.099  32.680  37.965  1.00  0.00     0.127 S 
ATOM     75  O   UNL A   1      38.349  31.640  38.963  1.00  0.00    -0.237 OA
ATOM     76  O   UNL A   1      38.118  34.045  38.491  1.00  0.00    -0.237 OA
ATOM     77  O   UNL A   1      37.017  32.400  37.033  1.00  0.00    -0.744 OA
ENDBRANCH  71  74
ENDBRANCH  53  67
BRANCH  54  78
ATOM     78  C   UNL A   1      42.400  25.529  27.527  1.00  0.00     0.023 A 
ATOM     79  C   UNL A   1      43.243  25.924  26.469  1.00  0.00     0.012 A 
ATOM     80  C   UNL A   1      41.817  24.246  27.496  1.00  0.00     0.148 A 
ATOM     81  C   UNL A   1      43.487  25.069  25.395  1.00  0.00     0.002 A 
ATOM     82  C   UNL A   1      42.111  23.377  26.451  1.00  0.00     0.091 A 
ATOM     83  F   UNL A   1      41.010  23.892  28.505  1.00  0.00    -0.205 F 
ATOM     84  C   UNL A   1      42.932  23.792  25.391  1.00  0.00     0.022 A 
BRANCH  82  85
ATOM     85  S   UNL A   1      41.558  21.668  26.428  1.00  0.00     0.127 S 
ATOM     86  O   UNL A   1      42.449  21.077  25.433  1.00  0.00    -0.237 OA
ATOM     87  O   UNL A   1      41.812  21.252  27.807  1.00  0.00    -0.237 OA
ATOM     88  O   UNL A   1      40.149  21.712  26.062  1.00  0.00    -0.744 OA
ENDBRANCH  82  85
ENDBRANCH  54  78
BRANCH  66  89
ATOM     89  C   UNL A   1      45.736  26.542  33.601  1.00  0.00     0.023 A 
ATOM     90  C   UNL A   1      46.982  27.183  33.458  1.00  0.00     0.012 A 
ATOM     91  C   UNL A   1      45.636  25.400  34.422  1.00  0.00     0.148 A 
ATOM     92  C   UNL A   1      48.114  26.687  34.105  1.00  0.00     0.002 A 
ATOM     93  C   UNL A   1      46.756  24.943  35.105  1.00  0.00     0.091 A 
ATOM     94  F   UNL A   1      44.444  24.796  34.533  1.00  0.00    -0.205 F 
ATOM     95  C   UNL A   1      47.998  25.577  34.939  1.00  0.00     0.022 A 
BRANCH  93  96
ATOM     96  S   UNL A   1      46.684  23.591  36.286  1.00  0.00     0.127 S 
ATOM     97  O   UNL A   1      48.075  23.506  36.727  1.00  0.00    -0.237 OA
ATOM     98  O   UNL A   1      45.755  24.106  37.291  1.00  0.00    -0.237 OA
ATOM     99  O   UNL A   1      46.195  22.434  35.546  1.00  0.00    -0.744 OA
ENDBRANCH  93  96
ENDBRANCH  66  89
ENDBRANCH  40  41
ENDBRANCH  32  35
ENDBRANCH  30  31
ENDBRANCH  29  30
ENDBRANCH   1  29
TORSDOF 19
ENDMDL
