MODEL 1
REMARK VINA RESULT:     -12.7      0.000      0.000
REMARK SMILES CN1C(=O)C[C@@H](C(=O)NCCCCCCNC(=O)c2ccc(-c3c4nc(c(-c5cccc(S(=O)(=O)[O-])c5F)c5ccc([nH]5)c(-c5cccc(S(=O)(=O)[O-])c5F)c5nc(c(-c6cccc(S(=O)(=O)[O-])c6F)c6ccc3[nH]6)C=C5)C=C4)cc2)C12CCN(c1ccc(Cl)cn1)CC2
REMARK SMILES IDX 13 1 12 2 11 3 10 4 9 5 7 6 8 7 6 9 1 10 2 11 3 12 82 13
REMARK SMILES IDX 4 14 5 15 83 16 94 17 84 18 93 19 85 20 86 21 87 22 92 23
REMARK SMILES IDX 88 24 91 25 89 26 90 27 14 28 15 29 16 30 17 31 18 33 19 34
REMARK SMILES IDX 20 35 81 36 21 37 80 38 22 39 23 40 24 41 74 42 25 43 79 44
REMARK SMILES IDX 73 45 75 46 26 47 78 48 72 49 71 50 27 52 59 53 39 54 58 55
REMARK SMILES IDX 40 56 43 57 57 58 76 59 41 60 42 61 56 63 77 64 44 65 28 66
REMARK SMILES IDX 29 67 37 68 30 69 32 70 38 71 31 72 33 73 34 74 35 75 36 76
REMARK SMILES IDX 60 77 61 78 69 79 62 80 64 81 70 82 63 83 65 84 66 85 67 86
REMARK SMILES IDX 68 87 45 88 46 89 54 90 47 91 49 92 55 93 48 94 50 95 51 96
REMARK SMILES IDX 52 97 53 98
REMARK H PARENT 9 8 16 32 75 51 43 62
REMARK Flexibility Score: inf
ROOT
ATOM      1  C   UNL A   1      31.667  30.679  25.980  1.00  0.00     0.002 C 
ENDROOT
BRANCH   1   2
ATOM      2  C   UNL A   1      32.565  29.637  26.647  1.00  0.00     0.002 C 
BRANCH   2   3
ATOM      3  C   UNL A   1      31.831  28.698  27.602  1.00  0.00     0.021 C 
BRANCH   3   4
ATOM      4  C   UNL A   1      31.758  27.248  27.120  1.00  0.00     0.116 C 
BRANCH   4   5
ATOM      5  N   UNL A   1      30.986  27.093  25.900  1.00  0.00    -0.356 N 
ATOM      6  C   UNL A   1      31.294  26.657  24.655  1.00  0.00     0.226 C 
ATOM      7  O   UNL A   1      30.354  26.609  23.852  1.00  0.00    -0.275 OA
ATOM      8  H   UNL A   1      30.043  27.359  25.999  1.00  0.00     0.163 HD
BRANCH   6   9
ATOM      9  C   UNL A   1      32.692  26.259  24.168  1.00  0.00     0.113 C 
ATOM     10  C   UNL A   1      32.830  25.511  20.512  1.00  0.00     0.147 C 
ATOM     11  N   UNL A   1      33.007  25.973  21.877  1.00  0.00    -0.339 N 
ATOM     12  C   UNL A   1      33.546  27.225  22.153  1.00  0.00     0.223 C 
ATOM     13  C   UNL A   1      32.806  25.159  23.084  1.00  0.00     0.058 C 
ATOM     14  O   UNL A   1      33.947  28.041  21.345  1.00  0.00    -0.275 OA
ATOM     15  C   UNL A   1      33.505  27.441  23.641  1.00  0.00     0.116 C 
ATOM     16  C   UNL A   1      31.580  24.227  23.005  1.00  0.00     0.051 C 
ATOM     17  C   UNL A   1      34.085  24.285  23.321  1.00  0.00     0.051 C 
ATOM     18  C   UNL A   1      31.476  23.311  24.209  1.00  0.00     0.120 C 
ATOM     19  C   UNL A   1      33.934  23.256  24.459  1.00  0.00     0.120 C 
ATOM     20  N   UNL A   1      32.697  22.541  24.240  1.00  0.00    -0.356 N 
BRANCH  20  21
ATOM     21  C   UNL A   1      32.605  21.176  24.323  1.00  0.00     0.128 A 
ATOM     22  C   UNL A   1      32.887  20.554  25.544  1.00  0.00     0.048 A 
ATOM     23  N   UNL A   1      32.300  20.463  23.222  1.00  0.00    -0.238 NA
ATOM     24  C   UNL A   1      32.892  19.165  25.640  1.00  0.00     0.026 A 
ATOM     25  C   UNL A   1      32.342  19.110  23.329  1.00  0.00     0.134 A 
ATOM     26  C   UNL A   1      32.631  18.426  24.500  1.00  0.00     0.059 A 
ATOM     27  Cl  UNL A   1      32.674  16.712  24.545  1.00  0.00    -0.083 Cl
ENDBRANCH  20  21
ENDBRANCH   6   9
ENDBRANCH   4   5
ENDBRANCH   3   4
ENDBRANCH   2   3
ENDBRANCH   1   2
BRANCH   1  28
ATOM     28  C   UNL A   1      31.452  31.954  26.801  1.00  0.00     0.021 C 
BRANCH  28  29
ATOM     29  C   UNL A   1      32.736  32.592  27.321  1.00  0.00     0.116 C 
BRANCH  29  30
ATOM     30  N   UNL A   1      32.551  34.005  27.609  1.00  0.00    -0.352 N 
ATOM     31  C   UNL A   1      33.103  34.759  28.611  1.00  0.00     0.251 C 
ATOM     32  H   UNL A   1      31.946  34.487  26.999  1.00  0.00     0.163 HD
ATOM     33  O   UNL A   1      32.650  35.869  28.871  1.00  0.00    -0.269 OA
BRANCH  31  34
ATOM     34  C   UNL A   1      34.244  34.219  29.375  1.00  0.00     0.039 A 
ATOM     35  C   UNL A   1      34.000  33.480  30.534  1.00  0.00     0.014 A 
ATOM     36  C   UNL A   1      35.554  34.444  28.941  1.00  0.00     0.014 A 
ATOM     37  C   UNL A   1      35.073  32.929  31.236  1.00  0.00     0.010 A 
ATOM     38  C   UNL A   1      36.613  33.827  29.595  1.00  0.00     0.010 A 
ATOM     39  C   UNL A   1      36.386  33.077  30.758  1.00  0.00    -0.014 A 
BRANCH  39  40
ATOM     40  C   UNL A   1      37.535  32.454  31.460  1.00  0.00     0.031 A 
ATOM     41  C   UNL A   1      38.286  31.318  30.822  1.00  0.00     0.074 A 
ATOM     42  C   UNL A   1      37.852  32.861  32.704  1.00  0.00     0.049 A 
ATOM     43  N   UNL A   1      39.295  30.630  31.289  1.00  0.00    -0.248 NA
ATOM     44  C   UNL A   1      37.824  30.877  29.495  1.00  0.00     0.031 C 
ATOM     45  C   UNL A   1      37.156  33.908  33.454  1.00  0.00     0.029 A 
ATOM     46  N   UNL A   1      38.831  32.431  33.563  1.00  0.00    -0.354 N 
ATOM     47  C   UNL A   1      39.567  29.658  30.334  1.00  0.00     0.074 A 
ATOM     48  C   UNL A   1      38.587  29.817  29.281  1.00  0.00     0.031 C 
ATOM     49  C   UNL A   1      37.746  34.058  34.650  1.00  0.00     0.029 A 
ATOM     50  C   UNL A   1      38.836  33.094  34.768  1.00  0.00     0.049 A 
ATOM     51  H   UNL A   1      39.470  31.717  33.338  1.00  0.00     0.167 HD
ATOM     52  C   UNL A   1      40.561  28.738  30.316  1.00  0.00     0.034 A 
ATOM     53  C   UNL A   1      39.630  32.942  35.844  1.00  0.00     0.034 A 
ATOM     54  C   UNL A   1      41.544  28.600  31.357  1.00  0.00     0.049 A 
ATOM     55  C   UNL A   1      40.726  31.912  35.803  1.00  0.00     0.074 A 
ATOM     56  C   UNL A   1      42.638  27.754  31.402  1.00  0.00     0.029 A 
ATOM     57  N   UNL A   1      41.543  29.316  32.544  1.00  0.00    -0.354 N 
ATOM     58  N   UNL A   1      41.065  31.103  34.828  1.00  0.00    -0.248 NA
ATOM     59  C   UNL A   1      41.571  31.798  37.000  1.00  0.00     0.031 C 
ATOM     60  C   UNL A   1      43.274  27.930  32.637  1.00  0.00     0.029 A 
ATOM     61  C   UNL A   1      42.603  28.918  33.341  1.00  0.00     0.049 A 
ATOM     62  H   UNL A   1      40.884  30.007  32.786  1.00  0.00     0.167 HD
ATOM     63  C   UNL A   1      42.185  30.413  35.276  1.00  0.00     0.074 A 
ATOM     64  C   UNL A   1      42.475  30.912  36.606  1.00  0.00     0.031 C 
ATOM     65  C   UNL A   1      42.905  29.451  34.646  1.00  0.00     0.034 A 
BRANCH  52  66
ATOM     66  C   UNL A   1      40.640  27.830  29.112  1.00  0.00     0.023 A 
ATOM     67  C   UNL A   1      39.809  26.692  29.036  1.00  0.00     0.012 A 
ATOM     68  C   UNL A   1      41.527  28.104  28.053  1.00  0.00     0.148 A 
ATOM     69  C   UNL A   1      39.901  25.812  27.959  1.00  0.00     0.002 A 
ATOM     70  C   UNL A   1      41.576  27.251  26.956  1.00  0.00     0.091 A 
ATOM     71  F   UNL A   1      42.325  29.178  28.146  1.00  0.00    -0.205 F 
ATOM     72  C   UNL A   1      40.778  26.096  26.916  1.00  0.00     0.022 A 
BRANCH  70  73
ATOM     73  S   UNL A   1      42.612  27.575  25.526  1.00  0.00     0.127 S 
ATOM     74  O   UNL A   1      42.355  26.394  24.703  1.00  0.00    -0.237 OA
ATOM     75  O   UNL A   1      42.041  28.817  25.005  1.00  0.00    -0.237 OA
ATOM     76  O   UNL A   1      43.970  27.701  26.038  1.00  0.00    -0.744 OA
ENDBRANCH  70  73
ENDBRANCH  52  66
BRANCH  53  77
ATOM     77  C   UNL A   1      39.472  33.847  37.016  1.00  0.00     0.023 A 
ATOM     78  C   UNL A   1      39.886  35.189  36.905  1.00  0.00     0.012 A 
ATOM     79  C   UNL A   1      38.881  33.407  38.216  1.00  0.00     0.148 A 
ATOM     80  C   UNL A   1      39.741  36.070  37.977  1.00  0.00     0.002 A 
ATOM     81  C   UNL A   1      38.692  34.303  39.261  1.00  0.00     0.091 A 
ATOM     82  F   UNL A   1      38.496  32.126  38.300  1.00  0.00    -0.205 F 
ATOM     83  C   UNL A   1      39.136  35.630  39.150  1.00  0.00     0.022 A 
BRANCH  81  84
ATOM     84  S   UNL A   1      37.815  33.865  40.766  1.00  0.00     0.127 S 
ATOM     85  O   UNL A   1      38.767  32.969  41.417  1.00  0.00    -0.237 OA
ATOM     86  O   UNL A   1      37.658  35.170  41.409  1.00  0.00    -0.237 OA
ATOM     87  O   UNL A   1      36.568  33.249  40.335  1.00  0.00    -0.744 OA
ENDBRANCH  81  84
ENDBRANCH  53  77
BRANCH  65  88
ATOM     88  C   UNL A   1      44.108  28.896  35.367  1.00  0.00     0.023 A 
ATOM     89  C   UNL A   1      45.375  29.483  35.183  1.00  0.00     0.012 A 
ATOM     90  C   UNL A   1      43.965  27.834  36.282  1.00  0.00     0.148 A 
ATOM     91  C   UNL A   1      46.487  28.997  35.870  1.00  0.00     0.002 A 
ATOM     92  C   UNL A   1      45.066  27.391  37.003  1.00  0.00     0.091 A 
ATOM     93  F   UNL A   1      42.753  27.277  36.429  1.00  0.00    -0.205 F 
ATOM     94  C   UNL A   1      46.330  27.961  36.788  1.00  0.00     0.022 A 
BRANCH  92  95
ATOM     95  S   UNL A   1      44.941  26.133  38.279  1.00  0.00     0.127 S 
ATOM     96  O   UNL A   1      46.344  25.927  38.632  1.00  0.00    -0.237 OA
ATOM     97  O   UNL A   1      44.147  26.813  39.305  1.00  0.00    -0.237 OA
ATOM     98  O   UNL A   1      44.280  24.993  37.660  1.00  0.00    -0.744 OA
ENDBRANCH  92  95
ENDBRANCH  65  88
ENDBRANCH  39  40
ENDBRANCH  31  34
ENDBRANCH  29  30
ENDBRANCH  28  29
ENDBRANCH   1  28
TORSDOF 17
ENDMDL
MODEL 2
REMARK VINA RESULT:     -12.7      3.415      8.525
REMARK SMILES CN1C(=O)C[C@@H](C(=O)NCCCCCCNC(=O)c2ccc(-c3c4nc(c(-c5cccc(S(=O)(=O)[O-])c5F)c5ccc([nH]5)c(-c5cccc(S(=O)(=O)[O-])c5F)c5nc(c(-c6cccc(S(=O)(=O)[O-])c6F)c6ccc3[nH]6)C=C5)C=C4)cc2)C12CCN(c1ccc(Cl)cn1)CC2
REMARK SMILES IDX 13 1 12 2 11 3 10 4 9 5 7 6 8 7 6 9 1 10 2 11 3 12 82 13
REMARK SMILES IDX 4 14 5 15 83 16 94 17 84 18 93 19 85 20 86 21 87 22 92 23
REMARK SMILES IDX 88 24 91 25 89 26 90 27 14 28 15 29 16 30 17 31 18 33 19 34
REMARK SMILES IDX 20 35 81 36 21 37 80 38 22 39 23 40 24 41 74 42 25 43 79 44
REMARK SMILES IDX 73 45 75 46 26 47 78 48 72 49 71 50 27 52 59 53 39 54 58 55
REMARK SMILES IDX 40 56 43 57 57 58 76 59 41 60 42 61 56 63 77 64 44 65 28 66
REMARK SMILES IDX 29 67 37 68 30 69 32 70 38 71 31 72 33 73 34 74 35 75 36 76
REMARK SMILES IDX 60 77 61 78 69 79 62 80 64 81 70 82 63 83 65 84 66 85 67 86
REMARK SMILES IDX 68 87 45 88 46 89 54 90 47 91 49 92 55 93 48 94 50 95 51 96
REMARK SMILES IDX 52 97 53 98
REMARK H PARENT 9 8 16 32 75 51 43 62
REMARK Flexibility Score: inf
ROOT
ATOM      1  C   UNL A   1      31.903  29.054  24.705  1.00  0.00     0.002 C 
ENDROOT
BRANCH   1   2
ATOM      2  C   UNL A   1      31.116  27.767  24.956  1.00  0.00     0.002 C 
BRANCH   2   3
ATOM      3  C   UNL A   1      30.624  27.077  23.685  1.00  0.00     0.021 C 
BRANCH   3   4
ATOM      4  C   UNL A   1      30.650  25.549  23.755  1.00  0.00     0.116 C 
BRANCH   4   5
ATOM      5  N   UNL A   1      30.879  25.045  25.097  1.00  0.00    -0.356 N 
ATOM      6  C   UNL A   1      31.952  24.491  25.710  1.00  0.00     0.226 C 
ATOM      7  O   UNL A   1      31.806  24.215  26.908  1.00  0.00    -0.275 OA
ATOM      8  H   UNL A   1      30.091  25.123  25.683  1.00  0.00     0.163 HD
BRANCH   6   9
ATOM      9  C   UNL A   1      33.291  24.158  25.041  1.00  0.00     0.113 C 
ATOM     10  C   UNL A   1      32.980  23.400  21.398  1.00  0.00     0.147 C 
ATOM     11  N   UNL A   1      33.313  23.877  22.728  1.00  0.00    -0.339 N 
ATOM     12  C   UNL A   1      33.824  25.155  22.932  1.00  0.00     0.223 C 
ATOM     13  C   UNL A   1      33.313  23.059  23.950  1.00  0.00     0.058 C 
ATOM     14  O   UNL A   1      34.074  25.984  22.080  1.00  0.00    -0.275 OA
ATOM     15  C   UNL A   1      33.970  25.375  24.413  1.00  0.00     0.116 C 
ATOM     16  C   UNL A   1      32.133  22.070  24.031  1.00  0.00     0.051 C 
ATOM     17  C   UNL A   1      34.652  22.249  24.014  1.00  0.00     0.051 C 
ATOM     18  C   UNL A   1      32.233  21.155  25.237  1.00  0.00     0.120 C 
ATOM     19  C   UNL A   1      34.703  21.219  25.159  1.00  0.00     0.120 C 
ATOM     20  N   UNL A   1      33.483  20.444  25.105  1.00  0.00    -0.356 N 
BRANCH  20  21
ATOM     21  C   UNL A   1      33.468  19.077  25.196  1.00  0.00     0.128 A 
ATOM     22  C   UNL A   1      34.447  18.345  24.515  1.00  0.00     0.048 A 
ATOM     23  N   UNL A   1      32.488  18.467  25.890  1.00  0.00    -0.238 NA
ATOM     24  C   UNL A   1      34.408  16.954  24.512  1.00  0.00     0.026 A 
ATOM     25  C   UNL A   1      32.450  17.111  25.847  1.00  0.00     0.134 A 
ATOM     26  C   UNL A   1      33.374  16.323  25.179  1.00  0.00     0.059 A 
ATOM     27  Cl  UNL A   1      33.244  14.612  25.165  1.00  0.00    -0.083 Cl
ENDBRANCH  20  21
ENDBRANCH   6   9
ENDBRANCH   4   5
ENDBRANCH   3   4
ENDBRANCH   2   3
ENDBRANCH   1   2
BRANCH   1  28
ATOM     28  C   UNL A   1      33.425  28.885  24.724  1.00  0.00     0.021 C 
BRANCH  28  29
ATOM     29  C   UNL A   1      34.047  28.951  26.116  1.00  0.00     0.116 C 
BRANCH  29  30
ATOM     30  N   UNL A   1      33.857  30.259  26.723  1.00  0.00    -0.352 N 
ATOM     31  C   UNL A   1      34.569  30.851  27.733  1.00  0.00     0.251 C 
ATOM     32  H   UNL A   1      33.113  30.792  26.358  1.00  0.00     0.163 HD
ATOM     33  O   UNL A   1      34.126  31.843  28.302  1.00  0.00    -0.269 OA
BRANCH  31  34
ATOM     34  C   UNL A   1      35.871  30.280  28.128  1.00  0.00     0.039 A 
ATOM     35  C   UNL A   1      36.982  30.483  27.307  1.00  0.00     0.014 A 
ATOM     36  C   UNL A   1      35.989  29.545  29.311  1.00  0.00     0.014 A 
ATOM     37  C   UNL A   1      38.225  29.984  27.697  1.00  0.00     0.010 A 
ATOM     38  C   UNL A   1      37.242  29.120  29.737  1.00  0.00     0.010 A 
ATOM     39  C   UNL A   1      38.369  29.320  28.928  1.00  0.00    -0.014 A 
BRANCH  39  40
ATOM     40  C   UNL A   1      39.693  28.829  29.386  1.00  0.00     0.031 A 
ATOM     41  C   UNL A   1      40.416  29.532  30.502  1.00  0.00     0.074 A 
ATOM     42  C   UNL A   1      40.275  27.797  28.746  1.00  0.00     0.049 A 
ATOM     43  N   UNL A   1      41.587  29.269  31.020  1.00  0.00    -0.248 NA
ATOM     44  C   UNL A   1      39.747  30.702  31.094  1.00  0.00     0.031 C 
ATOM     45  C   UNL A   1      39.702  27.077  27.607  1.00  0.00     0.029 A 
ATOM     46  N   UNL A   1      41.486  27.186  28.952  1.00  0.00    -0.354 N 
ATOM     47  C   UNL A   1      41.811  30.256  31.972  1.00  0.00     0.074 A 
ATOM     48  C   UNL A   1      40.673  31.149  31.928  1.00  0.00     0.031 C 
ATOM     49  C   UNL A   1      40.548  26.105  27.232  1.00  0.00     0.029 A 
ATOM     50  C   UNL A   1      41.739  26.157  28.076  1.00  0.00     0.049 A 
ATOM     51  H   UNL A   1      42.114  27.458  29.659  1.00  0.00     0.167 HD
ATOM     52  C   UNL A   1      42.851  30.391  32.830  1.00  0.00     0.034 A 
ATOM     53  C   UNL A   1      42.808  25.346  27.967  1.00  0.00     0.034 A 
ATOM     54  C   UNL A   1      43.968  29.487  32.882  1.00  0.00     0.049 A 
ATOM     55  C   UNL A   1      43.953  25.515  28.928  1.00  0.00     0.074 A 
ATOM     56  C   UNL A   1      45.036  29.486  33.762  1.00  0.00     0.029 A 
ATOM     57  N   UNL A   1      44.171  28.430  32.007  1.00  0.00    -0.354 N 
ATOM     58  N   UNL A   1      44.079  26.360  29.923  1.00  0.00    -0.248 NA
ATOM     59  C   UNL A   1      45.088  24.595  28.772  1.00  0.00     0.031 C 
ATOM     60  C   UNL A   1      45.905  28.453  33.392  1.00  0.00     0.029 A 
ATOM     61  C   UNL A   1      45.357  27.782  32.310  1.00  0.00     0.049 A 
ATOM     62  H   UNL A   1      43.561  28.178  31.277  1.00  0.00     0.167 HD
ATOM     63  C   UNL A   1      45.287  26.049  30.536  1.00  0.00     0.074 A 
ATOM     64  C   UNL A   1      45.845  24.927  29.808  1.00  0.00     0.031 C 
ATOM     65  C   UNL A   1      45.882  26.641  31.602  1.00  0.00     0.034 A 
BRANCH  52  66
ATOM     66  C   UNL A   1      42.804  31.549  33.797  1.00  0.00     0.023 A 
ATOM     67  C   UNL A   1      43.280  32.816  33.397  1.00  0.00     0.012 A 
ATOM     68  C   UNL A   1      42.282  31.391  35.095  1.00  0.00     0.148 A 
ATOM     69  C   UNL A   1      43.294  33.887  34.290  1.00  0.00     0.002 A 
ATOM     70  C   UNL A   1      42.249  32.477  35.963  1.00  0.00     0.091 A 
ATOM     71  F   UNL A   1      41.850  30.177  35.469  1.00  0.00    -0.205 F 
ATOM     72  C   UNL A   1      42.771  33.720  35.569  1.00  0.00     0.022 A 
BRANCH  70  73
ATOM     73  S   UNL A   1      41.520  32.383  37.601  1.00  0.00     0.127 S 
ATOM     74  O   UNL A   1      41.691  33.754  38.078  1.00  0.00    -0.237 OA
ATOM     75  O   UNL A   1      40.138  32.009  37.304  1.00  0.00    -0.237 OA
ATOM     76  O   UNL A   1      42.281  31.369  38.318  1.00  0.00    -0.744 OA
ENDBRANCH  70  73
ENDBRANCH  52  66
BRANCH  53  77
ATOM     77  C   UNL A   1      42.805  24.246  26.962  1.00  0.00     0.023 A 
ATOM     78  C   UNL A   1      43.528  24.413  25.765  1.00  0.00     0.012 A 
ATOM     79  C   UNL A   1      42.136  23.031  27.198  1.00  0.00     0.148 A 
ATOM     80  C   UNL A   1      43.561  23.399  24.806  1.00  0.00     0.002 A 
ATOM     81  C   UNL A   1      42.215  22.006  26.263  1.00  0.00     0.091 A 
ATOM     82  F   UNL A   1      41.453  22.896  28.344  1.00  0.00    -0.205 F 
ATOM     83  C   UNL A   1      42.913  22.194  25.059  1.00  0.00     0.022 A 
BRANCH  81  84
ATOM     84  S   UNL A   1      41.518  20.376  26.549  1.00  0.00     0.127 S 
ATOM     85  O   UNL A   1      42.093  20.027  27.845  1.00  0.00    -0.237 OA
ATOM     86  O   UNL A   1      40.083  20.665  26.567  1.00  0.00    -0.237 OA
ATOM     87  O   UNL A   1      41.955  19.555  25.428  1.00  0.00    -0.744 OA
ENDBRANCH  81  84
ENDBRANCH  53  77
BRANCH  65  88
ATOM     88  C   UNL A   1      47.191  26.064  32.080  1.00  0.00     0.023 A 
ATOM     89  C   UNL A   1      48.400  26.461  31.476  1.00  0.00     0.012 A 
ATOM     90  C   UNL A   1      47.224  25.180  33.177  1.00  0.00     0.148 A 
ATOM     91  C   UNL A   1      49.618  25.958  31.932  1.00  0.00     0.002 A 
ATOM     92  C   UNL A   1      48.444  24.726  33.661  1.00  0.00     0.091 A 
ATOM     93  F   UNL A   1      46.061  24.801  33.727  1.00  0.00    -0.205 F 
ATOM     94  C   UNL A   1      49.641  25.102  33.031  1.00  0.00     0.022 A 
BRANCH  92  95
ATOM     95  S   UNL A   1      48.578  23.703  35.131  1.00  0.00     0.127 S 
ATOM     96  O   UNL A   1      47.891  22.484  34.709  1.00  0.00    -0.237 OA
ATOM     97  O   UNL A   1      50.028  23.566  35.281  1.00  0.00    -0.237 OA
ATOM     98  O   UNL A   1      47.927  24.447  36.201  1.00  0.00    -0.744 OA
ENDBRANCH  92  95
ENDBRANCH  65  88
ENDBRANCH  39  40
ENDBRANCH  31  34
ENDBRANCH  29  30
ENDBRANCH  28  29
ENDBRANCH   1  28
TORSDOF 17
ENDMDL
MODEL 3
REMARK VINA RESULT:     -12.6      5.713      9.261
REMARK SMILES CN1C(=O)C[C@@H](C(=O)NCCCCCCNC(=O)c2ccc(-c3c4nc(c(-c5cccc(S(=O)(=O)[O-])c5F)c5ccc([nH]5)c(-c5cccc(S(=O)(=O)[O-])c5F)c5nc(c(-c6cccc(S(=O)(=O)[O-])c6F)c6ccc3[nH]6)C=C5)C=C4)cc2)C12CCN(c1ccc(Cl)cn1)CC2
REMARK SMILES IDX 13 1 12 2 11 3 10 4 9 5 7 6 8 7 6 9 1 10 2 11 3 12 82 13
REMARK SMILES IDX 4 14 5 15 83 16 94 17 84 18 93 19 85 20 86 21 87 22 92 23
REMARK SMILES IDX 88 24 91 25 89 26 90 27 14 28 15 29 16 30 17 31 18 33 19 34
REMARK SMILES IDX 20 35 81 36 21 37 80 38 22 39 23 40 24 41 74 42 25 43 79 44
REMARK SMILES IDX 73 45 75 46 26 47 78 48 72 49 71 50 27 52 59 53 39 54 58 55
REMARK SMILES IDX 40 56 43 57 57 58 76 59 41 60 42 61 56 63 77 64 44 65 28 66
REMARK SMILES IDX 29 67 37 68 30 69 32 70 38 71 31 72 33 73 34 74 35 75 36 76
REMARK SMILES IDX 60 77 61 78 69 79 62 80 64 81 70 82 63 83 65 84 66 85 67 86
REMARK SMILES IDX 68 87 45 88 46 89 54 90 47 91 49 92 55 93 48 94 50 95 51 96
REMARK SMILES IDX 52 97 53 98
REMARK H PARENT 9 8 16 32 75 51 43 62
REMARK Flexibility Score: inf
ROOT
ATOM      1  C   UNL A   1      34.353  20.979  25.490  1.00  0.00     0.002 C 
ENDROOT
BRANCH   1   2
ATOM      2  C   UNL A   1      33.332  20.111  24.753  1.00  0.00     0.002 C 
BRANCH   2   3
ATOM      3  C   UNL A   1      32.646  20.811  23.581  1.00  0.00     0.021 C 
BRANCH   3   4
ATOM      4  C   UNL A   1      32.208  22.245  23.880  1.00  0.00     0.116 C 
BRANCH   4   5
ATOM      5  N   UNL A   1      32.913  23.232  23.083  1.00  0.00    -0.356 N 
ATOM      6  C   UNL A   1      33.354  24.488  23.337  1.00  0.00     0.226 C 
ATOM      7  O   UNL A   1      33.976  25.037  22.418  1.00  0.00    -0.275 OA
ATOM      8  H   UNL A   1      33.113  22.926  22.169  1.00  0.00     0.163 HD
BRANCH   6   9
ATOM      9  C   UNL A   1      33.119  25.273  24.632  1.00  0.00     0.113 C 
ATOM     10  C   UNL A   1      29.846  24.507  26.258  1.00  0.00     0.147 C 
ATOM     11  N   UNL A   1      31.228  24.756  25.893  1.00  0.00    -0.339 N 
ATOM     12  C   UNL A   1      32.277  24.128  26.557  1.00  0.00     0.223 C 
ATOM     13  C   UNL A   1      31.687  25.776  24.937  1.00  0.00     0.058 C 
ATOM     14  O   UNL A   1      32.190  23.358  27.493  1.00  0.00    -0.275 OA
ATOM     15  C   UNL A   1      33.565  24.517  25.884  1.00  0.00     0.116 C 
ATOM     16  C   UNL A   1      30.788  25.903  23.691  1.00  0.00     0.051 C 
ATOM     17  C   UNL A   1      31.734  27.162  25.664  1.00  0.00     0.051 C 
ATOM     18  C   UNL A   1      31.213  27.046  22.790  1.00  0.00     0.120 C 
ATOM     19  C   UNL A   1      32.032  28.348  24.725  1.00  0.00     0.120 C 
ATOM     20  N   UNL A   1      31.139  28.244  23.593  1.00  0.00    -0.356 N 
BRANCH  20  21
ATOM     21  C   UNL A   1      30.432  29.312  23.107  1.00  0.00     0.128 A 
ATOM     22  C   UNL A   1      29.928  30.256  24.010  1.00  0.00     0.048 A 
ATOM     23  N   UNL A   1      30.190  29.404  21.785  1.00  0.00    -0.238 NA
ATOM     24  C   UNL A   1      29.129  31.302  23.560  1.00  0.00     0.026 A 
ATOM     25  C   UNL A   1      29.382  30.414  21.371  1.00  0.00     0.134 A 
ATOM     26  C   UNL A   1      28.835  31.372  22.210  1.00  0.00     0.059 A 
ATOM     27  Cl  UNL A   1      27.812  32.609  21.604  1.00  0.00    -0.083 Cl
ENDBRANCH  20  21
ENDBRANCH   6   9
ENDBRANCH   4   5
ENDBRANCH   3   4
ENDBRANCH   2   3
ENDBRANCH   1   2
BRANCH   1  28
ATOM     28  C   UNL A   1      35.551  21.416  24.641  1.00  0.00     0.021 C 
BRANCH  28  29
ATOM     29  C   UNL A   1      36.743  21.919  25.449  1.00  0.00     0.116 C 
BRANCH  29  30
ATOM     30  N   UNL A   1      37.697  20.853  25.711  1.00  0.00    -0.352 N 
ATOM     31  C   UNL A   1      39.021  20.948  26.051  1.00  0.00     0.251 C 
ATOM     32  H   UNL A   1      37.342  19.938  25.636  1.00  0.00     0.163 HD
ATOM     33  O   UNL A   1      39.747  19.960  25.987  1.00  0.00    -0.269 OA
BRANCH  31  34
ATOM     34  C   UNL A   1      39.563  22.248  26.489  1.00  0.00     0.039 A 
ATOM     35  C   UNL A   1      40.585  22.276  27.440  1.00  0.00     0.014 A 
ATOM     36  C   UNL A   1      39.058  23.438  25.956  1.00  0.00     0.014 A 
ATOM     37  C   UNL A   1      41.131  23.500  27.825  1.00  0.00     0.010 A 
ATOM     38  C   UNL A   1      39.659  24.648  26.280  1.00  0.00     0.010 A 
ATOM     39  C   UNL A   1      40.690  24.694  27.229  1.00  0.00    -0.014 A 
BRANCH  39  40
ATOM     40  C   UNL A   1      41.296  26.001  27.586  1.00  0.00     0.031 A 
ATOM     41  C   UNL A   1      42.719  26.305  27.203  1.00  0.00     0.074 A 
ATOM     42  C   UNL A   1      40.589  26.881  28.320  1.00  0.00     0.049 A 
ATOM     43  N   UNL A   1      43.428  27.376  27.449  1.00  0.00    -0.248 NA
ATOM     44  C   UNL A   1      43.449  25.256  26.472  1.00  0.00     0.031 C 
ATOM     45  C   UNL A   1      39.225  26.673  28.808  1.00  0.00     0.029 A 
ATOM     46  N   UNL A   1      40.928  28.122  28.798  1.00  0.00    -0.354 N 
ATOM     47  C   UNL A   1      44.693  27.119  26.935  1.00  0.00     0.074 A 
ATOM     48  C   UNL A   1      44.666  25.772  26.404  1.00  0.00     0.031 C 
ATOM     49  C   UNL A   1      38.833  27.758  29.494  1.00  0.00     0.029 A 
ATOM     50  C   UNL A   1      39.929  28.722  29.527  1.00  0.00     0.049 A 
ATOM     51  H   UNL A   1      41.803  28.542  28.635  1.00  0.00     0.167 HD
ATOM     52  C   UNL A   1      45.771  27.937  26.878  1.00  0.00     0.034 A 
ATOM     53  C   UNL A   1      39.899  29.915  30.149  1.00  0.00     0.034 A 
ATOM     54  C   UNL A   1      45.783  29.281  27.389  1.00  0.00     0.049 A 
ATOM     55  C   UNL A   1      41.108  30.808  30.076  1.00  0.00     0.074 A 
ATOM     56  C   UNL A   1      46.795  30.222  27.316  1.00  0.00     0.029 A 
ATOM     57  N   UNL A   1      44.739  29.872  28.085  1.00  0.00    -0.354 N 
ATOM     58  N   UNL A   1      42.245  30.609  29.455  1.00  0.00    -0.248 NA
ATOM     59  C   UNL A   1      41.016  32.103  30.763  1.00  0.00     0.031 C 
ATOM     60  C   UNL A   1      46.376  31.367  28.003  1.00  0.00     0.029 A 
ATOM     61  C   UNL A   1      45.087  31.156  28.466  1.00  0.00     0.049 A 
ATOM     62  H   UNL A   1      43.876  29.440  28.280  1.00  0.00     0.167 HD
ATOM     63  C   UNL A   1      42.989  31.768  29.640  1.00  0.00     0.074 A 
ATOM     64  C   UNL A   1      42.164  32.670  30.420  1.00  0.00     0.031 C 
ATOM     65  C   UNL A   1      44.242  32.058  29.208  1.00  0.00     0.034 A 
BRANCH  52  66
ATOM     66  C   UNL A   1      47.014  27.398  26.213  1.00  0.00     0.023 A 
ATOM     67  C   UNL A   1      47.217  27.605  24.832  1.00  0.00     0.012 A 
ATOM     68  C   UNL A   1      47.987  26.697  26.952  1.00  0.00     0.148 A 
ATOM     69  C   UNL A   1      48.332  27.072  24.186  1.00  0.00     0.002 A 
ATOM     70  C   UNL A   1      49.123  26.214  26.312  1.00  0.00     0.091 A 
ATOM     71  F   UNL A   1      47.774  26.490  28.260  1.00  0.00    -0.205 F 
ATOM     72  C   UNL A   1      49.288  26.384  24.928  1.00  0.00     0.022 A 
BRANCH  70  73
ATOM     73  S   UNL A   1      50.452  25.388  27.194  1.00  0.00     0.127 S 
ATOM     74  O   UNL A   1      50.847  26.413  28.158  1.00  0.00    -0.237 OA
ATOM     75  O   UNL A   1      49.766  24.235  27.777  1.00  0.00    -0.237 OA
ATOM     76  O   UNL A   1      51.450  25.053  26.187  1.00  0.00    -0.744 OA
ENDBRANCH  70  73
ENDBRANCH  52  66
BRANCH  53  77
ATOM     77  C   UNL A   1      38.650  30.370  30.822  1.00  0.00     0.023 A 
ATOM     78  C   UNL A   1      38.484  30.118  32.198  1.00  0.00     0.012 A 
ATOM     79  C   UNL A   1      37.653  31.080  30.129  1.00  0.00     0.148 A 
ATOM     80  C   UNL A   1      37.334  30.541  32.866  1.00  0.00     0.002 A 
ATOM     81  C   UNL A   1      36.534  31.544  30.810  1.00  0.00     0.091 A 
ATOM     82  F   UNL A   1      37.831  31.307  28.819  1.00  0.00    -0.205 F 
ATOM     83  C   UNL A   1      36.365  31.261  32.175  1.00  0.00     0.022 A 
BRANCH  81  84
ATOM     84  S   UNL A   1      35.289  32.583  30.038  1.00  0.00     0.127 S 
ATOM     85  O   UNL A   1      36.078  33.741  29.627  1.00  0.00    -0.237 OA
ATOM     86  O   UNL A   1      34.827  31.730  28.943  1.00  0.00    -0.237 OA
ATOM     87  O   UNL A   1      34.291  32.838  31.068  1.00  0.00    -0.744 OA
ENDBRANCH  81  84
ENDBRANCH  53  77
BRANCH  65  88
ATOM     88  C   UNL A   1      44.791  33.425  29.531  1.00  0.00     0.023 A 
ATOM     89  C   UNL A   1      45.475  33.644  30.743  1.00  0.00     0.012 A 
ATOM     90  C   UNL A   1      44.689  34.475  28.596  1.00  0.00     0.148 A 
ATOM     91  C   UNL A   1      46.015  34.896  31.035  1.00  0.00     0.002 A 
ATOM     92  C   UNL A   1      45.277  35.704  28.870  1.00  0.00     0.091 A 
ATOM     93  F   UNL A   1      44.019  34.252  27.455  1.00  0.00    -0.205 F 
ATOM     94  C   UNL A   1      45.927  35.920  30.095  1.00  0.00     0.022 A 
BRANCH  92  95
ATOM     95  S   UNL A   1      45.303  37.048  27.679  1.00  0.00     0.127 S 
ATOM     96  O   UNL A   1      43.877  37.299  27.483  1.00  0.00    -0.237 OA
ATOM     97  O   UNL A   1      46.013  38.097  28.414  1.00  0.00    -0.237 OA
ATOM     98  O   UNL A   1      46.013  36.540  26.513  1.00  0.00    -0.744 OA
ENDBRANCH  92  95
ENDBRANCH  65  88
ENDBRANCH  39  40
ENDBRANCH  31  34
ENDBRANCH  29  30
ENDBRANCH  28  29
ENDBRANCH   1  28
TORSDOF 17
ENDMDL
