MODEL 1
REMARK VINA RESULT:      -8.2      0.000      0.000
REMARK SMILES Cc1cc(C(=O)N[C@@H]2C(=O)N3C(C(=O)NCCCCCCNC(=O)c4ccc(-c5c6nc(c(-c7cccc(S(=O)(=O)[O-])c7F)c7ccc([nH]7)c(-c7cccc(S(=O)(=O)[O-])c7F)c7nc(c(-c8cccc(S(=O)(=O)[O-])c8F)c8ccc5[nH]8)C=C7)C=C6)cc4)=C(CSc4nnc(C)s4)CS[C@H]23)n(C)n1
REMARK SMILES IDX 18 1 17 2 16 3 15 4 13 5 14 6 12 8 8 9 9 10 99 11 10 12
REMARK SMILES IDX 11 13 98 14 97 15 88 16 7 17 5 18 6 19 4 21 1 22 2 23 3 24
REMARK SMILES IDX 102 25 100 26 101 27 89 28 90 29 91 30 92 31 96 32 93 33
REMARK SMILES IDX 94 34 95 35 19 36 20 37 21 38 22 39 23 40 24 42 25 43 26 44
REMARK SMILES IDX 87 45 27 46 86 47 28 48 29 49 30 50 80 51 31 52 85 53 79 54
REMARK SMILES IDX 81 55 32 56 84 57 78 58 77 59 33 61 65 62 45 63 64 64 46 65
REMARK SMILES IDX 49 66 63 67 82 68 47 69 48 70 62 72 83 73 50 74 34 75 35 76
REMARK SMILES IDX 43 77 36 78 38 79 44 80 37 81 39 82 40 83 41 84 42 85 66 86
REMARK SMILES IDX 67 87 75 88 68 89 70 90 76 91 69 92 71 93 72 94 73 95 74 96
REMARK SMILES IDX 51 97 52 98 60 99 53 100 55 101 61 102 54 103 56 104 57 105
REMARK SMILES IDX 58 106 59 107
REMARK H PARENT 15 7 7 20 22 41 81 60 49 71
REMARK Flexibility Score: inf
ROOT
ATOM      1  C   UNL A   1      37.932  34.209  31.653  1.00  0.00     0.002 C 
ENDROOT
BRANCH   1   2
ATOM      2  C   UNL A   1      38.527  33.700  30.348  1.00  0.00     0.021 C 
BRANCH   2   3
ATOM      3  C   UNL A   1      39.873  34.307  29.929  1.00  0.00     0.116 C 
BRANCH   3   4
ATOM      4  N   UNL A   1      40.963  33.413  30.265  1.00  0.00    -0.351 N 
ATOM      5  C   UNL A   1      42.267  33.238  29.963  1.00  0.00     0.268 C 
ATOM      6  O   UNL A   1      42.803  32.420  30.727  1.00  0.00    -0.268 OA
ATOM      7  H   UNL A   1      40.661  32.728  30.905  1.00  0.00     0.163 HD
BRANCH   5   8
ATOM      8  C   UNL A   1      43.152  34.031  28.979  1.00  0.00     0.111 C 
ATOM      9  C   UNL A   1      43.925  37.271  29.897  1.00  0.00     0.206 C 
ATOM     10  C   UNL A   1      43.712  35.893  30.586  1.00  0.00     0.253 C 
ATOM     11  C   UNL A   1      43.841  36.424  28.597  1.00  0.00     0.181 C 
ATOM     12  O   UNL A   1      43.941  35.463  31.703  1.00  0.00    -0.272 OA
ATOM     13  N   UNL A   1      43.302  35.350  29.400  1.00  0.00    -0.290 N 
ATOM     14  S   UNL A   1      45.412  35.869  27.877  1.00  0.00    -0.129 SA
ATOM     15  C   UNL A   1      44.520  34.640  26.924  1.00  0.00     0.106 C 
ATOM     16  C   UNL A   1      43.856  33.641  27.867  1.00  0.00    -0.020 C 
BRANCH   9  17
ATOM     17  N   UNL A   1      45.165  38.037  30.201  1.00  0.00    -0.336 N 
ATOM     18  C   UNL A   1      45.312  39.245  30.861  1.00  0.00     0.270 C 
ATOM     19  O   UNL A   1      46.455  39.675  31.012  1.00  0.00    -0.268 OA
ATOM     20  H   UNL A   1      46.001  37.624  29.887  1.00  0.00     0.164 HD
BRANCH  18  21
ATOM     21  C   UNL A   1      44.128  39.972  31.272  1.00  0.00     0.126 A 
ATOM     22  C   UNL A   1      42.244  43.049  31.758  1.00  0.00     0.069 C 
ATOM     23  C   UNL A   1      42.757  41.656  31.717  1.00  0.00     0.060 A 
ATOM     24  C   UNL A   1      43.428  41.002  30.661  1.00  0.00     0.059 A 
ATOM     25  N   UNL A   1      42.714  40.885  32.802  1.00  0.00    -0.178 NA
ATOM     26  N   UNL A   1      43.482  39.820  32.481  1.00  0.00    -0.263 N 
ATOM     27  C   UNL A   1      43.566  38.749  33.445  1.00  0.00     0.174 C 
ENDBRANCH  18  21
ENDBRANCH   9  17
BRANCH  16  28
ATOM     28  C   UNL A   1      44.309  32.249  27.493  1.00  0.00     0.111 C 
BRANCH  28  29
ATOM     29  S   UNL A   1      45.676  31.772  28.536  1.00  0.00    -0.089 SA
BRANCH  29  30
ATOM     30  C   UNL A   1      45.620  30.066  28.714  1.00  0.00     0.174 A 
ATOM     31  N   UNL A   1      45.132  29.243  27.816  1.00  0.00    -0.132 NA
ATOM     32  S   UNL A   1      46.654  29.333  29.867  1.00  0.00    -0.091 S 
ATOM     33  N   UNL A   1      45.840  28.050  27.820  1.00  0.00    -0.143 NA
ATOM     34  C   UNL A   1      46.799  28.064  28.725  1.00  0.00     0.115 A 
ATOM     35  C   UNL A   1      48.004  27.206  28.736  1.00  0.00     0.081 C 
ENDBRANCH  29  30
ENDBRANCH  28  29
ENDBRANCH  16  28
ENDBRANCH   5   8
ENDBRANCH   3   4
ENDBRANCH   2   3
ENDBRANCH   1   2
BRANCH   1  36
ATOM     36  C   UNL A   1      36.423  34.421  31.612  1.00  0.00     0.002 C 
BRANCH  36  37
ATOM     37  C   UNL A   1      35.727  33.872  30.363  1.00  0.00     0.021 C 
BRANCH  37  38
ATOM     38  C   UNL A   1      34.719  32.757  30.631  1.00  0.00     0.116 C 
BRANCH  38  39
ATOM     39  N   UNL A   1      34.211  32.185  29.391  1.00  0.00    -0.352 N 
ATOM     40  C   UNL A   1      34.855  31.383  28.484  1.00  0.00     0.251 C 
ATOM     41  H   UNL A   1      33.276  32.403  29.176  1.00  0.00     0.163 HD
ATOM     42  O   UNL A   1      34.393  31.220  27.359  1.00  0.00    -0.269 OA
BRANCH  40  43
ATOM     43  C   UNL A   1      36.109  30.717  28.881  1.00  0.00     0.039 A 
ATOM     44  C   UNL A   1      37.322  31.138  28.331  1.00  0.00     0.014 A 
ATOM     45  C   UNL A   1      36.073  29.669  29.806  1.00  0.00     0.014 A 
ATOM     46  C   UNL A   1      38.510  30.537  28.751  1.00  0.00     0.010 A 
ATOM     47  C   UNL A   1      37.261  29.133  30.282  1.00  0.00     0.010 A 
ATOM     48  C   UNL A   1      38.490  29.547  29.746  1.00  0.00    -0.014 A 
BRANCH  48  49
ATOM     49  C   UNL A   1      39.731  28.895  30.233  1.00  0.00     0.031 A 
ATOM     50  C   UNL A   1      40.422  29.443  31.453  1.00  0.00     0.074 A 
ATOM     51  C   UNL A   1      40.291  27.898  29.523  1.00  0.00     0.049 A 
ATOM     52  N   UNL A   1      41.581  29.118  31.960  1.00  0.00    -0.248 NA
ATOM     53  C   UNL A   1      39.732  30.525  32.176  1.00  0.00     0.031 C 
ATOM     54  C   UNL A   1      39.745  27.323  28.292  1.00  0.00     0.029 A 
ATOM     55  N   UNL A   1      41.466  27.215  29.715  1.00  0.00    -0.354 N 
ATOM     56  C   UNL A   1      41.781  29.984  33.029  1.00  0.00     0.074 A 
ATOM     57  C   UNL A   1      40.641  30.871  33.076  1.00  0.00     0.031 C 
ATOM     58  C   UNL A   1      40.585  26.378  27.838  1.00  0.00     0.029 A 
ATOM     59  C   UNL A   1      41.747  26.311  28.717  1.00  0.00     0.049 A 
ATOM     60  H   UNL A   1      42.052  27.360  30.493  1.00  0.00     0.167 HD
ATOM     61  C   UNL A   1      42.809  30.021  33.909  1.00  0.00     0.034 A 
ATOM     62  C   UNL A   1      42.830  25.532  28.523  1.00  0.00     0.034 A 
ATOM     63  C   UNL A   1      43.920  29.111  33.878  1.00  0.00     0.049 A 
ATOM     64  C   UNL A   1      43.951  25.578  29.527  1.00  0.00     0.074 A 
ATOM     65  C   UNL A   1      44.974  29.011  34.769  1.00  0.00     0.029 A 
ATOM     66  N   UNL A   1      44.127  28.149  32.902  1.00  0.00    -0.354 N 
ATOM     67  N   UNL A   1      44.062  26.313  30.607  1.00  0.00    -0.248 NA
ATOM     68  C   UNL A   1      45.080  24.662  29.307  1.00  0.00     0.031 C 
ATOM     69  C   UNL A   1      45.837  28.012  34.309  1.00  0.00     0.029 A 
ATOM     70  C   UNL A   1      45.296  27.457  33.160  1.00  0.00     0.049 A 
ATOM     71  H   UNL A   1      43.530  27.984  32.136  1.00  0.00     0.167 HD
ATOM     72  C   UNL A   1      45.245  25.915  31.219  1.00  0.00     0.074 A 
ATOM     73  C   UNL A   1      45.810  24.869  30.393  1.00  0.00     0.031 C 
ATOM     74  C   UNL A   1      45.813  26.377  32.360  1.00  0.00     0.034 A 
BRANCH  61  75
ATOM     75  C   UNL A   1      42.763  31.063  34.997  1.00  0.00     0.023 A 
ATOM     76  C   UNL A   1      42.236  30.733  36.263  1.00  0.00     0.012 A 
ATOM     77  C   UNL A   1      43.283  32.353  34.781  1.00  0.00     0.148 A 
ATOM     78  C   UNL A   1      42.187  31.683  37.282  1.00  0.00     0.002 A 
ATOM     79  C   UNL A   1      43.280  33.279  35.818  1.00  0.00     0.091 A 
ATOM     80  F   UNL A   1      43.762  32.656  33.566  1.00  0.00    -0.205 F 
ATOM     81  C   UNL A   1      42.719  32.951  37.064  1.00  0.00     0.022 A 
BRANCH  79  82
ATOM     82  S   UNL A   1      44.016  34.910  35.665  1.00  0.00     0.127 S 
ATOM     83  O   UNL A   1      43.128  35.544  34.691  1.00  0.00    -0.237 OA
ATOM     84  O   UNL A   1      43.897  35.428  37.028  1.00  0.00    -0.237 OA
ATOM     85  O   UNL A   1      45.384  34.694  35.212  1.00  0.00    -0.744 OA
ENDBRANCH  79  82
ENDBRANCH  61  75
BRANCH  62  86
ATOM     86  C   UNL A   1      42.885  24.607  27.356  1.00  0.00     0.023 A 
ATOM     87  C   UNL A   1      43.567  25.003  26.190  1.00  0.00     0.012 A 
ATOM     88  C   UNL A   1      42.284  23.333  27.401  1.00  0.00     0.148 A 
ATOM     89  C   UNL A   1      43.618  24.164  25.075  1.00  0.00     0.002 A 
ATOM     90  C   UNL A   1      42.386  22.480  26.309  1.00  0.00     0.091 A 
ATOM     91  F   UNL A   1      41.636  22.977  28.519  1.00  0.00    -0.205 F 
ATOM     92  C   UNL A   1      43.035  22.901  25.137  1.00  0.00     0.022 A 
BRANCH  90  93
ATOM     93  S   UNL A   1      41.782  20.789  26.345  1.00  0.00     0.127 S 
ATOM     94  O   UNL A   1      42.138  20.372  27.698  1.00  0.00    -0.237 OA
ATOM     95  O   UNL A   1      40.349  20.977  26.114  1.00  0.00    -0.237 OA
ATOM     96  O   UNL A   1      42.478  20.098  25.267  1.00  0.00    -0.744 OA
ENDBRANCH  90  93
ENDBRANCH  62  86
BRANCH  74  97
ATOM     97  C   UNL A   1      47.078  25.713  32.837  1.00  0.00     0.023 A 
ATOM     98  C   UNL A   1      48.335  26.193  32.422  1.00  0.00     0.012 A 
ATOM     99  C   UNL A   1      47.012  24.665  33.778  1.00  0.00     0.148 A 
ATOM    100  C   UNL A   1      49.508  25.622  32.917  1.00  0.00     0.002 A 
ATOM    101  C   UNL A   1      48.183  24.139  34.308  1.00  0.00     0.091 A 
ATOM    102  F   UNL A   1      45.805  24.212  34.145  1.00  0.00    -0.205 F 
ATOM    103  C   UNL A   1      49.432  24.606  33.868  1.00  0.00     0.022 A 
BRANCH 101 104
ATOM    104  S   UNL A   1      48.180  22.905  35.612  1.00  0.00     0.127 S 
ATOM    105  O   UNL A   1      47.386  23.567  36.646  1.00  0.00    -0.237 OA
ATOM    106  O   UNL A   1      47.517  21.774  34.963  1.00  0.00    -0.237 OA
ATOM    107  O   UNL A   1      49.577  22.674  35.953  1.00  0.00    -0.744 OA
ENDBRANCH 101 104
ENDBRANCH  74  97
ENDBRANCH  48  49
ENDBRANCH  40  43
ENDBRANCH  38  39
ENDBRANCH  37  38
ENDBRANCH  36  37
ENDBRANCH   1  36
TORSDOF 21
ENDMDL
MODEL 2
REMARK VINA RESULT:      -8.2      5.232     12.593
REMARK SMILES Cc1cc(C(=O)N[C@@H]2C(=O)N3C(C(=O)NCCCCCCNC(=O)c4ccc(-c5c6nc(c(-c7cccc(S(=O)(=O)[O-])c7F)c7ccc([nH]7)c(-c7cccc(S(=O)(=O)[O-])c7F)c7nc(c(-c8cccc(S(=O)(=O)[O-])c8F)c8ccc5[nH]8)C=C7)C=C6)cc4)=C(CSc4nnc(C)s4)CS[C@H]23)n(C)n1
REMARK SMILES IDX 18 1 17 2 16 3 15 4 13 5 14 6 12 8 8 9 9 10 99 11 10 12
REMARK SMILES IDX 11 13 98 14 97 15 88 16 7 17 5 18 6 19 4 21 1 22 2 23 3 24
REMARK SMILES IDX 102 25 100 26 101 27 89 28 90 29 91 30 92 31 96 32 93 33
REMARK SMILES IDX 94 34 95 35 19 36 20 37 21 38 22 39 23 40 24 42 25 43 26 44
REMARK SMILES IDX 87 45 27 46 86 47 28 48 29 49 30 50 80 51 31 52 85 53 79 54
REMARK SMILES IDX 81 55 32 56 84 57 78 58 77 59 33 61 65 62 45 63 64 64 46 65
REMARK SMILES IDX 49 66 63 67 82 68 47 69 48 70 62 72 83 73 50 74 34 75 35 76
REMARK SMILES IDX 43 77 36 78 38 79 44 80 37 81 39 82 40 83 41 84 42 85 66 86
REMARK SMILES IDX 67 87 75 88 68 89 70 90 76 91 69 92 71 93 72 94 73 95 74 96
REMARK SMILES IDX 51 97 52 98 60 99 53 100 55 101 61 102 54 103 56 104 57 105
REMARK SMILES IDX 58 106 59 107
REMARK H PARENT 15 7 7 20 22 41 81 60 49 71
REMARK Flexibility Score: inf
ROOT
ATOM      1  C   UNL A   1      41.242  27.493  27.452  1.00  0.00     0.002 C 
ENDROOT
BRANCH   1   2
ATOM      2  C   UNL A   1      40.828  28.927  27.152  1.00  0.00     0.021 C 
BRANCH   2   3
ATOM      3  C   UNL A   1      39.435  29.350  27.638  1.00  0.00     0.116 C 
BRANCH   3   4
ATOM      4  N   UNL A   1      39.534  30.126  28.857  1.00  0.00    -0.351 N 
ATOM      5  C   UNL A   1      38.843  31.080  29.517  1.00  0.00     0.268 C 
ATOM      6  O   UNL A   1      39.280  31.243  30.667  1.00  0.00    -0.268 OA
ATOM      7  H   UNL A   1      40.350  29.886  29.353  1.00  0.00     0.163 HD
BRANCH   5   8
ATOM      8  C   UNL A   1      37.539  31.795  29.106  1.00  0.00     0.111 C 
ATOM      9  C   UNL A   1      35.095  29.810  27.684  1.00  0.00     0.206 C 
ATOM     10  C   UNL A   1      36.185  29.692  28.788  1.00  0.00     0.253 C 
ATOM     11  C   UNL A   1      35.502  31.309  27.705  1.00  0.00     0.181 C 
ATOM     12  O   UNL A   1      36.411  28.879  29.668  1.00  0.00    -0.272 OA
ATOM     13  N   UNL A   1      36.680  30.920  28.447  1.00  0.00    -0.290 N 
ATOM     14  S   UNL A   1      34.508  32.414  28.746  1.00  0.00    -0.129 SA
ATOM     15  C   UNL A   1      35.827  33.628  28.686  1.00  0.00     0.106 C 
ATOM     16  C   UNL A   1      37.075  33.063  29.356  1.00  0.00    -0.020 C 
BRANCH   9  17
ATOM     17  N   UNL A   1      33.698  29.419  28.017  1.00  0.00    -0.336 N 
ATOM     18  C   UNL A   1      32.737  28.825  27.216  1.00  0.00     0.270 C 
ATOM     19  O   UNL A   1      31.646  28.575  27.727  1.00  0.00    -0.268 OA
ATOM     20  H   UNL A   1      33.416  29.609  28.941  1.00  0.00     0.164 HD
BRANCH  18  21
ATOM     21  C   UNL A   1      33.030  28.596  25.816  1.00  0.00     0.126 A 
ATOM     22  C   UNL A   1      32.255  28.895  22.272  1.00  0.00     0.069 C 
ATOM     23  C   UNL A   1      32.817  28.581  23.609  1.00  0.00     0.060 A 
ATOM     24  C   UNL A   1      32.970  29.442  24.718  1.00  0.00     0.059 A 
ATOM     25  N   UNL A   1      33.151  27.332  23.929  1.00  0.00    -0.178 NA
ATOM     26  N   UNL A   1      33.365  27.378  25.263  1.00  0.00    -0.263 N 
ATOM     27  C   UNL A   1      33.830  26.170  25.901  1.00  0.00     0.174 C 
ENDBRANCH  18  21
ENDBRANCH   9  17
BRANCH  16  28
ATOM     28  C   UNL A   1      37.511  34.016  30.446  1.00  0.00     0.111 C 
BRANCH  28  29
ATOM     29  S   UNL A   1      37.152  33.295  32.038  1.00  0.00    -0.089 SA
BRANCH  29  30
ATOM     30  C   UNL A   1      35.861  34.188  32.731  1.00  0.00     0.174 A 
ATOM     31  N   UNL A   1      35.996  35.357  33.312  1.00  0.00    -0.132 NA
ATOM     32  S   UNL A   1      34.260  33.811  32.251  1.00  0.00    -0.091 S 
ATOM     33  N   UNL A   1      34.872  36.139  33.090  1.00  0.00    -0.143 NA
ATOM     34  C   UNL A   1      33.975  35.497  32.368  1.00  0.00     0.115 A 
ATOM     35  C   UNL A   1      32.890  36.111  31.571  1.00  0.00     0.081 C 
ENDBRANCH  29  30
ENDBRANCH  28  29
ENDBRANCH  16  28
ENDBRANCH   5   8
ENDBRANCH   3   4
ENDBRANCH   2   3
ENDBRANCH   1   2
BRANCH   1  36
ATOM     36  C   UNL A   1      40.715  26.468  26.454  1.00  0.00     0.002 C 
BRANCH  36  37
ATOM     37  C   UNL A   1      40.498  25.064  27.024  1.00  0.00     0.021 C 
BRANCH  37  38
ATOM     38  C   UNL A   1      41.429  24.689  28.174  1.00  0.00     0.116 C 
BRANCH  38  39
ATOM     39  N   UNL A   1      42.162  23.463  27.892  1.00  0.00    -0.352 N 
ATOM     40  C   UNL A   1      43.332  23.297  27.196  1.00  0.00     0.251 C 
ATOM     41  H   UNL A   1      41.763  22.638  28.253  1.00  0.00     0.163 HD
ATOM     42  O   UNL A   1      43.669  22.186  26.801  1.00  0.00    -0.269 OA
BRANCH  40  43
ATOM     43  C   UNL A   1      44.180  24.474  26.932  1.00  0.00     0.039 A 
ATOM     44  C   UNL A   1      44.215  25.030  25.651  1.00  0.00     0.014 A 
ATOM     45  C   UNL A   1      44.942  25.024  27.967  1.00  0.00     0.014 A 
ATOM     46  C   UNL A   1      44.980  26.175  25.421  1.00  0.00     0.010 A 
ATOM     47  C   UNL A   1      45.633  26.208  27.755  1.00  0.00     0.010 A 
ATOM     48  C   UNL A   1      45.675  26.785  26.477  1.00  0.00    -0.014 A 
BRANCH  48  49
ATOM     49  C   UNL A   1      46.486  28.012  26.280  1.00  0.00     0.031 A 
ATOM     50  C   UNL A   1      47.975  27.891  26.096  1.00  0.00     0.074 A 
ATOM     51  C   UNL A   1      45.908  29.224  26.378  1.00  0.00     0.049 A 
ATOM     52  N   UNL A   1      48.880  28.831  26.051  1.00  0.00    -0.248 NA
ATOM     53  C   UNL A   1      48.521  26.526  25.986  1.00  0.00     0.031 C 
ATOM     54  C   UNL A   1      44.485  29.469  26.612  1.00  0.00     0.029 A 
ATOM     55  N   UNL A   1      46.457  30.481  26.329  1.00  0.00    -0.354 N 
ATOM     56  C   UNL A   1      50.102  28.174  25.955  1.00  0.00     0.074 A 
ATOM     57  C   UNL A   1      49.826  26.756  25.985  1.00  0.00     0.031 C 
ATOM     58  C   UNL A   1      44.272  30.792  26.692  1.00  0.00     0.029 A 
ATOM     59  C   UNL A   1      45.547  31.488  26.557  1.00  0.00     0.049 A 
ATOM     60  H   UNL A   1      47.411  30.647  26.148  1.00  0.00     0.167 HD
ATOM     61  C   UNL A   1      51.341  28.704  25.828  1.00  0.00     0.034 A 
ATOM     62  C   UNL A   1      45.727  32.819  26.668  1.00  0.00     0.034 A 
ATOM     63  C   UNL A   1      51.604  30.115  25.761  1.00  0.00     0.049 A 
ATOM     64  C   UNL A   1      47.112  33.385  26.503  1.00  0.00     0.074 A 
ATOM     65  C   UNL A   1      52.812  30.755  25.553  1.00  0.00     0.029 A 
ATOM     66  N   UNL A   1      50.645  31.105  25.909  1.00  0.00    -0.354 N 
ATOM     67  N   UNL A   1      48.241  32.754  26.282  1.00  0.00    -0.248 NA
ATOM     68  C   UNL A   1      47.247  34.848  26.567  1.00  0.00     0.031 C 
ATOM     69  C   UNL A   1      52.589  32.134  25.612  1.00  0.00     0.029 A 
ATOM     70  C   UNL A   1      51.234  32.352  25.808  1.00  0.00     0.049 A 
ATOM     71  H   UNL A   1      49.686  30.944  26.064  1.00  0.00     0.167 HD
ATOM     72  C   UNL A   1      49.207  33.742  26.131  1.00  0.00     0.074 A 
ATOM     73  C   UNL A   1      48.530  35.014  26.279  1.00  0.00     0.031 C 
ATOM     74  C   UNL A   1      50.535  33.608  25.896  1.00  0.00     0.034 A 
BRANCH  61  75
ATOM     75  C   UNL A   1      52.504  27.750  25.723  1.00  0.00     0.023 A 
ATOM     76  C   UNL A   1      52.930  27.299  24.456  1.00  0.00     0.012 A 
ATOM     77  C   UNL A   1      53.203  27.338  26.873  1.00  0.00     0.148 A 
ATOM     78  C   UNL A   1      54.004  26.419  24.340  1.00  0.00     0.002 A 
ATOM     79  C   UNL A   1      54.307  26.503  26.745  1.00  0.00     0.091 A 
ATOM     80  F   UNL A   1      52.773  27.761  28.070  1.00  0.00    -0.205 F 
ATOM     81  C   UNL A   1      54.699  26.030  25.482  1.00  0.00     0.022 A 
BRANCH  79  82
ATOM     82  S   UNL A   1      55.319  26.012  28.145  1.00  0.00     0.127 S 
ATOM     83  O   UNL A   1      54.380  26.165  29.256  1.00  0.00    -0.237 OA
ATOM     84  O   UNL A   1      55.649  24.626  27.812  1.00  0.00    -0.237 OA
ATOM     85  O   UNL A   1      56.455  26.923  28.160  1.00  0.00    -0.744 OA
ENDBRANCH  79  82
ENDBRANCH  61  75
BRANCH  62  86
ATOM     86  C   UNL A   1      44.558  33.714  26.900  1.00  0.00     0.023 A 
ATOM     87  C   UNL A   1      44.011  34.433  25.820  1.00  0.00     0.012 A 
ATOM     88  C   UNL A   1      43.973  33.841  28.176  1.00  0.00     0.148 A 
ATOM     89  C   UNL A   1      42.929  35.293  26.012  1.00  0.00     0.002 A 
ATOM     90  C   UNL A   1      42.861  34.654  28.349  1.00  0.00     0.091 A 
ATOM     91  F   UNL A   1      44.511  33.151  29.191  1.00  0.00    -0.205 F 
ATOM     92  C   UNL A   1      42.348  35.397  27.274  1.00  0.00     0.022 A 
BRANCH  90  93
ATOM     93  S   UNL A   1      41.967  34.749  29.905  1.00  0.00     0.127 S 
ATOM     94  O   UNL A   1      42.813  35.652  30.681  1.00  0.00    -0.237 OA
ATOM     95  O   UNL A   1      40.686  35.315  29.481  1.00  0.00    -0.237 OA
ATOM     96  O   UNL A   1      41.885  33.380  30.398  1.00  0.00    -0.744 OA
ENDBRANCH  90  93
ENDBRANCH  62  86
BRANCH  74  97
ATOM     97  C   UNL A   1      51.349  34.862  25.708  1.00  0.00     0.023 A 
ATOM     98  C   UNL A   1      51.510  35.421  24.426  1.00  0.00     0.012 A 
ATOM     99  C   UNL A   1      51.875  35.535  26.830  1.00  0.00     0.148 A 
ATOM    100  C   UNL A   1      52.207  36.618  24.260  1.00  0.00     0.002 A 
ATOM    101  C   UNL A   1      52.518  36.754  26.663  1.00  0.00     0.091 A 
ATOM    102  F   UNL A   1      51.724  34.975  28.038  1.00  0.00    -0.205 F 
ATOM    103  C   UNL A   1      52.698  37.291  25.378  1.00  0.00     0.022 A 
BRANCH 101 104
ATOM    104  S   UNL A   1      53.089  37.740  28.052  1.00  0.00     0.127 S 
ATOM    105  O   UNL A   1      53.629  38.919  27.377  1.00  0.00    -0.237 OA
ATOM    106  O   UNL A   1      51.848  37.974  28.792  1.00  0.00    -0.237 OA
ATOM    107  O   UNL A   1      54.068  36.921  28.753  1.00  0.00    -0.744 OA
ENDBRANCH 101 104
ENDBRANCH  74  97
ENDBRANCH  48  49
ENDBRANCH  40  43
ENDBRANCH  38  39
ENDBRANCH  37  38
ENDBRANCH  36  37
ENDBRANCH   1  36
TORSDOF 21
ENDMDL
MODEL 3
REMARK VINA RESULT:      -8.2      6.842     12.954
REMARK SMILES Cc1cc(C(=O)N[C@@H]2C(=O)N3C(C(=O)NCCCCCCNC(=O)c4ccc(-c5c6nc(c(-c7cccc(S(=O)(=O)[O-])c7F)c7ccc([nH]7)c(-c7cccc(S(=O)(=O)[O-])c7F)c7nc(c(-c8cccc(S(=O)(=O)[O-])c8F)c8ccc5[nH]8)C=C7)C=C6)cc4)=C(CSc4nnc(C)s4)CS[C@H]23)n(C)n1
REMARK SMILES IDX 18 1 17 2 16 3 15 4 13 5 14 6 12 8 8 9 9 10 99 11 10 12
REMARK SMILES IDX 11 13 98 14 97 15 88 16 7 17 5 18 6 19 4 21 1 22 2 23 3 24
REMARK SMILES IDX 102 25 100 26 101 27 89 28 90 29 91 30 92 31 96 32 93 33
REMARK SMILES IDX 94 34 95 35 19 36 20 37 21 38 22 39 23 40 24 42 25 43 26 44
REMARK SMILES IDX 87 45 27 46 86 47 28 48 29 49 30 50 80 51 31 52 85 53 79 54
REMARK SMILES IDX 81 55 32 56 84 57 78 58 77 59 33 61 65 62 45 63 64 64 46 65
REMARK SMILES IDX 49 66 63 67 82 68 47 69 48 70 62 72 83 73 50 74 34 75 35 76
REMARK SMILES IDX 43 77 36 78 38 79 44 80 37 81 39 82 40 83 41 84 42 85 66 86
REMARK SMILES IDX 67 87 75 88 68 89 70 90 76 91 69 92 71 93 72 94 73 95 74 96
REMARK SMILES IDX 51 97 52 98 60 99 53 100 55 101 61 102 54 103 56 104 57 105
REMARK SMILES IDX 58 106 59 107
REMARK H PARENT 15 7 7 20 22 41 81 60 49 71
REMARK Flexibility Score: inf
ROOT
ATOM      1  C   UNL A   1      36.628  29.821  27.896  1.00  0.00     0.002 C 
ENDROOT
BRANCH   1   2
ATOM      2  C   UNL A   1      35.143  29.489  27.886  1.00  0.00     0.021 C 
BRANCH   2   3
ATOM      3  C   UNL A   1      34.591  28.866  26.596  1.00  0.00     0.116 C 
BRANCH   3   4
ATOM      4  N   UNL A   1      33.163  28.649  26.705  1.00  0.00    -0.351 N 
ATOM      5  C   UNL A   1      32.191  27.941  26.092  1.00  0.00     0.268 C 
ATOM      6  O   UNL A   1      31.139  27.953  26.750  1.00  0.00    -0.268 OA
ATOM      7  H   UNL A   1      32.790  29.177  27.448  1.00  0.00     0.163 HD
BRANCH   5   8
ATOM      8  C   UNL A   1      32.291  27.017  24.860  1.00  0.00     0.111 C 
ATOM      9  C   UNL A   1      32.887  23.676  25.505  1.00  0.00     0.206 C 
ATOM     10  C   UNL A   1      32.103  24.856  26.147  1.00  0.00     0.253 C 
ATOM     11  C   UNL A   1      33.071  24.680  24.335  1.00  0.00     0.181 C 
ATOM     12  O   UNL A   1      31.262  24.933  27.027  1.00  0.00    -0.272 OA
ATOM     13  N   UNL A   1      32.642  25.723  25.238  1.00  0.00    -0.290 N 
ATOM     14  S   UNL A   1      31.880  24.576  22.969  1.00  0.00    -0.129 SA
ATOM     15  C   UNL A   1      32.364  26.222  22.446  1.00  0.00     0.106 C 
ATOM     16  C   UNL A   1      32.010  27.232  23.533  1.00  0.00    -0.020 C 
BRANCH   9  17
ATOM     17  N   UNL A   1      32.174  22.390  25.270  1.00  0.00    -0.336 N 
ATOM     18  C   UNL A   1      32.665  21.096  25.290  1.00  0.00     0.270 C 
ATOM     19  O   UNL A   1      31.868  20.182  25.084  1.00  0.00    -0.268 OA
ATOM     20  H   UNL A   1      31.213  22.472  25.073  1.00  0.00     0.164 HD
BRANCH  18  21
ATOM     21  C   UNL A   1      34.086  20.885  25.477  1.00  0.00     0.126 A 
ATOM     22  C   UNL A   1      37.546  22.013  25.414  1.00  0.00     0.069 C 
ATOM     23  C   UNL A   1      36.271  21.259  25.502  1.00  0.00     0.060 A 
ATOM     24  C   UNL A   1      35.054  21.665  26.093  1.00  0.00     0.059 A 
ATOM     25  N   UNL A   1      36.133  20.085  24.889  1.00  0.00    -0.178 NA
ATOM     26  N   UNL A   1      34.808  19.828  24.961  1.00  0.00    -0.263 N 
ATOM     27  C   UNL A   1      34.349  18.561  24.444  1.00  0.00     0.174 C 
ENDBRANCH  18  21
ENDBRANCH   9  17
BRANCH  16  28
ATOM     28  C   UNL A   1      31.138  28.307  22.928  1.00  0.00     0.111 C 
BRANCH  28  29
ATOM     29  S   UNL A   1      29.424  27.918  23.233  1.00  0.00    -0.089 SA
BRANCH  29  30
ATOM     30  C   UNL A   1      28.491  29.273  22.745  1.00  0.00     0.174 A 
ATOM     31  N   UNL A   1      27.355  29.628  23.297  1.00  0.00    -0.132 NA
ATOM     32  S   UNL A   1      29.259  30.507  21.838  1.00  0.00    -0.091 S 
ATOM     33  N   UNL A   1      27.224  31.009  23.289  1.00  0.00    -0.143 NA
ATOM     34  C   UNL A   1      28.268  31.586  22.725  1.00  0.00     0.115 A 
ATOM     35  C   UNL A   1      28.704  32.987  22.918  1.00  0.00     0.081 C 
ENDBRANCH  29  30
ENDBRANCH  28  29
ENDBRANCH  16  28
ENDBRANCH   5   8
ENDBRANCH   3   4
ENDBRANCH   2   3
ENDBRANCH   1   2
BRANCH   1  36
ATOM     36  C   UNL A   1      37.452  28.974  28.860  1.00  0.00     0.002 C 
BRANCH  36  37
ATOM     37  C   UNL A   1      38.931  28.829  28.491  1.00  0.00     0.021 C 
BRANCH  37  38
ATOM     38  C   UNL A   1      39.553  27.483  28.857  1.00  0.00     0.116 C 
BRANCH  38  39
ATOM     39  N   UNL A   1      39.571  26.575  27.718  1.00  0.00    -0.352 N 
ATOM     40  C   UNL A   1      40.646  26.082  27.024  1.00  0.00     0.251 C 
ATOM     41  H   UNL A   1      38.688  26.271  27.404  1.00  0.00     0.163 HD
ATOM     42  O   UNL A   1      40.493  25.563  25.923  1.00  0.00    -0.269 OA
BRANCH  40  43
ATOM     43  C   UNL A   1      41.991  26.183  27.622  1.00  0.00     0.039 A 
ATOM     44  C   UNL A   1      42.459  27.419  28.071  1.00  0.00     0.014 A 
ATOM     45  C   UNL A   1      42.785  25.037  27.736  1.00  0.00     0.014 A 
ATOM     46  C   UNL A   1      43.712  27.497  28.682  1.00  0.00     0.010 A 
ATOM     47  C   UNL A   1      43.990  25.104  28.418  1.00  0.00     0.010 A 
ATOM     48  C   UNL A   1      44.475  26.336  28.882  1.00  0.00    -0.014 A 
BRANCH  48  49
ATOM     49  C   UNL A   1      45.803  26.373  29.543  1.00  0.00     0.031 A 
ATOM     50  C   UNL A   1      47.020  26.734  28.734  1.00  0.00     0.074 A 
ATOM     51  C   UNL A   1      45.929  25.976  30.823  1.00  0.00     0.049 A 
ATOM     52  N   UNL A   1      48.280  26.690  29.074  1.00  0.00    -0.248 NA
ATOM     53  C   UNL A   1      46.788  27.170  27.345  1.00  0.00     0.031 C 
ATOM     54  C   UNL A   1      44.831  25.547  31.690  1.00  0.00     0.029 A 
ATOM     55  N   UNL A   1      47.047  25.833  31.608  1.00  0.00    -0.354 N 
ATOM     56  C   UNL A   1      48.992  27.043  27.934  1.00  0.00     0.074 A 
ATOM     57  C   UNL A   1      48.026  27.264  26.882  1.00  0.00     0.031 C 
ATOM     58  C   UNL A   1      45.328  25.186  32.884  1.00  0.00     0.029 A 
ATOM     59  C   UNL A   1      46.781  25.315  32.854  1.00  0.00     0.049 A 
ATOM     60  H   UNL A   1      47.951  26.079  31.307  1.00  0.00     0.167 HD
ATOM     61  C   UNL A   1      50.328  27.194  27.781  1.00  0.00     0.034 A 
ATOM     62  C   UNL A   1      47.618  24.963  33.850  1.00  0.00     0.034 A 
ATOM     63  C   UNL A   1      51.279  27.009  28.842  1.00  0.00     0.049 A 
ATOM     64  C   UNL A   1      49.099  25.159  33.663  1.00  0.00     0.074 A 
ATOM     65  C   UNL A   1      52.647  27.214  28.815  1.00  0.00     0.029 A 
ATOM     66  N   UNL A   1      50.964  26.567  30.117  1.00  0.00    -0.354 N 
ATOM     67  N   UNL A   1      49.745  25.620  32.619  1.00  0.00    -0.248 NA
ATOM     68  C   UNL A   1      49.965  24.823  34.803  1.00  0.00     0.031 C 
ATOM     69  C   UNL A   1      53.164  26.859  30.066  1.00  0.00     0.029 A 
ATOM     70  C   UNL A   1      52.111  26.481  30.885  1.00  0.00     0.049 A 
ATOM     71  H   UNL A   1      50.057  26.345  30.431  1.00  0.00     0.167 HD
ATOM     72  C   UNL A   1      51.083  25.674  32.992  1.00  0.00     0.074 A 
ATOM     73  C   UNL A   1      51.154  25.207  34.360  1.00  0.00     0.031 C 
ATOM     74  C   UNL A   1      52.156  26.072  32.265  1.00  0.00     0.034 A 
BRANCH  61  75
ATOM     75  C   UNL A   1      50.837  27.609  26.424  1.00  0.00     0.023 A 
ATOM     76  C   UNL A   1      50.869  26.672  25.370  1.00  0.00     0.012 A 
ATOM     77  C   UNL A   1      51.240  28.936  26.181  1.00  0.00     0.148 A 
ATOM     78  C   UNL A   1      51.334  27.039  24.108  1.00  0.00     0.002 A 
ATOM     79  C   UNL A   1      51.652  29.307  24.906  1.00  0.00     0.091 A 
ATOM     80  F   UNL A   1      51.222  29.808  27.199  1.00  0.00    -0.205 F 
ATOM     81  C   UNL A   1      51.715  28.356  23.873  1.00  0.00     0.022 A 
BRANCH  79  82
ATOM     82  S   UNL A   1      52.082  30.997  24.480  1.00  0.00     0.127 S 
ATOM     83  O   UNL A   1      51.856  31.004  23.035  1.00  0.00    -0.237 OA
ATOM     84  O   UNL A   1      51.107  31.766  25.254  1.00  0.00    -0.237 OA
ATOM     85  O   UNL A   1      53.467  31.178  24.894  1.00  0.00    -0.744 OA
ENDBRANCH  79  82
ENDBRANCH  61  75
BRANCH  62  86
ATOM     86  C   UNL A   1      47.072  24.435  35.133  1.00  0.00     0.023 A 
ATOM     87  C   UNL A   1      46.505  25.327  36.063  1.00  0.00     0.012 A 
ATOM     88  C   UNL A   1      47.093  23.058  35.427  1.00  0.00     0.148 A 
ATOM     89  C   UNL A   1      46.004  24.863  37.280  1.00  0.00     0.002 A 
ATOM     90  C   UNL A   1      46.541  22.595  36.615  1.00  0.00     0.091 A 
ATOM     91  F   UNL A   1      47.641  22.226  34.530  1.00  0.00    -0.205 F 
ATOM     92  C   UNL A   1      46.014  23.498  37.553  1.00  0.00     0.022 A 
BRANCH  90  93
ATOM     93  S   UNL A   1      46.391  20.846  36.994  1.00  0.00     0.127 S 
ATOM     94  O   UNL A   1      45.496  20.385  35.935  1.00  0.00    -0.237 OA
ATOM     95  O   UNL A   1      47.777  20.392  36.871  1.00  0.00    -0.237 OA
ATOM     96  O   UNL A   1      45.855  20.778  38.348  1.00  0.00    -0.744 OA
ENDBRANCH  90  93
ENDBRANCH  62  86
BRANCH  74  97
ATOM     97  C   UNL A   1      53.500  26.094  32.945  1.00  0.00     0.023 A 
ATOM     98  C   UNL A   1      53.921  27.235  33.655  1.00  0.00     0.012 A 
ATOM     99  C   UNL A   1      54.304  24.936  32.952  1.00  0.00     0.148 A 
ATOM    100  C   UNL A   1      55.136  27.231  34.341  1.00  0.00     0.002 A 
ATOM    101  C   UNL A   1      55.485  24.922  33.683  1.00  0.00     0.091 A 
ATOM    102  F   UNL A   1      53.892  23.868  32.255  1.00  0.00    -0.205 F 
ATOM    103  C   UNL A   1      55.910  26.073  34.367  1.00  0.00     0.022 A 
BRANCH 101 104
ATOM    104  S   UNL A   1      56.491  23.444  33.859  1.00  0.00     0.127 S 
ATOM    105  O   UNL A   1      55.501  22.462  34.297  1.00  0.00    -0.237 OA
ATOM    106  O   UNL A   1      56.986  23.246  32.496  1.00  0.00    -0.237 OA
ATOM    107  O   UNL A   1      57.520  23.770  34.837  1.00  0.00    -0.744 OA
ENDBRANCH 101 104
ENDBRANCH  74  97
ENDBRANCH  48  49
ENDBRANCH  40  43
ENDBRANCH  38  39
ENDBRANCH  37  38
ENDBRANCH  36  37
ENDBRANCH   1  36
TORSDOF 21
ENDMDL
