MODEL 1
REMARK VINA RESULT:     -13.0      0.000      0.000
REMARK SMILES Cc1cnn(C2(C(=O)NCCCCCCNC(=O)c3ccc(-c4c5nc(c(-c6cccc(S(=O)(=O)[O-])c6F)c6ccc([nH]6)c(-c6cccc(S(=O)(=O)[O-])c6F)c6nc(c(-c7cccc(S(=O)(=O)[O-])c7F)c7ccc4[nH]7)C=C6)C=C5)cc3)CCN(C(=O)c3cc4ccccc4[nH]3)CC2)c1
REMARK SMILES IDX 13 1 12 2 11 3 10 4 9 5 7 6 8 7 6 9 82 10 97 11 83 12 96 13
REMARK SMILES IDX 84 14 85 15 86 16 5 17 1 18 2 19 3 20 98 21 4 22 87 23 88 24
REMARK SMILES IDX 95 25 89 26 94 27 90 29 93 30 91 31 92 32 14 33 15 34 16 35
REMARK SMILES IDX 17 36 18 38 19 39 20 40 81 41 21 42 80 43 22 44 23 45 24 46
REMARK SMILES IDX 74 47 25 48 79 49 73 50 75 51 26 52 78 53 72 54 71 55 27 57
REMARK SMILES IDX 59 58 39 59 58 60 40 61 43 62 57 63 76 64 41 65 42 66 56 68
REMARK SMILES IDX 77 69 44 70 28 71 29 72 37 73 30 74 32 75 38 76 31 77 33 78
REMARK SMILES IDX 34 79 35 80 36 81 60 82 61 83 69 84 62 85 64 86 70 87 63 88
REMARK SMILES IDX 65 89 66 90 67 91 68 92 45 93 46 94 54 95 47 96 49 97 55 98
REMARK SMILES IDX 48 99 50 100 51 101 52 102 53 103
REMARK H PARENT 9 8 95 28 16 37 75 56 43 67
REMARK Flexibility Score: inf
ROOT
ATOM      1  C   UNL A   1      39.153  22.100  26.102  1.00  0.00     0.002 C 
ENDROOT
BRANCH   1   2
ATOM      2  C   UNL A   1      37.912  22.913  25.710  1.00  0.00     0.002 C 
BRANCH   2   3
ATOM      3  C   UNL A   1      36.778  22.135  25.031  1.00  0.00     0.021 C 
BRANCH   3   4
ATOM      4  C   UNL A   1      35.416  22.830  25.061  1.00  0.00     0.116 C 
BRANCH   4   5
ATOM      5  N   UNL A   1      34.965  23.185  23.723  1.00  0.00    -0.354 N 
ATOM      6  C   UNL A   1      33.863  23.855  23.248  1.00  0.00     0.248 C 
ATOM      7  O   UNL A   1      33.818  23.886  22.015  1.00  0.00    -0.272 OA
ATOM      8  H   UNL A   1      35.576  22.883  23.012  1.00  0.00     0.163 HD
BRANCH   6   9
ATOM      9  C   UNL A   1      32.826  24.525  24.218  1.00  0.00     0.144 C 
ATOM     10  C   UNL A   1      33.629  25.430  25.197  1.00  0.00     0.062 C 
ATOM     11  C   UNL A   1      31.799  25.259  23.315  1.00  0.00     0.062 C 
ATOM     12  C   UNL A   1      32.938  26.718  25.636  1.00  0.00     0.123 C 
ATOM     13  C   UNL A   1      31.119  26.447  23.976  1.00  0.00     0.123 C 
ATOM     14  N   UNL A   1      32.100  27.315  24.605  1.00  0.00    -0.337 N 
ATOM     15  C   UNL A   1      32.294  28.653  24.265  1.00  0.00     0.270 C 
ATOM     16  O   UNL A   1      33.374  29.214  24.453  1.00  0.00    -0.267 OA
BRANCH   9  17
ATOM     17  N   UNL A   1      32.034  23.545  25.036  1.00  0.00    -0.257 N 
ATOM     18  C   UNL A   1      29.407  22.486  27.366  1.00  0.00     0.048 C 
ATOM     19  C   UNL A   1      30.502  22.667  26.392  1.00  0.00    -0.013 A 
ATOM     20  C   UNL A   1      31.264  21.689  25.732  1.00  0.00     0.138 A 
ATOM     21  C   UNL A   1      31.018  23.851  25.917  1.00  0.00     0.113 A 
ATOM     22  N   UNL A   1      32.116  22.211  24.854  1.00  0.00    -0.180 NA
ENDBRANCH   9  17
BRANCH  15  23
ATOM     23  C   UNL A   1      31.210  29.346  23.609  1.00  0.00     0.105 A 
ATOM     24  C   UNL A   1      30.669  29.213  22.341  1.00  0.00     0.042 A 
ATOM     25  N   UNL A   1      30.439  30.279  24.264  1.00  0.00    -0.351 N 
ATOM     26  C   UNL A   1      29.669  30.210  22.178  1.00  0.00     0.000 A 
ATOM     27  C   UNL A   1      29.577  30.894  23.388  1.00  0.00     0.046 A 
ATOM     28  H   UNL A   1      30.497  30.477  25.226  1.00  0.00     0.167 HD
ATOM     29  C   UNL A   1      28.834  30.597  21.112  1.00  0.00     0.010 A 
ATOM     30  C   UNL A   1      28.711  31.976  23.581  1.00  0.00     0.026 A 
ATOM     31  C   UNL A   1      27.963  31.678  21.288  1.00  0.00     0.001 A 
ATOM     32  C   UNL A   1      27.911  32.362  22.501  1.00  0.00     0.002 A 
ENDBRANCH  15  23
ENDBRANCH   6   9
ENDBRANCH   4   5
ENDBRANCH   3   4
ENDBRANCH   2   3
ENDBRANCH   1   2
BRANCH   1  33
ATOM     33  C   UNL A   1      39.331  20.741  25.412  1.00  0.00     0.021 C 
BRANCH  33  34
ATOM     34  C   UNL A   1      39.730  19.608  26.346  1.00  0.00     0.116 C 
BRANCH  34  35
ATOM     35  N   UNL A   1      40.957  18.938  25.918  1.00  0.00    -0.352 N 
ATOM     36  C   UNL A   1      42.216  19.485  25.736  1.00  0.00     0.251 C 
ATOM     37  H   UNL A   1      40.879  17.973  25.736  1.00  0.00     0.163 HD
ATOM     38  O   UNL A   1      43.054  18.924  25.060  1.00  0.00    -0.269 OA
BRANCH  36  39
ATOM     39  C   UNL A   1      42.509  20.780  26.381  1.00  0.00     0.039 A 
ATOM     40  C   UNL A   1      42.934  21.880  25.630  1.00  0.00     0.014 A 
ATOM     41  C   UNL A   1      42.296  20.889  27.751  1.00  0.00     0.014 A 
ATOM     42  C   UNL A   1      43.058  23.117  26.258  1.00  0.00     0.010 A 
ATOM     43  C   UNL A   1      42.270  22.132  28.330  1.00  0.00     0.010 A 
ATOM     44  C   UNL A   1      42.702  23.245  27.609  1.00  0.00    -0.014 A 
BRANCH  44  45
ATOM     45  C   UNL A   1      42.674  24.557  28.258  1.00  0.00     0.031 A 
ATOM     46  C   UNL A   1      41.428  25.352  28.054  1.00  0.00     0.074 A 
ATOM     47  C   UNL A   1      43.586  24.915  29.190  1.00  0.00     0.049 A 
ATOM     48  N   UNL A   1      41.304  26.511  27.491  1.00  0.00    -0.248 NA
ATOM     49  C   UNL A   1      40.146  24.734  28.425  1.00  0.00     0.031 C 
ATOM     50  C   UNL A   1      44.678  24.092  29.732  1.00  0.00     0.029 A 
ATOM     51  N   UNL A   1      43.620  26.020  29.984  1.00  0.00    -0.354 N 
ATOM     52  C   UNL A   1      39.963  26.869  27.656  1.00  0.00     0.074 A 
ATOM     53  C   UNL A   1      39.276  25.669  28.044  1.00  0.00     0.031 C 
ATOM     54  C   UNL A   1      45.054  24.582  30.930  1.00  0.00     0.029 A 
ATOM     55  C   UNL A   1      44.386  25.850  31.134  1.00  0.00     0.049 A 
ATOM     56  H   UNL A   1      43.149  26.857  29.767  1.00  0.00     0.167 HD
ATOM     57  C   UNL A   1      39.581  28.177  27.722  1.00  0.00     0.034 A 
ATOM     58  C   UNL A   1      44.438  26.672  32.206  1.00  0.00     0.034 A 
ATOM     59  C   UNL A   1      40.632  29.051  27.262  1.00  0.00     0.049 A 
ATOM     60  C   UNL A   1      43.978  28.001  31.756  1.00  0.00     0.074 A 
ATOM     61  C   UNL A   1      41.323  29.255  26.087  1.00  0.00     0.029 A 
ATOM     62  N   UNL A   1      41.351  29.675  28.250  1.00  0.00    -0.354 N 
ATOM     63  N   UNL A   1      44.614  28.728  30.880  1.00  0.00    -0.248 NA
ATOM     64  C   UNL A   1      42.606  28.400  32.024  1.00  0.00     0.031 C 
ATOM     65  C   UNL A   1      42.633  29.656  26.488  1.00  0.00     0.029 A 
ATOM     66  C   UNL A   1      42.666  29.710  27.883  1.00  0.00     0.049 A 
ATOM     67  H   UNL A   1      40.980  30.037  29.087  1.00  0.00     0.167 HD
ATOM     68  C   UNL A   1      43.608  29.362  30.167  1.00  0.00     0.074 A 
ATOM     69  C   UNL A   1      42.428  29.264  31.021  1.00  0.00     0.031 C 
ATOM     70  C   UNL A   1      43.756  29.629  28.836  1.00  0.00     0.034 A 
BRANCH  57  71
ATOM     71  C   UNL A   1      38.462  28.734  28.595  1.00  0.00     0.023 A 
ATOM     72  C   UNL A   1      37.489  29.539  27.949  1.00  0.00     0.012 A 
ATOM     73  C   UNL A   1      38.481  28.788  30.008  1.00  0.00     0.148 A 
ATOM     74  C   UNL A   1      36.662  30.420  28.655  1.00  0.00     0.002 A 
ATOM     75  C   UNL A   1      37.606  29.612  30.711  1.00  0.00     0.091 A 
ATOM     76  F   UNL A   1      39.424  28.145  30.697  1.00  0.00    -0.205 F 
ATOM     77  C   UNL A   1      36.722  30.460  30.039  1.00  0.00     0.022 A 
BRANCH  75  78
ATOM     78  S   UNL A   1      37.613  29.667  32.508  1.00  0.00     0.127 S 
ATOM     79  O   UNL A   1      38.948  30.192  32.775  1.00  0.00    -0.237 OA
ATOM     80  O   UNL A   1      36.514  30.593  32.786  1.00  0.00    -0.237 OA
ATOM     81  O   UNL A   1      37.356  28.297  32.934  1.00  0.00    -0.744 OA
ENDBRANCH  75  78
ENDBRANCH  57  71
BRANCH  58  82
ATOM     82  C   UNL A   1      44.675  26.349  33.630  1.00  0.00     0.023 A 
ATOM     83  C   UNL A   1      45.987  26.378  34.139  1.00  0.00     0.012 A 
ATOM     84  C   UNL A   1      43.600  26.275  34.545  1.00  0.00     0.148 A 
ATOM     85  C   UNL A   1      46.221  26.376  35.519  1.00  0.00     0.002 A 
ATOM     86  C   UNL A   1      43.838  26.269  35.916  1.00  0.00     0.091 A 
ATOM     87  F   UNL A   1      42.346  26.300  34.072  1.00  0.00    -0.205 F 
ATOM     88  C   UNL A   1      45.150  26.332  36.406  1.00  0.00     0.022 A 
BRANCH  86  89
ATOM     89  S   UNL A   1      42.508  26.228  37.127  1.00  0.00     0.127 S 
ATOM     90  O   UNL A   1      41.808  27.484  36.851  1.00  0.00    -0.237 OA
ATOM     91  O   UNL A   1      41.777  25.025  36.738  1.00  0.00    -0.237 OA
ATOM     92  O   UNL A   1      43.155  26.180  38.433  1.00  0.00    -0.744 OA
ENDBRANCH  86  89
ENDBRANCH  58  82
BRANCH  70  93
ATOM     93  C   UNL A   1      45.143  29.565  28.250  1.00  0.00     0.023 A 
ATOM     94  C   UNL A   1      46.073  30.615  28.397  1.00  0.00     0.012 A 
ATOM     95  C   UNL A   1      45.573  28.349  27.689  1.00  0.00     0.148 A 
ATOM     96  C   UNL A   1      47.396  30.463  27.974  1.00  0.00     0.002 A 
ATOM     97  C   UNL A   1      46.900  28.187  27.313  1.00  0.00     0.091 A 
ATOM     98  F   UNL A   1      44.676  27.359  27.564  1.00  0.00    -0.205 F 
ATOM     99  C   UNL A   1      47.814  29.245  27.445  1.00  0.00     0.022 A 
BRANCH  97 100
ATOM    100  S   UNL A   1      47.530  26.604  26.749  1.00  0.00     0.127 S 
ATOM    101  O   UNL A   1      46.806  26.416  25.494  1.00  0.00    -0.237 OA
ATOM    102  O   UNL A   1      48.961  26.871  26.596  1.00  0.00    -0.237 OA
ATOM    103  O   UNL A   1      47.214  25.647  27.804  1.00  0.00    -0.744 OA
ENDBRANCH  97 100
ENDBRANCH  70  93
ENDBRANCH  44  45
ENDBRANCH  36  39
ENDBRANCH  34  35
ENDBRANCH  33  34
ENDBRANCH   1  33
TORSDOF 18
ENDMDL
MODEL 2
REMARK VINA RESULT:     -12.5      2.957      8.689
REMARK SMILES Cc1cnn(C2(C(=O)NCCCCCCNC(=O)c3ccc(-c4c5nc(c(-c6cccc(S(=O)(=O)[O-])c6F)c6ccc([nH]6)c(-c6cccc(S(=O)(=O)[O-])c6F)c6nc(c(-c7cccc(S(=O)(=O)[O-])c7F)c7ccc4[nH]7)C=C6)C=C5)cc3)CCN(C(=O)c3cc4ccccc4[nH]3)CC2)c1
REMARK SMILES IDX 13 1 12 2 11 3 10 4 9 5 7 6 8 7 6 9 82 10 97 11 83 12 96 13
REMARK SMILES IDX 84 14 85 15 86 16 5 17 1 18 2 19 3 20 98 21 4 22 87 23 88 24
REMARK SMILES IDX 95 25 89 26 94 27 90 29 93 30 91 31 92 32 14 33 15 34 16 35
REMARK SMILES IDX 17 36 18 38 19 39 20 40 81 41 21 42 80 43 22 44 23 45 24 46
REMARK SMILES IDX 74 47 25 48 79 49 73 50 75 51 26 52 78 53 72 54 71 55 27 57
REMARK SMILES IDX 59 58 39 59 58 60 40 61 43 62 57 63 76 64 41 65 42 66 56 68
REMARK SMILES IDX 77 69 44 70 28 71 29 72 37 73 30 74 32 75 38 76 31 77 33 78
REMARK SMILES IDX 34 79 35 80 36 81 60 82 61 83 69 84 62 85 64 86 70 87 63 88
REMARK SMILES IDX 65 89 66 90 67 91 68 92 45 93 46 94 54 95 47 96 49 97 55 98
REMARK SMILES IDX 48 99 50 100 51 101 52 102 53 103
REMARK H PARENT 9 8 95 28 16 37 75 56 43 67
REMARK Flexibility Score: inf
ROOT
ATOM      1  C   UNL A   1      32.683  30.970  27.042  1.00  0.00     0.002 C 
ENDROOT
BRANCH   1   2
ATOM      2  C   UNL A   1      32.527  30.076  25.804  1.00  0.00     0.002 C 
BRANCH   2   3
ATOM      3  C   UNL A   1      31.478  28.962  25.901  1.00  0.00     0.021 C 
BRANCH   3   4
ATOM      4  C   UNL A   1      31.801  27.863  26.914  1.00  0.00     0.116 C 
BRANCH   4   5
ATOM      5  N   UNL A   1      30.841  26.770  26.845  1.00  0.00    -0.354 N 
ATOM      6  C   UNL A   1      30.815  25.583  26.154  1.00  0.00     0.248 C 
ATOM      7  O   UNL A   1      29.766  24.955  26.323  1.00  0.00    -0.272 OA
ATOM      8  H   UNL A   1      30.048  26.911  27.411  1.00  0.00     0.163 HD
BRANCH   6   9
ATOM      9  C   UNL A   1      32.036  25.107  25.288  1.00  0.00     0.144 C 
ATOM     10  C   UNL A   1      33.310  25.252  26.170  1.00  0.00     0.062 C 
ATOM     11  C   UNL A   1      31.702  23.664  24.825  1.00  0.00     0.062 C 
ATOM     12  C   UNL A   1      34.392  24.197  25.959  1.00  0.00     0.123 C 
ATOM     13  C   UNL A   1      32.919  22.798  24.542  1.00  0.00     0.123 C 
ATOM     14  N   UNL A   1      33.870  22.876  25.639  1.00  0.00    -0.337 N 
ATOM     15  C   UNL A   1      34.280  21.782  26.398  1.00  0.00     0.270 C 
ATOM     16  O   UNL A   1      34.690  21.917  27.552  1.00  0.00    -0.267 OA
BRANCH   9  17
ATOM     17  N   UNL A   1      32.245  25.908  24.035  1.00  0.00    -0.257 N 
ATOM     18  C   UNL A   1      34.024  28.191  21.784  1.00  0.00     0.048 C 
ATOM     19  C   UNL A   1      33.153  27.235  22.497  1.00  0.00    -0.013 A 
ATOM     20  C   UNL A   1      31.998  26.584  22.034  1.00  0.00     0.138 A 
ATOM     21  C   UNL A   1      33.289  26.774  23.785  1.00  0.00     0.113 A 
ATOM     22  N   UNL A   1      31.508  25.722  22.922  1.00  0.00    -0.180 NA
ENDBRANCH   9  17
BRANCH  15  23
ATOM     23  C   UNL A   1      34.138  20.467  25.818  1.00  0.00     0.105 A 
ATOM     24  C   UNL A   1      34.808  19.845  24.777  1.00  0.00     0.042 A 
ATOM     25  N   UNL A   1      33.272  19.531  26.337  1.00  0.00    -0.351 N 
ATOM     26  C   UNL A   1      34.209  18.575  24.559  1.00  0.00     0.000 A 
ATOM     27  C   UNL A   1      33.216  18.423  25.525  1.00  0.00     0.046 A 
ATOM     28  H   UNL A   1      32.765  19.640  27.172  1.00  0.00     0.167 HD
ATOM     29  C   UNL A   1      34.414  17.540  23.626  1.00  0.00     0.010 A 
ATOM     30  C   UNL A   1      32.389  17.296  25.588  1.00  0.00     0.026 A 
ATOM     31  C   UNL A   1      33.595  16.407  23.675  1.00  0.00     0.001 A 
ATOM     32  C   UNL A   1      32.592  16.293  24.636  1.00  0.00     0.002 A 
ENDBRANCH  15  23
ENDBRANCH   6   9
ENDBRANCH   4   5
ENDBRANCH   3   4
ENDBRANCH   2   3
ENDBRANCH   1   2
BRANCH   1  33
ATOM     33  C   UNL A   1      34.094  31.089  27.631  1.00  0.00     0.021 C 
BRANCH  33  34
ATOM     34  C   UNL A   1      34.506  32.507  27.998  1.00  0.00     0.116 C 
BRANCH  34  35
ATOM     35  N   UNL A   1      34.277  32.807  29.410  1.00  0.00    -0.352 N 
ATOM     36  C   UNL A   1      34.908  32.263  30.517  1.00  0.00     0.251 C 
ATOM     37  H   UNL A   1      33.586  33.483  29.600  1.00  0.00     0.163 HD
ATOM     38  O   UNL A   1      34.407  32.328  31.621  1.00  0.00    -0.269 OA
BRANCH  36  39
ATOM     39  C   UNL A   1      36.207  31.591  30.315  1.00  0.00     0.039 A 
ATOM     40  C   UNL A   1      37.369  32.327  30.065  1.00  0.00     0.014 A 
ATOM     41  C   UNL A   1      36.249  30.206  30.436  1.00  0.00     0.014 A 
ATOM     42  C   UNL A   1      38.592  31.661  30.027  1.00  0.00     0.010 A 
ATOM     43  C   UNL A   1      37.464  29.579  30.551  1.00  0.00     0.010 A 
ATOM     44  C   UNL A   1      38.638  30.285  30.293  1.00  0.00    -0.014 A 
BRANCH  44  45
ATOM     45  C   UNL A   1      39.919  29.586  30.412  1.00  0.00     0.031 A 
ATOM     46  C   UNL A   1      40.512  29.551  31.781  1.00  0.00     0.074 A 
ATOM     47  C   UNL A   1      40.401  28.801  29.422  1.00  0.00     0.049 A 
ATOM     48  N   UNL A   1      41.646  30.036  32.173  1.00  0.00    -0.248 NA
ATOM     49  C   UNL A   1      39.694  29.002  32.873  1.00  0.00     0.031 C 
ATOM     50  C   UNL A   1      39.752  28.478  28.143  1.00  0.00     0.029 A 
ATOM     51  N   UNL A   1      41.485  27.976  29.425  1.00  0.00    -0.354 N 
ATOM     52  C   UNL A   1      41.786  29.641  33.505  1.00  0.00     0.074 A 
ATOM     53  C   UNL A   1      40.487  29.197  33.928  1.00  0.00     0.031 C 
ATOM     54  C   UNL A   1      40.275  27.338  27.650  1.00  0.00     0.029 A 
ATOM     55  C   UNL A   1      41.419  26.974  28.461  1.00  0.00     0.049 A 
ATOM     56  H   UNL A   1      42.241  28.078  30.047  1.00  0.00     0.167 HD
ATOM     57  C   UNL A   1      43.016  29.459  34.066  1.00  0.00     0.034 A 
ATOM     58  C   UNL A   1      42.221  25.892  28.356  1.00  0.00     0.034 A 
ATOM     59  C   UNL A   1      44.052  30.047  33.252  1.00  0.00     0.049 A 
ATOM     60  C   UNL A   1      43.468  26.205  29.082  1.00  0.00     0.074 A 
ATOM     61  C   UNL A   1      44.381  31.308  32.807  1.00  0.00     0.029 A 
ATOM     62  N   UNL A   1      44.765  29.163  32.482  1.00  0.00    -0.354 N 
ATOM     63  N   UNL A   1      44.300  27.141  28.719  1.00  0.00    -0.248 NA
ATOM     64  C   UNL A   1      43.642  25.701  30.434  1.00  0.00     0.031 C 
ATOM     65  C   UNL A   1      44.977  31.110  31.525  1.00  0.00     0.029 A 
ATOM     66  C   UNL A   1      45.013  29.737  31.268  1.00  0.00     0.049 A 
ATOM     67  H   UNL A   1      45.051  28.263  32.758  1.00  0.00     0.167 HD
ATOM     68  C   UNL A   1      44.779  27.654  29.915  1.00  0.00     0.074 A 
ATOM     69  C   UNL A   1      44.484  26.624  30.906  1.00  0.00     0.031 C 
ATOM     70  C   UNL A   1      45.088  28.979  30.035  1.00  0.00     0.034 A 
BRANCH  57  71
ATOM     71  C   UNL A   1      43.376  28.392  35.095  1.00  0.00     0.023 A 
ATOM     72  C   UNL A   1      44.123  28.821  36.222  1.00  0.00     0.012 A 
ATOM     73  C   UNL A   1      43.315  26.997  34.878  1.00  0.00     0.148 A 
ATOM     74  C   UNL A   1      44.849  27.927  37.019  1.00  0.00     0.002 A 
ATOM     75  C   UNL A   1      43.980  26.105  35.716  1.00  0.00     0.091 A 
ATOM     76  F   UNL A   1      42.722  26.507  33.788  1.00  0.00    -0.205 F 
ATOM     77  C   UNL A   1      44.781  26.566  36.763  1.00  0.00     0.022 A 
BRANCH  75  78
ATOM     78  S   UNL A   1      43.886  24.329  35.455  1.00  0.00     0.127 S 
ATOM     79  O   UNL A   1      44.491  23.825  36.684  1.00  0.00    -0.237 OA
ATOM     80  O   UNL A   1      42.443  24.116  35.341  1.00  0.00    -0.237 OA
ATOM     81  O   UNL A   1      44.621  24.083  34.221  1.00  0.00    -0.744 OA
ENDBRANCH  75  78
ENDBRANCH  57  71
BRANCH  58  82
ATOM     82  C   UNL A   1      41.917  24.541  27.838  1.00  0.00     0.023 A 
ATOM     83  C   UNL A   1      40.594  24.062  27.881  1.00  0.00     0.012 A 
ATOM     84  C   UNL A   1      42.863  23.831  27.063  1.00  0.00     0.148 A 
ATOM     85  C   UNL A   1      40.214  22.936  27.143  1.00  0.00     0.002 A 
ATOM     86  C   UNL A   1      42.481  22.709  26.334  1.00  0.00     0.091 A 
ATOM     87  F   UNL A   1      44.113  24.309  26.973  1.00  0.00    -0.205 F 
ATOM     88  C   UNL A   1      41.152  22.266  26.362  1.00  0.00     0.022 A 
BRANCH  86  89
ATOM     89  S   UNL A   1      43.630  21.798  25.291  1.00  0.00     0.127 S 
ATOM     90  O   UNL A   1      43.631  22.601  24.067  1.00  0.00    -0.237 OA
ATOM     91  O   UNL A   1      44.867  21.868  26.065  1.00  0.00    -0.237 OA
ATOM     92  O   UNL A   1      43.059  20.467  25.131  1.00  0.00    -0.744 OA
ENDBRANCH  86  89
ENDBRANCH  58  82
BRANCH  70  93
ATOM     93  C   UNL A   1      45.252  29.785  28.772  1.00  0.00     0.023 A 
ATOM     94  C   UNL A   1      44.150  30.232  28.014  1.00  0.00     0.012 A 
ATOM     95  C   UNL A   1      46.538  30.245  28.438  1.00  0.00     0.148 A 
ATOM     96  C   UNL A   1      44.329  31.102  26.935  1.00  0.00     0.002 A 
ATOM     97  C   UNL A   1      46.707  31.146  27.394  1.00  0.00     0.091 A 
ATOM     98  F   UNL A   1      47.574  29.815  29.175  1.00  0.00    -0.205 F 
ATOM     99  C   UNL A   1      45.606  31.570  26.633  1.00  0.00     0.022 A 
BRANCH  97 100
ATOM    100  S   UNL A   1      48.302  31.887  27.041  1.00  0.00     0.127 S 
ATOM    101  O   UNL A   1      47.946  32.943  26.095  1.00  0.00    -0.237 OA
ATOM    102  O   UNL A   1      48.727  32.363  28.358  1.00  0.00    -0.237 OA
ATOM    103  O   UNL A   1      49.132  30.816  26.501  1.00  0.00    -0.744 OA
ENDBRANCH  97 100
ENDBRANCH  70  93
ENDBRANCH  44  45
ENDBRANCH  36  39
ENDBRANCH  34  35
ENDBRANCH  33  34
ENDBRANCH   1  33
TORSDOF 18
ENDMDL
MODEL 3
REMARK VINA RESULT:     -12.3      1.721      2.404
REMARK SMILES Cc1cnn(C2(C(=O)NCCCCCCNC(=O)c3ccc(-c4c5nc(c(-c6cccc(S(=O)(=O)[O-])c6F)c6ccc([nH]6)c(-c6cccc(S(=O)(=O)[O-])c6F)c6nc(c(-c7cccc(S(=O)(=O)[O-])c7F)c7ccc4[nH]7)C=C6)C=C5)cc3)CCN(C(=O)c3cc4ccccc4[nH]3)CC2)c1
REMARK SMILES IDX 13 1 12 2 11 3 10 4 9 5 7 6 8 7 6 9 82 10 97 11 83 12 96 13
REMARK SMILES IDX 84 14 85 15 86 16 5 17 1 18 2 19 3 20 98 21 4 22 87 23 88 24
REMARK SMILES IDX 95 25 89 26 94 27 90 29 93 30 91 31 92 32 14 33 15 34 16 35
REMARK SMILES IDX 17 36 18 38 19 39 20 40 81 41 21 42 80 43 22 44 23 45 24 46
REMARK SMILES IDX 74 47 25 48 79 49 73 50 75 51 26 52 78 53 72 54 71 55 27 57
REMARK SMILES IDX 59 58 39 59 58 60 40 61 43 62 57 63 76 64 41 65 42 66 56 68
REMARK SMILES IDX 77 69 44 70 28 71 29 72 37 73 30 74 32 75 38 76 31 77 33 78
REMARK SMILES IDX 34 79 35 80 36 81 60 82 61 83 69 84 62 85 64 86 70 87 63 88
REMARK SMILES IDX 65 89 66 90 67 91 68 92 45 93 46 94 54 95 47 96 49 97 55 98
REMARK SMILES IDX 48 99 50 100 51 101 52 102 53 103
REMARK H PARENT 9 8 95 28 16 37 75 56 43 67
REMARK Flexibility Score: inf
ROOT
ATOM      1  C   UNL A   1      40.829  20.564  27.042  1.00  0.00     0.002 C 
ENDROOT
BRANCH   1   2
ATOM      2  C   UNL A   1      40.055  21.706  26.370  1.00  0.00     0.002 C 
BRANCH   2   3
ATOM      3  C   UNL A   1      38.707  21.333  25.740  1.00  0.00     0.021 C 
BRANCH   3   4
ATOM      4  C   UNL A   1      37.697  22.478  25.663  1.00  0.00     0.116 C 
BRANCH   4   5
ATOM      5  N   UNL A   1      37.362  22.805  24.284  1.00  0.00    -0.354 N 
ATOM      6  C   UNL A   1      36.171  22.925  23.608  1.00  0.00     0.248 C 
ATOM      7  O   UNL A   1      36.326  23.155  22.406  1.00  0.00    -0.272 OA
ATOM      8  H   UNL A   1      38.150  22.977  23.721  1.00  0.00     0.163 HD
BRANCH   6   9
ATOM      9  C   UNL A   1      34.790  22.811  24.347  1.00  0.00     0.144 C 
ATOM     10  C   UNL A   1      34.996  23.347  25.793  1.00  0.00     0.062 C 
ATOM     11  C   UNL A   1      33.769  23.595  23.480  1.00  0.00     0.062 C 
ATOM     12  C   UNL A   1      33.811  24.087  26.407  1.00  0.00     0.123 C 
ATOM     13  C   UNL A   1      32.586  24.153  24.254  1.00  0.00     0.123 C 
ATOM     14  N   UNL A   1      33.037  24.858  25.442  1.00  0.00    -0.337 N 
ATOM     15  C   UNL A   1      32.795  26.208  25.691  1.00  0.00     0.270 C 
ATOM     16  O   UNL A   1      33.536  26.871  26.418  1.00  0.00    -0.267 OA
BRANCH   9  17
ATOM     17  N   UNL A   1      34.263  21.408  24.442  1.00  0.00    -0.257 N 
ATOM     18  C   UNL A   1      32.056  18.600  23.608  1.00  0.00     0.048 C 
ATOM     19  C   UNL A   1      33.075  19.562  24.075  1.00  0.00    -0.013 A 
ATOM     20  C   UNL A   1      34.175  19.337  24.920  1.00  0.00     0.138 A 
ATOM     21  C   UNL A   1      33.164  20.902  23.780  1.00  0.00     0.113 A 
ATOM     22  N   UNL A   1      34.936  20.419  25.065  1.00  0.00    -0.180 NA
ENDBRANCH   9  17
BRANCH  15  23
ATOM     23  C   UNL A   1      31.687  26.832  25.006  1.00  0.00     0.105 A 
ATOM     24  C   UNL A   1      30.353  26.473  24.902  1.00  0.00     0.042 A 
ATOM     25  N   UNL A   1      31.816  28.041  24.363  1.00  0.00    -0.351 N 
ATOM     26  C   UNL A   1      29.712  27.396  24.033  1.00  0.00     0.000 A 
ATOM     27  C   UNL A   1      30.666  28.345  23.672  1.00  0.00     0.046 A 
ATOM     28  H   UNL A   1      32.618  28.608  24.392  1.00  0.00     0.167 HD
ATOM     29  C   UNL A   1      28.408  27.511  23.513  1.00  0.00     0.010 A 
ATOM     30  C   UNL A   1      30.394  29.394  22.787  1.00  0.00     0.026 A 
ATOM     31  C   UNL A   1      28.119  28.554  22.625  1.00  0.00     0.001 A 
ATOM     32  C   UNL A   1      29.100  29.473  22.262  1.00  0.00     0.002 A 
ENDBRANCH  15  23
ENDBRANCH   6   9
ENDBRANCH   4   5
ENDBRANCH   3   4
ENDBRANCH   2   3
ENDBRANCH   1   2
BRANCH   1  33
ATOM     33  C   UNL A   1      41.362  19.459  26.122  1.00  0.00     0.021 C 
BRANCH  33  34
ATOM     34  C   UNL A   1      42.746  18.944  26.491  1.00  0.00     0.116 C 
BRANCH  34  35
ATOM     35  N   UNL A   1      43.651  18.901  25.344  1.00  0.00    -0.352 N 
ATOM     36  C   UNL A   1      44.161  19.961  24.613  1.00  0.00     0.251 C 
ATOM     37  H   UNL A   1      43.935  18.004  25.053  1.00  0.00     0.163 HD
ATOM     38  O   UNL A   1      44.609  19.796  23.496  1.00  0.00    -0.269 OA
BRANCH  36  39
ATOM     39  C   UNL A   1      44.136  21.304  25.226  1.00  0.00     0.039 A 
ATOM     40  C   UNL A   1      43.284  22.301  24.745  1.00  0.00     0.014 A 
ATOM     41  C   UNL A   1      44.946  21.529  26.334  1.00  0.00     0.014 A 
ATOM     42  C   UNL A   1      43.189  23.502  25.445  1.00  0.00     0.010 A 
ATOM     43  C   UNL A   1      44.737  22.645  27.103  1.00  0.00     0.010 A 
ATOM     44  C   UNL A   1      43.904  23.663  26.640  1.00  0.00    -0.014 A 
BRANCH  44  45
ATOM     45  C   UNL A   1      43.710  24.847  27.478  1.00  0.00     0.031 A 
ATOM     46  C   UNL A   1      42.336  25.429  27.467  1.00  0.00     0.074 A 
ATOM     47  C   UNL A   1      44.623  25.231  28.399  1.00  0.00     0.049 A 
ATOM     48  N   UNL A   1      41.974  26.614  27.092  1.00  0.00    -0.248 NA
ATOM     49  C   UNL A   1      41.211  24.549  27.815  1.00  0.00     0.031 C 
ATOM     50  C   UNL A   1      45.878  24.549  28.749  1.00  0.00     0.029 A 
ATOM     51  N   UNL A   1      44.537  26.205  29.346  1.00  0.00    -0.354 N 
ATOM     52  C   UNL A   1      40.610  26.702  27.385  1.00  0.00     0.074 A 
ATOM     53  C   UNL A   1      40.167  25.358  27.628  1.00  0.00     0.031 C 
ATOM     54  C   UNL A   1      46.264  24.929  29.983  1.00  0.00     0.029 A 
ATOM     55  C   UNL A   1      45.412  26.018  30.413  1.00  0.00     0.049 A 
ATOM     56  H   UNL A   1      43.916  26.967  29.284  1.00  0.00     0.167 HD
ATOM     57  C   UNL A   1      40.021  27.900  27.667  1.00  0.00     0.034 A 
ATOM     58  C   UNL A   1      45.414  26.682  31.590  1.00  0.00     0.034 A 
ATOM     59  C   UNL A   1      40.870  29.001  27.282  1.00  0.00     0.049 A 
ATOM     60  C   UNL A   1      44.703  27.956  31.370  1.00  0.00     0.074 A 
ATOM     61  C   UNL A   1      41.418  29.484  26.114  1.00  0.00     0.029 A 
ATOM     62  N   UNL A   1      41.553  29.602  28.310  1.00  0.00    -0.354 N 
ATOM     63  N   UNL A   1      45.134  28.898  30.577  1.00  0.00    -0.248 NA
ATOM     64  C   UNL A   1      43.310  28.065  31.773  1.00  0.00     0.031 C 
ATOM     65  C   UNL A   1      42.671  30.052  26.494  1.00  0.00     0.029 A 
ATOM     66  C   UNL A   1      42.808  29.920  27.877  1.00  0.00     0.049 A 
ATOM     67  H   UNL A   1      41.197  29.774  29.211  1.00  0.00     0.167 HD
ATOM     68  C   UNL A   1      43.981  29.434  30.026  1.00  0.00     0.074 A 
ATOM     69  C   UNL A   1      42.909  29.013  30.922  1.00  0.00     0.031 C 
ATOM     70  C   UNL A   1      43.972  29.904  28.743  1.00  0.00     0.034 A 
BRANCH  57  71
ATOM     71  C   UNL A   1      38.900  28.125  28.676  1.00  0.00     0.023 A 
ATOM     72  C   UNL A   1      37.759  28.830  28.215  1.00  0.00     0.012 A 
ATOM     73  C   UNL A   1      39.025  27.983  30.077  1.00  0.00     0.148 A 
ATOM     74  C   UNL A   1      36.859  29.445  29.092  1.00  0.00     0.002 A 
ATOM     75  C   UNL A   1      38.086  28.535  30.945  1.00  0.00     0.091 A 
ATOM     76  F   UNL A   1      40.115  27.425  30.606  1.00  0.00    -0.205 F 
ATOM     77  C   UNL A   1      37.024  29.300  30.461  1.00  0.00     0.022 A 
BRANCH  75  78
ATOM     78  S   UNL A   1      38.231  28.337  32.727  1.00  0.00     0.127 S 
ATOM     79  O   UNL A   1      38.305  26.884  32.850  1.00  0.00    -0.237 OA
ATOM     80  O   UNL A   1      39.478  29.048  33.009  1.00  0.00    -0.237 OA
ATOM     81  O   UNL A   1      37.044  28.976  33.281  1.00  0.00    -0.744 OA
ENDBRANCH  75  78
ENDBRANCH  57  71
BRANCH  58  82
ATOM     82  C   UNL A   1      45.818  26.214  32.934  1.00  0.00     0.023 A 
ATOM     83  C   UNL A   1      46.596  27.052  33.755  1.00  0.00     0.012 A 
ATOM     84  C   UNL A   1      45.225  25.069  33.511  1.00  0.00     0.148 A 
ATOM     85  C   UNL A   1      46.744  26.781  35.120  1.00  0.00     0.002 A 
ATOM     86  C   UNL A   1      45.379  24.801  34.869  1.00  0.00     0.091 A 
ATOM     87  F   UNL A   1      44.440  24.294  32.749  1.00  0.00    -0.205 F 
ATOM     88  C   UNL A   1      46.129  25.665  35.679  1.00  0.00     0.022 A 
BRANCH  86  89
ATOM     89  S   UNL A   1      44.604  23.388  35.668  1.00  0.00     0.127 S 
ATOM     90  O   UNL A   1      45.092  23.510  37.042  1.00  0.00    -0.237 OA
ATOM     91  O   UNL A   1      43.184  23.682  35.498  1.00  0.00    -0.237 OA
ATOM     92  O   UNL A   1      45.094  22.209  34.964  1.00  0.00    -0.744 OA
ENDBRANCH  86  89
ENDBRANCH  58  82
BRANCH  70  93
ATOM     93  C   UNL A   1      45.297  30.167  28.076  1.00  0.00     0.023 A 
ATOM     94  C   UNL A   1      46.077  31.305  28.369  1.00  0.00     0.012 A 
ATOM     95  C   UNL A   1      45.846  29.159  27.264  1.00  0.00     0.148 A 
ATOM     96  C   UNL A   1      47.365  31.445  27.848  1.00  0.00     0.002 A 
ATOM     97  C   UNL A   1      47.145  29.279  26.786  1.00  0.00     0.091 A 
ATOM     98  F   UNL A   1      45.093  28.080  27.001  1.00  0.00    -0.205 F 
ATOM     99  C   UNL A   1      47.905  30.425  27.068  1.00  0.00     0.022 A 
BRANCH  97 100
ATOM    100  S   UNL A   1      47.943  27.946  25.889  1.00  0.00     0.127 S 
ATOM    101  O   UNL A   1      47.842  26.837  26.836  1.00  0.00    -0.237 OA
ATOM    102  O   UNL A   1      47.097  27.815  24.702  1.00  0.00    -0.237 OA
ATOM    103  O   UNL A   1      49.297  28.407  25.605  1.00  0.00    -0.744 OA
ENDBRANCH  97 100
ENDBRANCH  70  93
ENDBRANCH  44  45
ENDBRANCH  36  39
ENDBRANCH  34  35
ENDBRANCH  33  34
ENDBRANCH   1  33
TORSDOF 18
ENDMDL
