MODEL 1
REMARK VINA RESULT:     -11.2      0.000      0.000
REMARK SMILES C[C@@H]1CCC[C@@H](N(C)C(=O)N2CCC(CC(=O)NCCCCCCNC(=O)c3ccc(-c4c5nc(c(-c6cccc(S(=O)(=O)[O-])c6F)c6ccc([nH]6)c(-c6cccc(S(=O)(=O)[O-])c6F)c6nc(c(-c7cccc(S(=O)(=O)[O-])c7F)c7ccc4[nH]7)C=C6)C=C5)cc3)CC2)C1
REMARK SMILES IDX 21 1 20 2 19 3 18 4 16 5 17 6 15 8 14 9 9 10 10 11 11 12
REMARK SMILES IDX 12 13 92 14 13 15 91 16 7 17 8 18 6 19 1 20 2 21 3 22 93 23
REMARK SMILES IDX 4 24 5 25 22 26 23 27 24 28 25 29 26 30 27 32 28 33 29 34
REMARK SMILES IDX 90 35 30 36 89 37 31 38 32 39 33 40 83 41 34 42 88 43 82 44
REMARK SMILES IDX 84 45 35 46 87 47 81 48 80 49 36 51 68 52 48 53 67 54 49 55
REMARK SMILES IDX 52 56 66 57 85 58 50 59 51 60 65 62 86 63 53 64 37 65 38 66
REMARK SMILES IDX 46 67 39 68 41 69 47 70 40 71 42 72 43 73 44 74 45 75 69 76
REMARK SMILES IDX 70 77 78 78 71 79 73 80 79 81 72 82 74 83 75 84 76 85 77 86
REMARK SMILES IDX 54 87 55 88 63 89 56 90 58 91 64 92 57 93 59 94 60 95 61 96
REMARK SMILES IDX 62 97
REMARK H PARENT 18 7 25 31 84 50 52 61
REMARK Flexibility Score: inf
ROOT
ATOM      1  C   UNL A   1      31.465  29.838  25.600  1.00  0.00     0.002 C 
ENDROOT
BRANCH   1   2
ATOM      2  C   UNL A   1      31.695  29.521  24.125  1.00  0.00     0.021 C 
BRANCH   2   3
ATOM      3  C   UNL A   1      31.792  28.026  23.792  1.00  0.00     0.116 C 
BRANCH   3   4
ATOM      4  N   UNL A   1      30.465  27.442  23.672  1.00  0.00    -0.356 N 
ATOM      5  C   UNL A   1      29.878  26.422  24.362  1.00  0.00     0.220 C 
ATOM      6  O   UNL A   1      28.774  26.026  23.981  1.00  0.00    -0.275 OA
ATOM      7  H   UNL A   1      29.897  27.849  22.979  1.00  0.00     0.163 HD
BRANCH   5   8
ATOM      8  C   UNL A   1      30.549  25.798  25.578  1.00  0.00     0.103 C 
BRANCH   8   9
ATOM      9  C   UNL A   1      30.745  24.271  25.488  1.00  0.00     0.002 C 
ATOM     10  C   UNL A   1      33.793  21.950  24.353  1.00  0.00     0.319 C 
ATOM     11  O   UNL A   1      34.224  22.769  23.548  1.00  0.00    -0.248 OA
ATOM     12  N   UNL A   1      32.493  22.032  24.826  1.00  0.00    -0.325 N 
ATOM     13  C   UNL A   1      31.439  22.384  23.908  1.00  0.00     0.121 C 
ATOM     14  C   UNL A   1      32.235  22.327  26.227  1.00  0.00     0.121 C 
ATOM     15  C   UNL A   1      31.050  23.840  24.051  1.00  0.00     0.026 C 
ATOM     16  C   UNL A   1      31.882  23.808  26.423  1.00  0.00     0.026 C 
BRANCH  10  17
ATOM     17  N   UNL A   1      34.519  20.869  24.837  1.00  0.00    -0.325 N 
ATOM     18  C   UNL A   1      35.750  21.048  25.594  1.00  0.00     0.149 C 
BRANCH  17  19
ATOM     19  C   UNL A   1      34.039  19.486  24.690  1.00  0.00     0.086 C 
ATOM     20  C   UNL A   1      34.062  16.932  22.812  1.00  0.00     0.008 C 
ATOM     21  C   UNL A   1      34.571  17.032  24.254  1.00  0.00    -0.012 C 
ATOM     22  C   UNL A   1      33.482  16.649  25.271  1.00  0.00     0.003 C 
ATOM     23  C   UNL A   1      35.146  18.427  24.561  1.00  0.00     0.028 C 
ATOM     24  C   UNL A   1      32.423  17.733  25.480  1.00  0.00     0.002 C 
ATOM     25  C   UNL A   1      33.044  19.094  25.786  1.00  0.00     0.025 C 
ENDBRANCH  17  19
ENDBRANCH  10  17
ENDBRANCH   8   9
ENDBRANCH   5   8
ENDBRANCH   3   4
ENDBRANCH   2   3
ENDBRANCH   1   2
BRANCH   1  26
ATOM     26  C   UNL A   1      31.933  28.754  26.570  1.00  0.00     0.002 C 
BRANCH  26  27
ATOM     27  C   UNL A   1      33.081  29.156  27.499  1.00  0.00     0.021 C 
BRANCH  27  28
ATOM     28  C   UNL A   1      33.997  30.252  26.959  1.00  0.00     0.116 C 
BRANCH  28  29
ATOM     29  N   UNL A   1      33.893  31.478  27.738  1.00  0.00    -0.352 N 
ATOM     30  C   UNL A   1      34.655  31.900  28.800  1.00  0.00     0.251 C 
ATOM     31  H   UNL A   1      33.174  32.092  27.465  1.00  0.00     0.163 HD
ATOM     32  O   UNL A   1      34.284  32.842  29.491  1.00  0.00    -0.269 OA
BRANCH  30  33
ATOM     33  C   UNL A   1      35.923  31.205  29.107  1.00  0.00     0.039 A 
ATOM     34  C   UNL A   1      37.113  31.677  28.547  1.00  0.00     0.014 A 
ATOM     35  C   UNL A   1      35.931  30.088  29.945  1.00  0.00     0.014 A 
ATOM     36  C   UNL A   1      38.322  31.060  28.878  1.00  0.00     0.010 A 
ATOM     37  C   UNL A   1      37.140  29.522  30.331  1.00  0.00     0.010 A 
ATOM     38  C   UNL A   1      38.348  29.997  29.797  1.00  0.00    -0.014 A 
BRANCH  38  39
ATOM     39  C   UNL A   1      39.627  29.374  30.224  1.00  0.00     0.031 A 
ATOM     40  C   UNL A   1      40.426  29.982  31.344  1.00  0.00     0.074 A 
ATOM     41  C   UNL A   1      40.115  28.321  29.540  1.00  0.00     0.049 A 
ATOM     42  N   UNL A   1      41.598  29.631  31.807  1.00  0.00    -0.248 NA
ATOM     43  C   UNL A   1      39.845  31.157  32.017  1.00  0.00     0.031 C 
ATOM     44  C   UNL A   1      39.469  27.689  28.386  1.00  0.00     0.029 A 
ATOM     45  N   UNL A   1      41.283  27.616  29.692  1.00  0.00    -0.354 N 
ATOM     46  C   UNL A   1      41.911  30.559  32.792  1.00  0.00     0.074 A 
ATOM     47  C   UNL A   1      40.822  31.508  32.841  1.00  0.00     0.031 C 
ATOM     48  C   UNL A   1      40.248  26.692  27.936  1.00  0.00     0.029 A 
ATOM     49  C   UNL A   1      41.462  26.634  28.744  1.00  0.00     0.049 A 
ATOM     50  H   UNL A   1      41.930  27.794  30.412  1.00  0.00     0.167 HD
ATOM     51  C   UNL A   1      42.997  30.603  33.602  1.00  0.00     0.034 A 
ATOM     52  C   UNL A   1      42.494  25.792  28.540  1.00  0.00     0.034 A 
ATOM     53  C   UNL A   1      44.059  29.636  33.574  1.00  0.00     0.049 A 
ATOM     54  C   UNL A   1      43.674  25.842  29.474  1.00  0.00     0.074 A 
ATOM     55  C   UNL A   1      45.157  29.539  34.411  1.00  0.00     0.029 A 
ATOM     56  N   UNL A   1      44.165  28.602  32.655  1.00  0.00    -0.354 N 
ATOM     57  N   UNL A   1      43.878  26.629  30.503  1.00  0.00    -0.248 NA
ATOM     58  C   UNL A   1      44.748  24.867  29.242  1.00  0.00     0.031 C 
ATOM     59  C   UNL A   1      45.943  28.466  33.979  1.00  0.00     0.029 A 
ATOM     60  C   UNL A   1      45.315  27.870  32.896  1.00  0.00     0.049 A 
ATOM     61  H   UNL A   1      43.517  28.416  31.938  1.00  0.00     0.167 HD
ATOM     62  C   UNL A   1      45.082  26.218  31.064  1.00  0.00     0.074 A 
ATOM     63  C   UNL A   1      45.552  25.102  30.270  1.00  0.00     0.031 C 
ATOM     64  C   UNL A   1      45.744  26.727  32.133  1.00  0.00     0.034 A 
BRANCH  51  65
ATOM     65  C   UNL A   1      43.068  31.711  34.622  1.00  0.00     0.023 A 
ATOM     66  C   UNL A   1      43.747  32.907  34.306  1.00  0.00     0.012 A 
ATOM     67  C   UNL A   1      42.414  31.596  35.864  1.00  0.00     0.148 A 
ATOM     68  C   UNL A   1      43.805  33.955  35.223  1.00  0.00     0.002 A 
ATOM     69  C   UNL A   1      42.436  32.664  36.754  1.00  0.00     0.091 A 
ATOM     70  F   UNL A   1      41.790  30.447  36.155  1.00  0.00    -0.205 F 
ATOM     71  C   UNL A   1      43.143  33.837  36.441  1.00  0.00     0.022 A 
BRANCH  69  72
ATOM     72  S   UNL A   1      41.547  32.646  38.314  1.00  0.00     0.127 S 
ATOM     73  O   UNL A   1      40.215  32.219  37.890  1.00  0.00    -0.237 OA
ATOM     74  O   UNL A   1      42.292  31.647  39.081  1.00  0.00    -0.237 OA
ATOM     75  O   UNL A   1      41.629  34.001  38.841  1.00  0.00    -0.744 OA
ENDBRANCH  69  72
ENDBRANCH  51  65
BRANCH  52  76
ATOM     76  C   UNL A   1      42.431  24.788  27.440  1.00  0.00     0.023 A 
ATOM     77  C   UNL A   1      43.190  24.995  26.272  1.00  0.00     0.012 A 
ATOM     78  C   UNL A   1      41.648  23.623  27.553  1.00  0.00     0.148 A 
ATOM     79  C   UNL A   1      43.143  24.079  25.221  1.00  0.00     0.002 A 
ATOM     80  C   UNL A   1      41.649  22.687  26.525  1.00  0.00     0.091 A 
ATOM     81  F   UNL A   1      40.926  23.448  28.668  1.00  0.00    -0.205 F 
ATOM     82  C   UNL A   1      42.381  22.922  25.351  1.00  0.00     0.022 A 
BRANCH  80  83
ATOM     83  S   UNL A   1      40.801  21.109  26.655  1.00  0.00     0.127 S 
ATOM     84  O   UNL A   1      39.466  21.446  26.171  1.00  0.00    -0.237 OA
ATOM     85  O   UNL A   1      41.589  20.268  25.753  1.00  0.00    -0.237 OA
ATOM     86  O   UNL A   1      40.889  20.730  28.058  1.00  0.00    -0.744 OA
ENDBRANCH  80  83
ENDBRANCH  52  76
BRANCH  64  87
ATOM     87  C   UNL A   1      47.027  26.057  32.548  1.00  0.00     0.023 A 
ATOM     88  C   UNL A   1      48.260  26.532  32.057  1.00  0.00     0.012 A 
ATOM     89  C   UNL A   1      47.014  25.013  33.493  1.00  0.00     0.148 A 
ATOM     90  C   UNL A   1      49.457  25.956  32.479  1.00  0.00     0.002 A 
ATOM     91  C   UNL A   1      48.213  24.479  33.948  1.00  0.00     0.091 A 
ATOM     92  F   UNL A   1      45.829  24.564  33.934  1.00  0.00    -0.205 F 
ATOM     93  C   UNL A   1      49.435  24.940  33.433  1.00  0.00     0.022 A 
BRANCH  91  94
ATOM     94  S   UNL A   1      48.287  23.241  35.247  1.00  0.00     0.127 S 
ATOM     95  O   UNL A   1      47.796  23.992  36.402  1.00  0.00    -0.237 OA
ATOM     96  O   UNL A   1      47.369  22.215  34.750  1.00  0.00    -0.237 OA
ATOM     97  O   UNL A   1      49.679  22.820  35.325  1.00  0.00    -0.744 OA
ENDBRANCH  91  94
ENDBRANCH  64  87
ENDBRANCH  38  39
ENDBRANCH  30  33
ENDBRANCH  28  29
ENDBRANCH  27  28
ENDBRANCH  26  27
ENDBRANCH   1  26
TORSDOF 19
ENDMDL
MODEL 2
REMARK VINA RESULT:     -11.0      5.001      9.039
REMARK SMILES C[C@@H]1CCC[C@@H](N(C)C(=O)N2CCC(CC(=O)NCCCCCCNC(=O)c3ccc(-c4c5nc(c(-c6cccc(S(=O)(=O)[O-])c6F)c6ccc([nH]6)c(-c6cccc(S(=O)(=O)[O-])c6F)c6nc(c(-c7cccc(S(=O)(=O)[O-])c7F)c7ccc4[nH]7)C=C6)C=C5)cc3)CC2)C1
REMARK SMILES IDX 21 1 20 2 19 3 18 4 16 5 17 6 15 8 14 9 9 10 10 11 11 12
REMARK SMILES IDX 12 13 92 14 13 15 91 16 7 17 8 18 6 19 1 20 2 21 3 22 93 23
REMARK SMILES IDX 4 24 5 25 22 26 23 27 24 28 25 29 26 30 27 32 28 33 29 34
REMARK SMILES IDX 90 35 30 36 89 37 31 38 32 39 33 40 83 41 34 42 88 43 82 44
REMARK SMILES IDX 84 45 35 46 87 47 81 48 80 49 36 51 68 52 48 53 67 54 49 55
REMARK SMILES IDX 52 56 66 57 85 58 50 59 51 60 65 62 86 63 53 64 37 65 38 66
REMARK SMILES IDX 46 67 39 68 41 69 47 70 40 71 42 72 43 73 44 74 45 75 69 76
REMARK SMILES IDX 70 77 78 78 71 79 73 80 79 81 72 82 74 83 75 84 76 85 77 86
REMARK SMILES IDX 54 87 55 88 63 89 56 90 58 91 64 92 57 93 59 94 60 95 61 96
REMARK SMILES IDX 62 97
REMARK H PARENT 18 7 25 31 84 50 52 61
REMARK Flexibility Score: inf
ROOT
ATOM      1  C   UNL A   1      35.203  20.925  24.544  1.00  0.00     0.002 C 
ENDROOT
BRANCH   1   2
ATOM      2  C   UNL A   1      34.278  19.749  24.850  1.00  0.00     0.021 C 
BRANCH   2   3
ATOM      3  C   UNL A   1      32.885  20.139  25.362  1.00  0.00     0.116 C 
BRANCH   3   4
ATOM      4  N   UNL A   1      32.983  20.825  26.641  1.00  0.00    -0.356 N 
ATOM      5  C   UNL A   1      32.715  22.119  26.978  1.00  0.00     0.220 C 
ATOM      6  O   UNL A   1      33.003  22.492  28.117  1.00  0.00    -0.275 OA
ATOM      7  H   UNL A   1      33.296  20.264  27.386  1.00  0.00     0.163 HD
BRANCH   5   8
ATOM      8  C   UNL A   1      32.060  23.076  25.990  1.00  0.00     0.103 C 
BRANCH   8   9
ATOM      9  C   UNL A   1      32.501  24.547  26.136  1.00  0.00     0.002 C 
ATOM     10  C   UNL A   1      31.605  27.898  24.153  1.00  0.00     0.319 C 
ATOM     11  O   UNL A   1      31.418  27.315  23.089  1.00  0.00    -0.248 OA
ATOM     12  N   UNL A   1      32.316  27.296  25.179  1.00  0.00    -0.325 N 
ATOM     13  C   UNL A   1      33.491  26.527  24.855  1.00  0.00     0.121 C 
ATOM     14  C   UNL A   1      31.654  26.944  26.426  1.00  0.00     0.121 C 
ATOM     15  C   UNL A   1      33.194  25.042  24.864  1.00  0.00     0.026 C 
ATOM     16  C   UNL A   1      31.293  25.452  26.457  1.00  0.00     0.026 C 
BRANCH  10  17
ATOM     17  N   UNL A   1      31.174  29.190  24.427  1.00  0.00    -0.325 N 
ATOM     18  C   UNL A   1      31.824  30.019  25.431  1.00  0.00     0.149 C 
BRANCH  17  19
ATOM     19  C   UNL A   1      30.093  29.824  23.657  1.00  0.00     0.086 C 
ATOM     20  C   UNL A   1      27.168  31.033  23.826  1.00  0.00     0.008 C 
ATOM     21  C   UNL A   1      28.449  31.753  23.394  1.00  0.00    -0.012 C 
ATOM     22  C   UNL A   1      28.657  31.682  21.872  1.00  0.00     0.003 C 
ATOM     23  C   UNL A   1      29.683  31.222  24.146  1.00  0.00     0.028 C 
ATOM     24  C   UNL A   1      29.155  30.322  21.379  1.00  0.00     0.002 C 
ATOM     25  C   UNL A   1      30.383  29.844  22.153  1.00  0.00     0.025 C 
ENDBRANCH  17  19
ENDBRANCH  10  17
ENDBRANCH   8   9
ENDBRANCH   5   8
ENDBRANCH   3   4
ENDBRANCH   2   3
ENDBRANCH   1   2
BRANCH   1  26
ATOM     26  C   UNL A   1      36.405  21.057  25.477  1.00  0.00     0.002 C 
BRANCH  26  27
ATOM     27  C   UNL A   1      37.687  20.368  24.999  1.00  0.00     0.021 C 
BRANCH  27  28
ATOM     28  C   UNL A   1      38.957  20.779  25.741  1.00  0.00     0.116 C 
BRANCH  28  29
ATOM     29  N   UNL A   1      39.879  19.662  25.899  1.00  0.00    -0.352 N 
ATOM     30  C   UNL A   1      41.241  19.678  26.068  1.00  0.00     0.251 C 
ATOM     31  H   UNL A   1      39.466  18.769  25.881  1.00  0.00     0.163 HD
ATOM     32  O   UNL A   1      41.891  18.646  25.945  1.00  0.00    -0.269 OA
BRANCH  30  33
ATOM     33  C   UNL A   1      41.919  20.950  26.394  1.00  0.00     0.039 A 
ATOM     34  C   UNL A   1      42.183  21.865  25.371  1.00  0.00     0.014 A 
ATOM     35  C   UNL A   1      42.294  21.234  27.710  1.00  0.00     0.014 A 
ATOM     36  C   UNL A   1      42.771  23.093  25.681  1.00  0.00     0.010 A 
ATOM     37  C   UNL A   1      42.812  22.484  28.026  1.00  0.00     0.010 A 
ATOM     38  C   UNL A   1      43.062  23.425  27.015  1.00  0.00    -0.014 A 
BRANCH  38  39
ATOM     39  C   UNL A   1      43.618  24.754  27.379  1.00  0.00     0.031 A 
ATOM     40  C   UNL A   1      42.708  25.837  27.891  1.00  0.00     0.074 A 
ATOM     41  C   UNL A   1      44.921  25.013  27.157  1.00  0.00     0.049 A 
ATOM     42  N   UNL A   1      42.990  27.080  28.187  1.00  0.00    -0.248 NA
ATOM     43  C   UNL A   1      41.288  25.488  28.070  1.00  0.00     0.031 C 
ATOM     44  C   UNL A   1      45.887  24.068  26.592  1.00  0.00     0.029 A 
ATOM     45  N   UNL A   1      45.651  26.160  27.347  1.00  0.00    -0.354 N 
ATOM     46  C   UNL A   1      41.784  27.668  28.546  1.00  0.00     0.074 A 
ATOM     47  C   UNL A   1      40.761  26.657  28.403  1.00  0.00     0.031 C 
ATOM     48  C   UNL A   1      47.081  24.672  26.482  1.00  0.00     0.029 A 
ATOM     49  C   UNL A   1      46.960  26.054  26.933  1.00  0.00     0.049 A 
ATOM     50  H   UNL A   1      45.276  26.979  27.742  1.00  0.00     0.167 HD
ATOM     51  C   UNL A   1      41.553  28.930  28.982  1.00  0.00     0.034 A 
ATOM     52  C   UNL A   1      47.947  26.972  26.908  1.00  0.00     0.034 A 
ATOM     53  C   UNL A   1      42.580  29.920  29.158  1.00  0.00     0.049 A 
ATOM     54  C   UNL A   1      47.670  28.357  27.426  1.00  0.00     0.074 A 
ATOM     55  C   UNL A   1      42.463  31.197  29.679  1.00  0.00     0.029 A 
ATOM     56  N   UNL A   1      43.911  29.750  28.810  1.00  0.00    -0.354 N 
ATOM     57  N   UNL A   1      46.555  28.849  27.912  1.00  0.00    -0.248 NA
ATOM     58  C   UNL A   1      48.793  29.305  27.428  1.00  0.00     0.031 C 
ATOM     59  C   UNL A   1      43.719  31.810  29.616  1.00  0.00     0.029 A 
ATOM     60  C   UNL A   1      44.625  30.902  29.093  1.00  0.00     0.049 A 
ATOM     61  H   UNL A   1      44.293  28.930  28.421  1.00  0.00     0.167 HD
ATOM     62  C   UNL A   1      46.853  30.147  28.312  1.00  0.00     0.074 A 
ATOM     63  C   UNL A   1      48.257  30.359  28.028  1.00  0.00     0.031 C 
ATOM     64  C   UNL A   1      46.035  31.081  28.856  1.00  0.00     0.034 A 
BRANCH  51  65
ATOM     65  C   UNL A   1      40.137  29.300  29.344  1.00  0.00     0.023 A 
ATOM     66  C   UNL A   1      39.232  29.670  28.327  1.00  0.00     0.012 A 
ATOM     67  C   UNL A   1      39.685  29.222  30.676  1.00  0.00     0.148 A 
ATOM     68  C   UNL A   1      37.910  29.992  28.634  1.00  0.00     0.002 A 
ATOM     69  C   UNL A   1      38.353  29.498  30.967  1.00  0.00     0.091 A 
ATOM     70  F   UNL A   1      40.562  28.886  31.631  1.00  0.00    -0.205 F 
ATOM     71  C   UNL A   1      37.470  29.897  29.951  1.00  0.00     0.022 A 
BRANCH  69  72
ATOM     72  S   UNL A   1      37.666  29.326  32.617  1.00  0.00     0.127 S 
ATOM     73  O   UNL A   1      36.314  29.849  32.431  1.00  0.00    -0.237 OA
ATOM     74  O   UNL A   1      37.735  27.880  32.830  1.00  0.00    -0.237 OA
ATOM     75  O   UNL A   1      38.523  30.111  33.496  1.00  0.00    -0.744 OA
ENDBRANCH  69  72
ENDBRANCH  51  65
BRANCH  52  76
ATOM     76  C   UNL A   1      49.306  26.592  26.428  1.00  0.00     0.023 A 
ATOM     77  C   UNL A   1      50.087  25.707  27.196  1.00  0.00     0.012 A 
ATOM     78  C   UNL A   1      49.818  27.081  25.209  1.00  0.00     0.148 A 
ATOM     79  C   UNL A   1      51.368  25.342  26.777  1.00  0.00     0.002 A 
ATOM     80  C   UNL A   1      51.072  26.669  24.772  1.00  0.00     0.091 A 
ATOM     81  F   UNL A   1      49.063  27.929  24.498  1.00  0.00    -0.205 F 
ATOM     82  C   UNL A   1      51.855  25.814  25.563  1.00  0.00     0.022 A 
BRANCH  80  83
ATOM     83  S   UNL A   1      51.729  27.123  23.163  1.00  0.00     0.127 S 
ATOM     84  O   UNL A   1      52.956  26.333  23.109  1.00  0.00    -0.237 OA
ATOM     85  O   UNL A   1      50.666  26.672  22.265  1.00  0.00    -0.237 OA
ATOM     86  O   UNL A   1      51.908  28.567  23.203  1.00  0.00    -0.744 OA
ENDBRANCH  80  83
ENDBRANCH  52  76
BRANCH  64  87
ATOM     87  C   UNL A   1      46.637  32.410  29.230  1.00  0.00     0.023 A 
ATOM     88  C   UNL A   1      46.620  33.475  28.309  1.00  0.00     0.012 A 
ATOM     89  C   UNL A   1      47.142  32.625  30.527  1.00  0.00     0.148 A 
ATOM     90  C   UNL A   1      47.123  34.726  28.665  1.00  0.00     0.002 A 
ATOM     91  C   UNL A   1      47.594  33.887  30.891  1.00  0.00     0.091 A 
ATOM     92  F   UNL A   1      47.165  31.591  31.384  1.00  0.00    -0.205 F 
ATOM     93  C   UNL A   1      47.598  34.935  29.958  1.00  0.00     0.022 A 
BRANCH  91  94
ATOM     94  S   UNL A   1      48.128  34.276  32.562  1.00  0.00     0.127 S 
ATOM     95  O   UNL A   1      46.975  33.841  33.351  1.00  0.00    -0.237 OA
ATOM     96  O   UNL A   1      49.319  33.439  32.710  1.00  0.00    -0.237 OA
ATOM     97  O   UNL A   1      48.389  35.708  32.580  1.00  0.00    -0.744 OA
ENDBRANCH  91  94
ENDBRANCH  64  87
ENDBRANCH  38  39
ENDBRANCH  30  33
ENDBRANCH  28  29
ENDBRANCH  27  28
ENDBRANCH  26  27
ENDBRANCH   1  26
TORSDOF 19
ENDMDL
MODEL 3
REMARK VINA RESULT:     -11.0      1.611      1.959
REMARK SMILES C[C@@H]1CCC[C@@H](N(C)C(=O)N2CCC(CC(=O)NCCCCCCNC(=O)c3ccc(-c4c5nc(c(-c6cccc(S(=O)(=O)[O-])c6F)c6ccc([nH]6)c(-c6cccc(S(=O)(=O)[O-])c6F)c6nc(c(-c7cccc(S(=O)(=O)[O-])c7F)c7ccc4[nH]7)C=C6)C=C5)cc3)CC2)C1
REMARK SMILES IDX 21 1 20 2 19 3 18 4 16 5 17 6 15 8 14 9 9 10 10 11 11 12
REMARK SMILES IDX 12 13 92 14 13 15 91 16 7 17 8 18 6 19 1 20 2 21 3 22 93 23
REMARK SMILES IDX 4 24 5 25 22 26 23 27 24 28 25 29 26 30 27 32 28 33 29 34
REMARK SMILES IDX 90 35 30 36 89 37 31 38 32 39 33 40 83 41 34 42 88 43 82 44
REMARK SMILES IDX 84 45 35 46 87 47 81 48 80 49 36 51 68 52 48 53 67 54 49 55
REMARK SMILES IDX 52 56 66 57 85 58 50 59 51 60 65 62 86 63 53 64 37 65 38 66
REMARK SMILES IDX 46 67 39 68 41 69 47 70 40 71 42 72 43 73 44 74 45 75 69 76
REMARK SMILES IDX 70 77 78 78 71 79 73 80 79 81 72 82 74 83 75 84 76 85 77 86
REMARK SMILES IDX 54 87 55 88 63 89 56 90 58 91 64 92 57 93 59 94 60 95 61 96
REMARK SMILES IDX 62 97
REMARK H PARENT 18 7 25 31 84 50 52 61
REMARK Flexibility Score: inf
ROOT
ATOM      1  C   UNL A   1      31.641  29.291  25.718  1.00  0.00     0.002 C 
ENDROOT
BRANCH   1   2
ATOM      2  C   UNL A   1      31.637  29.341  24.192  1.00  0.00     0.021 C 
BRANCH   2   3
ATOM      3  C   UNL A   1      31.633  27.972  23.500  1.00  0.00     0.116 C 
BRANCH   3   4
ATOM      4  N   UNL A   1      30.287  27.423  23.460  1.00  0.00    -0.356 N 
ATOM      5  C   UNL A   1      29.704  26.443  24.208  1.00  0.00     0.220 C 
ATOM      6  O   UNL A   1      28.574  26.067  23.891  1.00  0.00    -0.275 OA
ATOM      7  H   UNL A   1      29.699  27.824  22.780  1.00  0.00     0.163 HD
BRANCH   5   8
ATOM      8  C   UNL A   1      30.413  25.839  25.413  1.00  0.00     0.103 C 
BRANCH   8   9
ATOM      9  C   UNL A   1      30.627  24.313  25.332  1.00  0.00     0.002 C 
ATOM     10  C   UNL A   1      33.748  22.020  24.349  1.00  0.00     0.319 C 
ATOM     11  O   UNL A   1      34.212  22.845  23.567  1.00  0.00    -0.248 OA
ATOM     12  N   UNL A   1      32.426  22.091  24.756  1.00  0.00    -0.325 N 
ATOM     13  C   UNL A   1      31.416  22.434  23.787  1.00  0.00     0.121 C 
ATOM     14  C   UNL A   1      32.096  22.382  26.143  1.00  0.00     0.121 C 
ATOM     15  C   UNL A   1      31.007  23.886  23.911  1.00  0.00     0.026 C 
ATOM     16  C   UNL A   1      31.720  23.859  26.323  1.00  0.00     0.026 C 
BRANCH  10  17
ATOM     17  N   UNL A   1      34.459  20.945  24.868  1.00  0.00    -0.325 N 
ATOM     18  C   UNL A   1      35.659  21.135  25.671  1.00  0.00     0.149 C 
BRANCH  17  19
ATOM     19  C   UNL A   1      33.990  19.560  24.711  1.00  0.00     0.086 C 
ATOM     20  C   UNL A   1      34.004  17.031  22.800  1.00  0.00     0.008 C 
ATOM     21  C   UNL A   1      34.538  17.117  24.233  1.00  0.00    -0.012 C 
ATOM     22  C   UNL A   1      33.471  16.710  25.264  1.00  0.00     0.003 C 
ATOM     23  C   UNL A   1      35.105  18.514  24.548  1.00  0.00     0.028 C 
ATOM     24  C   UNL A   1      32.406  17.780  25.506  1.00  0.00     0.002 C 
ATOM     25  C   UNL A   1      33.019  19.143  25.820  1.00  0.00     0.025 C 
ENDBRANCH  17  19
ENDBRANCH  10  17
ENDBRANCH   8   9
ENDBRANCH   5   8
ENDBRANCH   3   4
ENDBRANCH   2   3
ENDBRANCH   1   2
BRANCH   1  26
ATOM     26  C   UNL A   1      32.673  28.342  26.326  1.00  0.00     0.002 C 
BRANCH  26  27
ATOM     27  C   UNL A   1      33.627  28.973  27.344  1.00  0.00     0.021 C 
BRANCH  27  28
ATOM     28  C   UNL A   1      34.360  30.219  26.856  1.00  0.00     0.116 C 
BRANCH  28  29
ATOM     29  N   UNL A   1      34.164  31.351  27.752  1.00  0.00    -0.352 N 
ATOM     30  C   UNL A   1      34.836  31.672  28.905  1.00  0.00     0.251 C 
ATOM     31  H   UNL A   1      33.446  31.973  27.494  1.00  0.00     0.163 HD
ATOM     32  O   UNL A   1      34.389  32.524  29.664  1.00  0.00    -0.269 OA
BRANCH  30  33
ATOM     33  C   UNL A   1      36.101  30.979  29.227  1.00  0.00     0.039 A 
ATOM     34  C   UNL A   1      37.310  31.523  28.787  1.00  0.00     0.014 A 
ATOM     35  C   UNL A   1      36.088  29.790  29.961  1.00  0.00     0.014 A 
ATOM     36  C   UNL A   1      38.512  30.904  29.136  1.00  0.00     0.010 A 
ATOM     37  C   UNL A   1      37.287  29.216  30.369  1.00  0.00     0.010 A 
ATOM     38  C   UNL A   1      38.511  29.763  29.956  1.00  0.00    -0.014 A 
BRANCH  38  39
ATOM     39  C   UNL A   1      39.778  29.130  30.404  1.00  0.00     0.031 A 
ATOM     40  C   UNL A   1      40.494  29.652  31.621  1.00  0.00     0.074 A 
ATOM     41  C   UNL A   1      40.332  28.153  29.661  1.00  0.00     0.049 A 
ATOM     42  N   UNL A   1      41.644  29.285  32.122  1.00  0.00    -0.248 NA
ATOM     43  C   UNL A   1      39.843  30.749  32.358  1.00  0.00     0.031 C 
ATOM     44  C   UNL A   1      39.773  27.614  28.419  1.00  0.00     0.029 A 
ATOM     45  N   UNL A   1      41.507  27.461  29.823  1.00  0.00    -0.354 N 
ATOM     46  C   UNL A   1      41.875  30.127  33.203  1.00  0.00     0.074 A 
ATOM     47  C   UNL A   1      40.760  31.045  33.268  1.00  0.00     0.031 C 
ATOM     48  C   UNL A   1      40.603  26.677  27.931  1.00  0.00     0.029 A 
ATOM     49  C   UNL A   1      41.768  26.572  28.804  1.00  0.00     0.049 A 
ATOM     50  H   UNL A   1      42.106  27.586  30.594  1.00  0.00     0.167 HD
ATOM     51  C   UNL A   1      42.909  30.120  34.078  1.00  0.00     0.034 A 
ATOM     52  C   UNL A   1      42.832  25.772  28.591  1.00  0.00     0.034 A 
ATOM     53  C   UNL A   1      43.995  29.180  34.030  1.00  0.00     0.049 A 
ATOM     54  C   UNL A   1      43.952  25.763  29.596  1.00  0.00     0.074 A 
ATOM     55  C   UNL A   1      45.043  29.031  34.922  1.00  0.00     0.029 A 
ATOM     56  N   UNL A   1      44.182  28.236  33.033  1.00  0.00    -0.354 N 
ATOM     57  N   UNL A   1      44.074  26.458  30.701  1.00  0.00    -0.248 NA
ATOM     58  C   UNL A   1      45.062  24.834  29.346  1.00  0.00     0.031 C 
ATOM     59  C   UNL A   1      45.880  28.017  34.446  1.00  0.00     0.029 A 
ATOM     60  C   UNL A   1      45.334  27.509  33.278  1.00  0.00     0.049 A 
ATOM     61  H   UNL A   1      43.583  28.102  32.263  1.00  0.00     0.167 HD
ATOM     62  C   UNL A   1      45.253  26.023  31.297  1.00  0.00     0.074 A 
ATOM     63  C   UNL A   1      45.798  24.992  30.438  1.00  0.00     0.031 C 
ATOM     64  C   UNL A   1      45.836  26.447  32.445  1.00  0.00     0.034 A 
BRANCH  51  65
ATOM     65  C   UNL A   1      42.890  31.134  35.194  1.00  0.00     0.023 A 
ATOM     66  C   UNL A   1      42.332  30.787  36.442  1.00  0.00     0.012 A 
ATOM     67  C   UNL A   1      43.479  32.403  35.030  1.00  0.00     0.148 A 
ATOM     68  C   UNL A   1      42.325  31.699  37.497  1.00  0.00     0.002 A 
ATOM     69  C   UNL A   1      43.511  33.290  36.100  1.00  0.00     0.091 A 
ATOM     70  F   UNL A   1      43.988  32.722  33.832  1.00  0.00    -0.205 F 
ATOM     71  C   UNL A   1      42.923  32.945  37.328  1.00  0.00     0.022 A 
BRANCH  69  72
ATOM     72  S   UNL A   1      44.328  34.886  36.013  1.00  0.00     0.127 S 
ATOM     73  O   UNL A   1      45.738  34.498  36.007  1.00  0.00    -0.237 OA
ATOM     74  O   UNL A   1      43.836  35.415  34.741  1.00  0.00    -0.237 OA
ATOM     75  O   UNL A   1      43.891  35.628  37.188  1.00  0.00    -0.744 OA
ENDBRANCH  69  72
ENDBRANCH  51  65
BRANCH  52  76
ATOM     76  C   UNL A   1      42.860  24.870  27.405  1.00  0.00     0.023 A 
ATOM     77  C   UNL A   1      43.496  25.301  26.224  1.00  0.00     0.012 A 
ATOM     78  C   UNL A   1      42.285  23.584  27.445  1.00  0.00     0.148 A 
ATOM     79  C   UNL A   1      43.529  24.483  25.094  1.00  0.00     0.002 A 
ATOM     80  C   UNL A   1      42.370  22.754  26.334  1.00  0.00     0.091 A 
ATOM     81  F   UNL A   1      41.677  23.196  28.575  1.00  0.00    -0.205 F 
ATOM     82  C   UNL A   1      42.976  23.207  25.152  1.00  0.00     0.022 A 
BRANCH  80  83
ATOM     83  S   UNL A   1      41.800  21.050  26.357  1.00  0.00     0.127 S 
ATOM     84  O   UNL A   1      42.628  20.445  25.317  1.00  0.00    -0.237 OA
ATOM     85  O   UNL A   1      42.130  20.640  27.723  1.00  0.00    -0.237 OA
ATOM     86  O   UNL A   1      40.373  21.108  26.076  1.00  0.00    -0.744 OA
ENDBRANCH  80  83
ENDBRANCH  52  76
BRANCH  64  87
ATOM     87  C   UNL A   1      47.110  25.769  32.878  1.00  0.00     0.023 A 
ATOM     88  C   UNL A   1      47.069  24.746  33.845  1.00  0.00     0.012 A 
ATOM     89  C   UNL A   1      48.334  26.091  32.260  1.00  0.00     0.148 A 
ATOM     90  C   UNL A   1      48.234  24.073  34.212  1.00  0.00     0.002 A 
ATOM     91  C   UNL A   1      49.481  25.381  32.593  1.00  0.00     0.091 A 
ATOM     92  F   UNL A   1      48.354  27.081  31.354  1.00  0.00    -0.205 F 
ATOM     93  C   UNL A   1      49.436  24.381  33.577  1.00  0.00     0.022 A 
BRANCH  91  94
ATOM     94  S   UNL A   1      51.051  25.638  31.757  1.00  0.00     0.127 S 
ATOM     95  O   UNL A   1      51.901  24.642  32.409  1.00  0.00    -0.237 OA
ATOM     96  O   UNL A   1      50.714  25.335  30.366  1.00  0.00    -0.237 OA
ATOM     97  O   UNL A   1      51.417  27.026  32.003  1.00  0.00    -0.744 OA
ENDBRANCH  91  94
ENDBRANCH  64  87
ENDBRANCH  38  39
ENDBRANCH  30  33
ENDBRANCH  28  29
ENDBRANCH  27  28
ENDBRANCH  26  27
ENDBRANCH   1  26
TORSDOF 19
ENDMDL
