MODEL 1
REMARK VINA RESULT:     -10.6      0.000      0.000
REMARK SMILES CC(C)(C)N(CC(=O)NCCCCCCNC(=O)c1ccc(-c2c3nc(c(-c4cccc(S(=O)(=O)[O-])c4F)c4ccc([nH]4)c(-c4cccc(S(=O)(=O)[O-])c4F)c4nc(c(-c5cccc(S(=O)(=O)[O-])c5F)c5ccc2[nH]5)C=C4)C=C3)cc1)C(=O)N1CC[C@H](C[NH3+])C1
REMARK SMILES IDX 11 1 10 2 9 3 7 4 8 5 6 7 5 8 2 9 1 10 3 11 4 12 82 13 83 14
REMARK SMILES IDX 84 15 85 16 90 17 86 18 87 19 88 20 89 21 12 25 13 26 14 27
REMARK SMILES IDX 15 28 16 29 17 30 18 32 19 33 20 34 81 35 21 36 80 37 22 38
REMARK SMILES IDX 23 39 24 40 74 41 25 42 79 43 73 44 75 45 26 46 78 47 72 48
REMARK SMILES IDX 71 49 27 51 59 52 39 53 58 54 40 55 43 56 57 57 76 58 41 59
REMARK SMILES IDX 42 60 56 62 77 63 44 64 28 65 29 66 37 67 30 68 32 69 38 70
REMARK SMILES IDX 31 71 33 72 34 73 35 74 36 75 60 76 61 77 69 78 62 79 64 80
REMARK SMILES IDX 70 81 63 82 65 83 66 84 67 85 68 86 45 87 46 88 54 89 47 90
REMARK SMILES IDX 49 91 55 92 48 93 50 94 51 95 52 96 53 97
REMARK H PARENT 9 6 89 22 89 23 89 24 16 31 75 50 43 61
REMARK Flexibility Score: inf
ROOT
ATOM      1  C   UNL A   1      34.022  24.893  23.330  1.00  0.00     0.021 C 
ENDROOT
BRANCH   1   2
ATOM      2  C   UNL A   1      32.666  24.573  22.707  1.00  0.00     0.116 C 
BRANCH   2   3
ATOM      3  N   UNL A   1      32.582  23.258  22.122  1.00  0.00    -0.355 N 
ATOM      4  C   UNL A   1      32.384  22.051  22.722  1.00  0.00     0.239 C 
ATOM      5  O   UNL A   1      32.086  21.108  21.975  1.00  0.00    -0.273 OA
ATOM      6  H   UNL A   1      32.682  23.228  21.144  1.00  0.00     0.163 HD
BRANCH   4   7
ATOM      7  C   UNL A   1      32.389  21.838  24.252  1.00  0.00     0.221 C 
BRANCH   7   8
ATOM      8  N   UNL A   1      33.647  21.712  25.022  1.00  0.00    -0.311 N 
BRANCH   8   9
ATOM      9  C   UNL A   1      33.788  22.445  26.353  1.00  0.00     0.037 C 
ATOM     10  C   UNL A   1      35.071  23.316  26.487  1.00  0.00     0.034 C 
ATOM     11  C   UNL A   1      33.802  21.462  27.550  1.00  0.00     0.034 C 
ATOM     12  C   UNL A   1      32.617  23.443  26.544  1.00  0.00     0.034 C 
ENDBRANCH   8   9
BRANCH   8  13
ATOM     13  C   UNL A   1      34.511  20.620  24.787  1.00  0.00     0.320 C 
ATOM     14  O   UNL A   1      35.725  20.743  24.634  1.00  0.00    -0.248 OA
BRANCH  13  15
ATOM     15  N   UNL A   1      33.985  19.355  24.931  1.00  0.00    -0.324 N 
ATOM     16  C   UNL A   1      32.578  19.021  24.913  1.00  0.00     0.122 C 
ATOM     17  C   UNL A   1      34.722  18.206  24.423  1.00  0.00     0.130 C 
ATOM     18  C   UNL A   1      32.600  17.590  25.416  1.00  0.00     0.033 C 
ATOM     19  C   UNL A   1      33.793  16.997  24.647  1.00  0.00     0.065 C 
BRANCH  19  20
ATOM     20  C   UNL A   1      34.510  15.850  25.359  1.00  0.00     0.264 C 
BRANCH  20  21
ATOM     21  N   UNL A   1      35.874  16.205  25.741  1.00  0.00    -0.357 N 
ATOM     22  H   UNL A   1      35.980  17.220  25.723  1.00  0.00     0.344 HD
ATOM     23  H   UNL A   1      36.532  15.784  25.084  1.00  0.00     0.344 HD
ATOM     24  H   UNL A   1      36.065  15.860  26.681  1.00  0.00     0.344 HD
ENDBRANCH  20  21
ENDBRANCH  19  20
ENDBRANCH  13  15
ENDBRANCH   8  13
ENDBRANCH   7   8
ENDBRANCH   4   7
ENDBRANCH   2   3
ENDBRANCH   1   2
BRANCH   1  25
ATOM     25  C   UNL A   1      34.033  26.073  24.305  1.00  0.00     0.002 C 
BRANCH  25  26
ATOM     26  C   UNL A   1      33.187  27.286  23.901  1.00  0.00     0.002 C 
BRANCH  26  27
ATOM     27  C   UNL A   1      32.820  28.266  25.023  1.00  0.00     0.021 C 
BRANCH  27  28
ATOM     28  C   UNL A   1      33.955  28.646  25.971  1.00  0.00     0.116 C 
BRANCH  28  29
ATOM     29  N   UNL A   1      33.881  30.035  26.388  1.00  0.00    -0.352 N 
ATOM     30  C   UNL A   1      34.621  30.726  27.315  1.00  0.00     0.251 C 
ATOM     31  H   UNL A   1      33.189  30.566  25.934  1.00  0.00     0.163 HD
ATOM     32  O   UNL A   1      34.257  31.853  27.647  1.00  0.00    -0.269 OA
BRANCH  30  33
ATOM     33  C   UNL A   1      35.839  30.140  27.924  1.00  0.00     0.039 A 
ATOM     34  C   UNL A   1      37.042  30.221  27.215  1.00  0.00     0.014 A 
ATOM     35  C   UNL A   1      35.801  29.460  29.145  1.00  0.00     0.014 A 
ATOM     36  C   UNL A   1      38.206  29.658  27.744  1.00  0.00     0.010 A 
ATOM     37  C   UNL A   1      36.978  28.958  29.704  1.00  0.00     0.010 A 
ATOM     38  C   UNL A   1      38.190  29.038  29.004  1.00  0.00    -0.014 A 
BRANCH  38  39
ATOM     39  C   UNL A   1      39.439  28.485  29.594  1.00  0.00     0.031 A 
ATOM     40  C   UNL A   1      40.044  29.090  30.832  1.00  0.00     0.074 A 
ATOM     41  C   UNL A   1      40.070  27.469  28.972  1.00  0.00     0.049 A 
ATOM     42  N   UNL A   1      41.117  28.725  31.488  1.00  0.00    -0.248 NA
ATOM     43  C   UNL A   1      39.375  30.275  31.394  1.00  0.00     0.031 C 
ATOM     44  C   UNL A   1      39.645  26.859  27.710  1.00  0.00     0.029 A 
ATOM     45  N   UNL A   1      41.215  26.787  29.301  1.00  0.00    -0.354 N 
ATOM     46  C   UNL A   1      41.271  29.649  32.514  1.00  0.00     0.074 A 
ATOM     47  C   UNL A   1      40.200  30.612  32.376  1.00  0.00     0.031 C 
ATOM     48  C   UNL A   1      40.516  25.894  27.373  1.00  0.00     0.029 A 
ATOM     49  C   UNL A   1      41.568  25.825  28.384  1.00  0.00     0.049 A 
ATOM     50  H   UNL A   1      41.735  26.970  30.117  1.00  0.00     0.167 HD
ATOM     51  C   UNL A   1      42.200  29.680  33.501  1.00  0.00     0.034 A 
ATOM     52  C   UNL A   1      42.616  24.979  28.359  1.00  0.00     0.034 A 
ATOM     53  C   UNL A   1      43.237  28.694  33.665  1.00  0.00     0.049 A 
ATOM     54  C   UNL A   1      43.585  24.977  29.509  1.00  0.00     0.074 A 
ATOM     55  C   UNL A   1      44.156  28.576  34.693  1.00  0.00     0.029 A 
ATOM     56  N   UNL A   1      43.498  27.664  32.775  1.00  0.00    -0.354 N 
ATOM     57  N   UNL A   1      43.600  25.739  30.576  1.00  0.00    -0.248 NA
ATOM     58  C   UNL A   1      44.654  23.969  29.477  1.00  0.00     0.031 C 
ATOM     59  C   UNL A   1      44.986  27.484  34.413  1.00  0.00     0.029 A 
ATOM     60  C   UNL A   1      44.570  26.910  33.223  1.00  0.00     0.049 A 
ATOM     61  H   UNL A   1      42.995  27.493  31.947  1.00  0.00     0.167 HD
ATOM     62  C   UNL A   1      44.658  25.285  31.355  1.00  0.00     0.074 A 
ATOM     63  C   UNL A   1      45.242  24.162  30.650  1.00  0.00     0.031 C 
ATOM     64  C   UNL A   1      45.117  25.767  32.537  1.00  0.00     0.034 A 
BRANCH  51  65
ATOM     65  C   UNL A   1      42.102  30.787  34.519  1.00  0.00     0.023 A 
ATOM     66  C   UNL A   1      41.314  30.599  35.674  1.00  0.00     0.012 A 
ATOM     67  C   UNL A   1      42.828  31.984  34.368  1.00  0.00     0.148 A 
ATOM     68  C   UNL A   1      41.218  31.600  36.641  1.00  0.00     0.002 A 
ATOM     69  C   UNL A   1      42.761  32.960  35.357  1.00  0.00     0.091 A 
ATOM     70  F   UNL A   1      43.555  32.156  33.254  1.00  0.00    -0.205 F 
ATOM     71  C   UNL A   1      41.949  32.774  36.487  1.00  0.00     0.022 A 
BRANCH  69  72
ATOM     72  S   UNL A   1      43.729  34.473  35.288  1.00  0.00     0.127 S 
ATOM     73  O   UNL A   1      43.161  35.132  34.112  1.00  0.00    -0.237 OA
ATOM     74  O   UNL A   1      43.399  35.111  36.563  1.00  0.00    -0.237 OA
ATOM     75  O   UNL A   1      45.117  34.052  35.165  1.00  0.00    -0.744 OA
ENDBRANCH  69  72
ENDBRANCH  51  65
BRANCH  52  76
ATOM     76  C   UNL A   1      42.750  24.007  27.238  1.00  0.00     0.023 A 
ATOM     77  C   UNL A   1      43.544  24.340  26.123  1.00  0.00     0.012 A 
ATOM     78  C   UNL A   1      42.139  22.739  27.294  1.00  0.00     0.148 A 
ATOM     79  C   UNL A   1      43.705  23.438  25.071  1.00  0.00     0.002 A 
ATOM     80  C   UNL A   1      42.350  21.824  26.268  1.00  0.00     0.091 A 
ATOM     81  F   UNL A   1      41.379  22.447  28.358  1.00  0.00    -0.205 F 
ATOM     82  C   UNL A   1      43.119  22.177  25.148  1.00  0.00     0.022 A 
BRANCH  80  83
ATOM     83  S   UNL A   1      41.752  20.132  26.354  1.00  0.00     0.127 S 
ATOM     84  O   UNL A   1      42.274  19.695  27.645  1.00  0.00    -0.237 OA
ATOM     85  O   UNL A   1      40.301  20.321  26.307  1.00  0.00    -0.237 OA
ATOM     86  O   UNL A   1      42.305  19.462  25.183  1.00  0.00    -0.744 OA
ENDBRANCH  80  83
ENDBRANCH  52  76
BRANCH  64  87
ATOM     87  C   UNL A   1      46.300  25.072  33.158  1.00  0.00     0.023 A 
ATOM     88  C   UNL A   1      47.599  25.570  32.935  1.00  0.00     0.012 A 
ATOM     89  C   UNL A   1      46.126  23.959  34.004  1.00  0.00     0.148 A 
ATOM     90  C   UNL A   1      48.707  24.950  33.511  1.00  0.00     0.002 A 
ATOM     91  C   UNL A   1      47.230  23.373  34.613  1.00  0.00     0.091 A 
ATOM     92  F   UNL A   1      44.885  23.481  34.189  1.00  0.00    -0.205 F 
ATOM     93  C   UNL A   1      48.522  23.860  34.357  1.00  0.00     0.022 A 
BRANCH  91  94
ATOM     94  S   UNL A   1      47.070  22.025  35.789  1.00  0.00     0.127 S 
ATOM     95  O   UNL A   1      46.771  20.896  34.911  1.00  0.00    -0.237 OA
ATOM     96  O   UNL A   1      48.397  21.984  36.405  1.00  0.00    -0.237 OA
ATOM     97  O   UNL A   1      46.000  22.420  36.697  1.00  0.00    -0.744 OA
ENDBRANCH  91  94
ENDBRANCH  64  87
ENDBRANCH  38  39
ENDBRANCH  30  33
ENDBRANCH  28  29
ENDBRANCH  27  28
ENDBRANCH  26  27
ENDBRANCH  25  26
ENDBRANCH   1  25
TORSDOF 22
ENDMDL
MODEL 2
REMARK VINA RESULT:     -10.4      4.674      9.929
REMARK SMILES CC(C)(C)N(CC(=O)NCCCCCCNC(=O)c1ccc(-c2c3nc(c(-c4cccc(S(=O)(=O)[O-])c4F)c4ccc([nH]4)c(-c4cccc(S(=O)(=O)[O-])c4F)c4nc(c(-c5cccc(S(=O)(=O)[O-])c5F)c5ccc2[nH]5)C=C4)C=C3)cc1)C(=O)N1CC[C@H](C[NH3+])C1
REMARK SMILES IDX 11 1 10 2 9 3 7 4 8 5 6 7 5 8 2 9 1 10 3 11 4 12 82 13 83 14
REMARK SMILES IDX 84 15 85 16 90 17 86 18 87 19 88 20 89 21 12 25 13 26 14 27
REMARK SMILES IDX 15 28 16 29 17 30 18 32 19 33 20 34 81 35 21 36 80 37 22 38
REMARK SMILES IDX 23 39 24 40 74 41 25 42 79 43 73 44 75 45 26 46 78 47 72 48
REMARK SMILES IDX 71 49 27 51 59 52 39 53 58 54 40 55 43 56 57 57 76 58 41 59
REMARK SMILES IDX 42 60 56 62 77 63 44 64 28 65 29 66 37 67 30 68 32 69 38 70
REMARK SMILES IDX 31 71 33 72 34 73 35 74 36 75 60 76 61 77 69 78 62 79 64 80
REMARK SMILES IDX 70 81 63 82 65 83 66 84 67 85 68 86 45 87 46 88 54 89 47 90
REMARK SMILES IDX 49 91 55 92 48 93 50 94 51 95 52 96 53 97
REMARK H PARENT 9 6 89 22 89 23 89 24 16 31 75 50 43 61
REMARK Flexibility Score: inf
ROOT
ATOM      1  C   UNL A   1      32.901  22.343  23.416  1.00  0.00     0.021 C 
ENDROOT
BRANCH   1   2
ATOM      2  C   UNL A   1      31.952  23.531  23.280  1.00  0.00     0.116 C 
BRANCH   2   3
ATOM      3  N   UNL A   1      32.255  24.403  22.173  1.00  0.00    -0.355 N 
ATOM      4  C   UNL A   1      32.952  25.573  22.154  1.00  0.00     0.239 C 
ATOM      5  O   UNL A   1      33.298  25.989  21.039  1.00  0.00    -0.273 OA
ATOM      6  H   UNL A   1      31.906  24.109  21.301  1.00  0.00     0.163 HD
BRANCH   4   7
ATOM      7  C   UNL A   1      33.425  26.315  23.423  1.00  0.00     0.221 C 
BRANCH   7   8
ATOM      8  N   UNL A   1      32.526  27.207  24.191  1.00  0.00    -0.311 N 
BRANCH   8   9
ATOM      9  C   UNL A   1      32.060  26.785  25.582  1.00  0.00     0.037 C 
ATOM     10  C   UNL A   1      32.104  27.912  26.655  1.00  0.00     0.034 C 
ATOM     11  C   UNL A   1      32.910  25.617  26.141  1.00  0.00     0.034 C 
ATOM     12  C   UNL A   1      30.574  26.344  25.540  1.00  0.00     0.034 C 
ENDBRANCH   8   9
BRANCH   8  13
ATOM     13  C   UNL A   1      32.455  28.581  23.871  1.00  0.00     0.320 C 
ATOM     14  O   UNL A   1      33.441  29.316  23.841  1.00  0.00    -0.248 OA
BRANCH  13  15
ATOM     15  N   UNL A   1      31.256  29.056  23.388  1.00  0.00    -0.324 N 
ATOM     16  C   UNL A   1      30.377  28.357  22.477  1.00  0.00     0.122 C 
ATOM     17  C   UNL A   1      30.434  29.919  24.225  1.00  0.00     0.130 C 
ATOM     18  C   UNL A   1      29.417  29.459  22.075  1.00  0.00     0.033 C 
ATOM     19  C   UNL A   1      29.141  30.152  23.421  1.00  0.00     0.065 C 
BRANCH  19  20
ATOM     20  C   UNL A   1      28.789  31.636  23.319  1.00  0.00     0.264 C 
BRANCH  20  21
ATOM     21  N   UNL A   1      29.346  32.253  22.118  1.00  0.00    -0.357 N 
ATOM     22  H   UNL A   1      30.359  32.327  22.213  1.00  0.00     0.344 HD
ATOM     23  H   UNL A   1      28.947  33.184  21.998  1.00  0.00     0.344 HD
ATOM     24  H   UNL A   1      29.122  31.680  21.306  1.00  0.00     0.344 HD
ENDBRANCH  20  21
ENDBRANCH  19  20
ENDBRANCH  13  15
ENDBRANCH   8  13
ENDBRANCH   7   8
ENDBRANCH   4   7
ENDBRANCH   2   3
ENDBRANCH   1   2
BRANCH   1  25
ATOM     25  C   UNL A   1      34.385  22.664  23.228  1.00  0.00     0.002 C 
BRANCH  25  26
ATOM     26  C   UNL A   1      35.097  23.283  24.437  1.00  0.00     0.002 C 
BRANCH  26  27
ATOM     27  C   UNL A   1      36.067  22.369  25.198  1.00  0.00     0.021 C 
BRANCH  27  28
ATOM     28  C   UNL A   1      37.308  23.048  25.771  1.00  0.00     0.116 C 
BRANCH  28  29
ATOM     29  N   UNL A   1      38.383  22.105  26.025  1.00  0.00    -0.352 N 
ATOM     30  C   UNL A   1      39.662  22.315  26.476  1.00  0.00     0.251 C 
ATOM     31  H   UNL A   1      38.159  21.165  25.843  1.00  0.00     0.163 HD
ATOM     32  O   UNL A   1      40.467  21.387  26.434  1.00  0.00    -0.269 OA
BRANCH  30  33
ATOM     33  C   UNL A   1      40.089  23.633  27.003  1.00  0.00     0.039 A 
ATOM     34  C   UNL A   1      39.924  24.759  26.190  1.00  0.00     0.014 A 
ATOM     35  C   UNL A   1      40.703  23.766  28.252  1.00  0.00     0.014 A 
ATOM     36  C   UNL A   1      40.338  26.016  26.642  1.00  0.00     0.010 A 
ATOM     37  C   UNL A   1      41.053  25.031  28.730  1.00  0.00     0.010 A 
ATOM     38  C   UNL A   1      40.888  26.167  27.925  1.00  0.00    -0.014 A 
BRANCH  38  39
ATOM     39  C   UNL A   1      41.280  27.511  28.428  1.00  0.00     0.031 A 
ATOM     40  C   UNL A   1      42.729  27.898  28.555  1.00  0.00     0.074 A 
ATOM     41  C   UNL A   1      40.323  28.368  28.837  1.00  0.00     0.049 A 
ATOM     42  N   UNL A   1      43.247  29.031  28.960  1.00  0.00    -0.248 NA
ATOM     43  C   UNL A   1      43.729  26.874  28.209  1.00  0.00     0.031 C 
ATOM     44  C   UNL A   1      38.888  28.079  28.863  1.00  0.00     0.029 A 
ATOM     45  N   UNL A   1      40.414  29.645  29.333  1.00  0.00    -0.354 N 
ATOM     46  C   UNL A   1      44.625  28.846  28.949  1.00  0.00     0.074 A 
ATOM     47  C   UNL A   1      44.862  27.482  28.529  1.00  0.00     0.031 C 
ATOM     48  C   UNL A   1      38.234  29.147  29.348  1.00  0.00     0.029 A 
ATOM     49  C   UNL A   1      39.200  30.190  29.680  1.00  0.00     0.049 A 
ATOM     50  H   UNL A   1      41.267  30.126  29.430  1.00  0.00     0.167 HD
ATOM     51  C   UNL A   1      45.606  29.738  29.233  1.00  0.00     0.034 A 
ATOM     52  C   UNL A   1      38.896  31.394  30.203  1.00  0.00     0.034 A 
ATOM     53  C   UNL A   1      45.369  31.108  29.606  1.00  0.00     0.049 A 
ATOM     54  C   UNL A   1      39.996  32.394  30.430  1.00  0.00     0.074 A 
ATOM     55  C   UNL A   1      46.295  32.117  29.806  1.00  0.00     0.029 A 
ATOM     56  N   UNL A   1      44.120  31.660  29.841  1.00  0.00    -0.354 N 
ATOM     57  N   UNL A   1      41.285  32.263  30.228  1.00  0.00    -0.248 NA
ATOM     58  C   UNL A   1      39.596  33.724  30.911  1.00  0.00     0.031 C 
ATOM     59  C   UNL A   1      45.604  33.275  30.183  1.00  0.00     0.029 A 
ATOM     60  C   UNL A   1      44.248  32.992  30.195  1.00  0.00     0.049 A 
ATOM     61  H   UNL A   1      43.266  31.176  29.767  1.00  0.00     0.167 HD
ATOM     62  C   UNL A   1      41.846  33.498  30.529  1.00  0.00     0.074 A 
ATOM     63  C   UNL A   1      40.752  34.374  30.899  1.00  0.00     0.031 C 
ATOM     64  C   UNL A   1      43.151  33.869  30.519  1.00  0.00     0.034 A 
BRANCH  51  65
ATOM     65  C   UNL A   1      47.034  29.273  29.096  1.00  0.00     0.023 A 
ATOM     66  C   UNL A   1      47.701  28.741  30.217  1.00  0.00     0.012 A 
ATOM     67  C   UNL A   1      47.696  29.310  27.853  1.00  0.00     0.148 A 
ATOM     68  C   UNL A   1      49.017  28.288  30.116  1.00  0.00     0.002 A 
ATOM     69  C   UNL A   1      48.993  28.817  27.749  1.00  0.00     0.091 A 
ATOM     70  F   UNL A   1      47.056  29.839  26.800  1.00  0.00    -0.205 F 
ATOM     71  C   UNL A   1      49.657  28.317  28.881  1.00  0.00     0.022 A 
BRANCH  69  72
ATOM     72  S   UNL A   1      49.873  28.737  26.184  1.00  0.00     0.127 S 
ATOM     73  O   UNL A   1      50.905  27.744  26.477  1.00  0.00    -0.237 OA
ATOM     74  O   UNL A   1      48.830  28.280  25.264  1.00  0.00    -0.237 OA
ATOM     75  O   UNL A   1      50.353  30.088  25.929  1.00  0.00    -0.744 OA
ENDBRANCH  69  72
ENDBRANCH  51  65
BRANCH  52  76
ATOM     76  C   UNL A   1      37.472  31.741  30.470  1.00  0.00     0.023 A 
ATOM     77  C   UNL A   1      36.954  31.594  31.771  1.00  0.00     0.012 A 
ATOM     78  C   UNL A   1      36.646  32.264  29.456  1.00  0.00     0.148 A 
ATOM     79  C   UNL A   1      35.630  31.934  32.051  1.00  0.00     0.002 A 
ATOM     80  C   UNL A   1      35.346  32.656  29.755  1.00  0.00     0.091 A 
ATOM     81  F   UNL A   1      37.155  32.387  28.222  1.00  0.00    -0.205 F 
ATOM     82  C   UNL A   1      34.830  32.476  31.048  1.00  0.00     0.022 A 
BRANCH  80  83
ATOM     83  S   UNL A   1      34.296  33.491  28.561  1.00  0.00     0.127 S 
ATOM     84  O   UNL A   1      33.978  32.410  27.633  1.00  0.00    -0.237 OA
ATOM     85  O   UNL A   1      33.180  33.936  29.397  1.00  0.00    -0.237 OA
ATOM     86  O   UNL A   1      35.106  34.577  28.020  1.00  0.00    -0.744 OA
ENDBRANCH  80  83
ENDBRANCH  52  76
BRANCH  64  87
ATOM     87  C   UNL A   1      43.473  35.290  30.902  1.00  0.00     0.023 A 
ATOM     88  C   UNL A   1      43.653  36.260  29.896  1.00  0.00     0.012 A 
ATOM     89  C   UNL A   1      43.546  35.678  32.254  1.00  0.00     0.148 A 
ATOM     90  C   UNL A   1      43.939  37.584  30.228  1.00  0.00     0.002 A 
ATOM     91  C   UNL A   1      43.784  37.009  32.579  1.00  0.00     0.091 A 
ATOM     92  F   UNL A   1      43.395  34.739  33.201  1.00  0.00    -0.205 F 
ATOM     93  C   UNL A   1      43.994  37.960  31.568  1.00  0.00     0.022 A 
BRANCH  91  94
ATOM     94  S   UNL A   1      43.779  37.593  34.277  1.00  0.00     0.127 S 
ATOM     95  O   UNL A   1      42.567  36.970  34.804  1.00  0.00    -0.237 OA
ATOM     96  O   UNL A   1      45.027  37.041  34.806  1.00  0.00    -0.237 OA
ATOM     97  O   UNL A   1      43.755  39.048  34.193  1.00  0.00    -0.744 OA
ENDBRANCH  91  94
ENDBRANCH  64  87
ENDBRANCH  38  39
ENDBRANCH  30  33
ENDBRANCH  28  29
ENDBRANCH  27  28
ENDBRANCH  26  27
ENDBRANCH  25  26
ENDBRANCH   1  25
TORSDOF 22
ENDMDL
MODEL 3
REMARK VINA RESULT:     -10.3      4.637     10.130
REMARK SMILES CC(C)(C)N(CC(=O)NCCCCCCNC(=O)c1ccc(-c2c3nc(c(-c4cccc(S(=O)(=O)[O-])c4F)c4ccc([nH]4)c(-c4cccc(S(=O)(=O)[O-])c4F)c4nc(c(-c5cccc(S(=O)(=O)[O-])c5F)c5ccc2[nH]5)C=C4)C=C3)cc1)C(=O)N1CC[C@H](C[NH3+])C1
REMARK SMILES IDX 11 1 10 2 9 3 7 4 8 5 6 7 5 8 2 9 1 10 3 11 4 12 82 13 83 14
REMARK SMILES IDX 84 15 85 16 90 17 86 18 87 19 88 20 89 21 12 25 13 26 14 27
REMARK SMILES IDX 15 28 16 29 17 30 18 32 19 33 20 34 81 35 21 36 80 37 22 38
REMARK SMILES IDX 23 39 24 40 74 41 25 42 79 43 73 44 75 45 26 46 78 47 72 48
REMARK SMILES IDX 71 49 27 51 59 52 39 53 58 54 40 55 43 56 57 57 76 58 41 59
REMARK SMILES IDX 42 60 56 62 77 63 44 64 28 65 29 66 37 67 30 68 32 69 38 70
REMARK SMILES IDX 31 71 33 72 34 73 35 74 36 75 60 76 61 77 69 78 62 79 64 80
REMARK SMILES IDX 70 81 63 82 65 83 66 84 67 85 68 86 45 87 46 88 54 89 47 90
REMARK SMILES IDX 49 91 55 92 48 93 50 94 51 95 52 96 53 97
REMARK H PARENT 9 6 89 22 89 23 89 24 16 31 75 50 43 61
REMARK Flexibility Score: inf
ROOT
ATOM      1  C   UNL A   1      32.804  22.329  23.283  1.00  0.00     0.021 C 
ENDROOT
BRANCH   1   2
ATOM      2  C   UNL A   1      31.906  23.561  23.207  1.00  0.00     0.116 C 
BRANCH   2   3
ATOM      3  N   UNL A   1      32.228  24.460  22.128  1.00  0.00    -0.355 N 
ATOM      4  C   UNL A   1      33.011  25.573  22.128  1.00  0.00     0.239 C 
ATOM      5  O   UNL A   1      33.341  26.015  21.018  1.00  0.00    -0.273 OA
ATOM      6  H   UNL A   1      31.821  24.234  21.261  1.00  0.00     0.163 HD
BRANCH   4   7
ATOM      7  C   UNL A   1      33.593  26.217  23.407  1.00  0.00     0.221 C 
BRANCH   7   8
ATOM      8  N   UNL A   1      32.828  27.197  24.210  1.00  0.00    -0.311 N 
BRANCH   8   9
ATOM      9  C   UNL A   1      32.579  26.923  25.690  1.00  0.00     0.037 C 
ATOM     10  C   UNL A   1      31.102  27.104  26.149  1.00  0.00     0.034 C 
ATOM     11  C   UNL A   1      33.432  27.846  26.595  1.00  0.00     0.034 C 
ATOM     12  C   UNL A   1      32.915  25.448  26.027  1.00  0.00     0.034 C 
ENDBRANCH   8   9
BRANCH   8  13
ATOM     13  C   UNL A   1      32.715  28.534  23.769  1.00  0.00     0.320 C 
ATOM     14  O   UNL A   1      33.688  29.257  23.556  1.00  0.00    -0.248 OA
BRANCH  13  15
ATOM     15  N   UNL A   1      31.467  28.969  23.382  1.00  0.00    -0.324 N 
ATOM     16  C   UNL A   1      30.508  28.205  22.616  1.00  0.00     0.122 C 
ATOM     17  C   UNL A   1      30.725  29.882  24.241  1.00  0.00     0.130 C 
ATOM     18  C   UNL A   1      29.498  29.273  22.243  1.00  0.00     0.033 C 
ATOM     19  C   UNL A   1      29.353  30.052  23.562  1.00  0.00     0.065 C 
BRANCH  19  20
ATOM     20  C   UNL A   1      28.974  31.524  23.399  1.00  0.00     0.264 C 
BRANCH  20  21
ATOM     21  N   UNL A   1      29.234  32.014  22.048  1.00  0.00    -0.357 N 
ATOM     22  H   UNL A   1      28.909  32.978  21.967  1.00  0.00     0.344 HD
ATOM     23  H   UNL A   1      28.739  31.430  21.373  1.00  0.00     0.344 HD
ATOM     24  H   UNL A   1      30.235  31.976  21.859  1.00  0.00     0.344 HD
ENDBRANCH  20  21
ENDBRANCH  19  20
ENDBRANCH  13  15
ENDBRANCH   8  13
ENDBRANCH   7   8
ENDBRANCH   4   7
ENDBRANCH   2   3
ENDBRANCH   1   2
BRANCH   1  25
ATOM     25  C   UNL A   1      34.306  22.608  23.196  1.00  0.00     0.002 C 
BRANCH  25  26
ATOM     26  C   UNL A   1      34.982  23.062  24.495  1.00  0.00     0.002 C 
BRANCH  26  27
ATOM     27  C   UNL A   1      35.993  22.087  25.115  1.00  0.00     0.021 C 
BRANCH  27  28
ATOM     28  C   UNL A   1      37.180  22.726  25.829  1.00  0.00     0.116 C 
BRANCH  28  29
ATOM     29  N   UNL A   1      38.278  21.794  26.013  1.00  0.00    -0.352 N 
ATOM     30  C   UNL A   1      39.586  22.018  26.364  1.00  0.00     0.251 C 
ATOM     31  H   UNL A   1      38.049  20.850  25.860  1.00  0.00     0.163 HD
ATOM     32  O   UNL A   1      40.394  21.095  26.272  1.00  0.00    -0.269 OA
BRANCH  30  33
ATOM     33  C   UNL A   1      40.041  23.346  26.841  1.00  0.00     0.039 A 
ATOM     34  C   UNL A   1      39.916  24.441  25.980  1.00  0.00     0.014 A 
ATOM     35  C   UNL A   1      40.644  23.515  28.091  1.00  0.00     0.014 A 
ATOM     36  C   UNL A   1      40.357  25.704  26.385  1.00  0.00     0.010 A 
ATOM     37  C   UNL A   1      41.022  24.790  28.520  1.00  0.00     0.010 A 
ATOM     38  C   UNL A   1      40.896  25.895  27.666  1.00  0.00    -0.014 A 
BRANCH  38  39
ATOM     39  C   UNL A   1      41.317  27.248  28.119  1.00  0.00     0.031 A 
ATOM     40  C   UNL A   1      42.767  27.653  28.106  1.00  0.00     0.074 A 
ATOM     41  C   UNL A   1      40.393  28.099  28.608  1.00  0.00     0.049 A 
ATOM     42  N   UNL A   1      43.307  28.795  28.449  1.00  0.00    -0.248 NA
ATOM     43  C   UNL A   1      43.742  26.637  27.677  1.00  0.00     0.031 C 
ATOM     44  C   UNL A   1      38.970  27.794  28.771  1.00  0.00     0.029 A 
ATOM     45  N   UNL A   1      40.514  29.382  29.081  1.00  0.00    -0.354 N 
ATOM     46  C   UNL A   1      44.680  28.625  28.312  1.00  0.00     0.074 A 
ATOM     47  C   UNL A   1      44.893  27.261  27.884  1.00  0.00     0.031 C 
ATOM     48  C   UNL A   1      38.351  28.859  29.305  1.00  0.00     0.029 A 
ATOM     49  C   UNL A   1      39.331  29.916  29.536  1.00  0.00     0.049 A 
ATOM     50  H   UNL A   1      41.367  29.873  29.093  1.00  0.00     0.167 HD
ATOM     51  C   UNL A   1      45.672  29.531  28.494  1.00  0.00     0.034 A 
ATOM     52  C   UNL A   1      39.064  31.122  30.074  1.00  0.00     0.034 A 
ATOM     53  C   UNL A   1      45.455  30.903  28.875  1.00  0.00     0.049 A 
ATOM     54  C   UNL A   1      40.168  32.137  30.188  1.00  0.00     0.074 A 
ATOM     55  C   UNL A   1      46.383  31.924  28.978  1.00  0.00     0.029 A 
ATOM     56  N   UNL A   1      44.227  31.443  29.221  1.00  0.00    -0.354 N 
ATOM     57  N   UNL A   1      41.433  32.018  29.867  1.00  0.00    -0.248 NA
ATOM     58  C   UNL A   1      39.799  33.468  30.692  1.00  0.00     0.031 C 
ATOM     59  C   UNL A   1      45.717  33.078  29.407  1.00  0.00     0.029 A 
ATOM     60  C   UNL A   1      44.371  32.780  29.550  1.00  0.00     0.049 A 
ATOM     61  H   UNL A   1      43.375  30.949  29.232  1.00  0.00     0.167 HD
ATOM     62  C   UNL A   1      42.005  33.263  30.102  1.00  0.00     0.074 A 
ATOM     63  C   UNL A   1      40.940  34.130  30.565  1.00  0.00     0.031 C 
ATOM     64  C   UNL A   1      43.299  33.648  29.967  1.00  0.00     0.034 A 
BRANCH  51  65
ATOM     65  C   UNL A   1      47.086  29.081  28.228  1.00  0.00     0.023 A 
ATOM     66  C   UNL A   1      47.661  29.314  26.961  1.00  0.00     0.012 A 
ATOM     67  C   UNL A   1      47.865  28.483  29.238  1.00  0.00     0.148 A 
ATOM     68  C   UNL A   1      48.972  28.923  26.691  1.00  0.00     0.002 A 
ATOM     69  C   UNL A   1      49.186  28.136  28.975  1.00  0.00     0.091 A 
ATOM     70  F   UNL A   1      47.298  28.250  30.431  1.00  0.00    -0.205 F 
ATOM     71  C   UNL A   1      49.737  28.345  27.700  1.00  0.00     0.022 A 
BRANCH  69  72
ATOM     72  S   UNL A   1      50.275  27.459  30.234  1.00  0.00     0.127 S 
ATOM     73  O   UNL A   1      51.361  26.912  29.421  1.00  0.00    -0.237 OA
ATOM     74  O   UNL A   1      50.633  28.648  31.008  1.00  0.00    -0.237 OA
ATOM     75  O   UNL A   1      49.481  26.481  30.963  1.00  0.00    -0.744 OA
ENDBRANCH  69  72
ENDBRANCH  51  65
BRANCH  52  76
ATOM     76  C   UNL A   1      37.667  31.457  30.469  1.00  0.00     0.023 A 
ATOM     77  C   UNL A   1      37.219  31.144  31.768  1.00  0.00     0.012 A 
ATOM     78  C   UNL A   1      36.798  32.128  29.586  1.00  0.00     0.148 A 
ATOM     79  C   UNL A   1      35.923  31.467  32.170  1.00  0.00     0.002 A 
ATOM     80  C   UNL A   1      35.528  32.498  30.013  1.00  0.00     0.091 A 
ATOM     81  F   UNL A   1      37.239  32.407  28.352  1.00  0.00    -0.205 F 
ATOM     82  C   UNL A   1      35.082  32.155  31.299  1.00  0.00     0.022 A 
BRANCH  80  83
ATOM     83  S   UNL A   1      34.434  33.508  29.007  1.00  0.00     0.127 S 
ATOM     84  O   UNL A   1      35.295  34.637  28.669  1.00  0.00    -0.237 OA
ATOM     85  O   UNL A   1      34.130  32.608  27.894  1.00  0.00    -0.237 OA
ATOM     86  O   UNL A   1      33.290  33.813  29.858  1.00  0.00    -0.744 OA
ENDBRANCH  80  83
ENDBRANCH  52  76
BRANCH  64  87
ATOM     87  C   UNL A   1      43.638  35.076  30.304  1.00  0.00     0.023 A 
ATOM     88  C   UNL A   1      44.102  35.397  31.596  1.00  0.00     0.012 A 
ATOM     89  C   UNL A   1      43.548  36.092  29.333  1.00  0.00     0.148 A 
ATOM     90  C   UNL A   1      44.434  36.710  31.926  1.00  0.00     0.002 A 
ATOM     91  C   UNL A   1      43.925  37.391  29.655  1.00  0.00     0.091 A 
ATOM     92  F   UNL A   1      43.082  35.777  28.115  1.00  0.00    -0.205 F 
ATOM     93  C   UNL A   1      44.356  37.704  30.954  1.00  0.00     0.022 A 
BRANCH  91  94
ATOM     94  S   UNL A   1      43.942  38.711  28.436  1.00  0.00     0.127 S 
ATOM     95  O   UNL A   1      42.526  38.825  28.098  1.00  0.00    -0.237 OA
ATOM     96  O   UNL A   1      44.480  39.838  29.198  1.00  0.00    -0.237 OA
ATOM     97  O   UNL A   1      44.812  38.244  27.362  1.00  0.00    -0.744 OA
ENDBRANCH  91  94
ENDBRANCH  64  87
ENDBRANCH  38  39
ENDBRANCH  30  33
ENDBRANCH  28  29
ENDBRANCH  27  28
ENDBRANCH  26  27
ENDBRANCH  25  26
ENDBRANCH   1  25
TORSDOF 22
ENDMDL
