MODEL 1
REMARK VINA RESULT:     -11.8      0.000      0.000
REMARK SMILES CC(C)CCc1cc2c(cc1Cl)C=C(C(=O)NCCCCCCNC(=O)c1ccc(-c3c4nc(c(-c5cccc(S(=O)(=O)[O-])c5F)c5ccc([nH]5)c(-c5cccc(S(=O)(=O)[O-])c5F)c5nc(c(-c6cccc(S(=O)(=O)[O-])c6F)c6ccc3[nH]6)C=C5)C=C4)cc1)[C@H](C(F)(F)F)O2
REMARK SMILES IDX 20 1 19 2 18 3 17 4 15 5 16 6 14 8 6 9 7 10 11 11 8 12 10 13
REMARK SMILES IDX 12 14 9 15 95 16 13 17 90 18 5 19 4 20 2 21 1 22 3 23 91 24
REMARK SMILES IDX 92 25 93 26 94 27 21 28 22 29 23 30 24 31 25 32 26 34 27 35
REMARK SMILES IDX 28 36 89 37 29 38 88 39 30 40 31 41 32 42 82 43 33 44 87 45
REMARK SMILES IDX 81 46 83 47 34 48 86 49 80 50 79 51 35 53 67 54 47 55 66 56
REMARK SMILES IDX 48 57 51 58 65 59 84 60 49 61 50 62 64 64 85 65 52 66 36 67
REMARK SMILES IDX 37 68 45 69 38 70 40 71 46 72 39 73 41 74 42 75 43 76 44 77
REMARK SMILES IDX 68 78 69 79 77 80 70 81 72 82 78 83 71 84 73 85 74 86 75 87
REMARK SMILES IDX 76 88 53 89 54 90 62 91 55 92 57 93 63 94 56 95 58 96 59 97
REMARK SMILES IDX 60 98 61 99
REMARK H PARENT 17 7 24 33 83 52 51 63
REMARK Flexibility Score: inf
ROOT
ATOM      1  C   UNL A   1      36.044  21.613  24.554  1.00  0.00     0.002 C 
ENDROOT
BRANCH   1   2
ATOM      2  C   UNL A   1      36.650  23.016  24.643  1.00  0.00     0.021 C 
BRANCH   2   3
ATOM      3  C   UNL A   1      36.530  23.672  26.016  1.00  0.00     0.116 C 
BRANCH   3   4
ATOM      4  N   UNL A   1      35.482  23.065  26.815  1.00  0.00    -0.352 N 
ATOM      5  C   UNL A   1      34.135  23.142  26.899  1.00  0.00     0.251 C 
ATOM      6  O   UNL A   1      33.628  22.442  27.783  1.00  0.00    -0.270 OA
ATOM      7  H   UNL A   1      35.849  22.429  27.469  1.00  0.00     0.163 HD
BRANCH   5   8
ATOM      8  C   UNL A   1      33.257  23.978  26.032  1.00  0.00     0.067 C 
ATOM      9  C   UNL A   1      31.300  27.761  23.325  1.00  0.00    -0.026 A 
ATOM     10  C   UNL A   1      30.763  26.606  23.923  1.00  0.00     0.052 A 
ATOM     11  C   UNL A   1      32.671  28.019  23.512  1.00  0.00     0.045 A 
ATOM     12  C   UNL A   1      31.570  25.757  24.679  1.00  0.00     0.128 A 
ATOM     13  C   UNL A   1      33.443  27.226  24.365  1.00  0.00     0.032 A 
ATOM     14  Cl  UNL A   1      33.526  29.245  22.646  1.00  0.00    -0.084 Cl
ATOM     15  C   UNL A   1      32.894  26.092  24.951  1.00  0.00     0.019 A 
ATOM     16  O   UNL A   1      31.020  24.590  25.130  1.00  0.00    -0.475 OA
ATOM     17  C   UNL A   1      33.681  25.238  25.827  1.00  0.00     0.025 C 
ATOM     18  C   UNL A   1      31.987  23.519  25.365  1.00  0.00     0.314 C 
BRANCH   9  19
ATOM     19  C   UNL A   1      30.378  28.632  22.498  1.00  0.00     0.037 C 
BRANCH  19  20
ATOM     20  C   UNL A   1      29.676  29.757  23.285  1.00  0.00     0.008 C 
BRANCH  20  21
ATOM     21  C   UNL A   1      28.227  30.073  22.867  1.00  0.00    -0.017 C 
ATOM     22  C   UNL A   1      27.635  31.248  23.650  1.00  0.00     0.007 C 
ATOM     23  C   UNL A   1      28.146  30.384  21.370  1.00  0.00     0.007 C 
ENDBRANCH  20  21
ENDBRANCH  19  20
ENDBRANCH   9  19
BRANCH  18  24
ATOM     24  C   UNL A   1      32.267  22.732  24.063  1.00  0.00     0.429 C 
ATOM     25  F   UNL A   1      32.415  21.404  24.290  1.00  0.00    -0.167 F 
ATOM     26  F   UNL A   1      31.235  22.860  23.194  1.00  0.00    -0.167 F 
ATOM     27  F   UNL A   1      33.387  23.140  23.427  1.00  0.00    -0.167 F 
ENDBRANCH  18  24
ENDBRANCH   5   8
ENDBRANCH   3   4
ENDBRANCH   2   3
ENDBRANCH   1   2
BRANCH   1  28
ATOM     28  C   UNL A   1      36.849  20.499  25.230  1.00  0.00     0.002 C 
BRANCH  28  29
ATOM     29  C   UNL A   1      38.326  20.420  24.838  1.00  0.00     0.021 C 
BRANCH  29  30
ATOM     30  C   UNL A   1      39.302  20.475  26.005  1.00  0.00     0.116 C 
BRANCH  30  31
ATOM     31  N   UNL A   1      40.270  19.391  25.966  1.00  0.00    -0.352 N 
ATOM     32  C   UNL A   1      41.645  19.455  26.026  1.00  0.00     0.251 C 
ATOM     33  H   UNL A   1      39.889  18.487  25.885  1.00  0.00     0.163 HD
ATOM     34  O   UNL A   1      42.317  18.464  25.799  1.00  0.00    -0.269 OA
BRANCH  32  35
ATOM     35  C   UNL A   1      42.286  20.751  26.338  1.00  0.00     0.039 A 
ATOM     36  C   UNL A   1      42.529  21.117  27.664  1.00  0.00     0.014 A 
ATOM     37  C   UNL A   1      42.610  21.622  25.294  1.00  0.00     0.014 A 
ATOM     38  C   UNL A   1      42.943  22.411  27.955  1.00  0.00     0.010 A 
ATOM     39  C   UNL A   1      43.105  22.895  25.588  1.00  0.00     0.010 A 
ATOM     40  C   UNL A   1      43.230  23.318  26.920  1.00  0.00    -0.014 A 
BRANCH  40  41
ATOM     41  C   UNL A   1      43.669  24.696  27.259  1.00  0.00     0.031 A 
ATOM     42  C   UNL A   1      45.096  25.128  27.052  1.00  0.00     0.074 A 
ATOM     43  C   UNL A   1      42.760  25.575  27.723  1.00  0.00     0.049 A 
ATOM     44  N   UNL A   1      45.639  26.297  27.277  1.00  0.00    -0.248 NA
ATOM     45  C   UNL A   1      46.039  24.124  26.527  1.00  0.00     0.031 C 
ATOM     46  C   UNL A   1      41.352  25.270  27.983  1.00  0.00     0.029 A 
ATOM     47  N   UNL A   1      42.878  26.902  28.046  1.00  0.00    -0.354 N 
ATOM     48  C   UNL A   1      46.986  26.161  26.965  1.00  0.00     0.074 A 
ATOM     49  C   UNL A   1      47.184  24.794  26.534  1.00  0.00     0.031 C 
ATOM     50  C   UNL A   1      40.727  26.386  28.384  1.00  0.00     0.029 A 
ATOM     51  C   UNL A   1      41.697  27.473  28.460  1.00  0.00     0.049 A 
ATOM     52  H   UNL A   1      43.726  27.400  27.988  1.00  0.00     0.167 HD
ATOM     53  C   UNL A   1      47.964  27.095  27.012  1.00  0.00     0.034 A 
ATOM     54  C   UNL A   1      41.421  28.728  28.864  1.00  0.00     0.034 A 
ATOM     55  C   UNL A   1      47.756  28.468  27.386  1.00  0.00     0.049 A 
ATOM     56  C   UNL A   1      42.521  29.747  28.892  1.00  0.00     0.074 A 
ATOM     57  C   UNL A   1      48.681  29.496  27.417  1.00  0.00     0.029 A 
ATOM     58  N   UNL A   1      46.544  29.006  27.789  1.00  0.00    -0.354 N 
ATOM     59  N   UNL A   1      43.771  29.615  28.523  1.00  0.00    -0.248 NA
ATOM     60  C   UNL A   1      42.173  31.089  29.380  1.00  0.00     0.031 C 
ATOM     61  C   UNL A   1      48.028  30.658  27.840  1.00  0.00     0.029 A 
ATOM     62  C   UNL A   1      46.696  30.351  28.069  1.00  0.00     0.049 A 
ATOM     63  H   UNL A   1      45.700  28.504  27.862  1.00  0.00     0.167 HD
ATOM     64  C   UNL A   1      44.359  30.856  28.724  1.00  0.00     0.074 A 
ATOM     65  C   UNL A   1      43.323  31.735  29.229  1.00  0.00     0.031 C 
ATOM     66  C   UNL A   1      45.647  31.225  28.527  1.00  0.00     0.034 A 
BRANCH  53  67
ATOM     67  C   UNL A   1      49.351  26.690  26.597  1.00  0.00     0.023 A 
ATOM     68  C   UNL A   1      50.069  25.779  27.397  1.00  0.00     0.012 A 
ATOM     69  C   UNL A   1      49.899  27.126  25.374  1.00  0.00     0.148 A 
ATOM     70  C   UNL A   1      51.319  25.314  26.990  1.00  0.00     0.002 A 
ATOM     71  C   UNL A   1      51.133  26.636  24.963  1.00  0.00     0.091 A 
ATOM     72  F   UNL A   1      49.201  28.002  24.638  1.00  0.00    -0.205 F 
ATOM     73  C   UNL A   1      51.845  25.733  25.771  1.00  0.00     0.022 A 
BRANCH  71  74
ATOM     74  S   UNL A   1      51.877  27.068  23.386  1.00  0.00     0.127 S 
ATOM     75  O   UNL A   1      52.000  28.521  23.509  1.00  0.00    -0.237 OA
ATOM     76  O   UNL A   1      53.146  26.343  23.436  1.00  0.00    -0.237 OA
ATOM     77  O   UNL A   1      50.950  26.608  22.362  1.00  0.00    -0.744 OA
ENDBRANCH  71  74
ENDBRANCH  53  67
BRANCH  54  78
ATOM     78  C   UNL A   1      40.022  29.079  29.221  1.00  0.00     0.023 A 
ATOM     79  C   UNL A   1      39.068  29.227  28.198  1.00  0.00     0.012 A 
ATOM     80  C   UNL A   1      39.615  29.164  30.567  1.00  0.00     0.148 A 
ATOM     81  C   UNL A   1      37.727  29.454  28.509  1.00  0.00     0.002 A 
ATOM     82  C   UNL A   1      38.272  29.347  30.870  1.00  0.00     0.091 A 
ATOM     83  F   UNL A   1      40.547  29.022  31.520  1.00  0.00    -0.205 F 
ATOM     84  C   UNL A   1      37.327  29.501  29.843  1.00  0.00     0.022 A 
BRANCH  82  85
ATOM     85  S   UNL A   1      37.644  29.301  32.552  1.00  0.00     0.127 S 
ATOM     86  O   UNL A   1      38.580  30.183  33.244  1.00  0.00    -0.237 OA
ATOM     87  O   UNL A   1      36.296  29.846  32.381  1.00  0.00    -0.237 OA
ATOM     88  O   UNL A   1      37.686  27.903  32.955  1.00  0.00    -0.744 OA
ENDBRANCH  82  85
ENDBRANCH  54  78
BRANCH  66  89
ATOM     89  C   UNL A   1      46.032  32.641  28.849  1.00  0.00     0.023 A 
ATOM     90  C   UNL A   1      46.662  32.918  30.078  1.00  0.00     0.012 A 
ATOM     91  C   UNL A   1      45.886  33.663  27.892  1.00  0.00     0.148 A 
ATOM     92  C   UNL A   1      47.139  34.199  30.351  1.00  0.00     0.002 A 
ATOM     93  C   UNL A   1      46.393  34.929  28.159  1.00  0.00     0.091 A 
ATOM     94  F   UNL A   1      45.273  33.371  26.736  1.00  0.00    -0.205 F 
ATOM     95  C   UNL A   1      47.016  35.198  29.389  1.00  0.00     0.022 A 
BRANCH  93  96
ATOM     96  S   UNL A   1      46.350  36.262  26.956  1.00  0.00     0.127 S 
ATOM     97  O   UNL A   1      47.020  37.339  27.684  1.00  0.00    -0.237 OA
ATOM     98  O   UNL A   1      47.121  35.701  25.847  1.00  0.00    -0.237 OA
ATOM     99  O   UNL A   1      44.943  36.496  26.662  1.00  0.00    -0.744 OA
ENDBRANCH  93  96
ENDBRANCH  66  89
ENDBRANCH  40  41
ENDBRANCH  32  35
ENDBRANCH  30  31
ENDBRANCH  29  30
ENDBRANCH  28  29
ENDBRANCH   1  28
TORSDOF 20
ENDMDL
MODEL 2
REMARK VINA RESULT:     -11.6      1.684      7.368
REMARK SMILES CC(C)CCc1cc2c(cc1Cl)C=C(C(=O)NCCCCCCNC(=O)c1ccc(-c3c4nc(c(-c5cccc(S(=O)(=O)[O-])c5F)c5ccc([nH]5)c(-c5cccc(S(=O)(=O)[O-])c5F)c5nc(c(-c6cccc(S(=O)(=O)[O-])c6F)c6ccc3[nH]6)C=C5)C=C4)cc1)[C@H](C(F)(F)F)O2
REMARK SMILES IDX 20 1 19 2 18 3 17 4 15 5 16 6 14 8 6 9 7 10 11 11 8 12 10 13
REMARK SMILES IDX 12 14 9 15 95 16 13 17 90 18 5 19 4 20 2 21 1 22 3 23 91 24
REMARK SMILES IDX 92 25 93 26 94 27 21 28 22 29 23 30 24 31 25 32 26 34 27 35
REMARK SMILES IDX 28 36 89 37 29 38 88 39 30 40 31 41 32 42 82 43 33 44 87 45
REMARK SMILES IDX 81 46 83 47 34 48 86 49 80 50 79 51 35 53 67 54 47 55 66 56
REMARK SMILES IDX 48 57 51 58 65 59 84 60 49 61 50 62 64 64 85 65 52 66 36 67
REMARK SMILES IDX 37 68 45 69 38 70 40 71 46 72 39 73 41 74 42 75 43 76 44 77
REMARK SMILES IDX 68 78 69 79 77 80 70 81 72 82 78 83 71 84 73 85 74 86 75 87
REMARK SMILES IDX 76 88 53 89 54 90 62 91 55 92 57 93 63 94 56 95 58 96 59 97
REMARK SMILES IDX 60 98 61 99
REMARK H PARENT 17 7 24 33 83 52 51 63
REMARK Flexibility Score: inf
ROOT
ATOM      1  C   UNL A   1      36.753  21.964  24.416  1.00  0.00     0.002 C 
ENDROOT
BRANCH   1   2
ATOM      2  C   UNL A   1      37.291  23.122  25.260  1.00  0.00     0.021 C 
BRANCH   2   3
ATOM      3  C   UNL A   1      36.215  24.030  25.849  1.00  0.00     0.116 C 
BRANCH   3   4
ATOM      4  N   UNL A   1      35.256  23.286  26.644  1.00  0.00    -0.352 N 
ATOM      5  C   UNL A   1      33.912  23.159  26.707  1.00  0.00     0.251 C 
ATOM      6  O   UNL A   1      33.501  22.406  27.597  1.00  0.00    -0.270 OA
ATOM      7  H   UNL A   1      35.704  22.724  27.316  1.00  0.00     0.163 HD
BRANCH   5   8
ATOM      8  C   UNL A   1      32.933  23.838  25.811  1.00  0.00     0.067 C 
ATOM      9  C   UNL A   1      29.855  27.209  23.660  1.00  0.00    -0.026 A 
ATOM     10  C   UNL A   1      29.935  25.803  23.639  1.00  0.00     0.052 A 
ATOM     11  C   UNL A   1      30.769  27.906  24.472  1.00  0.00     0.045 A 
ATOM     12  C   UNL A   1      30.889  25.136  24.405  1.00  0.00     0.128 A 
ATOM     13  C   UNL A   1      31.642  27.223  25.323  1.00  0.00     0.032 A 
ATOM     14  Cl  UNL A   1      30.963  29.621  24.415  1.00  0.00    -0.084 Cl
ATOM     15  C   UNL A   1      31.704  25.835  25.291  1.00  0.00     0.019 A 
ATOM     16  O   UNL A   1      30.997  23.782  24.249  1.00  0.00    -0.475 OA
ATOM     17  C   UNL A   1      32.617  25.100  26.153  1.00  0.00     0.025 C 
ATOM     18  C   UNL A   1      32.317  23.242  24.572  1.00  0.00     0.314 C 
BRANCH   9  19
ATOM     19  C   UNL A   1      28.813  27.878  22.789  1.00  0.00     0.037 C 
BRANCH  19  20
ATOM     20  C   UNL A   1      27.874  28.847  23.536  1.00  0.00     0.008 C 
BRANCH  20  21
ATOM     21  C   UNL A   1      27.536  30.161  22.803  1.00  0.00    -0.017 C 
ATOM     22  C   UNL A   1      27.613  31.381  23.724  1.00  0.00     0.007 C 
ATOM     23  C   UNL A   1      28.474  30.378  21.613  1.00  0.00     0.007 C 
ENDBRANCH  20  21
ENDBRANCH  19  20
ENDBRANCH   9  19
BRANCH  18  24
ATOM     24  C   UNL A   1      33.264  23.329  23.353  1.00  0.00     0.429 C 
ATOM     25  F   UNL A   1      33.960  22.182  23.162  1.00  0.00    -0.167 F 
ATOM     26  F   UNL A   1      32.562  23.545  22.214  1.00  0.00    -0.167 F 
ATOM     27  F   UNL A   1      34.178  24.319  23.460  1.00  0.00    -0.167 F 
ENDBRANCH  18  24
ENDBRANCH   5   8
ENDBRANCH   3   4
ENDBRANCH   2   3
ENDBRANCH   1   2
BRANCH   1  28
ATOM     28  C   UNL A   1      36.751  20.592  25.098  1.00  0.00     0.002 C 
BRANCH  28  29
ATOM     29  C   UNL A   1      38.031  19.771  24.933  1.00  0.00     0.021 C 
BRANCH  29  30
ATOM     30  C   UNL A   1      39.217  20.261  25.753  1.00  0.00     0.116 C 
BRANCH  30  31
ATOM     31  N   UNL A   1      40.226  19.232  25.933  1.00  0.00    -0.352 N 
ATOM     32  C   UNL A   1      41.581  19.374  26.142  1.00  0.00     0.251 C 
ATOM     33  H   UNL A   1      39.896  18.305  25.901  1.00  0.00     0.163 HD
ATOM     34  O   UNL A   1      42.316  18.403  26.094  1.00  0.00    -0.269 OA
BRANCH  32  35
ATOM     35  C   UNL A   1      42.126  20.726  26.393  1.00  0.00     0.039 A 
ATOM     36  C   UNL A   1      42.295  21.187  27.700  1.00  0.00     0.014 A 
ATOM     37  C   UNL A   1      42.433  21.551  25.308  1.00  0.00     0.014 A 
ATOM     38  C   UNL A   1      42.615  22.521  27.922  1.00  0.00     0.010 A 
ATOM     39  C   UNL A   1      42.834  22.870  25.536  1.00  0.00     0.010 A 
ATOM     40  C   UNL A   1      42.883  23.380  26.842  1.00  0.00    -0.014 A 
BRANCH  40  41
ATOM     41  C   UNL A   1      43.220  24.802  27.108  1.00  0.00     0.031 A 
ATOM     42  C   UNL A   1      42.226  25.726  27.758  1.00  0.00     0.074 A 
ATOM     43  C   UNL A   1      44.450  25.251  26.793  1.00  0.00     0.049 A 
ATOM     44  N   UNL A   1      42.366  26.987  28.078  1.00  0.00    -0.248 NA
ATOM     45  C   UNL A   1      40.903  25.170  28.093  1.00  0.00     0.031 C 
ATOM     46  C   UNL A   1      45.495  24.457  26.143  1.00  0.00     0.029 A 
ATOM     47  N   UNL A   1      45.036  26.476  26.986  1.00  0.00    -0.354 N 
ATOM     48  C   UNL A   1      41.146  27.386  28.608  1.00  0.00     0.074 A 
ATOM     49  C   UNL A   1      40.271  26.236  28.569  1.00  0.00     0.031 C 
ATOM     50  C   UNL A   1      46.605  25.199  26.030  1.00  0.00     0.029 A 
ATOM     51  C   UNL A   1      46.339  26.535  26.551  1.00  0.00     0.049 A 
ATOM     52  H   UNL A   1      44.570  27.239  27.397  1.00  0.00     0.167 HD
ATOM     53  C   UNL A   1      40.794  28.596  29.103  1.00  0.00     0.034 A 
ATOM     54  C   UNL A   1      47.223  27.551  26.559  1.00  0.00     0.034 A 
ATOM     55  C   UNL A   1      41.681  29.723  29.194  1.00  0.00     0.049 A 
ATOM     56  C   UNL A   1      46.811  28.877  27.127  1.00  0.00     0.074 A 
ATOM     57  C   UNL A   1      41.423  30.975  29.726  1.00  0.00     0.029 A 
ATOM     58  N   UNL A   1      42.994  29.738  28.751  1.00  0.00    -0.354 N 
ATOM     59  N   UNL A   1      45.676  29.210  27.689  1.00  0.00    -0.248 NA
ATOM     60  C   UNL A   1      47.801  29.962  27.073  1.00  0.00     0.031 C 
ATOM     61  C   UNL A   1      42.581  31.749  29.602  1.00  0.00     0.029 A 
ATOM     62  C   UNL A   1      43.560  30.976  28.997  1.00  0.00     0.049 A 
ATOM     63  H   UNL A   1      43.454  28.980  28.325  1.00  0.00     0.167 HD
ATOM     64  C   UNL A   1      45.815  30.539  28.066  1.00  0.00     0.074 A 
ATOM     65  C   UNL A   1      47.154  30.945  27.686  1.00  0.00     0.031 C 
ATOM     66  C   UNL A   1      44.906  31.353  28.654  1.00  0.00     0.034 A 
BRANCH  53  67
ATOM     67  C   UNL A   1      39.400  28.762  29.642  1.00  0.00     0.023 A 
ATOM     68  C   UNL A   1      39.123  28.366  30.965  1.00  0.00     0.012 A 
ATOM     69  C   UNL A   1      38.399  29.400  28.882  1.00  0.00     0.148 A 
ATOM     70  C   UNL A   1      37.866  28.593  31.523  1.00  0.00     0.002 A 
ATOM     71  C   UNL A   1      37.157  29.647  29.455  1.00  0.00     0.091 A 
ATOM     72  F   UNL A   1      38.684  29.755  27.621  1.00  0.00    -0.205 F 
ATOM     73  C   UNL A   1      36.888  29.241  30.773  1.00  0.00     0.022 A 
BRANCH  71  74
ATOM     74  S   UNL A   1      35.845  30.523  28.596  1.00  0.00     0.127 S 
ATOM     75  O   UNL A   1      36.609  31.400  27.710  1.00  0.00    -0.237 OA
ATOM     76  O   UNL A   1      35.141  29.434  27.918  1.00  0.00    -0.237 OA
ATOM     77  O   UNL A   1      35.072  31.203  29.626  1.00  0.00    -0.744 OA
ENDBRANCH  71  74
ENDBRANCH  53  67
BRANCH  54  78
ATOM     78  C   UNL A   1      48.600  27.314  26.050  1.00  0.00     0.023 A 
ATOM     79  C   UNL A   1      48.844  27.390  24.667  1.00  0.00     0.012 A 
ATOM     80  C   UNL A   1      49.678  27.117  26.935  1.00  0.00     0.148 A 
ATOM     81  C   UNL A   1      50.142  27.275  24.171  1.00  0.00     0.002 A 
ATOM     82  C   UNL A   1      50.972  27.047  26.439  1.00  0.00     0.091 A 
ATOM     83  F   UNL A   1      49.413  27.046  28.248  1.00  0.00    -0.205 F 
ATOM     84  C   UNL A   1      51.207  27.117  25.056  1.00  0.00     0.022 A 
BRANCH  82  85
ATOM     85  S   UNL A   1      52.416  26.965  27.504  1.00  0.00     0.127 S 
ATOM     86  O   UNL A   1      52.196  25.703  28.207  1.00  0.00    -0.237 OA
ATOM     87  O   UNL A   1      53.505  26.944  26.528  1.00  0.00    -0.237 OA
ATOM     88  O   UNL A   1      52.368  28.161  28.333  1.00  0.00    -0.744 OA
ENDBRANCH  82  85
ENDBRANCH  54  78
BRANCH  66  89
ATOM     89  C   UNL A   1      45.310  32.772  28.937  1.00  0.00     0.023 A 
ATOM     90  C   UNL A   1      46.021  33.060  30.118  1.00  0.00     0.012 A 
ATOM     91  C   UNL A   1      45.099  33.785  27.983  1.00  0.00     0.148 A 
ATOM     92  C   UNL A   1      46.514  34.344  30.347  1.00  0.00     0.002 A 
ATOM     93  C   UNL A   1      45.621  35.054  28.204  1.00  0.00     0.091 A 
ATOM     94  F   UNL A   1      44.410  33.483  26.874  1.00  0.00    -0.205 F 
ATOM     95  C   UNL A   1      46.325  35.335  29.387  1.00  0.00     0.022 A 
BRANCH  93  96
ATOM     96  S   UNL A   1      45.496  36.376  26.995  1.00  0.00     0.127 S 
ATOM     97  O   UNL A   1      46.216  37.459  27.665  1.00  0.00    -0.237 OA
ATOM     98  O   UNL A   1      46.188  35.805  25.840  1.00  0.00    -0.237 OA
ATOM     99  O   UNL A   1      44.072  36.610  26.797  1.00  0.00    -0.744 OA
ENDBRANCH  93  96
ENDBRANCH  66  89
ENDBRANCH  40  41
ENDBRANCH  32  35
ENDBRANCH  30  31
ENDBRANCH  29  30
ENDBRANCH  28  29
ENDBRANCH   1  28
TORSDOF 20
ENDMDL
MODEL 3
REMARK VINA RESULT:     -11.5      1.994      2.396
REMARK SMILES CC(C)CCc1cc2c(cc1Cl)C=C(C(=O)NCCCCCCNC(=O)c1ccc(-c3c4nc(c(-c5cccc(S(=O)(=O)[O-])c5F)c5ccc([nH]5)c(-c5cccc(S(=O)(=O)[O-])c5F)c5nc(c(-c6cccc(S(=O)(=O)[O-])c6F)c6ccc3[nH]6)C=C5)C=C4)cc1)[C@H](C(F)(F)F)O2
REMARK SMILES IDX 20 1 19 2 18 3 17 4 15 5 16 6 14 8 6 9 7 10 11 11 8 12 10 13
REMARK SMILES IDX 12 14 9 15 95 16 13 17 90 18 5 19 4 20 2 21 1 22 3 23 91 24
REMARK SMILES IDX 92 25 93 26 94 27 21 28 22 29 23 30 24 31 25 32 26 34 27 35
REMARK SMILES IDX 28 36 89 37 29 38 88 39 30 40 31 41 32 42 82 43 33 44 87 45
REMARK SMILES IDX 81 46 83 47 34 48 86 49 80 50 79 51 35 53 67 54 47 55 66 56
REMARK SMILES IDX 48 57 51 58 65 59 84 60 49 61 50 62 64 64 85 65 52 66 36 67
REMARK SMILES IDX 37 68 45 69 38 70 40 71 46 72 39 73 41 74 42 75 43 76 44 77
REMARK SMILES IDX 68 78 69 79 77 80 70 81 72 82 78 83 71 84 73 85 74 86 75 87
REMARK SMILES IDX 76 88 53 89 54 90 62 91 55 92 57 93 63 94 56 95 58 96 59 97
REMARK SMILES IDX 60 98 61 99
REMARK H PARENT 17 7 24 33 83 52 51 63
REMARK Flexibility Score: inf
ROOT
ATOM      1  C   UNL A   1      37.516  21.337  24.957  1.00  0.00     0.002 C 
ENDROOT
BRANCH   1   2
ATOM      2  C   UNL A   1      36.155  22.036  24.999  1.00  0.00     0.021 C 
BRANCH   2   3
ATOM      3  C   UNL A   1      35.997  23.048  26.130  1.00  0.00     0.116 C 
BRANCH   3   4
ATOM      4  N   UNL A   1      34.920  22.686  27.032  1.00  0.00    -0.352 N 
ATOM      5  C   UNL A   1      33.596  22.938  27.141  1.00  0.00     0.251 C 
ATOM      6  O   UNL A   1      33.048  22.429  28.125  1.00  0.00    -0.270 OA
ATOM      7  H   UNL A   1      35.237  22.102  27.757  1.00  0.00     0.163 HD
BRANCH   5   8
ATOM      8  C   UNL A   1      32.787  23.754  26.191  1.00  0.00     0.067 C 
ATOM      9  C   UNL A   1      30.969  27.513  23.356  1.00  0.00    -0.026 A 
ATOM     10  C   UNL A   1      30.429  26.310  23.852  1.00  0.00     0.052 A 
ATOM     11  C   UNL A   1      32.288  27.838  23.722  1.00  0.00     0.045 A 
ATOM     12  C   UNL A   1      31.183  25.483  24.681  1.00  0.00     0.128 A 
ATOM     13  C   UNL A   1      32.992  27.060  24.646  1.00  0.00     0.032 A 
ATOM     14  Cl  UNL A   1      33.173  29.136  23.004  1.00  0.00    -0.084 Cl
ATOM     15  C   UNL A   1      32.440  25.880  25.127  1.00  0.00     0.019 A 
ATOM     16  O   UNL A   1      30.649  24.273  25.029  1.00  0.00    -0.475 OA
ATOM     17  C   UNL A   1      33.159  25.041  26.075  1.00  0.00     0.025 C 
ATOM     18  C   UNL A   1      31.639  23.249  25.356  1.00  0.00     0.314 C 
BRANCH   9  19
ATOM     19  C   UNL A   1      30.109  28.358  22.442  1.00  0.00     0.037 C 
BRANCH  19  20
ATOM     20  C   UNL A   1      29.556  29.646  23.086  1.00  0.00     0.008 C 
BRANCH  20  21
ATOM     21  C   UNL A   1      28.064  29.942  22.836  1.00  0.00    -0.017 C 
ATOM     22  C   UNL A   1      27.167  28.747  23.169  1.00  0.00     0.007 C 
ATOM     23  C   UNL A   1      27.603  31.151  23.654  1.00  0.00     0.007 C 
ENDBRANCH  20  21
ENDBRANCH  19  20
ENDBRANCH   9  19
BRANCH  18  24
ATOM     24  C   UNL A   1      32.125  22.522  24.081  1.00  0.00     0.429 C 
ATOM     25  F   UNL A   1      33.329  22.979  23.658  1.00  0.00    -0.167 F 
ATOM     26  F   UNL A   1      32.281  21.195  24.315  1.00  0.00    -0.167 F 
ATOM     27  F   UNL A   1      31.276  22.653  23.038  1.00  0.00    -0.167 F 
ENDBRANCH  18  24
ENDBRANCH   5   8
ENDBRANCH   3   4
ENDBRANCH   2   3
ENDBRANCH   1   2
BRANCH   1  28
ATOM     28  C   UNL A   1      37.482  19.840  24.634  1.00  0.00     0.002 C 
BRANCH  28  29
ATOM     29  C   UNL A   1      38.512  18.982  25.371  1.00  0.00     0.021 C 
BRANCH  29  30
ATOM     30  C   UNL A   1      39.582  19.767  26.118  1.00  0.00     0.116 C 
BRANCH  30  31
ATOM     31  N   UNL A   1      40.883  19.122  26.057  1.00  0.00    -0.352 N 
ATOM     32  C   UNL A   1      42.135  19.687  26.164  1.00  0.00     0.251 C 
ATOM     33  H   UNL A   1      40.867  18.148  25.919  1.00  0.00     0.163 HD
ATOM     34  O   UNL A   1      43.130  19.029  25.911  1.00  0.00    -0.269 OA
BRANCH  32  35
ATOM     35  C   UNL A   1      42.246  21.108  26.560  1.00  0.00     0.039 A 
ATOM     36  C   UNL A   1      42.278  22.111  25.588  1.00  0.00     0.014 A 
ATOM     37  C   UNL A   1      42.359  21.433  27.914  1.00  0.00     0.014 A 
ATOM     38  C   UNL A   1      42.583  23.416  25.957  1.00  0.00     0.010 A 
ATOM     39  C   UNL A   1      42.584  22.760  28.288  1.00  0.00     0.010 A 
ATOM     40  C   UNL A   1      42.745  23.755  27.311  1.00  0.00    -0.014 A 
BRANCH  40  41
ATOM     41  C   UNL A   1      43.073  25.157  27.677  1.00  0.00     0.031 A 
ATOM     42  C   UNL A   1      44.457  25.709  27.466  1.00  0.00     0.074 A 
ATOM     43  C   UNL A   1      42.100  25.947  28.170  1.00  0.00     0.049 A 
ATOM     44  N   UNL A   1      44.905  26.914  27.712  1.00  0.00    -0.248 NA
ATOM     45  C   UNL A   1      45.473  24.798  26.909  1.00  0.00     0.031 C 
ATOM     46  C   UNL A   1      40.725  25.522  28.436  1.00  0.00     0.029 A 
ATOM     47  N   UNL A   1      42.112  27.273  28.522  1.00  0.00    -0.354 N 
ATOM     48  C   UNL A   1      46.254  26.896  27.383  1.00  0.00     0.074 A 
ATOM     49  C   UNL A   1      46.559  25.560  26.920  1.00  0.00     0.031 C 
ATOM     50  C   UNL A   1      40.015  26.573  28.868  1.00  0.00     0.029 A 
ATOM     51  C   UNL A   1      40.893  27.735  28.959  1.00  0.00     0.049 A 
ATOM     52  H   UNL A   1      42.915  27.839  28.466  1.00  0.00     0.167 HD
ATOM     53  C   UNL A   1      47.153  27.906  27.443  1.00  0.00     0.034 A 
ATOM     54  C   UNL A   1      40.520  28.953  29.394  1.00  0.00     0.034 A 
ATOM     55  C   UNL A   1      46.837  29.249  27.850  1.00  0.00     0.049 A 
ATOM     56  C   UNL A   1      41.532  30.059  29.435  1.00  0.00     0.074 A 
ATOM     57  C   UNL A   1      47.675  30.349  27.895  1.00  0.00     0.029 A 
ATOM     58  N   UNL A   1      45.589  29.676  28.276  1.00  0.00    -0.354 N 
ATOM     59  N   UNL A   1      42.784  30.038  29.051  1.00  0.00    -0.248 NA
ATOM     60  C   UNL A   1      41.081  31.357  29.957  1.00  0.00     0.031 C 
ATOM     61  C   UNL A   1      46.933  31.444  28.351  1.00  0.00     0.029 A 
ATOM     62  C   UNL A   1      45.633  31.023  28.585  1.00  0.00     0.049 A 
ATOM     63  H   UNL A   1      44.791  29.105  28.347  1.00  0.00     0.167 HD
ATOM     64  C   UNL A   1      43.271  31.319  29.275  1.00  0.00     0.074 A 
ATOM     65  C   UNL A   1      42.172  32.099  29.809  1.00  0.00     0.031 C 
ATOM     66  C   UNL A   1      44.522  31.797  29.074  1.00  0.00     0.034 A 
BRANCH  53  67
ATOM     67  C   UNL A   1      48.564  27.626  27.005  1.00  0.00     0.023 A 
ATOM     68  C   UNL A   1      49.489  27.130  27.944  1.00  0.00     0.012 A 
ATOM     69  C   UNL A   1      48.943  27.754  25.654  1.00  0.00     0.148 A 
ATOM     70  C   UNL A   1      50.777  26.774  27.548  1.00  0.00     0.002 A 
ATOM     71  C   UNL A   1      50.221  27.370  25.262  1.00  0.00     0.091 A 
ATOM     72  F   UNL A   1      48.048  28.240  24.782  1.00  0.00    -0.205 F 
ATOM     73  C   UNL A   1      51.139  26.884  26.208  1.00  0.00     0.022 A 
BRANCH  71  74
ATOM     74  S   UNL A   1      50.771  27.420  23.553  1.00  0.00     0.127 S 
ATOM     75  O   UNL A   1      52.120  26.867  23.663  1.00  0.00    -0.237 OA
ATOM     76  O   UNL A   1      49.804  26.541  22.894  1.00  0.00    -0.237 OA
ATOM     77  O   UNL A   1      50.704  28.816  23.147  1.00  0.00    -0.744 OA
ENDBRANCH  71  74
ENDBRANCH  53  67
BRANCH  54  78
ATOM     78  C   UNL A   1      39.100  29.180  29.774  1.00  0.00     0.023 A 
ATOM     79  C   UNL A   1      38.656  28.776  31.046  1.00  0.00     0.012 A 
ATOM     80  C   UNL A   1      38.224  29.884  28.924  1.00  0.00     0.148 A 
ATOM     81  C   UNL A   1      37.360  29.068  31.468  1.00  0.00     0.002 A 
ATOM     82  C   UNL A   1      36.950  30.210  29.367  1.00  0.00     0.091 A 
ATOM     83  F   UNL A   1      38.676  30.253  27.717  1.00  0.00    -0.205 F 
ATOM     84  C   UNL A   1      36.511  29.796  30.635  1.00  0.00     0.022 A 
BRANCH  82  85
ATOM     85  S   UNL A   1      35.829  31.244  28.418  1.00  0.00     0.127 S 
ATOM     86  O   UNL A   1      34.770  31.506  29.390  1.00  0.00    -0.237 OA
ATOM     87  O   UNL A   1      36.678  32.395  28.107  1.00  0.00    -0.237 OA
ATOM     88  O   UNL A   1      35.438  30.450  27.262  1.00  0.00    -0.744 OA
ENDBRANCH  82  85
ENDBRANCH  54  78
BRANCH  66  89
ATOM     89  C   UNL A   1      44.793  33.233  29.424  1.00  0.00     0.023 A 
ATOM     90  C   UNL A   1      44.556  34.230  28.459  1.00  0.00     0.012 A 
ATOM     91  C   UNL A   1      45.154  33.599  30.734  1.00  0.00     0.148 A 
ATOM     92  C   UNL A   1      44.681  35.577  28.793  1.00  0.00     0.002 A 
ATOM     93  C   UNL A   1      45.245  34.945  31.068  1.00  0.00     0.091 A 
ATOM     94  F   UNL A   1      45.382  32.627  31.628  1.00  0.00    -0.205 F 
ATOM     95  C   UNL A   1      45.012  35.934  30.098  1.00  0.00     0.022 A 
BRANCH  93  96
ATOM     96  S   UNL A   1      45.592  35.506  32.739  1.00  0.00     0.127 S 
ATOM     97  O   UNL A   1      44.504  34.884  33.493  1.00  0.00    -0.237 OA
ATOM     98  O   UNL A   1      46.915  34.931  32.989  1.00  0.00    -0.237 OA
ATOM     99  O   UNL A   1      45.560  36.961  32.693  1.00  0.00    -0.744 OA
ENDBRANCH  93  96
ENDBRANCH  66  89
ENDBRANCH  40  41
ENDBRANCH  32  35
ENDBRANCH  30  31
ENDBRANCH  29  30
ENDBRANCH  28  29
ENDBRANCH   1  28
TORSDOF 20
ENDMDL
