MODEL 1
REMARK VINA RESULT:     -12.2      0.000      0.000
REMARK SMILES Cc1cc(Cl)cc2c1O[C@H](C(F)(F)F)C(C(=O)NCCCCCCNC(=O)c1ccc(-c3c4nc(c(-c5cccc(S(=O)(=O)[O-])c5F)c5ccc([nH]5)c(-c5cccc(S(=O)(=O)[O-])c5F)c5nc(c(-c6cccc(S(=O)(=O)[O-])c6F)c6ccc3[nH]6)C=C5)C=C4)cc1)=C2
REMARK SMILES IDX 22 1 21 2 20 3 19 4 18 5 16 6 17 7 15 9 1 10 2 11 3 12 8 13
REMARK SMILES IDX 4 14 7 15 9 16 5 17 6 18 91 19 10 20 11 21 12 22 13 23 14 24
REMARK SMILES IDX 23 25 24 26 25 27 26 28 27 30 28 31 29 32 90 33 30 34 89 35
REMARK SMILES IDX 31 36 32 37 33 38 83 39 34 40 88 41 82 42 84 43 35 44 87 45
REMARK SMILES IDX 81 46 80 47 36 49 68 50 48 51 67 52 49 53 52 54 66 55 85 56
REMARK SMILES IDX 50 57 51 58 65 60 86 61 53 62 37 63 38 64 46 65 39 66 41 67
REMARK SMILES IDX 47 68 40 69 42 70 43 71 44 72 45 73 69 74 70 75 78 76 71 77
REMARK SMILES IDX 73 78 79 79 72 80 74 81 75 82 76 83 77 84 54 85 55 86 63 87
REMARK SMILES IDX 56 88 58 89 64 90 57 91 59 92 60 93 61 94 62 95
REMARK H PARENT 18 8 25 29 84 48 52 59
REMARK Flexibility Score: inf
ROOT
ATOM      1  C   UNL A   1      31.872  30.114  25.890  1.00  0.00     0.002 C 
ENDROOT
BRANCH   1   2
ATOM      2  C   UNL A   1      31.035  29.778  24.649  1.00  0.00     0.002 C 
BRANCH   2   3
ATOM      3  C   UNL A   1      31.383  28.451  23.969  1.00  0.00     0.021 C 
BRANCH   3   4
ATOM      4  C   UNL A   1      32.803  28.398  23.416  1.00  0.00     0.116 C 
BRANCH   4   5
ATOM      5  N   UNL A   1      32.913  27.473  22.300  1.00  0.00    -0.352 N 
ATOM      6  C   UNL A   1      33.108  26.146  22.128  1.00  0.00     0.251 C 
ATOM      7  O   UNL A   1      33.101  25.761  20.953  1.00  0.00    -0.270 OA
ATOM      8  H   UNL A   1      32.820  27.939  21.436  1.00  0.00     0.163 HD
BRANCH   6   9
ATOM      9  C   UNL A   1      33.327  25.154  23.224  1.00  0.00     0.067 C 
ATOM     10  C   UNL A   1      33.366  22.456  27.589  1.00  0.00     0.048 C 
ATOM     11  C   UNL A   1      34.206  22.467  26.343  1.00  0.00    -0.007 A 
ATOM     12  C   UNL A   1      35.283  21.585  26.201  1.00  0.00     0.027 A 
ATOM     13  C   UNL A   1      33.944  23.383  25.314  1.00  0.00     0.131 A 
ATOM     14  C   UNL A   1      36.071  21.624  25.050  1.00  0.00     0.042 A 
ATOM     15  C   UNL A   1      34.737  23.428  24.163  1.00  0.00     0.019 A 
ATOM     16  O   UNL A   1      32.918  24.259  25.518  1.00  0.00    -0.475 OA
ATOM     17  Cl  UNL A   1      37.396  20.535  24.890  1.00  0.00    -0.084 Cl
ATOM     18  C   UNL A   1      35.805  22.540  24.031  1.00  0.00     0.032 A 
ATOM     19  C   UNL A   1      34.460  24.433  23.142  1.00  0.00     0.025 C 
ATOM     20  C   UNL A   1      32.360  24.908  24.348  1.00  0.00     0.314 C 
BRANCH  20  21
ATOM     21  C   UNL A   1      31.106  24.141  23.890  1.00  0.00     0.429 C 
ATOM     22  F   UNL A   1      30.574  23.437  24.917  1.00  0.00    -0.167 F 
ATOM     23  F   UNL A   1      30.130  24.966  23.441  1.00  0.00    -0.167 F 
ATOM     24  F   UNL A   1      31.371  23.270  22.890  1.00  0.00    -0.167 F 
ENDBRANCH  20  21
ENDBRANCH   6   9
ENDBRANCH   4   5
ENDBRANCH   3   4
ENDBRANCH   2   3
ENDBRANCH   1   2
BRANCH   1  25
ATOM     25  C   UNL A   1      31.645  31.509  26.482  1.00  0.00     0.021 C 
BRANCH  25  26
ATOM     26  C   UNL A   1      32.854  32.104  27.198  1.00  0.00     0.116 C 
BRANCH  26  27
ATOM     27  N   UNL A   1      32.651  33.508  27.514  1.00  0.00    -0.352 N 
ATOM     28  C   UNL A   1      33.216  34.266  28.503  1.00  0.00     0.251 C 
ATOM     29  H   UNL A   1      32.014  33.983  26.931  1.00  0.00     0.163 HD
ATOM     30  O   UNL A   1      32.746  35.374  28.765  1.00  0.00    -0.269 OA
BRANCH  28  31
ATOM     31  C   UNL A   1      34.386  33.765  29.252  1.00  0.00     0.039 A 
ATOM     32  C   UNL A   1      35.658  34.231  28.910  1.00  0.00     0.014 A 
ATOM     33  C   UNL A   1      34.235  32.798  30.252  1.00  0.00     0.014 A 
ATOM     34  C   UNL A   1      36.779  33.748  29.589  1.00  0.00     0.010 A 
ATOM     35  C   UNL A   1      35.346  32.363  30.967  1.00  0.00     0.010 A 
ATOM     36  C   UNL A   1      36.629  32.817  30.628  1.00  0.00    -0.014 A 
BRANCH  36  37
ATOM     37  C   UNL A   1      37.803  32.269  31.350  1.00  0.00     0.031 A 
ATOM     38  C   UNL A   1      38.573  31.120  30.756  1.00  0.00     0.074 A 
ATOM     39  C   UNL A   1      38.130  32.752  32.563  1.00  0.00     0.049 A 
ATOM     40  N   UNL A   1      39.565  30.440  31.268  1.00  0.00    -0.248 NA
ATOM     41  C   UNL A   1      38.158  30.663  29.419  1.00  0.00     0.031 C 
ATOM     42  C   UNL A   1      37.431  33.835  33.256  1.00  0.00     0.029 A 
ATOM     43  N   UNL A   1      39.119  32.379  33.437  1.00  0.00    -0.354 N 
ATOM     44  C   UNL A   1      39.874  29.459  30.334  1.00  0.00     0.074 A 
ATOM     45  C   UNL A   1      38.941  29.610  29.237  1.00  0.00     0.031 C 
ATOM     46  C   UNL A   1      38.015  34.041  34.448  1.00  0.00     0.029 A 
ATOM     47  C   UNL A   1      39.106  33.085  34.617  1.00  0.00     0.049 A 
ATOM     48  H   UNL A   1      39.776  31.673  33.239  1.00  0.00     0.167 HD
ATOM     49  C   UNL A   1      40.865  28.538  30.368  1.00  0.00     0.034 A 
ATOM     50  C   UNL A   1      39.881  32.970  35.713  1.00  0.00     0.034 A 
ATOM     51  C   UNL A   1      41.814  28.421  31.442  1.00  0.00     0.049 A 
ATOM     52  C   UNL A   1      40.984  31.943  35.722  1.00  0.00     0.074 A 
ATOM     53  C   UNL A   1      42.889  27.556  31.547  1.00  0.00     0.029 A 
ATOM     54  N   UNL A   1      41.809  29.192  32.593  1.00  0.00    -0.354 N 
ATOM     55  N   UNL A   1      41.335  31.100  34.780  1.00  0.00    -0.248 NA
ATOM     56  C   UNL A   1      41.816  31.873  36.930  1.00  0.00     0.031 C 
ATOM     57  C   UNL A   1      43.524  27.794  32.770  1.00  0.00     0.029 A 
ATOM     58  C   UNL A   1      42.857  28.822  33.418  1.00  0.00     0.049 A 
ATOM     59  H   UNL A   1      41.155  29.900  32.795  1.00  0.00     0.167 HD
ATOM     60  C   UNL A   1      42.441  30.417  35.271  1.00  0.00     0.074 A 
ATOM     61  C   UNL A   1      42.722  30.969  36.582  1.00  0.00     0.031 C 
ATOM     62  C   UNL A   1      43.149  29.409  34.701  1.00  0.00     0.034 A 
BRANCH  49  63
ATOM     63  C   UNL A   1      41.017  27.624  29.180  1.00  0.00     0.023 A 
ATOM     64  C   UNL A   1      40.281  26.422  29.136  1.00  0.00     0.012 A 
ATOM     65  C   UNL A   1      41.823  27.980  28.081  1.00  0.00     0.148 A 
ATOM     66  C   UNL A   1      40.364  25.576  28.031  1.00  0.00     0.002 A 
ATOM     67  C   UNL A   1      41.866  27.154  26.964  1.00  0.00     0.091 A 
ATOM     68  F   UNL A   1      42.532  29.115  28.150  1.00  0.00    -0.205 F 
ATOM     69  C   UNL A   1      41.146  25.948  26.941  1.00  0.00     0.022 A 
BRANCH  67  70
ATOM     70  S   UNL A   1      42.778  27.578  25.474  1.00  0.00     0.127 S 
ATOM     71  O   UNL A   1      44.132  27.756  25.999  1.00  0.00    -0.237 OA
ATOM     72  O   UNL A   1      42.594  26.381  24.652  1.00  0.00    -0.237 OA
ATOM     73  O   UNL A   1      42.151  28.782  24.947  1.00  0.00    -0.744 OA
ENDBRANCH  67  70
ENDBRANCH  49  63
BRANCH  50  74
ATOM     74  C   UNL A   1      39.689  33.904  36.858  1.00  0.00     0.023 A 
ATOM     75  C   UNL A   1      40.003  35.267  36.691  1.00  0.00     0.012 A 
ATOM     76  C   UNL A   1      39.151  33.469  38.085  1.00  0.00     0.148 A 
ATOM     77  C   UNL A   1      39.807  36.176  37.730  1.00  0.00     0.002 A 
ATOM     78  C   UNL A   1      38.904  34.390  39.097  1.00  0.00     0.091 A 
ATOM     79  F   UNL A   1      38.871  32.166  38.229  1.00  0.00    -0.205 F 
ATOM     80  C   UNL A   1      39.246  35.741  38.928  1.00  0.00     0.022 A 
BRANCH  78  81
ATOM     81  S   UNL A   1      38.056  33.948  40.618  1.00  0.00     0.127 S 
ATOM     82  O   UNL A   1      39.039  33.086  41.270  1.00  0.00    -0.237 OA
ATOM     83  O   UNL A   1      37.870  35.256  41.249  1.00  0.00    -0.237 OA
ATOM     84  O   UNL A   1      36.820  33.299  40.206  1.00  0.00    -0.744 OA
ENDBRANCH  78  81
ENDBRANCH  50  74
BRANCH  62  85
ATOM     85  C   UNL A   1      44.301  28.834  35.485  1.00  0.00     0.023 A 
ATOM     86  C   UNL A   1      45.583  29.401  35.350  1.00  0.00     0.012 A 
ATOM     87  C   UNL A   1      44.101  27.794  36.413  1.00  0.00     0.148 A 
ATOM     88  C   UNL A   1      46.656  28.921  36.100  1.00  0.00     0.002 A 
ATOM     89  C   UNL A   1      45.163  27.355  37.195  1.00  0.00     0.091 A 
ATOM     90  F   UNL A   1      42.878  27.253  36.516  1.00  0.00    -0.205 F 
ATOM     91  C   UNL A   1      46.443  27.907  37.031  1.00  0.00     0.022 A 
BRANCH  89  92
ATOM     92  S   UNL A   1      44.957  26.126  38.491  1.00  0.00     0.127 S 
ATOM     93  O   UNL A   1      44.534  24.955  37.727  1.00  0.00    -0.237 OA
ATOM     94  O   UNL A   1      46.305  26.034  39.052  1.00  0.00    -0.237 OA
ATOM     95  O   UNL A   1      43.963  26.674  39.404  1.00  0.00    -0.744 OA
ENDBRANCH  89  92
ENDBRANCH  62  85
ENDBRANCH  36  37
ENDBRANCH  28  31
ENDBRANCH  26  27
ENDBRANCH  25  26
ENDBRANCH   1  25
TORSDOF 17
ENDMDL
MODEL 2
REMARK VINA RESULT:     -12.1      3.516      8.346
REMARK SMILES Cc1cc(Cl)cc2c1O[C@H](C(F)(F)F)C(C(=O)NCCCCCCNC(=O)c1ccc(-c3c4nc(c(-c5cccc(S(=O)(=O)[O-])c5F)c5ccc([nH]5)c(-c5cccc(S(=O)(=O)[O-])c5F)c5nc(c(-c6cccc(S(=O)(=O)[O-])c6F)c6ccc3[nH]6)C=C5)C=C4)cc1)=C2
REMARK SMILES IDX 22 1 21 2 20 3 19 4 18 5 16 6 17 7 15 9 1 10 2 11 3 12 8 13
REMARK SMILES IDX 4 14 7 15 9 16 5 17 6 18 91 19 10 20 11 21 12 22 13 23 14 24
REMARK SMILES IDX 23 25 24 26 25 27 26 28 27 30 28 31 29 32 90 33 30 34 89 35
REMARK SMILES IDX 31 36 32 37 33 38 83 39 34 40 88 41 82 42 84 43 35 44 87 45
REMARK SMILES IDX 81 46 80 47 36 49 68 50 48 51 67 52 49 53 52 54 66 55 85 56
REMARK SMILES IDX 50 57 51 58 65 60 86 61 53 62 37 63 38 64 46 65 39 66 41 67
REMARK SMILES IDX 47 68 40 69 42 70 43 71 44 72 45 73 69 74 70 75 78 76 71 77
REMARK SMILES IDX 73 78 79 79 72 80 74 81 75 82 76 83 77 84 54 85 55 86 63 87
REMARK SMILES IDX 56 88 58 89 64 90 57 91 59 92 60 93 61 94 62 95
REMARK H PARENT 18 8 25 29 84 48 52 59
REMARK Flexibility Score: inf
ROOT
ATOM      1  C   UNL A   1      31.710  28.195  25.155  1.00  0.00     0.002 C 
ENDROOT
BRANCH   1   2
ATOM      2  C   UNL A   1      31.264  29.311  24.201  1.00  0.00     0.002 C 
BRANCH   2   3
ATOM      3  C   UNL A   1      30.978  28.863  22.765  1.00  0.00     0.021 C 
BRANCH   3   4
ATOM      4  C   UNL A   1      30.738  27.363  22.626  1.00  0.00     0.116 C 
BRANCH   4   5
ATOM      5  N   UNL A   1      31.636  26.761  21.655  1.00  0.00    -0.352 N 
ATOM      6  C   UNL A   1      32.551  25.764  21.635  1.00  0.00     0.251 C 
ATOM      7  O   UNL A   1      33.083  25.561  20.538  1.00  0.00    -0.270 OA
ATOM      8  H   UNL A   1      31.557  27.195  20.774  1.00  0.00     0.163 HD
BRANCH   6   9
ATOM      9  C   UNL A   1      32.945  24.928  22.809  1.00  0.00     0.067 C 
ATOM     10  C   UNL A   1      33.525  22.724  27.406  1.00  0.00     0.048 C 
ATOM     11  C   UNL A   1      34.304  22.716  26.122  1.00  0.00    -0.007 A 
ATOM     12  C   UNL A   1      35.484  21.971  26.009  1.00  0.00     0.027 A 
ATOM     13  C   UNL A   1      33.879  23.478  25.024  1.00  0.00     0.131 A 
ATOM     14  C   UNL A   1      36.212  21.993  24.818  1.00  0.00     0.042 A 
ATOM     15  C   UNL A   1      34.611  23.507  23.834  1.00  0.00     0.019 A 
ATOM     16  O   UNL A   1      32.753  24.229  25.198  1.00  0.00    -0.475 OA
ATOM     17  Cl  UNL A   1      37.664  21.075  24.693  1.00  0.00    -0.084 Cl
ATOM     18  C   UNL A   1      35.783  22.756  23.731  1.00  0.00     0.032 A 
ATOM     19  C   UNL A   1      34.161  24.356  22.736  1.00  0.00     0.025 C 
ATOM     20  C   UNL A   1      32.067  24.676  24.001  1.00  0.00     0.314 C 
BRANCH  20  21
ATOM     21  C   UNL A   1      30.909  23.709  23.688  1.00  0.00     0.429 C 
ATOM     22  F   UNL A   1      30.461  23.117  24.821  1.00  0.00    -0.167 F 
ATOM     23  F   UNL A   1      29.845  24.337  23.134  1.00  0.00    -0.167 F 
ATOM     24  F   UNL A   1      31.274  22.729  22.831  1.00  0.00    -0.167 F 
ENDBRANCH  20  21
ENDBRANCH   6   9
ENDBRANCH   4   5
ENDBRANCH   3   4
ENDBRANCH   2   3
ENDBRANCH   1   2
BRANCH   1  25
ATOM     25  C   UNL A   1      33.225  28.017  25.300  1.00  0.00     0.021 C 
BRANCH  25  26
ATOM     26  C   UNL A   1      33.790  28.424  26.657  1.00  0.00     0.116 C 
BRANCH  26  27
ATOM     27  N   UNL A   1      33.737  29.864  26.848  1.00  0.00    -0.352 N 
ATOM     28  C   UNL A   1      34.543  30.670  27.605  1.00  0.00     0.251 C 
ATOM     29  H   UNL A   1      33.016  30.327  26.362  1.00  0.00     0.163 HD
ATOM     30  O   UNL A   1      34.202  31.832  27.833  1.00  0.00    -0.269 OA
BRANCH  28  31
ATOM     31  C   UNL A   1      35.819  30.156  28.143  1.00  0.00     0.039 A 
ATOM     32  C   UNL A   1      36.968  30.233  27.351  1.00  0.00     0.014 A 
ATOM     33  C   UNL A   1      35.872  29.552  29.403  1.00  0.00     0.014 A 
ATOM     34  C   UNL A   1      38.177  29.728  27.832  1.00  0.00     0.010 A 
ATOM     35  C   UNL A   1      37.090  29.103  29.905  1.00  0.00     0.010 A 
ATOM     36  C   UNL A   1      38.248  29.168  29.117  1.00  0.00    -0.014 A 
BRANCH  36  37
ATOM     37  C   UNL A   1      39.513  28.602  29.644  1.00  0.00     0.031 A 
ATOM     38  C   UNL A   1      40.165  29.227  30.848  1.00  0.00     0.074 A 
ATOM     39  C   UNL A   1      40.109  27.579  29.002  1.00  0.00     0.049 A 
ATOM     40  N   UNL A   1      41.313  28.944  31.404  1.00  0.00    -0.248 NA
ATOM     41  C   UNL A   1      39.438  30.330  31.498  1.00  0.00     0.031 C 
ATOM     42  C   UNL A   1      39.592  26.921  27.802  1.00  0.00     0.029 A 
ATOM     43  N   UNL A   1      41.291  26.932  29.257  1.00  0.00    -0.354 N 
ATOM     44  C   UNL A   1      41.461  29.848  32.448  1.00  0.00     0.074 A 
ATOM     45  C   UNL A   1      40.301  30.713  32.427  1.00  0.00     0.031 C 
ATOM     46  C   UNL A   1      40.452  25.960  27.425  1.00  0.00     0.029 A 
ATOM     47  C   UNL A   1      41.594  25.957  28.336  1.00  0.00     0.049 A 
ATOM     48  H   UNL A   1      41.868  27.144  30.025  1.00  0.00     0.167 HD
ATOM     49  C   UNL A   1      42.456  29.932  33.363  1.00  0.00     0.034 A 
ATOM     50  C   UNL A   1      42.672  25.156  28.233  1.00  0.00     0.034 A 
ATOM     51  C   UNL A   1      43.585  29.042  33.404  1.00  0.00     0.049 A 
ATOM     52  C   UNL A   1      43.760  25.261  29.269  1.00  0.00     0.074 A 
ATOM     53  C   UNL A   1      44.619  29.008  34.322  1.00  0.00     0.029 A 
ATOM     54  N   UNL A   1      43.829  28.027  32.491  1.00  0.00    -0.354 N 
ATOM     55  N   UNL A   1      43.828  26.046  30.318  1.00  0.00    -0.248 NA
ATOM     56  C   UNL A   1      44.904  24.350  29.127  1.00  0.00     0.031 C 
ATOM     57  C   UNL A   1      45.496  27.983  33.955  1.00  0.00     0.029 A 
ATOM     58  C   UNL A   1      44.998  27.363  32.820  1.00  0.00     0.049 A 
ATOM     59  H   UNL A   1      43.254  27.811  31.722  1.00  0.00     0.167 HD
ATOM     60  C   UNL A   1      45.007  25.708  30.973  1.00  0.00     0.074 A 
ATOM     61  C   UNL A   1      45.605  24.624  30.219  1.00  0.00     0.031 C 
ATOM     62  C   UNL A   1      45.558  26.258  32.084  1.00  0.00     0.034 A 
BRANCH  49  63
ATOM     63  C   UNL A   1      42.336  30.980  34.438  1.00  0.00     0.023 A 
ATOM     64  C   UNL A   1      41.717  30.647  35.660  1.00  0.00     0.012 A 
ATOM     65  C   UNL A   1      42.893  32.263  34.275  1.00  0.00     0.148 A 
ATOM     66  C   UNL A   1      41.630  31.580  36.693  1.00  0.00     0.002 A 
ATOM     67  C   UNL A   1      42.843  33.173  35.324  1.00  0.00     0.091 A 
ATOM     68  F   UNL A   1      43.458  32.569  33.098  1.00  0.00    -0.205 F 
ATOM     69  C   UNL A   1      42.204  32.837  36.529  1.00  0.00     0.022 A 
BRANCH  67  70
ATOM     70  S   UNL A   1      43.621  34.792  35.247  1.00  0.00     0.127 S 
ATOM     71  O   UNL A   1      45.008  34.438  34.944  1.00  0.00    -0.237 OA
ATOM     72  O   UNL A   1      42.899  35.427  34.145  1.00  0.00    -0.237 OA
ATOM     73  O   UNL A   1      43.406  35.404  36.551  1.00  0.00    -0.744 OA
ENDBRANCH  67  70
ENDBRANCH  49  63
BRANCH  50  74
ATOM     74  C   UNL A   1      42.736  24.132  27.151  1.00  0.00     0.023 A 
ATOM     75  C   UNL A   1      43.461  24.420  25.978  1.00  0.00     0.012 A 
ATOM     76  C   UNL A   1      42.136  22.866  27.295  1.00  0.00     0.148 A 
ATOM     77  C   UNL A   1      43.568  23.475  24.958  1.00  0.00     0.002 A 
ATOM     78  C   UNL A   1      42.295  21.908  26.299  1.00  0.00     0.091 A 
ATOM     79  F   UNL A   1      41.440  22.616  28.412  1.00  0.00    -0.205 F 
ATOM     80  C   UNL A   1      42.998  22.216  25.122  1.00  0.00     0.022 A 
BRANCH  78  81
ATOM     81  S   UNL A   1      41.718  20.217  26.485  1.00  0.00     0.127 S 
ATOM     82  O   UNL A   1      42.292  19.573  25.306  1.00  0.00    -0.237 OA
ATOM     83  O   UNL A   1      42.329  19.829  27.757  1.00  0.00    -0.237 OA
ATOM     84  O   UNL A   1      40.265  20.298  26.515  1.00  0.00    -0.744 OA
ENDBRANCH  78  81
ENDBRANCH  50  74
BRANCH  62  85
ATOM     85  C   UNL A   1      46.874  25.699  32.562  1.00  0.00     0.023 A 
ATOM     86  C   UNL A   1      48.075  26.186  32.011  1.00  0.00     0.012 A 
ATOM     87  C   UNL A   1      46.926  24.759  33.610  1.00  0.00     0.148 A 
ATOM     88  C   UNL A   1      49.307  25.722  32.470  1.00  0.00     0.002 A 
ATOM     89  C   UNL A   1      48.159  24.340  34.098  1.00  0.00     0.091 A 
ATOM     90  F   UNL A   1      45.773  24.292  34.112  1.00  0.00    -0.205 F 
ATOM     91  C   UNL A   1      49.349  24.809  33.521  1.00  0.00     0.022 A 
BRANCH  89  92
ATOM     92  S   UNL A   1      48.307  23.247  35.517  1.00  0.00     0.127 S 
ATOM     93  O   UNL A   1      47.700  22.017  35.012  1.00  0.00    -0.237 OA
ATOM     94  O   UNL A   1      49.757  23.178  35.708  1.00  0.00    -0.237 OA
ATOM     95  O   UNL A   1      47.589  23.903  36.602  1.00  0.00    -0.744 OA
ENDBRANCH  89  92
ENDBRANCH  62  85
ENDBRANCH  36  37
ENDBRANCH  28  31
ENDBRANCH  26  27
ENDBRANCH  25  26
ENDBRANCH   1  25
TORSDOF 17
ENDMDL
MODEL 3
REMARK VINA RESULT:     -12.0      2.590      3.460
REMARK SMILES Cc1cc(Cl)cc2c1O[C@H](C(F)(F)F)C(C(=O)NCCCCCCNC(=O)c1ccc(-c3c4nc(c(-c5cccc(S(=O)(=O)[O-])c5F)c5ccc([nH]5)c(-c5cccc(S(=O)(=O)[O-])c5F)c5nc(c(-c6cccc(S(=O)(=O)[O-])c6F)c6ccc3[nH]6)C=C5)C=C4)cc1)=C2
REMARK SMILES IDX 22 1 21 2 20 3 19 4 18 5 16 6 17 7 15 9 1 10 2 11 3 12 8 13
REMARK SMILES IDX 4 14 7 15 9 16 5 17 6 18 91 19 10 20 11 21 12 22 13 23 14 24
REMARK SMILES IDX 23 25 24 26 25 27 26 28 27 30 28 31 29 32 90 33 30 34 89 35
REMARK SMILES IDX 31 36 32 37 33 38 83 39 34 40 88 41 82 42 84 43 35 44 87 45
REMARK SMILES IDX 81 46 80 47 36 49 68 50 48 51 67 52 49 53 52 54 66 55 85 56
REMARK SMILES IDX 50 57 51 58 65 60 86 61 53 62 37 63 38 64 46 65 39 66 41 67
REMARK SMILES IDX 47 68 40 69 42 70 43 71 44 72 45 73 69 74 70 75 78 76 71 77
REMARK SMILES IDX 73 78 79 79 72 80 74 81 75 82 76 83 77 84 54 85 55 86 63 87
REMARK SMILES IDX 56 88 58 89 64 90 57 91 59 92 60 93 61 94 62 95
REMARK H PARENT 18 8 25 29 84 48 52 59
REMARK Flexibility Score: inf
ROOT
ATOM      1  C   UNL A   1      31.820  27.812  26.134  1.00  0.00     0.002 C 
ENDROOT
BRANCH   1   2
ATOM      2  C   UNL A   1      30.674  27.084  25.420  1.00  0.00     0.002 C 
BRANCH   2   3
ATOM      3  C   UNL A   1      31.051  26.418  24.094  1.00  0.00     0.021 C 
BRANCH   3   4
ATOM      4  C   UNL A   1      30.650  24.948  24.008  1.00  0.00     0.116 C 
BRANCH   4   5
ATOM      5  N   UNL A   1      30.455  24.365  25.325  1.00  0.00    -0.352 N 
ATOM      6  C   UNL A   1      31.150  23.568  26.169  1.00  0.00     0.251 C 
ATOM      7  O   UNL A   1      30.594  23.336  27.249  1.00  0.00    -0.270 OA
ATOM      8  H   UNL A   1      29.582  24.618  25.705  1.00  0.00     0.163 HD
BRANCH   6   9
ATOM      9  C   UNL A   1      32.491  22.972  25.889  1.00  0.00     0.067 C 
ATOM     10  C   UNL A   1      36.514  19.915  24.996  1.00  0.00     0.048 C 
ATOM     11  C   UNL A   1      36.345  21.360  25.370  1.00  0.00    -0.007 A 
ATOM     12  C   UNL A   1      37.460  22.187  25.545  1.00  0.00     0.027 A 
ATOM     13  C   UNL A   1      35.066  21.897  25.581  1.00  0.00     0.131 A 
ATOM     14  C   UNL A   1      37.289  23.521  25.918  1.00  0.00     0.042 A 
ATOM     15  C   UNL A   1      34.894  23.231  25.962  1.00  0.00     0.019 A 
ATOM     16  O   UNL A   1      34.012  21.042  25.451  1.00  0.00    -0.475 OA
ATOM     17  Cl  UNL A   1      38.671  24.526  26.134  1.00  0.00    -0.084 Cl
ATOM     18  C   UNL A   1      36.014  24.047  26.128  1.00  0.00     0.032 A 
ATOM     19  C   UNL A   1      33.549  23.734  26.222  1.00  0.00     0.025 C 
ATOM     20  C   UNL A   1      32.704  21.632  25.244  1.00  0.00     0.314 C 
BRANCH  20  21
ATOM     21  C   UNL A   1      32.384  21.645  23.738  1.00  0.00     0.429 C 
ATOM     22  F   UNL A   1      32.665  20.444  23.179  1.00  0.00    -0.167 F 
ATOM     23  F   UNL A   1      31.075  21.889  23.488  1.00  0.00    -0.167 F 
ATOM     24  F   UNL A   1      33.090  22.584  23.069  1.00  0.00    -0.167 F 
ENDBRANCH  20  21
ENDBRANCH   6   9
ENDBRANCH   4   5
ENDBRANCH   3   4
ENDBRANCH   2   3
ENDBRANCH   1   2
BRANCH   1  25
ATOM     25  C   UNL A   1      33.174  27.773  25.418  1.00  0.00     0.021 C 
BRANCH  25  26
ATOM     26  C   UNL A   1      33.658  29.122  24.893  1.00  0.00     0.116 C 
BRANCH  26  27
ATOM     27  N   UNL A   1      32.948  30.225  25.518  1.00  0.00    -0.352 N 
ATOM     28  C   UNL A   1      33.182  30.839  26.719  1.00  0.00     0.251 C 
ATOM     29  H   UNL A   1      32.189  30.583  25.003  1.00  0.00     0.163 HD
ATOM     30  O   UNL A   1      32.334  31.597  27.190  1.00  0.00    -0.269 OA
BRANCH  28  31
ATOM     31  C   UNL A   1      34.446  30.601  27.445  1.00  0.00     0.039 A 
ATOM     32  C   UNL A   1      34.680  29.340  28.000  1.00  0.00     0.014 A 
ATOM     33  C   UNL A   1      35.373  31.633  27.625  1.00  0.00     0.014 A 
ATOM     34  C   UNL A   1      35.857  29.104  28.713  1.00  0.00     0.010 A 
ATOM     35  C   UNL A   1      36.572  31.379  28.284  1.00  0.00     0.010 A 
ATOM     36  C   UNL A   1      36.815  30.120  28.851  1.00  0.00    -0.014 A 
BRANCH  36  37
ATOM     37  C   UNL A   1      38.063  29.905  29.624  1.00  0.00     0.031 A 
ATOM     38  C   UNL A   1      39.134  29.003  29.073  1.00  0.00     0.074 A 
ATOM     39  C   UNL A   1      38.201  30.460  30.843  1.00  0.00     0.049 A 
ATOM     40  N   UNL A   1      40.250  28.612  29.630  1.00  0.00    -0.248 NA
ATOM     41  C   UNL A   1      38.909  28.451  27.726  1.00  0.00     0.031 C 
ATOM     42  C   UNL A   1      37.212  31.317  31.496  1.00  0.00     0.029 A 
ATOM     43  N   UNL A   1      39.218  30.364  31.758  1.00  0.00    -0.354 N 
ATOM     44  C   UNL A   1      40.846  27.748  28.720  1.00  0.00     0.074 A 
ATOM     45  C   UNL A   1      39.951  27.644  27.587  1.00  0.00     0.031 C 
ATOM     46  C   UNL A   1      37.671  31.672  32.707  1.00  0.00     0.029 A 
ATOM     47  C   UNL A   1      38.970  31.042  32.929  1.00  0.00     0.049 A 
ATOM     48  H   UNL A   1      40.046  29.858  31.593  1.00  0.00     0.167 HD
ATOM     49  C   UNL A   1      42.044  27.124  28.803  1.00  0.00     0.034 A 
ATOM     50  C   UNL A   1      39.704  31.139  34.054  1.00  0.00     0.034 A 
ATOM     51  C   UNL A   1      42.947  27.265  29.913  1.00  0.00     0.049 A 
ATOM     52  C   UNL A   1      41.038  30.443  34.118  1.00  0.00     0.074 A 
ATOM     53  C   UNL A   1      44.208  26.718  30.070  1.00  0.00     0.029 A 
ATOM     54  N   UNL A   1      42.690  28.008  31.055  1.00  0.00    -0.354 N 
ATOM     55  N   UNL A   1      41.638  29.723  33.200  1.00  0.00    -0.248 NA
ATOM     56  C   UNL A   1      41.811  30.598  35.358  1.00  0.00     0.031 C 
ATOM     57  C   UNL A   1      44.707  27.118  31.313  1.00  0.00     0.029 A 
ATOM     58  C   UNL A   1      43.766  27.932  31.923  1.00  0.00     0.049 A 
ATOM     59  H   UNL A   1      41.864  28.516  31.223  1.00  0.00     0.167 HD
ATOM     60  C   UNL A   1      42.866  29.360  33.741  1.00  0.00     0.074 A 
ATOM     61  C   UNL A   1      42.937  29.967  35.055  1.00  0.00     0.031 C 
ATOM     62  C   UNL A   1      43.839  28.576  33.210  1.00  0.00     0.034 A 
BRANCH  49  63
ATOM     63  C   UNL A   1      42.481  26.283  27.632  1.00  0.00     0.023 A 
ATOM     64  C   UNL A   1      43.323  26.848  26.653  1.00  0.00     0.012 A 
ATOM     65  C   UNL A   1      42.124  24.923  27.534  1.00  0.00     0.148 A 
ATOM     66  C   UNL A   1      43.783  26.084  25.581  1.00  0.00     0.002 A 
ATOM     67  C   UNL A   1      42.623  24.156  26.487  1.00  0.00     0.091 A 
ATOM     68  F   UNL A   1      41.305  24.409  28.462  1.00  0.00    -0.205 F 
ATOM     69  C   UNL A   1      43.442  24.736  25.505  1.00  0.00     0.022 A 
BRANCH  67  70
ATOM     70  S   UNL A   1      42.311  22.392  26.340  1.00  0.00     0.127 S 
ATOM     71  O   UNL A   1      42.854  22.107  25.012  1.00  0.00    -0.237 OA
ATOM     72  O   UNL A   1      43.095  21.849  27.449  1.00  0.00    -0.237 OA
ATOM     73  O   UNL A   1      40.871  22.225  26.472  1.00  0.00    -0.744 OA
ENDBRANCH  67  70
ENDBRANCH  49  63
BRANCH  50  74
ATOM     74  C   UNL A   1      39.224  31.989  35.181  1.00  0.00     0.023 A 
ATOM     75  C   UNL A   1      38.300  31.454  36.099  1.00  0.00     0.012 A 
ATOM     76  C   UNL A   1      39.714  33.295  35.382  1.00  0.00     0.148 A 
ATOM     77  C   UNL A   1      37.853  32.209  37.182  1.00  0.00     0.002 A 
ATOM     78  C   UNL A   1      39.308  34.021  36.496  1.00  0.00     0.091 A 
ATOM     79  F   UNL A   1      40.583  33.791  34.491  1.00  0.00    -0.205 F 
ATOM     80  C   UNL A   1      38.366  33.487  37.389  1.00  0.00     0.022 A 
BRANCH  78  81
ATOM     81  S   UNL A   1      40.020  35.616  36.920  1.00  0.00     0.127 S 
ATOM     82  O   UNL A   1      39.652  36.426  35.762  1.00  0.00    -0.237 OA
ATOM     83  O   UNL A   1      39.305  35.945  38.155  1.00  0.00    -0.237 OA
ATOM     84  O   UNL A   1      41.445  35.376  37.097  1.00  0.00    -0.744 OA
ENDBRANCH  78  81
ENDBRANCH  50  74
BRANCH  62  85
ATOM     85  C   UNL A   1      45.070  28.330  34.043  1.00  0.00     0.023 A 
ATOM     86  C   UNL A   1      46.151  29.229  33.968  1.00  0.00     0.012 A 
ATOM     87  C   UNL A   1      45.125  27.261  34.960  1.00  0.00     0.148 A 
ATOM     88  C   UNL A   1      47.281  29.053  34.765  1.00  0.00     0.002 A 
ATOM     89  C   UNL A   1      46.232  27.120  35.789  1.00  0.00     0.091 A 
ATOM     90  F   UNL A   1      44.095  26.403  35.008  1.00  0.00    -0.205 F 
ATOM     91  C   UNL A   1      47.316  28.006  35.683  1.00  0.00     0.022 A 
BRANCH  89  92
ATOM     92  S   UNL A   1      46.317  25.865  37.072  1.00  0.00     0.127 S 
ATOM     93  O   UNL A   1      45.119  26.156  37.855  1.00  0.00    -0.237 OA
ATOM     94  O   UNL A   1      46.255  24.624  36.299  1.00  0.00    -0.237 OA
ATOM     95  O   UNL A   1      47.585  26.082  37.758  1.00  0.00    -0.744 OA
ENDBRANCH  89  92
ENDBRANCH  62  85
ENDBRANCH  36  37
ENDBRANCH  28  31
ENDBRANCH  26  27
ENDBRANCH  25  26
ENDBRANCH   1  25
TORSDOF 17
ENDMDL
