MODEL 1
REMARK VINA RESULT:     -11.3      0.000      0.000
REMARK SMILES CC1(C)[C@H]2CC[C@]1(C)[C@](O)(CC(=O)NCCCCCCNC(=O)c1ccc(-c3c4nc(c(-c5cccc(S(=O)(=O)[O-])c5F)c5ccc([nH]5)c(-c5cccc(S(=O)(=O)[O-])c5F)c5nc(c(-c6cccc(S(=O)(=O)[O-])c6F)c6ccc3[nH]6)C=C5)C=C4)cc1)C2
REMARK SMILES IDX 18 1 17 2 16 3 15 4 14 5 12 6 13 7 11 9 9 10 1 11 2 12 3 13
REMARK SMILES IDX 4 14 7 15 5 16 87 17 6 18 8 19 10 20 19 22 20 23 21 24 22 25
REMARK SMILES IDX 23 27 24 28 25 29 86 30 26 31 85 32 27 33 28 34 29 35 79 36
REMARK SMILES IDX 30 37 84 38 78 39 80 40 31 41 83 42 77 43 76 44 32 46 64 47
REMARK SMILES IDX 44 48 63 49 45 50 48 51 62 52 81 53 46 54 47 55 61 57 82 58
REMARK SMILES IDX 49 59 33 60 34 61 42 62 35 63 37 64 43 65 36 66 38 67 39 68
REMARK SMILES IDX 40 69 41 70 65 71 66 72 74 73 67 74 69 75 75 76 68 77 70 78
REMARK SMILES IDX 71 79 72 80 73 81 50 82 51 83 59 84 52 85 54 86 60 87 53 88
REMARK SMILES IDX 55 89 56 90 57 91 58 92
REMARK H PARENT 14 8 10 21 21 26 80 45 48 56
REMARK Flexibility Score: inf
ROOT
ATOM      1  C   UNL A   1      31.831  27.663  26.313  1.00  0.00     0.002 C 
ENDROOT
BRANCH   1   2
ATOM      2  C   UNL A   1      31.351  27.789  24.869  1.00  0.00     0.002 C 
BRANCH   2   3
ATOM      3  C   UNL A   1      30.239  26.829  24.460  1.00  0.00     0.021 C 
BRANCH   3   4
ATOM      4  C   UNL A   1      30.594  25.337  24.414  1.00  0.00     0.116 C 
BRANCH   4   5
ATOM      5  N   UNL A   1      30.041  24.608  25.554  1.00  0.00    -0.356 N 
ATOM      6  C   UNL A   1      30.643  23.918  26.580  1.00  0.00     0.222 C 
ATOM      7  O   UNL A   1      29.910  23.295  27.350  1.00  0.00    -0.275 OA
ATOM      8  H   UNL A   1      29.057  24.610  25.595  1.00  0.00     0.163 HD
BRANCH   6   9
ATOM      9  C   UNL A   1      32.151  23.992  26.792  1.00  0.00     0.135 C 
BRANCH   9  10
ATOM     10  C   UNL A   1      33.122  22.923  26.184  1.00  0.00     0.080 C 
ATOM     11  C   UNL A   1      36.033  22.588  23.519  1.00  0.00     0.012 C 
ATOM     12  C   UNL A   1      35.127  22.352  24.759  1.00  0.00    -0.024 C 
ATOM     13  C   UNL A   1      35.175  20.836  25.003  1.00  0.00     0.012 C 
ATOM     14  C   UNL A   1      35.539  23.213  25.972  1.00  0.00    -0.002 C 
ATOM     15  C   UNL A   1      33.704  23.035  24.706  1.00  0.00     0.002 C 
ATOM     16  C   UNL A   1      35.289  24.660  25.484  1.00  0.00     0.005 C 
ATOM     17  C   UNL A   1      34.448  22.904  27.022  1.00  0.00     0.040 C 
ATOM     18  C   UNL A   1      34.140  24.486  24.476  1.00  0.00     0.010 C 
ATOM     19  C   UNL A   1      32.781  22.512  23.615  1.00  0.00     0.015 C 
BRANCH  10  20
ATOM     20  O   UNL A   1      32.435  21.667  26.306  1.00  0.00    -0.389 OA
ATOM     21  H   UNL A   1      31.524  21.764  25.986  1.00  0.00     0.211 HD
ENDBRANCH  10  20
ENDBRANCH   9  10
ENDBRANCH   6   9
ENDBRANCH   4   5
ENDBRANCH   3   4
ENDBRANCH   2   3
ENDBRANCH   1   2
BRANCH   1  22
ATOM     22  C   UNL A   1      33.346  27.746  26.541  1.00  0.00     0.021 C 
BRANCH  22  23
ATOM     23  C   UNL A   1      34.063  28.943  25.916  1.00  0.00     0.116 C 
BRANCH  23  24
ATOM     24  N   UNL A   1      33.800  30.185  26.622  1.00  0.00    -0.352 N 
ATOM     25  C   UNL A   1      34.466  30.751  27.681  1.00  0.00     0.251 C 
ATOM     26  H   UNL A   1      33.027  30.698  26.291  1.00  0.00     0.163 HD
ATOM     27  O   UNL A   1      33.979  31.717  28.261  1.00  0.00    -0.269 OA
BRANCH  25  28
ATOM     28  C   UNL A   1      35.757  30.191  28.138  1.00  0.00     0.039 A 
ATOM     29  C   UNL A   1      36.876  30.325  27.311  1.00  0.00     0.014 A 
ATOM     30  C   UNL A   1      35.862  29.511  29.355  1.00  0.00     0.014 A 
ATOM     31  C   UNL A   1      38.113  29.824  27.730  1.00  0.00     0.010 A 
ATOM     32  C   UNL A   1      37.108  29.068  29.797  1.00  0.00     0.010 A 
ATOM     33  C   UNL A   1      38.245  29.214  28.988  1.00  0.00    -0.014 A 
BRANCH  33  34
ATOM     34  C   UNL A   1      39.567  28.736  29.474  1.00  0.00     0.031 A 
ATOM     35  C   UNL A   1      40.286  29.466  30.575  1.00  0.00     0.074 A 
ATOM     36  C   UNL A   1      40.159  27.688  28.866  1.00  0.00     0.049 A 
ATOM     37  N   UNL A   1      41.461  29.222  31.095  1.00  0.00    -0.248 NA
ATOM     38  C   UNL A   1      39.608  30.640  31.150  1.00  0.00     0.031 C 
ATOM     39  C   UNL A   1      39.602  26.943  27.735  1.00  0.00     0.029 A 
ATOM     40  N   UNL A   1      41.371  27.086  29.095  1.00  0.00    -0.354 N 
ATOM     41  C   UNL A   1      41.680  30.226  32.030  1.00  0.00     0.074 A 
ATOM     42  C   UNL A   1      40.528  31.101  31.987  1.00  0.00     0.031 C 
ATOM     43  C   UNL A   1      40.471  25.987  27.368  1.00  0.00     0.029 A 
ATOM     44  C   UNL A   1      41.656  26.065  28.218  1.00  0.00     0.049 A 
ATOM     45  H   UNL A   1      41.981  27.359  29.818  1.00  0.00     0.167 HD
ATOM     46  C   UNL A   1      42.731  30.391  32.870  1.00  0.00     0.034 A 
ATOM     47  C   UNL A   1      42.746  25.282  28.106  1.00  0.00     0.034 A 
ATOM     48  C   UNL A   1      43.853  29.495  32.947  1.00  0.00     0.049 A 
ATOM     49  C   UNL A   1      43.877  25.453  29.084  1.00  0.00     0.074 A 
ATOM     50  C   UNL A   1      44.918  29.523  33.829  1.00  0.00     0.029 A 
ATOM     51  N   UNL A   1      44.060  28.411  32.106  1.00  0.00    -0.354 N 
ATOM     52  N   UNL A   1      43.988  26.306  30.075  1.00  0.00    -0.248 NA
ATOM     53  C   UNL A   1      45.014  24.531  28.958  1.00  0.00     0.031 C 
ATOM     54  C   UNL A   1      45.780  28.467  33.510  1.00  0.00     0.029 A 
ATOM     55  C   UNL A   1      45.239  27.770  32.443  1.00  0.00     0.049 A 
ATOM     56  H   UNL A   1      43.458  28.139  31.377  1.00  0.00     0.167 HD
ATOM     57  C   UNL A   1      45.186  26.001  30.709  1.00  0.00     0.074 A 
ATOM     58  C   UNL A   1      45.756  24.870  30.004  1.00  0.00     0.031 C 
ATOM     59  C   UNL A   1      45.770  26.611  31.770  1.00  0.00     0.034 A 
BRANCH  46  60
ATOM     60  C   UNL A   1      42.692  31.560  33.820  1.00  0.00     0.023 A 
ATOM     61  C   UNL A   1      43.118  32.829  33.378  1.00  0.00     0.012 A 
ATOM     62  C   UNL A   1      42.177  31.421  35.124  1.00  0.00     0.148 A 
ATOM     63  C   UNL A   1      43.066  33.934  34.226  1.00  0.00     0.002 A 
ATOM     64  C   UNL A   1      42.087  32.537  35.950  1.00  0.00     0.091 A 
ATOM     65  F   UNL A   1      41.795  30.204  35.537  1.00  0.00    -0.205 F 
ATOM     66  C   UNL A   1      42.541  33.790  35.507  1.00  0.00     0.022 A 
BRANCH  64  67
ATOM     67  S   UNL A   1      41.355  32.469  37.590  1.00  0.00     0.127 S 
ATOM     68  O   UNL A   1      42.154  31.422  38.226  1.00  0.00    -0.237 OA
ATOM     69  O   UNL A   1      41.604  33.818  38.096  1.00  0.00    -0.237 OA
ATOM     70  O   UNL A   1      39.949  32.148  37.388  1.00  0.00    -0.744 OA
ENDBRANCH  64  67
ENDBRANCH  46  60
BRANCH  47  71
ATOM     71  C   UNL A   1      42.788  24.214  27.068  1.00  0.00     0.023 A 
ATOM     72  C   UNL A   1      43.534  24.422  25.891  1.00  0.00     0.012 A 
ATOM     73  C   UNL A   1      42.128  22.984  27.254  1.00  0.00     0.148 A 
ATOM     74  C   UNL A   1      43.599  23.436  24.906  1.00  0.00     0.002 A 
ATOM     75  C   UNL A   1      42.243  21.984  26.294  1.00  0.00     0.091 A 
ATOM     76  F   UNL A   1      41.413  22.809  28.375  1.00  0.00    -0.205 F 
ATOM     77  C   UNL A   1      42.964  22.214  25.112  1.00  0.00     0.022 A 
BRANCH  75  78
ATOM     78  S   UNL A   1      41.572  20.336  26.539  1.00  0.00     0.127 S 
ATOM     79  O   UNL A   1      40.140  20.601  26.605  1.00  0.00    -0.237 OA
ATOM     80  O   UNL A   1      42.019  19.645  25.328  1.00  0.00    -0.237 OA
ATOM     81  O   UNL A   1      42.185  19.842  27.767  1.00  0.00    -0.744 OA
ENDBRANCH  75  78
ENDBRANCH  47  71
BRANCH  59  82
ATOM     82  C   UNL A   1      47.079  26.055  32.265  1.00  0.00     0.023 A 
ATOM     83  C   UNL A   1      48.291  26.564  31.758  1.00  0.00     0.012 A 
ATOM     84  C   UNL A   1      47.109  25.089  33.291  1.00  0.00     0.148 A 
ATOM     85  C   UNL A   1      49.513  26.097  32.241  1.00  0.00     0.002 A 
ATOM     86  C   UNL A   1      48.330  24.664  33.800  1.00  0.00     0.091 A 
ATOM     87  F   UNL A   1      45.946  24.604  33.747  1.00  0.00    -0.205 F 
ATOM     88  C   UNL A   1      49.533  25.158  33.269  1.00  0.00     0.022 A 
BRANCH  86  89
ATOM     89  S   UNL A   1      48.449  23.529  35.188  1.00  0.00     0.127 S 
ATOM     90  O   UNL A   1      49.895  23.457  35.392  1.00  0.00    -0.237 OA
ATOM     91  O   UNL A   1      47.719  24.242  36.237  1.00  0.00    -0.237 OA
ATOM     92  O   UNL A   1      47.816  22.293  34.749  1.00  0.00    -0.744 OA
ENDBRANCH  86  89
ENDBRANCH  59  82
ENDBRANCH  33  34
ENDBRANCH  25  28
ENDBRANCH  23  24
ENDBRANCH  22  23
ENDBRANCH   1  22
TORSDOF 18
ENDMDL
MODEL 2
REMARK VINA RESULT:     -11.0      4.456      9.456
REMARK SMILES CC1(C)[C@H]2CC[C@]1(C)[C@](O)(CC(=O)NCCCCCCNC(=O)c1ccc(-c3c4nc(c(-c5cccc(S(=O)(=O)[O-])c5F)c5ccc([nH]5)c(-c5cccc(S(=O)(=O)[O-])c5F)c5nc(c(-c6cccc(S(=O)(=O)[O-])c6F)c6ccc3[nH]6)C=C5)C=C4)cc1)C2
REMARK SMILES IDX 18 1 17 2 16 3 15 4 14 5 12 6 13 7 11 9 9 10 1 11 2 12 3 13
REMARK SMILES IDX 4 14 7 15 5 16 87 17 6 18 8 19 10 20 19 22 20 23 21 24 22 25
REMARK SMILES IDX 23 27 24 28 25 29 86 30 26 31 85 32 27 33 28 34 29 35 79 36
REMARK SMILES IDX 30 37 84 38 78 39 80 40 31 41 83 42 77 43 76 44 32 46 64 47
REMARK SMILES IDX 44 48 63 49 45 50 48 51 62 52 81 53 46 54 47 55 61 57 82 58
REMARK SMILES IDX 49 59 33 60 34 61 42 62 35 63 37 64 43 65 36 66 38 67 39 68
REMARK SMILES IDX 40 69 41 70 65 71 66 72 74 73 67 74 69 75 75 76 68 77 70 78
REMARK SMILES IDX 71 79 72 80 73 81 50 82 51 83 59 84 52 85 54 86 60 87 53 88
REMARK SMILES IDX 55 89 56 90 57 91 58 92
REMARK H PARENT 14 8 10 21 21 26 80 45 48 56
REMARK Flexibility Score: inf
ROOT
ATOM      1  C   UNL A   1      34.860  22.143  24.385  1.00  0.00     0.002 C 
ENDROOT
BRANCH   1   2
ATOM      2  C   UNL A   1      34.733  21.104  25.495  1.00  0.00     0.002 C 
BRANCH   2   3
ATOM      3  C   UNL A   1      33.317  20.861  26.009  1.00  0.00     0.021 C 
BRANCH   3   4
ATOM      4  C   UNL A   1      32.168  21.418  25.159  1.00  0.00     0.116 C 
BRANCH   4   5
ATOM      5  N   UNL A   1      31.122  22.023  25.982  1.00  0.00    -0.356 N 
ATOM      6  C   UNL A   1      31.068  23.217  26.661  1.00  0.00     0.222 C 
ATOM      7  O   UNL A   1      30.085  23.416  27.378  1.00  0.00    -0.275 OA
ATOM      8  H   UNL A   1      30.308  21.475  26.066  1.00  0.00     0.163 HD
BRANCH   6   9
ATOM      9  C   UNL A   1      32.146  24.277  26.467  1.00  0.00     0.135 C 
BRANCH   9  10
ATOM     10  C   UNL A   1      31.826  25.670  25.825  1.00  0.00     0.080 C 
ATOM     11  C   UNL A   1      33.422  28.370  23.405  1.00  0.00     0.012 C 
ATOM     12  C   UNL A   1      32.393  27.498  24.177  1.00  0.00    -0.024 C 
ATOM     13  C   UNL A   1      31.190  28.422  24.417  1.00  0.00     0.012 C 
ATOM     14  C   UNL A   1      32.058  26.181  23.446  1.00  0.00    -0.002 C 
ATOM     15  C   UNL A   1      32.963  26.709  25.422  1.00  0.00     0.002 C 
ATOM     16  C   UNL A   1      33.406  25.419  23.448  1.00  0.00     0.005 C 
ATOM     17  C   UNL A   1      31.130  25.443  24.437  1.00  0.00     0.040 C 
ATOM     18  C   UNL A   1      34.088  25.938  24.726  1.00  0.00     0.010 C 
ATOM     19  C   UNL A   1      33.460  27.585  26.563  1.00  0.00     0.015 C 
BRANCH  10  20
ATOM     20  O   UNL A   1      30.924  26.316  26.738  1.00  0.00    -0.389 OA
ATOM     21  H   UNL A   1      30.362  25.649  27.162  1.00  0.00     0.211 HD
ENDBRANCH  10  20
ENDBRANCH   9  10
ENDBRANCH   6   9
ENDBRANCH   4   5
ENDBRANCH   3   4
ENDBRANCH   2   3
ENDBRANCH   1   2
BRANCH   1  22
ATOM     22  C   UNL A   1      36.222  22.837  24.250  1.00  0.00     0.021 C 
BRANCH  22  23
ATOM     23  C   UNL A   1      36.898  23.270  25.552  1.00  0.00     0.116 C 
BRANCH  23  24
ATOM     24  N   UNL A   1      37.949  22.357  25.967  1.00  0.00    -0.352 N 
ATOM     25  C   UNL A   1      39.190  22.627  26.488  1.00  0.00     0.251 C 
ATOM     26  H   UNL A   1      37.740  21.401  25.858  1.00  0.00     0.163 HD
ATOM     27  O   UNL A   1      40.012  21.723  26.605  1.00  0.00    -0.269 OA
BRANCH  25  28
ATOM     28  C   UNL A   1      39.548  24.005  26.893  1.00  0.00     0.039 A 
ATOM     29  C   UNL A   1      39.328  24.394  28.217  1.00  0.00     0.014 A 
ATOM     30  C   UNL A   1      40.066  24.919  25.970  1.00  0.00     0.014 A 
ATOM     31  C   UNL A   1      39.678  25.683  28.629  1.00  0.00     0.010 A 
ATOM     32  C   UNL A   1      40.472  26.183  26.398  1.00  0.00     0.010 A 
ATOM     33  C   UNL A   1      40.276  26.581  27.730  1.00  0.00    -0.014 A 
BRANCH  33  34
ATOM     34  C   UNL A   1      40.714  27.932  28.171  1.00  0.00     0.031 A 
ATOM     35  C   UNL A   1      42.174  28.290  28.202  1.00  0.00     0.074 A 
ATOM     36  C   UNL A   1      39.798  28.813  28.623  1.00  0.00     0.049 A 
ATOM     37  N   UNL A   1      42.743  29.400  28.598  1.00  0.00    -0.248 NA
ATOM     38  C   UNL A   1      43.124  27.258  27.754  1.00  0.00     0.031 C 
ATOM     39  C   UNL A   1      38.359  28.560  28.718  1.00  0.00     0.029 A 
ATOM     40  N   UNL A   1      39.944  30.087  29.112  1.00  0.00    -0.354 N 
ATOM     41  C   UNL A   1      44.112  29.190  28.481  1.00  0.00     0.074 A 
ATOM     42  C   UNL A   1      44.291  27.836  28.004  1.00  0.00     0.031 C 
ATOM     43  C   UNL A   1      37.756  29.642  29.237  1.00  0.00     0.029 A 
ATOM     44  C   UNL A   1      38.764  30.655  29.533  1.00  0.00     0.049 A 
ATOM     45  H   UNL A   1      40.811  30.551  29.159  1.00  0.00     0.167 HD
ATOM     46  C   UNL A   1      45.128  30.055  28.722  1.00  0.00     0.034 A 
ATOM     47  C   UNL A   1      38.520  31.854  30.098  1.00  0.00     0.034 A 
ATOM     48  C   UNL A   1      44.947  31.416  29.149  1.00  0.00     0.049 A 
ATOM     49  C   UNL A   1      39.660  32.814  30.306  1.00  0.00     0.074 A 
ATOM     50  C   UNL A   1      45.906  32.396  29.327  1.00  0.00     0.029 A 
ATOM     51  N   UNL A   1      43.726  31.989  29.473  1.00  0.00    -0.354 N 
ATOM     52  N   UNL A   1      40.932  32.655  30.029  1.00  0.00    -0.248 NA
ATOM     53  C   UNL A   1      39.328  34.133  30.866  1.00  0.00     0.031 C 
ATOM     54  C   UNL A   1      45.269  33.558  29.776  1.00  0.00     0.029 A 
ATOM     55  C   UNL A   1      43.909  33.306  29.857  1.00  0.00     0.049 A 
ATOM     56  H   UNL A   1      42.858  31.527  29.435  1.00  0.00     0.167 HD
ATOM     57  C   UNL A   1      41.545  33.861  30.348  1.00  0.00     0.074 A 
ATOM     58  C   UNL A   1      40.501  34.749  30.818  1.00  0.00     0.031 C 
ATOM     59  C   UNL A   1      42.856  34.198  30.271  1.00  0.00     0.034 A 
BRANCH  46  60
ATOM     60  C   UNL A   1      46.532  29.571  28.472  1.00  0.00     0.023 A 
ATOM     61  C   UNL A   1      47.141  29.820  27.224  1.00  0.00     0.012 A 
ATOM     62  C   UNL A   1      47.272  28.928  29.484  1.00  0.00     0.148 A 
ATOM     63  C   UNL A   1      48.450  29.408  26.975  1.00  0.00     0.002 A 
ATOM     64  C   UNL A   1      48.592  28.560  29.243  1.00  0.00     0.091 A 
ATOM     65  F   UNL A   1      46.673  28.680  30.657  1.00  0.00    -0.205 F 
ATOM     66  C   UNL A   1      49.178  28.789  27.987  1.00  0.00     0.022 A 
BRANCH  64  67
ATOM     67  S   UNL A   1      49.636  27.825  30.507  1.00  0.00     0.127 S 
ATOM     68  O   UNL A   1      49.621  28.860  31.540  1.00  0.00    -0.237 OA
ATOM     69  O   UNL A   1      48.898  26.610  30.852  1.00  0.00    -0.237 OA
ATOM     70  O   UNL A   1      50.927  27.591  29.874  1.00  0.00    -0.744 OA
ENDBRANCH  64  67
ENDBRANCH  46  60
BRANCH  47  71
ATOM     71  C   UNL A   1      37.122  32.240  30.440  1.00  0.00     0.023 A 
ATOM     72  C   UNL A   1      36.644  32.023  31.746  1.00  0.00     0.012 A 
ATOM     73  C   UNL A   1      36.278  32.855  29.494  1.00  0.00     0.148 A 
ATOM     74  C   UNL A   1      35.342  32.383  32.097  1.00  0.00     0.002 A 
ATOM     75  C   UNL A   1      35.002  33.263  29.865  1.00  0.00     0.091 A 
ATOM     76  F   UNL A   1      36.747  33.043  28.251  1.00  0.00    -0.205 F 
ATOM     77  C   UNL A   1      34.526  33.014  31.162  1.00  0.00     0.022 A 
BRANCH  75  78
ATOM     78  S   UNL A   1      33.935  34.202  28.766  1.00  0.00     0.127 S 
ATOM     79  O   UNL A   1      34.806  35.302  28.368  1.00  0.00    -0.237 OA
ATOM     80  O   UNL A   1      33.651  33.226  27.713  1.00  0.00    -0.237 OA
ATOM     81  O   UNL A   1      32.773  34.569  29.568  1.00  0.00    -0.744 OA
ENDBRANCH  75  78
ENDBRANCH  47  71
BRANCH  59  82
ATOM     82  C   UNL A   1      43.245  35.597  30.672  1.00  0.00     0.023 A 
ATOM     83  C   UNL A   1      43.626  35.863  32.002  1.00  0.00     0.012 A 
ATOM     84  C   UNL A   1      43.312  36.628  29.713  1.00  0.00     0.148 A 
ATOM     85  C   UNL A   1      44.037  37.141  32.379  1.00  0.00     0.002 A 
ATOM     86  C   UNL A   1      43.768  37.887  30.087  1.00  0.00     0.091 A 
ATOM     87  F   UNL A   1      42.927  36.360  28.458  1.00  0.00    -0.205 F 
ATOM     88  C   UNL A   1      44.121  38.149  31.421  1.00  0.00     0.022 A 
BRANCH  86  89
ATOM     89  S   UNL A   1      43.998  39.216  28.900  1.00  0.00     0.127 S 
ATOM     90  O   UNL A   1      44.921  38.606  27.944  1.00  0.00    -0.237 OA
ATOM     91  O   UNL A   1      42.640  39.418  28.392  1.00  0.00    -0.237 OA
ATOM     92  O   UNL A   1      44.530  40.341  29.657  1.00  0.00    -0.744 OA
ENDBRANCH  86  89
ENDBRANCH  59  82
ENDBRANCH  33  34
ENDBRANCH  25  28
ENDBRANCH  23  24
ENDBRANCH  22  23
ENDBRANCH   1  22
TORSDOF 18
ENDMDL
MODEL 3
REMARK VINA RESULT:     -10.8      4.931      9.651
REMARK SMILES CC1(C)[C@H]2CC[C@]1(C)[C@](O)(CC(=O)NCCCCCCNC(=O)c1ccc(-c3c4nc(c(-c5cccc(S(=O)(=O)[O-])c5F)c5ccc([nH]5)c(-c5cccc(S(=O)(=O)[O-])c5F)c5nc(c(-c6cccc(S(=O)(=O)[O-])c6F)c6ccc3[nH]6)C=C5)C=C4)cc1)C2
REMARK SMILES IDX 18 1 17 2 16 3 15 4 14 5 12 6 13 7 11 9 9 10 1 11 2 12 3 13
REMARK SMILES IDX 4 14 7 15 5 16 87 17 6 18 8 19 10 20 19 22 20 23 21 24 22 25
REMARK SMILES IDX 23 27 24 28 25 29 86 30 26 31 85 32 27 33 28 34 29 35 79 36
REMARK SMILES IDX 30 37 84 38 78 39 80 40 31 41 83 42 77 43 76 44 32 46 64 47
REMARK SMILES IDX 44 48 63 49 45 50 48 51 62 52 81 53 46 54 47 55 61 57 82 58
REMARK SMILES IDX 49 59 33 60 34 61 42 62 35 63 37 64 43 65 36 66 38 67 39 68
REMARK SMILES IDX 40 69 41 70 65 71 66 72 74 73 67 74 69 75 75 76 68 77 70 78
REMARK SMILES IDX 71 79 72 80 73 81 50 82 51 83 59 84 52 85 54 86 60 87 53 88
REMARK SMILES IDX 55 89 56 90 57 91 58 92
REMARK H PARENT 14 8 10 21 21 26 80 45 48 56
REMARK Flexibility Score: inf
ROOT
ATOM      1  C   UNL A   1      34.739  21.900  24.276  1.00  0.00     0.002 C 
ENDROOT
BRANCH   1   2
ATOM      2  C   UNL A   1      34.271  20.625  24.973  1.00  0.00     0.002 C 
BRANCH   2   3
ATOM      3  C   UNL A   1      33.539  20.830  26.296  1.00  0.00     0.021 C 
BRANCH   3   4
ATOM      4  C   UNL A   1      33.234  22.278  26.700  1.00  0.00     0.116 C 
BRANCH   4   5
ATOM      5  N   UNL A   1      31.865  22.431  27.192  1.00  0.00    -0.356 N 
ATOM      6  C   UNL A   1      30.830  23.239  26.784  1.00  0.00     0.222 C 
ATOM      7  O   UNL A   1      29.807  23.237  27.471  1.00  0.00    -0.275 OA
ATOM      8  H   UNL A   1      31.644  21.849  27.956  1.00  0.00     0.163 HD
BRANCH   6   9
ATOM      9  C   UNL A   1      30.927  24.040  25.491  1.00  0.00     0.135 C 
BRANCH   9  10
ATOM     10  C   UNL A   1      31.166  25.589  25.497  1.00  0.00     0.080 C 
ATOM     11  C   UNL A   1      32.928  28.429  23.372  1.00  0.00     0.012 C 
ATOM     12  C   UNL A   1      31.957  27.683  24.328  1.00  0.00    -0.024 C 
ATOM     13  C   UNL A   1      31.584  28.716  25.401  1.00  0.00     0.012 C 
ATOM     14  C   UNL A   1      30.754  27.059  23.589  1.00  0.00    -0.002 C 
ATOM     15  C   UNL A   1      32.441  26.263  24.823  1.00  0.00     0.002 C 
ATOM     16  C   UNL A   1      31.409  25.997  22.673  1.00  0.00     0.005 C 
ATOM     17  C   UNL A   1      30.008  26.286  24.700  1.00  0.00     0.040 C 
ATOM     18  C   UNL A   1      32.667  25.596  23.462  1.00  0.00     0.010 C 
ATOM     19  C   UNL A   1      33.690  26.278  25.692  1.00  0.00     0.015 C 
BRANCH  10  20
ATOM     20  O   UNL A   1      31.126  25.978  26.880  1.00  0.00    -0.389 OA
ATOM     21  H   UNL A   1      31.299  25.203  27.438  1.00  0.00     0.211 HD
ENDBRANCH  10  20
ENDBRANCH   9  10
ENDBRANCH   6   9
ENDBRANCH   4   5
ENDBRANCH   3   4
ENDBRANCH   2   3
ENDBRANCH   1   2
BRANCH   1  22
ATOM     22  C   UNL A   1      36.240  22.211  24.355  1.00  0.00     0.021 C 
BRANCH  22  23
ATOM     23  C   UNL A   1      36.851  22.263  25.756  1.00  0.00     0.116 C 
BRANCH  23  24
ATOM     24  N   UNL A   1      37.905  21.282  25.944  1.00  0.00    -0.352 N 
ATOM     25  C   UNL A   1      39.225  21.464  26.273  1.00  0.00     0.251 C 
ATOM     26  H   UNL A   1      37.631  20.345  25.816  1.00  0.00     0.163 HD
ATOM     27  O   UNL A   1      40.007  20.520  26.205  1.00  0.00    -0.269 OA
BRANCH  25  28
ATOM     28  C   UNL A   1      39.715  22.796  26.693  1.00  0.00     0.039 A 
ATOM     29  C   UNL A   1      40.695  22.867  27.686  1.00  0.00     0.014 A 
ATOM     30  C   UNL A   1      39.192  23.968  26.138  1.00  0.00     0.014 A 
ATOM     31  C   UNL A   1      41.190  24.113  28.085  1.00  0.00     0.010 A 
ATOM     32  C   UNL A   1      39.731  25.204  26.492  1.00  0.00     0.010 A 
ATOM     33  C   UNL A   1      40.731  25.291  27.474  1.00  0.00    -0.014 A 
BRANCH  33  34
ATOM     34  C   UNL A   1      41.295  26.617  27.841  1.00  0.00     0.031 A 
ATOM     35  C   UNL A   1      42.734  26.942  27.549  1.00  0.00     0.074 A 
ATOM     36  C   UNL A   1      40.531  27.502  28.513  1.00  0.00     0.049 A 
ATOM     37  N   UNL A   1      43.410  28.026  27.836  1.00  0.00    -0.248 NA
ATOM     38  C   UNL A   1      43.528  25.905  26.869  1.00  0.00     0.031 C 
ATOM     39  C   UNL A   1      39.144  27.276  28.926  1.00  0.00     0.029 A 
ATOM     40  N   UNL A   1      40.820  28.756  28.992  1.00  0.00    -0.354 N 
ATOM     41  C   UNL A   1      44.709  27.790  27.406  1.00  0.00     0.074 A 
ATOM     42  C   UNL A   1      44.737  26.449  26.863  1.00  0.00     0.031 C 
ATOM     43  C   UNL A   1      38.705  28.354  29.598  1.00  0.00     0.029 A 
ATOM     44  C   UNL A   1      39.783  29.334  29.686  1.00  0.00     0.049 A 
ATOM     45  H   UNL A   1      41.688  29.198  28.853  1.00  0.00     0.167 HD
ATOM     46  C   UNL A   1      45.778  28.624  27.433  1.00  0.00     0.034 A 
ATOM     47  C   UNL A   1      39.707  30.519  30.324  1.00  0.00     0.034 A 
ATOM     48  C   UNL A   1      45.738  29.973  27.928  1.00  0.00     0.049 A 
ATOM     49  C   UNL A   1      40.892  31.446  30.294  1.00  0.00     0.074 A 
ATOM     50  C   UNL A   1      46.740  30.927  27.910  1.00  0.00     0.029 A 
ATOM     51  N   UNL A   1      44.639  30.562  28.536  1.00  0.00    -0.354 N 
ATOM     52  N   UNL A   1      42.063  31.270  29.731  1.00  0.00    -0.248 NA
ATOM     53  C   UNL A   1      40.734  32.752  30.951  1.00  0.00     0.031 C 
ATOM     54  C   UNL A   1      46.254  32.086  28.524  1.00  0.00     0.029 A 
ATOM     55  C   UNL A   1      44.942  31.861  28.905  1.00  0.00     0.049 A 
ATOM     56  H   UNL A   1      43.772  30.120  28.684  1.00  0.00     0.167 HD
ATOM     57  C   UNL A   1      42.767  32.450  29.935  1.00  0.00     0.074 A 
ATOM     58  C   UNL A   1      41.883  33.345  30.655  1.00  0.00     0.031 C 
ATOM     59  C   UNL A   1      44.036  32.762  29.572  1.00  0.00     0.034 A 
BRANCH  46  60
ATOM     60  C   UNL A   1      47.075  28.118  26.857  1.00  0.00     0.023 A 
ATOM     61  C   UNL A   1      48.093  27.672  27.725  1.00  0.00     0.012 A 
ATOM     62  C   UNL A   1      47.266  28.025  25.465  1.00  0.00     0.148 A 
ATOM     63  C   UNL A   1      49.292  27.173  27.219  1.00  0.00     0.002 A 
ATOM     64  C   UNL A   1      48.448  27.485  24.967  1.00  0.00     0.091 A 
ATOM     65  F   UNL A   1      46.298  28.473  24.653  1.00  0.00    -0.205 F 
ATOM     66  C   UNL A   1      49.465  27.070  25.842  1.00  0.00     0.022 A 
BRANCH  64  67
ATOM     67  S   UNL A   1      48.734  27.239  23.210  1.00  0.00     0.127 S 
ATOM     68  O   UNL A   1      50.191  27.332  23.133  1.00  0.00    -0.237 OA
ATOM     69  O   UNL A   1      48.197  25.895  22.995  1.00  0.00    -0.237 OA
ATOM     70  O   UNL A   1      48.001  28.300  22.533  1.00  0.00    -0.744 OA
ENDBRANCH  64  67
ENDBRANCH  46  60
BRANCH  47  71
ATOM     71  C   UNL A   1      38.435  30.923  30.985  1.00  0.00     0.023 A 
ATOM     72  C   UNL A   1      38.261  30.675  32.360  1.00  0.00     0.012 A 
ATOM     73  C   UNL A   1      37.416  31.585  30.272  1.00  0.00     0.148 A 
ATOM     74  C   UNL A   1      37.083  31.052  33.008  1.00  0.00     0.002 A 
ATOM     75  C   UNL A   1      36.269  32.008  30.935  1.00  0.00     0.091 A 
ATOM     76  F   UNL A   1      37.595  31.801  28.960  1.00  0.00    -0.205 F 
ATOM     77  C   UNL A   1      36.094  31.728  32.299  1.00  0.00     0.022 A 
BRANCH  75  78
ATOM     78  S   UNL A   1      35.006  33.002  30.132  1.00  0.00     0.127 S 
ATOM     79  O   UNL A   1      34.453  32.061  29.165  1.00  0.00    -0.237 OA
ATOM     80  O   UNL A   1      34.122  33.330  31.251  1.00  0.00    -0.237 OA
ATOM     81  O   UNL A   1      35.710  34.150  29.572  1.00  0.00    -0.744 OA
ENDBRANCH  75  78
ENDBRANCH  47  71
BRANCH  59  82
ATOM     82  C   UNL A   1      44.545  34.138  29.912  1.00  0.00     0.023 A 
ATOM     83  C   UNL A   1      45.282  34.337  31.097  1.00  0.00     0.012 A 
ATOM     84  C   UNL A   1      44.365  35.213  29.020  1.00  0.00     0.148 A 
ATOM     85  C   UNL A   1      45.804  35.593  31.403  1.00  0.00     0.002 A 
ATOM     86  C   UNL A   1      44.929  36.450  29.310  1.00  0.00     0.091 A 
ATOM     87  F   UNL A   1      43.645  35.008  27.908  1.00  0.00    -0.205 F 
ATOM     88  C   UNL A   1      45.639  36.645  30.505  1.00  0.00     0.022 A 
BRANCH  86  89
ATOM     89  S   UNL A   1      44.847  37.834  28.166  1.00  0.00     0.127 S 
ATOM     90  O   UNL A   1      43.408  38.083  28.102  1.00  0.00    -0.237 OA
ATOM     91  O   UNL A   1      45.614  38.865  28.869  1.00  0.00    -0.237 OA
ATOM     92  O   UNL A   1      45.459  37.368  26.930  1.00  0.00    -0.744 OA
ENDBRANCH  86  89
ENDBRANCH  59  82
ENDBRANCH  33  34
ENDBRANCH  25  28
ENDBRANCH  23  24
ENDBRANCH  22  23
ENDBRANCH   1  22
TORSDOF 18
ENDMDL
