MODEL 1
REMARK VINA RESULT:     -10.7      0.000      0.000
REMARK SMILES CCNC(=O)c1ccc(N[C@@H]2COC[C@@]2(C)C(=O)NCCCCCCNC(=O)c2ccc(-c3c4nc(c(-c5cccc(S(=O)(=O)[O-])c5F)c5ccc([nH]5)c(-c5cccc(S(=O)(=O)[O-])c5F)c5nc(c(-c6cccc(S(=O)(=O)[O-])c6F)c6ccc3[nH]6)C=C5)C=C4)cc2)nn1
REMARK SMILES IDX 22 1 21 2 20 3 19 4 17 5 18 6 15 8 11 9 12 10 13 11 14 12
REMARK SMILES IDX 16 13 10 14 9 16 6 17 7 18 93 19 8 20 92 21 4 22 3 23 5 25
REMARK SMILES IDX 2 26 1 27 23 28 24 29 25 30 26 31 27 32 28 34 29 35 30 36
REMARK SMILES IDX 91 37 31 38 90 39 32 40 33 41 34 42 84 43 35 44 89 45 83 46
REMARK SMILES IDX 85 47 36 48 88 49 82 50 81 51 37 53 69 54 49 55 68 56 50 57
REMARK SMILES IDX 53 58 67 59 86 60 51 61 52 62 66 64 87 65 54 66 38 67 39 68
REMARK SMILES IDX 47 69 40 70 42 71 48 72 41 73 43 74 44 75 45 76 46 77 70 78
REMARK SMILES IDX 71 79 79 80 72 81 74 82 80 83 73 84 75 85 76 86 77 87 78 88
REMARK SMILES IDX 55 89 56 90 64 91 57 92 59 93 65 94 58 95 60 96 61 97 62 98
REMARK SMILES IDX 63 99
REMARK H PARENT 19 7 10 15 3 24 26 33 85 52 53 63
REMARK Flexibility Score: inf
ROOT
ATOM      1  C   UNL A   1      34.621  24.227  23.602  1.00  0.00     0.002 C 
ENDROOT
BRANCH   1   2
ATOM      2  C   UNL A   1      33.487  23.941  22.613  1.00  0.00     0.021 C 
BRANCH   2   3
ATOM      3  C   UNL A   1      33.061  25.137  21.764  1.00  0.00     0.116 C 
BRANCH   3   4
ATOM      4  N   UNL A   1      31.749  25.630  22.146  1.00  0.00    -0.355 N 
ATOM      5  C   UNL A   1      31.262  26.813  22.588  1.00  0.00     0.230 C 
ATOM      6  O   UNL A   1      30.025  26.840  22.695  1.00  0.00    -0.274 OA
ATOM      7  H   UNL A   1      31.051  24.941  22.064  1.00  0.00     0.163 HD
BRANCH   5   8
ATOM      8  C   UNL A   1      32.081  28.059  22.956  1.00  0.00     0.092 C 
ATOM      9  C   UNL A   1      32.959  27.743  24.186  1.00  0.00     0.124 C 
ATOM     10  C   UNL A   1      34.157  28.662  24.011  1.00  0.00     0.186 C 
ATOM     11  O   UNL A   1      34.367  28.764  22.587  1.00  0.00    -0.378 OA
ATOM     12  C   UNL A   1      33.218  28.202  21.920  1.00  0.00     0.179 C 
ATOM     13  C   UNL A   1      31.377  29.416  22.990  1.00  0.00     0.026 C 
BRANCH   9  14
ATOM     14  N   UNL A   1      32.312  27.705  25.494  1.00  0.00    -0.362 N 
ATOM     15  H   UNL A   1      32.233  28.557  25.980  1.00  0.00     0.162 HD
BRANCH  14  16
ATOM     16  C   UNL A   1      31.801  26.584  26.109  1.00  0.00     0.149 A 
ATOM     17  C   UNL A   1      30.793  24.148  26.789  1.00  0.00     0.150 A 
ATOM     18  C   UNL A   1      32.167  24.294  26.753  1.00  0.00     0.040 A 
ATOM     19  N   UNL A   1      29.950  25.177  26.572  1.00  0.00    -0.143 NA
ATOM     20  C   UNL A   1      32.675  25.546  26.418  1.00  0.00     0.051 A 
ATOM     21  N   UNL A   1      30.472  26.405  26.242  1.00  0.00    -0.132 NA
BRANCH  17  22
ATOM     22  C   UNL A   1      30.204  22.800  26.893  1.00  0.00     0.271 C 
ATOM     23  N   UNL A   1      30.617  21.821  26.024  1.00  0.00    -0.351 N 
ATOM     24  H   UNL A   1      30.082  20.995  26.015  1.00  0.00     0.163 HD
ATOM     25  O   UNL A   1      29.311  22.613  27.714  1.00  0.00    -0.267 OA
BRANCH  23  26
ATOM     26  C   UNL A   1      31.749  21.857  25.117  1.00  0.00     0.113 C 
ATOM     27  C   UNL A   1      32.192  20.455  24.740  1.00  0.00     0.027 C 
ENDBRANCH  23  26
ENDBRANCH  17  22
ENDBRANCH  14  16
ENDBRANCH   9  14
ENDBRANCH   5   8
ENDBRANCH   3   4
ENDBRANCH   2   3
ENDBRANCH   1   2
BRANCH   1  28
ATOM     28  C   UNL A   1      34.917  23.112  24.614  1.00  0.00     0.002 C 
BRANCH  28  29
ATOM     29  C   UNL A   1      36.266  22.406  24.455  1.00  0.00     0.021 C 
BRANCH  29  30
ATOM     30  C   UNL A   1      37.468  23.155  25.023  1.00  0.00     0.116 C 
BRANCH  30  31
ATOM     31  N   UNL A   1      38.408  22.267  25.688  1.00  0.00    -0.352 N 
ATOM     32  C   UNL A   1      39.522  22.573  26.428  1.00  0.00     0.251 C 
ATOM     33  H   UNL A   1      38.218  21.305  25.591  1.00  0.00     0.163 HD
ATOM     34  O   UNL A   1      40.299  21.679  26.759  1.00  0.00    -0.269 OA
BRANCH  32  35
ATOM     35  C   UNL A   1      39.798  23.973  26.811  1.00  0.00     0.039 A 
ATOM     36  C   UNL A   1      39.473  24.394  28.104  1.00  0.00     0.014 A 
ATOM     37  C   UNL A   1      40.368  24.869  25.902  1.00  0.00     0.014 A 
ATOM     38  C   UNL A   1      39.777  25.698  28.504  1.00  0.00     0.010 A 
ATOM     39  C   UNL A   1      40.729  26.147  26.324  1.00  0.00     0.010 A 
ATOM     40  C   UNL A   1      40.438  26.573  27.628  1.00  0.00    -0.014 A 
BRANCH  40  41
ATOM     41  C   UNL A   1      40.871  27.923  28.073  1.00  0.00     0.031 A 
ATOM     42  C   UNL A   1      42.331  28.276  28.141  1.00  0.00     0.074 A 
ATOM     43  C   UNL A   1      39.945  28.796  28.519  1.00  0.00     0.049 A 
ATOM     44  N   UNL A   1      42.893  29.382  28.553  1.00  0.00    -0.248 NA
ATOM     45  C   UNL A   1      43.287  27.241  27.714  1.00  0.00     0.031 C 
ATOM     46  C   UNL A   1      38.506  28.533  28.594  1.00  0.00     0.029 A 
ATOM     47  N   UNL A   1      40.078  30.062  29.032  1.00  0.00    -0.354 N 
ATOM     48  C   UNL A   1      44.263  29.166  28.476  1.00  0.00     0.074 A 
ATOM     49  C   UNL A   1      44.449  27.812  27.999  1.00  0.00     0.031 C 
ATOM     50  C   UNL A   1      37.891  29.597  29.133  1.00  0.00     0.029 A 
ATOM     51  C   UNL A   1      38.891  30.606  29.467  1.00  0.00     0.049 A 
ATOM     52  H   UNL A   1      40.939  30.536  29.083  1.00  0.00     0.167 HD
ATOM     53  C   UNL A   1      45.273  30.024  28.754  1.00  0.00     0.034 A 
ATOM     54  C   UNL A   1      38.635  31.779  30.079  1.00  0.00     0.034 A 
ATOM     55  C   UNL A   1      45.080  31.381  29.188  1.00  0.00     0.049 A 
ATOM     56  C   UNL A   1      39.769  32.739  30.318  1.00  0.00     0.074 A 
ATOM     57  C   UNL A   1      46.033  32.367  29.378  1.00  0.00     0.029 A 
ATOM     58  N   UNL A   1      43.856  31.940  29.518  1.00  0.00    -0.354 N 
ATOM     59  N   UNL A   1      41.045  32.592  30.048  1.00  0.00    -0.248 NA
ATOM     60  C   UNL A   1      39.429  34.041  30.909  1.00  0.00     0.031 C 
ATOM     61  C   UNL A   1      45.385  33.515  29.850  1.00  0.00     0.029 A 
ATOM     62  C   UNL A   1      44.026  33.250  29.931  1.00  0.00     0.049 A 
ATOM     63  H   UNL A   1      42.990  31.473  29.467  1.00  0.00     0.167 HD
ATOM     64  C   UNL A   1      41.655  33.785  30.416  1.00  0.00     0.074 A 
ATOM     65  C   UNL A   1      40.604  34.657  30.899  1.00  0.00     0.031 C 
ATOM     66  C   UNL A   1      42.968  34.122  30.374  1.00  0.00     0.034 A 
BRANCH  53  67
ATOM     67  C   UNL A   1      46.684  29.535  28.548  1.00  0.00     0.023 A 
ATOM     68  C   UNL A   1      47.323  29.753  27.310  1.00  0.00     0.012 A 
ATOM     69  C   UNL A   1      47.398  28.913  29.591  1.00  0.00     0.148 A 
ATOM     70  C   UNL A   1      48.634  29.329  27.101  1.00  0.00     0.002 A 
ATOM     71  C   UNL A   1      48.719  28.531  29.390  1.00  0.00     0.091 A 
ATOM     72  F   UNL A   1      46.769  28.693  30.755  1.00  0.00    -0.205 F 
ATOM     73  C   UNL A   1      49.335  28.727  28.143  1.00  0.00     0.022 A 
BRANCH  71  74
ATOM     74  S   UNL A   1      49.730  27.820  30.694  1.00  0.00     0.127 S 
ATOM     75  O   UNL A   1      49.032  26.563  30.956  1.00  0.00    -0.237 OA
ATOM     76  O   UNL A   1      51.027  27.670  30.033  1.00  0.00    -0.237 OA
ATOM     77  O   UNL A   1      49.715  28.786  31.783  1.00  0.00    -0.744 OA
ENDBRANCH  71  74
ENDBRANCH  53  67
BRANCH  54  78
ATOM     78  C   UNL A   1      37.232  32.130  30.440  1.00  0.00     0.023 A 
ATOM     79  C   UNL A   1      36.769  31.861  31.742  1.00  0.00     0.012 A 
ATOM     80  C   UNL A   1      36.376  32.780  29.527  1.00  0.00     0.148 A 
ATOM     81  C   UNL A   1      35.471  32.207  32.121  1.00  0.00     0.002 A 
ATOM     82  C   UNL A   1      35.103  33.170  29.926  1.00  0.00     0.091 A 
ATOM     83  F   UNL A   1      36.834  33.024  28.291  1.00  0.00    -0.205 F 
ATOM     84  C   UNL A   1      34.644  32.870  31.218  1.00  0.00     0.022 A 
BRANCH  82  85
ATOM     85  S   UNL A   1      34.010  34.144  28.882  1.00  0.00     0.127 S 
ATOM     86  O   UNL A   1      33.525  33.145  27.934  1.00  0.00    -0.237 OA
ATOM     87  O   UNL A   1      33.010  34.614  29.843  1.00  0.00    -0.237 OA
ATOM     88  O   UNL A   1      34.830  35.203  28.308  1.00  0.00    -0.744 OA
ENDBRANCH  82  85
ENDBRANCH  54  78
BRANCH  66  89
ATOM     89  C   UNL A   1      43.353  35.496  30.858  1.00  0.00     0.023 A 
ATOM     90  C   UNL A   1      43.697  35.686  32.210  1.00  0.00     0.012 A 
ATOM     91  C   UNL A   1      43.454  36.579  29.961  1.00  0.00     0.148 A 
ATOM     92  C   UNL A   1      44.106  36.937  32.670  1.00  0.00     0.002 A 
ATOM     93  C   UNL A   1      43.908  37.811  30.416  1.00  0.00     0.091 A 
ATOM     94  F   UNL A   1      43.107  36.382  28.681  1.00  0.00    -0.205 F 
ATOM     95  C   UNL A   1      44.224  37.996  31.772  1.00  0.00     0.022 A 
BRANCH  93  96
ATOM     96  S   UNL A   1      44.181  39.205  29.315  1.00  0.00     0.127 S 
ATOM     97  O   UNL A   1      44.819  40.169  30.208  1.00  0.00    -0.237 OA
ATOM     98  O   UNL A   1      45.068  38.632  28.302  1.00  0.00    -0.237 OA
ATOM     99  O   UNL A   1      42.865  39.587  28.819  1.00  0.00    -0.744 OA
ENDBRANCH  93  96
ENDBRANCH  66  89
ENDBRANCH  40  41
ENDBRANCH  32  35
ENDBRANCH  30  31
ENDBRANCH  29  30
ENDBRANCH  28  29
ENDBRANCH   1  28
TORSDOF 20
ENDMDL
MODEL 2
REMARK VINA RESULT:     -10.7      4.896      9.391
REMARK SMILES CCNC(=O)c1ccc(N[C@@H]2COC[C@@]2(C)C(=O)NCCCCCCNC(=O)c2ccc(-c3c4nc(c(-c5cccc(S(=O)(=O)[O-])c5F)c5ccc([nH]5)c(-c5cccc(S(=O)(=O)[O-])c5F)c5nc(c(-c6cccc(S(=O)(=O)[O-])c6F)c6ccc3[nH]6)C=C5)C=C4)cc2)nn1
REMARK SMILES IDX 22 1 21 2 20 3 19 4 17 5 18 6 15 8 11 9 12 10 13 11 14 12
REMARK SMILES IDX 16 13 10 14 9 16 6 17 7 18 93 19 8 20 92 21 4 22 3 23 5 25
REMARK SMILES IDX 2 26 1 27 23 28 24 29 25 30 26 31 27 32 28 34 29 35 30 36
REMARK SMILES IDX 91 37 31 38 90 39 32 40 33 41 34 42 84 43 35 44 89 45 83 46
REMARK SMILES IDX 85 47 36 48 88 49 82 50 81 51 37 53 69 54 49 55 68 56 50 57
REMARK SMILES IDX 53 58 67 59 86 60 51 61 52 62 66 64 87 65 54 66 38 67 39 68
REMARK SMILES IDX 47 69 40 70 42 71 48 72 41 73 43 74 44 75 45 76 46 77 70 78
REMARK SMILES IDX 71 79 79 80 72 81 74 82 80 83 73 84 75 85 76 86 77 87 78 88
REMARK SMILES IDX 55 89 56 90 64 91 57 92 59 93 65 94 58 95 60 96 61 97 62 98
REMARK SMILES IDX 63 99
REMARK H PARENT 19 7 10 15 3 24 26 33 85 52 53 63
REMARK Flexibility Score: inf
ROOT
ATOM      1  C   UNL A   1      32.381  29.812  27.297  1.00  0.00     0.002 C 
ENDROOT
BRANCH   1   2
ATOM      2  C   UNL A   1      32.841  28.850  26.196  1.00  0.00     0.021 C 
BRANCH   2   3
ATOM      3  C   UNL A   1      32.614  29.352  24.772  1.00  0.00     0.116 C 
BRANCH   3   4
ATOM      4  N   UNL A   1      31.490  28.688  24.137  1.00  0.00    -0.355 N 
ATOM      5  C   UNL A   1      31.284  27.468  23.586  1.00  0.00     0.230 C 
ATOM      6  O   UNL A   1      30.108  27.263  23.245  1.00  0.00    -0.274 OA
ATOM      7  H   UNL A   1      30.690  29.260  24.098  1.00  0.00     0.163 HD
BRANCH   5   8
ATOM      8  C   UNL A   1      32.342  26.378  23.357  1.00  0.00     0.092 C 
ATOM      9  C   UNL A   1      31.762  25.300  22.416  1.00  0.00     0.124 C 
ATOM     10  C   UNL A   1      32.991  24.750  21.711  1.00  0.00     0.186 C 
ATOM     11  O   UNL A   1      33.897  25.864  21.575  1.00  0.00    -0.378 OA
ATOM     12  C   UNL A   1      33.406  26.947  22.392  1.00  0.00     0.179 C 
ATOM     13  C   UNL A   1      33.116  25.844  24.561  1.00  0.00     0.026 C 
BRANCH   9  14
ATOM     14  N   UNL A   1      30.811  24.346  22.976  1.00  0.00    -0.362 N 
ATOM     15  H   UNL A   1      29.861  24.602  22.970  1.00  0.00     0.162 HD
BRANCH  14  16
ATOM     16  C   UNL A   1      31.124  23.116  23.512  1.00  0.00     0.149 A 
ATOM     17  C   UNL A   1      32.264  20.922  24.652  1.00  0.00     0.150 A 
ATOM     18  C   UNL A   1      31.689  21.862  25.486  1.00  0.00     0.040 A 
ATOM     19  N   UNL A   1      32.216  21.021  23.309  1.00  0.00    -0.143 NA
ATOM     20  C   UNL A   1      31.095  22.974  24.896  1.00  0.00     0.051 A 
ATOM     21  N   UNL A   1      31.625  22.128  22.745  1.00  0.00    -0.132 NA
BRANCH  17  22
ATOM     22  C   UNL A   1      33.115  19.861  25.222  1.00  0.00     0.271 C 
ATOM     23  N   UNL A   1      34.480  20.005  25.182  1.00  0.00    -0.351 N 
ATOM     24  H   UNL A   1      35.006  19.206  25.416  1.00  0.00     0.163 HD
ATOM     25  O   UNL A   1      32.575  18.850  25.659  1.00  0.00    -0.267 OA
BRANCH  23  26
ATOM     26  C   UNL A   1      35.239  21.191  24.838  1.00  0.00     0.113 C 
ATOM     27  C   UNL A   1      36.672  21.084  25.327  1.00  0.00     0.027 C 
ENDBRANCH  23  26
ENDBRANCH  17  22
ENDBRANCH  14  16
ENDBRANCH   9  14
ENDBRANCH   5   8
ENDBRANCH   3   4
ENDBRANCH   2   3
ENDBRANCH   1   2
BRANCH   1  28
ATOM     28  C   UNL A   1      32.659  31.297  27.040  1.00  0.00     0.002 C 
BRANCH  28  29
ATOM     29  C   UNL A   1      33.581  31.989  28.048  1.00  0.00     0.021 C 
BRANCH  29  30
ATOM     30  C   UNL A   1      33.909  33.448  27.740  1.00  0.00     0.116 C 
BRANCH  30  31
ATOM     31  N   UNL A   1      33.275  34.365  28.674  1.00  0.00    -0.352 N 
ATOM     32  C   UNL A   1      33.522  34.557  30.010  1.00  0.00     0.251 C 
ATOM     33  H   UNL A   1      32.563  34.928  28.293  1.00  0.00     0.163 HD
ATOM     34  O   UNL A   1      32.757  35.250  30.679  1.00  0.00    -0.269 OA
BRANCH  32  35
ATOM     35  C   UNL A   1      34.693  33.920  30.648  1.00  0.00     0.039 A 
ATOM     36  C   UNL A   1      34.480  32.898  31.578  1.00  0.00     0.014 A 
ATOM     37  C   UNL A   1      35.993  34.330  30.339  1.00  0.00     0.014 A 
ATOM     38  C   UNL A   1      35.574  32.245  32.151  1.00  0.00     0.010 A 
ATOM     39  C   UNL A   1      37.081  33.634  30.862  1.00  0.00     0.010 A 
ATOM     40  C   UNL A   1      36.883  32.585  31.772  1.00  0.00    -0.014 A 
BRANCH  40  41
ATOM     41  C   UNL A   1      38.053  31.827  32.284  1.00  0.00     0.031 A 
ATOM     42  C   UNL A   1      38.724  32.230  33.568  1.00  0.00     0.074 A 
ATOM     43  C   UNL A   1      38.578  30.840  31.531  1.00  0.00     0.049 A 
ATOM     44  N   UNL A   1      39.784  31.721  34.139  1.00  0.00    -0.248 NA
ATOM     45  C   UNL A   1      38.142  33.371  34.294  1.00  0.00     0.031 C 
ATOM     46  C   UNL A   1      38.074  30.423  30.221  1.00  0.00     0.029 A 
ATOM     47  N   UNL A   1      39.671  30.037  31.737  1.00  0.00    -0.354 N 
ATOM     48  C   UNL A   1      40.023  32.500  35.264  1.00  0.00     0.074 A 
ATOM     49  C   UNL A   1      39.009  33.532  35.284  1.00  0.00     0.031 C 
ATOM     50  C   UNL A   1      38.864  29.452  29.734  1.00  0.00     0.029 A 
ATOM     51  C   UNL A   1      39.942  29.196  30.683  1.00  0.00     0.049 A 
ATOM     52  H   UNL A   1      40.210  30.060  32.561  1.00  0.00     0.167 HD
ATOM     53  C   UNL A   1      40.984  32.354  36.208  1.00  0.00     0.034 A 
ATOM     54  C   UNL A   1      40.954  28.325  30.492  1.00  0.00     0.034 A 
ATOM     55  C   UNL A   1      41.962  31.299  36.204  1.00  0.00     0.049 A 
ATOM     56  C   UNL A   1      41.972  28.139  31.584  1.00  0.00     0.074 A 
ATOM     57  C   UNL A   1      42.899  30.991  37.175  1.00  0.00     0.029 A 
ATOM     58  N   UNL A   1      42.144  30.393  35.171  1.00  0.00    -0.354 N 
ATOM     59  N   UNL A   1      42.060  28.752  32.741  1.00  0.00    -0.248 NA
ATOM     60  C   UNL A   1      43.005  27.117  31.368  1.00  0.00     0.031 C 
ATOM     61  C   UNL A   1      43.666  29.915  36.716  1.00  0.00     0.029 A 
ATOM     62  C   UNL A   1      43.191  29.537  35.469  1.00  0.00     0.049 A 
ATOM     63  H   UNL A   1      41.608  30.362  34.346  1.00  0.00     0.167 HD
ATOM     64  C   UNL A   1      43.143  28.178  33.397  1.00  0.00     0.074 A 
ATOM     65  C   UNL A   1      43.660  27.146  32.521  1.00  0.00     0.031 C 
ATOM     66  C   UNL A   1      43.673  28.488  34.606  1.00  0.00     0.034 A 
BRANCH  53  67
ATOM     67  C   UNL A   1      40.993  33.330  37.356  1.00  0.00     0.023 A 
ATOM     68  C   UNL A   1      40.158  33.104  38.469  1.00  0.00     0.012 A 
ATOM     69  C   UNL A   1      41.864  34.437  37.361  1.00  0.00     0.148 A 
ATOM     70  C   UNL A   1      40.163  33.982  39.552  1.00  0.00     0.002 A 
ATOM     71  C   UNL A   1      41.895  35.284  38.464  1.00  0.00     0.091 A 
ATOM     72  F   UNL A   1      42.636  34.650  36.286  1.00  0.00    -0.205 F 
ATOM     73  C   UNL A   1      41.037  35.065  39.554  1.00  0.00     0.022 A 
BRANCH  71  74
ATOM     74  S   UNL A   1      43.042  36.660  38.594  1.00  0.00     0.127 S 
ATOM     75  O   UNL A   1      44.293  35.972  38.909  1.00  0.00    -0.237 OA
ATOM     76  O   UNL A   1      42.987  37.238  37.251  1.00  0.00    -0.237 OA
ATOM     77  O   UNL A   1      42.517  37.520  39.644  1.00  0.00    -0.744 OA
ENDBRANCH  71  74
ENDBRANCH  53  67
BRANCH  54  78
ATOM     78  C   UNL A   1      41.003  27.519  29.239  1.00  0.00     0.023 A 
ATOM     79  C   UNL A   1      40.144  26.412  29.098  1.00  0.00     0.012 A 
ATOM     80  C   UNL A   1      41.848  27.874  28.166  1.00  0.00     0.148 A 
ATOM     81  C   UNL A   1      40.143  25.657  27.924  1.00  0.00     0.002 A 
ATOM     82  C   UNL A   1      41.805  27.151  26.980  1.00  0.00     0.091 A 
ATOM     83  F   UNL A   1      42.661  28.928  28.322  1.00  0.00    -0.205 F 
ATOM     84  C   UNL A   1      40.964  26.033  26.864  1.00  0.00     0.022 A 
BRANCH  82  85
ATOM     85  S   UNL A   1      42.725  27.631  25.512  1.00  0.00     0.127 S 
ATOM     86  O   UNL A   1      44.076  27.796  26.040  1.00  0.00    -0.237 OA
ATOM     87  O   UNL A   1      42.543  26.467  24.644  1.00  0.00    -0.237 OA
ATOM     88  O   UNL A   1      42.095  28.849  25.016  1.00  0.00    -0.744 OA
ENDBRANCH  82  85
ENDBRANCH  54  78
BRANCH  66  89
ATOM     89  C   UNL A   1      44.873  27.702  35.067  1.00  0.00     0.023 A 
ATOM     90  C   UNL A   1      46.165  28.229  34.874  1.00  0.00     0.012 A 
ATOM     91  C   UNL A   1      44.720  26.486  35.761  1.00  0.00     0.148 A 
ATOM     92  C   UNL A   1      47.288  27.545  35.338  1.00  0.00     0.002 A 
ATOM     93  C   UNL A   1      45.840  25.833  36.263  1.00  0.00     0.091 A 
ATOM     94  F   UNL A   1      43.484  25.992  35.920  1.00  0.00    -0.205 F 
ATOM     95  C   UNL A   1      47.125  26.354  36.042  1.00  0.00     0.022 A 
BRANCH  93  96
ATOM     96  S   UNL A   1      45.722  24.344  37.262  1.00  0.00     0.127 S 
ATOM     97  O   UNL A   1      47.124  24.090  37.586  1.00  0.00    -0.237 OA
ATOM     98  O   UNL A   1      44.906  24.792  38.392  1.00  0.00    -0.237 OA
ATOM     99  O   UNL A   1      45.084  23.343  36.416  1.00  0.00    -0.744 OA
ENDBRANCH  93  96
ENDBRANCH  66  89
ENDBRANCH  40  41
ENDBRANCH  32  35
ENDBRANCH  30  31
ENDBRANCH  29  30
ENDBRANCH  28  29
ENDBRANCH   1  28
TORSDOF 20
ENDMDL
MODEL 3
REMARK VINA RESULT:     -10.4      1.298      2.201
REMARK SMILES CCNC(=O)c1ccc(N[C@@H]2COC[C@@]2(C)C(=O)NCCCCCCNC(=O)c2ccc(-c3c4nc(c(-c5cccc(S(=O)(=O)[O-])c5F)c5ccc([nH]5)c(-c5cccc(S(=O)(=O)[O-])c5F)c5nc(c(-c6cccc(S(=O)(=O)[O-])c6F)c6ccc3[nH]6)C=C5)C=C4)cc2)nn1
REMARK SMILES IDX 22 1 21 2 20 3 19 4 17 5 18 6 15 8 11 9 12 10 13 11 14 12
REMARK SMILES IDX 16 13 10 14 9 16 6 17 7 18 93 19 8 20 92 21 4 22 3 23 5 25
REMARK SMILES IDX 2 26 1 27 23 28 24 29 25 30 26 31 27 32 28 34 29 35 30 36
REMARK SMILES IDX 91 37 31 38 90 39 32 40 33 41 34 42 84 43 35 44 89 45 83 46
REMARK SMILES IDX 85 47 36 48 88 49 82 50 81 51 37 53 69 54 49 55 68 56 50 57
REMARK SMILES IDX 53 58 67 59 86 60 51 61 52 62 66 64 87 65 54 66 38 67 39 68
REMARK SMILES IDX 47 69 40 70 42 71 48 72 41 73 43 74 44 75 45 76 46 77 70 78
REMARK SMILES IDX 71 79 79 80 72 81 74 82 80 83 73 84 75 85 76 86 77 87 78 88
REMARK SMILES IDX 55 89 56 90 64 91 57 92 59 93 65 94 58 95 60 96 61 97 62 98
REMARK SMILES IDX 63 99
REMARK H PARENT 19 7 10 15 3 24 26 33 85 52 53 63
REMARK Flexibility Score: inf
ROOT
ATOM      1  C   UNL A   1      34.030  24.121  26.446  1.00  0.00     0.002 C 
ENDROOT
BRANCH   1   2
ATOM      2  C   UNL A   1      32.498  24.132  26.442  1.00  0.00     0.021 C 
BRANCH   2   3
ATOM      3  C   UNL A   1      31.867  25.523  26.465  1.00  0.00     0.116 C 
BRANCH   3   4
ATOM      4  N   UNL A   1      32.848  26.557  26.743  1.00  0.00    -0.355 N 
ATOM      5  C   UNL A   1      33.199  27.727  26.159  1.00  0.00     0.230 C 
ATOM      6  O   UNL A   1      34.040  28.377  26.801  1.00  0.00    -0.274 OA
ATOM      7  H   UNL A   1      33.385  26.359  27.544  1.00  0.00     0.163 HD
BRANCH   5   8
ATOM      8  C   UNL A   1      32.668  28.279  24.827  1.00  0.00     0.092 C 
ATOM      9  C   UNL A   1      32.063  27.122  24.005  1.00  0.00     0.124 C 
ATOM     10  C   UNL A   1      30.997  27.806  23.164  1.00  0.00     0.186 C 
ATOM     11  O   UNL A   1      30.481  28.876  23.982  1.00  0.00    -0.378 OA
ATOM     12  C   UNL A   1      31.355  29.038  25.119  1.00  0.00     0.179 C 
ATOM     13  C   UNL A   1      33.544  29.252  24.037  1.00  0.00     0.026 C 
BRANCH   9  14
ATOM     14  N   UNL A   1      32.982  26.209  23.332  1.00  0.00    -0.362 N 
ATOM     15  H   UNL A   1      33.916  26.503  23.235  1.00  0.00     0.162 HD
BRANCH  14  16
ATOM     16  C   UNL A   1      32.658  24.972  22.821  1.00  0.00     0.149 A 
ATOM     17  C   UNL A   1      32.193  22.335  22.328  1.00  0.00     0.150 A 
ATOM     18  C   UNL A   1      31.184  23.073  22.918  1.00  0.00     0.040 A 
ATOM     19  N   UNL A   1      33.355  22.888  21.929  1.00  0.00    -0.143 NA
ATOM     20  C   UNL A   1      31.424  24.423  23.154  1.00  0.00     0.051 A 
ATOM     21  N   UNL A   1      33.573  24.224  22.172  1.00  0.00    -0.132 NA
BRANCH  17  22
ATOM     22  C   UNL A   1      32.091  20.865  22.281  1.00  0.00     0.271 C 
ATOM     23  N   UNL A   1      32.481  20.132  23.375  1.00  0.00    -0.351 N 
ATOM     24  H   UNL A   1      32.557  19.160  23.241  1.00  0.00     0.163 HD
ATOM     25  O   UNL A   1      31.721  20.336  21.237  1.00  0.00    -0.267 OA
BRANCH  23  26
ATOM     26  C   UNL A   1      32.792  20.618  24.705  1.00  0.00     0.113 C 
ATOM     27  C   UNL A   1      32.840  19.478  25.707  1.00  0.00     0.027 C 
ENDBRANCH  23  26
ENDBRANCH  17  22
ENDBRANCH  14  16
ENDBRANCH   9  14
ENDBRANCH   5   8
ENDBRANCH   3   4
ENDBRANCH   2   3
ENDBRANCH   1   2
BRANCH   1  28
ATOM     28  C   UNL A   1      34.684  22.765  26.735  1.00  0.00     0.002 C 
BRANCH  28  29
ATOM     29  C   UNL A   1      35.703  22.280  25.699  1.00  0.00     0.021 C 
BRANCH  29  30
ATOM     30  C   UNL A   1      37.026  23.040  25.678  1.00  0.00     0.116 C 
BRANCH  30  31
ATOM     31  N   UNL A   1      38.155  22.191  26.022  1.00  0.00    -0.352 N 
ATOM     32  C   UNL A   1      39.401  22.540  26.476  1.00  0.00     0.251 C 
ATOM     33  H   UNL A   1      38.003  21.224  25.911  1.00  0.00     0.163 HD
ATOM     34  O   UNL A   1      40.289  21.691  26.539  1.00  0.00    -0.269 OA
BRANCH  32  35
ATOM     35  C   UNL A   1      39.684  23.936  26.872  1.00  0.00     0.039 A 
ATOM     36  C   UNL A   1      39.523  24.301  28.212  1.00  0.00     0.014 A 
ATOM     37  C   UNL A   1      40.099  24.882  25.931  1.00  0.00     0.014 A 
ATOM     38  C   UNL A   1      39.838  25.600  28.618  1.00  0.00     0.010 A 
ATOM     39  C   UNL A   1      40.475  26.156  26.349  1.00  0.00     0.010 A 
ATOM     40  C   UNL A   1      40.349  26.528  27.696  1.00  0.00    -0.014 A 
BRANCH  40  41
ATOM     41  C   UNL A   1      40.796  27.876  28.130  1.00  0.00     0.031 A 
ATOM     42  C   UNL A   1      42.259  28.215  28.193  1.00  0.00     0.074 A 
ATOM     43  C   UNL A   1      39.880  28.761  28.572  1.00  0.00     0.049 A 
ATOM     44  N   UNL A   1      42.833  29.318  28.597  1.00  0.00    -0.248 NA
ATOM     45  C   UNL A   1      43.204  27.167  27.771  1.00  0.00     0.031 C 
ATOM     46  C   UNL A   1      38.439  28.513  28.651  1.00  0.00     0.029 A 
ATOM     47  N   UNL A   1      40.026  30.030  29.075  1.00  0.00    -0.354 N 
ATOM     48  C   UNL A   1      44.201  29.087  28.518  1.00  0.00     0.074 A 
ATOM     49  C   UNL A   1      44.373  27.729  28.050  1.00  0.00     0.031 C 
ATOM     50  C   UNL A   1      37.836  29.588  29.184  1.00  0.00     0.029 A 
ATOM     51  C   UNL A   1      38.846  30.589  29.509  1.00  0.00     0.049 A 
ATOM     52  H   UNL A   1      40.892  30.496  29.121  1.00  0.00     0.167 HD
ATOM     53  C   UNL A   1      45.221  29.937  28.788  1.00  0.00     0.034 A 
ATOM     54  C   UNL A   1      38.603  31.769  30.113  1.00  0.00     0.034 A 
ATOM     55  C   UNL A   1      45.042  31.299  29.213  1.00  0.00     0.049 A 
ATOM     56  C   UNL A   1      39.747  32.719  30.344  1.00  0.00     0.074 A 
ATOM     57  C   UNL A   1      46.005  32.277  29.394  1.00  0.00     0.029 A 
ATOM     58  N   UNL A   1      43.824  31.873  29.541  1.00  0.00    -0.354 N 
ATOM     59  N   UNL A   1      41.021  32.556  30.072  1.00  0.00    -0.248 NA
ATOM     60  C   UNL A   1      39.422  34.028  30.926  1.00  0.00     0.031 C 
ATOM     61  C   UNL A   1      45.370  33.434  29.859  1.00  0.00     0.029 A 
ATOM     62  C   UNL A   1      44.009  33.184  29.945  1.00  0.00     0.049 A 
ATOM     63  H   UNL A   1      42.953  31.414  29.495  1.00  0.00     0.167 HD
ATOM     64  C   UNL A   1      41.644  33.746  30.430  1.00  0.00     0.074 A 
ATOM     65  C   UNL A   1      40.602  34.632  30.910  1.00  0.00     0.031 C 
ATOM     66  C   UNL A   1      42.960  34.070  30.384  1.00  0.00     0.034 A 
BRANCH  53  67
ATOM     67  C   UNL A   1      46.626  29.433  28.583  1.00  0.00     0.023 A 
ATOM     68  C   UNL A   1      47.267  29.641  27.344  1.00  0.00     0.012 A 
ATOM     69  C   UNL A   1      47.333  28.806  29.628  1.00  0.00     0.148 A 
ATOM     70  C   UNL A   1      48.573  29.202  27.136  1.00  0.00     0.002 A 
ATOM     71  C   UNL A   1      48.651  28.409  29.427  1.00  0.00     0.091 A 
ATOM     72  F   UNL A   1      46.703  28.595  30.792  1.00  0.00    -0.205 F 
ATOM     73  C   UNL A   1      49.268  28.596  28.179  1.00  0.00     0.022 A 
BRANCH  71  74
ATOM     74  S   UNL A   1      49.654  27.691  30.732  1.00  0.00     0.127 S 
ATOM     75  O   UNL A   1      50.961  27.598  30.082  1.00  0.00    -0.237 OA
ATOM     76  O   UNL A   1      49.568  28.705  31.783  1.00  0.00    -0.237 OA
ATOM     77  O   UNL A   1      49.028  26.420  31.065  1.00  0.00    -0.744 OA
ENDBRANCH  71  74
ENDBRANCH  53  67
BRANCH  54  78
ATOM     78  C   UNL A   1      37.205  32.136  30.475  1.00  0.00     0.023 A 
ATOM     79  C   UNL A   1      36.734  31.859  31.773  1.00  0.00     0.012 A 
ATOM     80  C   UNL A   1      36.360  32.809  29.567  1.00  0.00     0.148 A 
ATOM     81  C   UNL A   1      35.440  32.220  32.152  1.00  0.00     0.002 A 
ATOM     82  C   UNL A   1      35.092  33.213  29.967  1.00  0.00     0.091 A 
ATOM     83  F   UNL A   1      36.826  33.060  28.335  1.00  0.00    -0.205 F 
ATOM     84  C   UNL A   1      34.625  32.906  31.254  1.00  0.00     0.022 A 
BRANCH  82  85
ATOM     85  S   UNL A   1      34.017  34.215  28.931  1.00  0.00     0.127 S 
ATOM     86  O   UNL A   1      33.527  33.236  27.964  1.00  0.00    -0.237 OA
ATOM     87  O   UNL A   1      33.016  34.681  29.892  1.00  0.00    -0.237 OA
ATOM     88  O   UNL A   1      34.852  35.274  28.379  1.00  0.00    -0.744 OA
ENDBRANCH  82  85
ENDBRANCH  54  78
BRANCH  66  89
ATOM     89  C   UNL A   1      43.360  35.443  30.857  1.00  0.00     0.023 A 
ATOM     90  C   UNL A   1      43.763  35.628  32.194  1.00  0.00     0.012 A 
ATOM     91  C   UNL A   1      43.415  36.531  29.962  1.00  0.00     0.148 A 
ATOM     92  C   UNL A   1      44.187  36.879  32.642  1.00  0.00     0.002 A 
ATOM     93  C   UNL A   1      43.884  37.763  30.403  1.00  0.00     0.091 A 
ATOM     94  F   UNL A   1      43.012  36.339  28.698  1.00  0.00    -0.205 F 
ATOM     95  C   UNL A   1      44.259  37.942  31.744  1.00  0.00     0.022 A 
BRANCH  93  96
ATOM     96  S   UNL A   1      44.101  39.164  29.299  1.00  0.00     0.127 S 
ATOM     97  O   UNL A   1      44.808  40.112  30.156  1.00  0.00    -0.237 OA
ATOM     98  O   UNL A   1      44.912  38.590  28.224  1.00  0.00    -0.237 OA
ATOM     99  O   UNL A   1      42.760  39.566  28.894  1.00  0.00    -0.744 OA
ENDBRANCH  93  96
ENDBRANCH  66  89
ENDBRANCH  40  41
ENDBRANCH  32  35
ENDBRANCH  30  31
ENDBRANCH  29  30
ENDBRANCH  28  29
ENDBRANCH   1  28
TORSDOF 20
ENDMDL
