MODEL 1
REMARK VINA RESULT:     -11.9      0.000      0.000
REMARK SMILES C[C@H]1[C@@H](C(=O)NCCCCCCNC(=O)c2ccc(-c3c4nc(c(-c5cccc(S(=O)(=O)[O-])c5F)c5ccc([nH]5)c(-c5cccc(S(=O)(=O)[O-])c5F)c5nc(c(-c6cccc(S(=O)(=O)[O-])c6F)c6ccc3[nH]6)C=C5)C=C4)cc2)CCN1C(=O)N[C@@H]1CC[N@H+]2CCCC[C@H]12
REMARK SMILES IDX 10 1 9 2 8 3 7 4 6 5 4 6 5 7 3 9 1 10 2 11 81 12 79 13 80 14
REMARK SMILES IDX 82 15 83 16 84 17 85 19 86 20 93 21 87 22 88 23 92 24 89 25
REMARK SMILES IDX 91 27 90 28 11 29 12 30 13 31 14 32 15 34 16 35 17 36 78 37
REMARK SMILES IDX 18 38 77 39 19 40 20 41 21 42 71 43 22 44 76 45 70 46 72 47
REMARK SMILES IDX 23 48 75 49 69 50 68 51 24 53 56 54 36 55 55 56 37 57 40 58
REMARK SMILES IDX 54 59 73 60 38 61 39 62 53 64 74 65 41 66 25 67 26 68 34 69
REMARK SMILES IDX 27 70 29 71 35 72 28 73 30 74 31 75 32 76 33 77 57 78 58 79
REMARK SMILES IDX 66 80 59 81 61 82 67 83 60 84 62 85 63 86 64 87 65 88 42 89
REMARK SMILES IDX 43 90 51 91 44 92 46 93 52 94 45 95 47 96 48 97 49 98 50 99
REMARK H PARENT 6 8 84 18 88 26 13 33 72 52 40 63
REMARK Flexibility Score: inf
ROOT
ATOM      1  C   UNL A   1      31.615  27.187  26.732  1.00  0.00     0.002 C 
ENDROOT
BRANCH   1   2
ATOM      2  C   UNL A   1      30.667  26.450  25.779  1.00  0.00     0.002 C 
BRANCH   2   3
ATOM      3  C   UNL A   1      30.508  27.087  24.392  1.00  0.00     0.021 C 
BRANCH   3   4
ATOM      4  C   UNL A   1      30.555  26.096  23.231  1.00  0.00     0.116 C 
BRANCH   4   5
ATOM      5  N   UNL A   1      31.734  26.292  22.407  1.00  0.00    -0.356 N 
ATOM      6  C   UNL A   1      32.877  25.565  22.312  1.00  0.00     0.225 C 
ATOM      7  O   UNL A   1      33.652  25.851  21.401  1.00  0.00    -0.275 OA
ATOM      8  H   UNL A   1      31.698  27.081  21.821  1.00  0.00     0.163 HD
BRANCH   6   9
ATOM      9  C   UNL A   1      33.091  24.401  23.263  1.00  0.00     0.102 C 
ATOM     10  C   UNL A   1      34.283  26.099  24.834  1.00  0.00     0.032 C 
ATOM     11  C   UNL A   1      33.914  24.649  24.546  1.00  0.00     0.096 C 
ATOM     12  N   UNL A   1      35.091  23.790  24.444  1.00  0.00    -0.321 N 
ATOM     13  C   UNL A   1      33.831  23.282  22.526  1.00  0.00     0.037 C 
ATOM     14  C   UNL A   1      35.249  23.362  23.064  1.00  0.00     0.122 C 
BRANCH  12  15
ATOM     15  C   UNL A   1      36.025  23.424  25.365  1.00  0.00     0.318 C 
ATOM     16  O   UNL A   1      37.063  24.078  25.517  1.00  0.00    -0.249 OA
ATOM     17  N   UNL A   1      35.902  22.345  26.163  1.00  0.00    -0.329 N 
ATOM     18  H   UNL A   1      36.621  22.309  26.833  1.00  0.00     0.165 HD
BRANCH  17  19
ATOM     19  C   UNL A   1      34.987  21.215  26.300  1.00  0.00     0.147 C 
ATOM     20  C   UNL A   1      34.904  20.391  25.000  1.00  0.00     0.092 C 
ATOM     21  C   UNL A   1      33.514  21.597  26.563  1.00  0.00     0.207 C 
ATOM     22  C   UNL A   1      33.424  20.248  24.681  1.00  0.00     0.264 C 
ATOM     23  N   UNL A   1      32.868  21.470  25.245  1.00  0.00    -0.331 N 
ATOM     24  C   UNL A   1      33.195  22.963  27.157  1.00  0.00     0.067 C 
ATOM     25  C   UNL A   1      31.415  21.453  25.374  1.00  0.00     0.262 C 
ATOM     26  H   UNL A   1      33.051  22.262  24.628  1.00  0.00     0.348 HD
ATOM     27  C   UNL A   1      31.675  23.092  27.315  1.00  0.00     0.012 C 
ATOM     28  C   UNL A   1      30.940  22.765  26.009  1.00  0.00     0.062 C 
ENDBRANCH  17  19
ENDBRANCH  12  15
ENDBRANCH   6   9
ENDBRANCH   4   5
ENDBRANCH   3   4
ENDBRANCH   2   3
ENDBRANCH   1   2
BRANCH   1  29
ATOM     29  C   UNL A   1      31.441  28.705  26.773  1.00  0.00     0.021 C 
BRANCH  29  30
ATOM     30  C   UNL A   1      32.603  29.486  26.175  1.00  0.00     0.116 C 
BRANCH  30  31
ATOM     31  N   UNL A   1      32.452  30.920  26.374  1.00  0.00    -0.352 N 
ATOM     32  C   UNL A   1      33.198  31.761  27.160  1.00  0.00     0.251 C 
ATOM     33  H   UNL A   1      31.716  31.343  25.877  1.00  0.00     0.163 HD
ATOM     34  O   UNL A   1      32.813  32.909  27.373  1.00  0.00    -0.269 OA
BRANCH  32  35
ATOM     35  C   UNL A   1      34.454  31.271  27.762  1.00  0.00     0.039 A 
ATOM     36  C   UNL A   1      35.490  32.176  28.003  1.00  0.00     0.014 A 
ATOM     37  C   UNL A   1      34.602  29.923  28.103  1.00  0.00     0.014 A 
ATOM     38  C   UNL A   1      36.655  31.739  28.636  1.00  0.00     0.010 A 
ATOM     39  C   UNL A   1      35.727  29.508  28.808  1.00  0.00     0.010 A 
ATOM     40  C   UNL A   1      36.769  30.408  29.073  1.00  0.00    -0.014 A 
BRANCH  40  41
ATOM     41  C   UNL A   1      37.970  29.944  29.815  1.00  0.00     0.031 A 
ATOM     42  C   UNL A   1      38.246  30.450  31.206  1.00  0.00     0.074 A 
ATOM     43  C   UNL A   1      38.852  29.126  29.208  1.00  0.00     0.049 A 
ATOM     44  N   UNL A   1      39.259  30.191  31.990  1.00  0.00    -0.248 NA
ATOM     45  C   UNL A   1      37.270  31.391  31.780  1.00  0.00     0.031 C 
ATOM     46  C   UNL A   1      38.736  28.628  27.835  1.00  0.00     0.029 A 
ATOM     47  N   UNL A   1      40.032  28.590  29.657  1.00  0.00    -0.354 N 
ATOM     48  C   UNL A   1      39.062  30.957  33.131  1.00  0.00     0.074 A 
ATOM     49  C   UNL A   1      37.853  31.722  32.923  1.00  0.00     0.031 C 
ATOM     50  C   UNL A   1      39.795  27.851  27.559  1.00  0.00     0.029 A 
ATOM     51  C   UNL A   1      40.683  27.824  28.717  1.00  0.00     0.049 A 
ATOM     52  H   UNL A   1      40.381  28.737  30.566  1.00  0.00     0.167 HD
ATOM     53  C   UNL A   1      39.804  31.000  34.265  1.00  0.00     0.034 A 
ATOM     54  C   UNL A   1      41.865  27.181  28.777  1.00  0.00     0.034 A 
ATOM     55  C   UNL A   1      40.988  30.213  34.481  1.00  0.00     0.049 A 
ATOM     56  C   UNL A   1      42.660  27.228  30.054  1.00  0.00     0.074 A 
ATOM     57  C   UNL A   1      41.760  30.121  35.625  1.00  0.00     0.029 A 
ATOM     58  N   UNL A   1      41.580  29.397  33.531  1.00  0.00    -0.354 N 
ATOM     59  N   UNL A   1      42.374  27.834  31.182  1.00  0.00    -0.248 NA
ATOM     60  C   UNL A   1      43.921  26.475  30.080  1.00  0.00     0.031 C 
ATOM     61  C   UNL A   1      42.841  29.276  35.354  1.00  0.00     0.029 A 
ATOM     62  C   UNL A   1      42.720  28.810  34.056  1.00  0.00     0.049 A 
ATOM     63  H   UNL A   1      41.241  29.254  32.618  1.00  0.00     0.167 HD
ATOM     64  C   UNL A   1      43.400  27.506  32.060  1.00  0.00     0.074 A 
ATOM     65  C   UNL A   1      44.303  26.631  31.340  1.00  0.00     0.031 C 
ATOM     66  C   UNL A   1      43.586  27.905  33.343  1.00  0.00     0.034 A 
BRANCH  53  67
ATOM     67  C   UNL A   1      39.330  31.902  35.377  1.00  0.00     0.023 A 
ATOM     68  C   UNL A   1      38.435  31.404  36.347  1.00  0.00     0.012 A 
ATOM     69  C   UNL A   1      39.810  33.220  35.494  1.00  0.00     0.148 A 
ATOM     70  C   UNL A   1      37.994  32.216  37.391  1.00  0.00     0.002 A 
ATOM     71  C   UNL A   1      39.405  34.008  36.564  1.00  0.00     0.091 A 
ATOM     72  F   UNL A   1      40.645  33.682  34.552  1.00  0.00    -0.205 F 
ATOM     73  C   UNL A   1      38.487  33.513  37.506  1.00  0.00     0.022 A 
BRANCH  71  74
ATOM     74  S   UNL A   1      40.042  35.663  36.847  1.00  0.00     0.127 S 
ATOM     75  O   UNL A   1      39.377  36.024  38.099  1.00  0.00    -0.237 OA
ATOM     76  O   UNL A   1      41.480  35.422  36.969  1.00  0.00    -0.237 OA
ATOM     77  O   UNL A   1      39.653  36.448  35.685  1.00  0.00    -0.744 OA
ENDBRANCH  71  74
ENDBRANCH  53  67
BRANCH  54  78
ATOM     78  C   UNL A   1      42.346  26.394  27.607  1.00  0.00     0.023 A 
ATOM     79  C   UNL A   1      43.169  27.013  26.644  1.00  0.00     0.012 A 
ATOM     80  C   UNL A   1      42.015  25.034  27.454  1.00  0.00     0.148 A 
ATOM     81  C   UNL A   1      43.621  26.302  25.533  1.00  0.00     0.002 A 
ATOM     82  C   UNL A   1      42.517  24.317  26.375  1.00  0.00     0.091 A 
ATOM     83  F   UNL A   1      41.226  24.467  28.376  1.00  0.00    -0.205 F 
ATOM     84  C   UNL A   1      43.304  24.952  25.403  1.00  0.00     0.022 A 
BRANCH  82  85
ATOM     85  S   UNL A   1      42.270  22.547  26.197  1.00  0.00     0.127 S 
ATOM     86  O   UNL A   1      43.001  22.264  24.963  1.00  0.00    -0.237 OA
ATOM     87  O   UNL A   1      42.894  22.033  27.416  1.00  0.00    -0.237 OA
ATOM     88  O   UNL A   1      40.828  22.354  26.134  1.00  0.00    -0.744 OA
ENDBRANCH  82  85
ENDBRANCH  54  78
BRANCH  66  89
ATOM     89  C   UNL A   1      44.792  27.372  34.074  1.00  0.00     0.023 A 
ATOM     90  C   UNL A   1      45.982  28.123  34.112  1.00  0.00     0.012 A 
ATOM     91  C   UNL A   1      44.719  26.156  34.782  1.00  0.00     0.148 A 
ATOM     92  C   UNL A   1      47.094  27.656  34.813  1.00  0.00     0.002 A 
ATOM     93  C   UNL A   1      45.812  25.723  35.523  1.00  0.00     0.091 A 
ATOM     94  F   UNL A   1      43.582  25.447  34.720  1.00  0.00    -0.205 F 
ATOM     95  C   UNL A   1      47.004  26.464  35.528  1.00  0.00     0.022 A 
BRANCH  93  96
ATOM     96  S   UNL A   1      45.757  24.252  36.553  1.00  0.00     0.127 S 
ATOM     97  O   UNL A   1      45.461  23.212  35.571  1.00  0.00    -0.237 OA
ATOM     98  O   UNL A   1      47.115  24.207  37.098  1.00  0.00    -0.237 OA
ATOM     99  O   UNL A   1      44.716  24.492  37.542  1.00  0.00    -0.744 OA
ENDBRANCH  93  96
ENDBRANCH  66  89
ENDBRANCH  40  41
ENDBRANCH  32  35
ENDBRANCH  30  31
ENDBRANCH  29  30
ENDBRANCH   1  29
TORSDOF 18
ENDMDL
MODEL 2
REMARK VINA RESULT:     -11.9      2.454      8.080
REMARK SMILES C[C@H]1[C@@H](C(=O)NCCCCCCNC(=O)c2ccc(-c3c4nc(c(-c5cccc(S(=O)(=O)[O-])c5F)c5ccc([nH]5)c(-c5cccc(S(=O)(=O)[O-])c5F)c5nc(c(-c6cccc(S(=O)(=O)[O-])c6F)c6ccc3[nH]6)C=C5)C=C4)cc2)CCN1C(=O)N[C@@H]1CC[N@H+]2CCCC[C@H]12
REMARK SMILES IDX 10 1 9 2 8 3 7 4 6 5 4 6 5 7 3 9 1 10 2 11 81 12 79 13 80 14
REMARK SMILES IDX 82 15 83 16 84 17 85 19 86 20 93 21 87 22 88 23 92 24 89 25
REMARK SMILES IDX 91 27 90 28 11 29 12 30 13 31 14 32 15 34 16 35 17 36 78 37
REMARK SMILES IDX 18 38 77 39 19 40 20 41 21 42 71 43 22 44 76 45 70 46 72 47
REMARK SMILES IDX 23 48 75 49 69 50 68 51 24 53 56 54 36 55 55 56 37 57 40 58
REMARK SMILES IDX 54 59 73 60 38 61 39 62 53 64 74 65 41 66 25 67 26 68 34 69
REMARK SMILES IDX 27 70 29 71 35 72 28 73 30 74 31 75 32 76 33 77 57 78 58 79
REMARK SMILES IDX 66 80 59 81 61 82 67 83 60 84 62 85 63 86 64 87 65 88 42 89
REMARK SMILES IDX 43 90 51 91 44 92 46 93 52 94 45 95 47 96 48 97 49 98 50 99
REMARK H PARENT 6 8 84 18 88 26 13 33 72 52 40 63
REMARK Flexibility Score: inf
ROOT
ATOM      1  C   UNL A   1      34.472  30.786  27.967  1.00  0.00     0.002 C 
ENDROOT
BRANCH   1   2
ATOM      2  C   UNL A   1      34.738  29.640  26.986  1.00  0.00     0.002 C 
BRANCH   2   3
ATOM      3  C   UNL A   1      33.822  28.418  27.142  1.00  0.00     0.021 C 
BRANCH   3   4
ATOM      4  C   UNL A   1      32.333  28.750  27.224  1.00  0.00     0.116 C 
BRANCH   4   5
ATOM      5  N   UNL A   1      31.870  29.432  26.030  1.00  0.00    -0.356 N 
ATOM      6  C   UNL A   1      31.439  28.937  24.840  1.00  0.00     0.225 C 
ATOM      7  O   UNL A   1      30.932  29.732  24.051  1.00  0.00    -0.275 OA
ATOM      8  H   UNL A   1      31.868  30.414  26.092  1.00  0.00     0.163 HD
BRANCH   6   9
ATOM      9  C   UNL A   1      31.522  27.442  24.591  1.00  0.00     0.102 C 
ATOM     10  C   UNL A   1      33.842  27.905  23.505  1.00  0.00     0.032 C 
ATOM     11  C   UNL A   1      32.735  26.901  23.802  1.00  0.00     0.096 C 
ATOM     12  N   UNL A   1      32.193  26.301  22.586  1.00  0.00    -0.321 N 
ATOM     13  C   UNL A   1      30.296  26.999  23.787  1.00  0.00     0.037 C 
ATOM     14  C   UNL A   1      30.835  26.782  22.384  1.00  0.00     0.122 C 
BRANCH  12  15
ATOM     15  C   UNL A   1      32.755  25.485  21.653  1.00  0.00     0.318 C 
ATOM     16  O   UNL A   1      33.199  25.937  20.592  1.00  0.00    -0.249 OA
ATOM     17  N   UNL A   1      32.867  24.150  21.801  1.00  0.00    -0.329 N 
ATOM     18  H   UNL A   1      33.396  23.750  21.075  1.00  0.00     0.165 HD
BRANCH  17  19
ATOM     19  C   UNL A   1      32.412  23.138  22.751  1.00  0.00     0.147 C 
ATOM     20  C   UNL A   1      31.049  23.509  23.368  1.00  0.00     0.092 C 
ATOM     21  C   UNL A   1      33.316  22.954  23.990  1.00  0.00     0.207 C 
ATOM     22  C   UNL A   1      31.220  23.392  24.875  1.00  0.00     0.264 C 
ATOM     23  N   UNL A   1      32.629  23.711  25.051  1.00  0.00    -0.331 N 
ATOM     24  C   UNL A   1      34.774  23.389  23.917  1.00  0.00     0.067 C 
ATOM     25  C   UNL A   1      33.154  23.360  26.367  1.00  0.00     0.262 C 
ATOM     26  H   UNL A   1      32.777  24.718  24.988  1.00  0.00     0.348 HD
ATOM     27  C   UNL A   1      35.444  23.104  25.267  1.00  0.00     0.012 C 
ATOM     28  C   UNL A   1      34.647  23.703  26.432  1.00  0.00     0.062 C 
ENDBRANCH  17  19
ENDBRANCH  12  15
ENDBRANCH   6   9
ENDBRANCH   4   5
ENDBRANCH   3   4
ENDBRANCH   2   3
ENDBRANCH   1   2
BRANCH   1  29
ATOM     29  C   UNL A   1      34.061  32.109  27.322  1.00  0.00     0.021 C 
BRANCH  29  30
ATOM     30  C   UNL A   1      32.623  32.524  27.599  1.00  0.00     0.116 C 
BRANCH  30  31
ATOM     31  N   UNL A   1      32.492  33.965  27.749  1.00  0.00    -0.352 N 
ATOM     32  C   UNL A   1      33.146  34.801  28.617  1.00  0.00     0.251 C 
ATOM     33  H   UNL A   1      31.848  34.399  27.144  1.00  0.00     0.163 HD
ATOM     34  O   UNL A   1      32.772  35.964  28.752  1.00  0.00    -0.269 OA
BRANCH  32  35
ATOM     35  C   UNL A   1      34.287  34.288  29.402  1.00  0.00     0.039 A 
ATOM     36  C   UNL A   1      34.038  33.545  30.557  1.00  0.00     0.014 A 
ATOM     37  C   UNL A   1      35.601  34.527  28.987  1.00  0.00     0.014 A 
ATOM     38  C   UNL A   1      35.107  32.995  31.267  1.00  0.00     0.010 A 
ATOM     39  C   UNL A   1      36.658  33.910  29.647  1.00  0.00     0.010 A 
ATOM     40  C   UNL A   1      36.424  33.146  30.800  1.00  0.00    -0.014 A 
BRANCH  40  41
ATOM     41  C   UNL A   1      37.566  32.505  31.501  1.00  0.00     0.031 A 
ATOM     42  C   UNL A   1      38.305  31.361  30.861  1.00  0.00     0.074 A 
ATOM     43  C   UNL A   1      37.888  32.902  32.748  1.00  0.00     0.049 A 
ATOM     44  N   UNL A   1      39.296  30.652  31.334  1.00  0.00    -0.248 NA
ATOM     45  C   UNL A   1      37.854  30.939  29.524  1.00  0.00     0.031 C 
ATOM     46  C   UNL A   1      37.198  33.948  33.507  1.00  0.00     0.029 A 
ATOM     47  N   UNL A   1      38.863  32.458  33.605  1.00  0.00    -0.354 N 
ATOM     48  C   UNL A   1      39.566  29.686  30.374  1.00  0.00     0.074 A 
ATOM     49  C   UNL A   1      38.608  29.872  29.307  1.00  0.00     0.031 C 
ATOM     50  C   UNL A   1      37.777  34.071  34.711  1.00  0.00     0.029 A 
ATOM     51  C   UNL A   1      38.853  33.092  34.826  1.00  0.00     0.049 A 
ATOM     52  H   UNL A   1      39.508  31.752  33.370  1.00  0.00     0.167 HD
ATOM     53  C   UNL A   1      40.541  28.745  30.367  1.00  0.00     0.034 A 
ATOM     54  C   UNL A   1      39.619  32.901  35.919  1.00  0.00     0.034 A 
ATOM     55  C   UNL A   1      41.512  28.584  31.415  1.00  0.00     0.049 A 
ATOM     56  C   UNL A   1      40.708  31.864  35.876  1.00  0.00     0.074 A 
ATOM     57  C   UNL A   1      42.590  27.719  31.462  1.00  0.00     0.029 A 
ATOM     58  N   UNL A   1      41.514  29.290  32.607  1.00  0.00    -0.354 N 
ATOM     59  N   UNL A   1      41.049  31.065  34.894  1.00  0.00    -0.248 NA
ATOM     60  C   UNL A   1      41.540  31.724  37.079  1.00  0.00     0.031 C 
ATOM     61  C   UNL A   1      43.223  27.877  32.699  1.00  0.00     0.029 A 
ATOM     62  C   UNL A   1      42.564  28.869  33.406  1.00  0.00     0.049 A 
ATOM     63  H   UNL A   1      40.865  29.989  32.851  1.00  0.00     0.167 HD
ATOM     64  C   UNL A   1      42.155  30.356  35.346  1.00  0.00     0.074 A 
ATOM     65  C   UNL A   1      42.440  30.835  36.683  1.00  0.00     0.031 C 
ATOM     66  C   UNL A   1      42.864  29.385  34.717  1.00  0.00     0.034 A 
BRANCH  53  67
ATOM     67  C   UNL A   1      40.631  27.841  29.163  1.00  0.00     0.023 A 
ATOM     68  C   UNL A   1      39.795  26.708  29.076  1.00  0.00     0.012 A 
ATOM     69  C   UNL A   1      41.501  28.139  28.097  1.00  0.00     0.148 A 
ATOM     70  C   UNL A   1      39.853  25.865  27.967  1.00  0.00     0.002 A 
ATOM     71  C   UNL A   1      41.518  27.323  26.973  1.00  0.00     0.091 A 
ATOM     72  F   UNL A   1      42.302  29.209  28.206  1.00  0.00    -0.205 F 
ATOM     73  C   UNL A   1      40.705  26.178  26.912  1.00  0.00     0.022 A 
BRANCH  71  74
ATOM     74  S   UNL A   1      42.520  27.682  25.526  1.00  0.00     0.127 S 
ATOM     75  O   UNL A   1      43.864  27.723  26.103  1.00  0.00    -0.237 OA
ATOM     76  O   UNL A   1      42.257  26.523  24.674  1.00  0.00    -0.237 OA
ATOM     77  O   UNL A   1      42.028  28.948  25.001  1.00  0.00    -0.744 OA
ENDBRANCH  71  74
ENDBRANCH  53  67
BRANCH  54  78
ATOM     78  C   UNL A   1      39.415  33.746  37.129  1.00  0.00     0.023 A 
ATOM     79  C   UNL A   1      39.877  35.077  37.133  1.00  0.00     0.012 A 
ATOM     80  C   UNL A   1      38.747  33.248  38.264  1.00  0.00     0.148 A 
ATOM     81  C   UNL A   1      39.709  35.884  38.257  1.00  0.00     0.002 A 
ATOM     82  C   UNL A   1      38.532  34.076  39.359  1.00  0.00     0.091 A 
ATOM     83  F   UNL A   1      38.322  31.977  38.243  1.00  0.00    -0.205 F 
ATOM     84  C   UNL A   1      39.029  35.388  39.367  1.00  0.00     0.022 A 
BRANCH  82  85
ATOM     85  S   UNL A   1      37.554  33.565  40.776  1.00  0.00     0.127 S 
ATOM     86  O   UNL A   1      36.337  33.068  40.137  1.00  0.00    -0.237 OA
ATOM     87  O   UNL A   1      38.404  32.533  41.371  1.00  0.00    -0.237 OA
ATOM     88  O   UNL A   1      37.394  34.757  41.597  1.00  0.00    -0.744 OA
ENDBRANCH  82  85
ENDBRANCH  54  78
BRANCH  66  89
ATOM     89  C   UNL A   1      44.044  28.796  35.447  1.00  0.00     0.023 A 
ATOM     90  C   UNL A   1      45.324  29.360  35.286  1.00  0.00     0.012 A 
ATOM     91  C   UNL A   1      43.868  27.726  36.347  1.00  0.00     0.148 A 
ATOM     92  C   UNL A   1      46.418  28.846  35.982  1.00  0.00     0.002 A 
ATOM     93  C   UNL A   1      44.952  27.255  37.077  1.00  0.00     0.091 A 
ATOM     94  F   UNL A   1      42.644  27.193  36.474  1.00  0.00    -0.205 F 
ATOM     95  C   UNL A   1      46.229  27.803  36.886  1.00  0.00     0.022 A 
BRANCH  93  96
ATOM     96  S   UNL A   1      44.786  25.983  38.336  1.00  0.00     0.127 S 
ATOM     97  O   UNL A   1      46.184  25.660  38.617  1.00  0.00    -0.237 OA
ATOM     98  O   UNL A   1      44.099  26.701  39.410  1.00  0.00    -0.237 OA
ATOM     99  O   UNL A   1      44.008  24.913  37.728  1.00  0.00    -0.744 OA
ENDBRANCH  93  96
ENDBRANCH  66  89
ENDBRANCH  40  41
ENDBRANCH  32  35
ENDBRANCH  30  31
ENDBRANCH  29  30
ENDBRANCH   1  29
TORSDOF 18
ENDMDL
MODEL 3
REMARK VINA RESULT:     -11.4      2.331      3.716
REMARK SMILES C[C@H]1[C@@H](C(=O)NCCCCCCNC(=O)c2ccc(-c3c4nc(c(-c5cccc(S(=O)(=O)[O-])c5F)c5ccc([nH]5)c(-c5cccc(S(=O)(=O)[O-])c5F)c5nc(c(-c6cccc(S(=O)(=O)[O-])c6F)c6ccc3[nH]6)C=C5)C=C4)cc2)CCN1C(=O)N[C@@H]1CC[N@H+]2CCCC[C@H]12
REMARK SMILES IDX 10 1 9 2 8 3 7 4 6 5 4 6 5 7 3 9 1 10 2 11 81 12 79 13 80 14
REMARK SMILES IDX 82 15 83 16 84 17 85 19 86 20 93 21 87 22 88 23 92 24 89 25
REMARK SMILES IDX 91 27 90 28 11 29 12 30 13 31 14 32 15 34 16 35 17 36 78 37
REMARK SMILES IDX 18 38 77 39 19 40 20 41 21 42 71 43 22 44 76 45 70 46 72 47
REMARK SMILES IDX 23 48 75 49 69 50 68 51 24 53 56 54 36 55 55 56 37 57 40 58
REMARK SMILES IDX 54 59 73 60 38 61 39 62 53 64 74 65 41 66 25 67 26 68 34 69
REMARK SMILES IDX 27 70 29 71 35 72 28 73 30 74 31 75 32 76 33 77 57 78 58 79
REMARK SMILES IDX 66 80 59 81 61 82 67 83 60 84 62 85 63 86 64 87 65 88 42 89
REMARK SMILES IDX 43 90 51 91 44 92 46 93 52 94 45 95 47 96 48 97 49 98 50 99
REMARK H PARENT 6 8 84 18 88 26 13 33 72 52 40 63
REMARK Flexibility Score: inf
ROOT
ATOM      1  C   UNL A   1      34.195  31.183  28.002  1.00  0.00     0.002 C 
ENDROOT
BRANCH   1   2
ATOM      2  C   UNL A   1      34.393  30.119  26.917  1.00  0.00     0.002 C 
BRANCH   2   3
ATOM      3  C   UNL A   1      33.847  28.725  27.259  1.00  0.00     0.021 C 
BRANCH   3   4
ATOM      4  C   UNL A   1      32.329  28.596  27.153  1.00  0.00     0.116 C 
BRANCH   4   5
ATOM      5  N   UNL A   1      31.812  29.307  25.998  1.00  0.00    -0.356 N 
ATOM      6  C   UNL A   1      31.311  28.841  24.824  1.00  0.00     0.225 C 
ATOM      7  O   UNL A   1      30.773  29.658  24.078  1.00  0.00    -0.275 OA
ATOM      8  H   UNL A   1      31.825  30.288  26.080  1.00  0.00     0.163 HD
BRANCH   6   9
ATOM      9  C   UNL A   1      31.362  27.350  24.542  1.00  0.00     0.102 C 
ATOM     10  C   UNL A   1      33.751  27.765  23.595  1.00  0.00     0.032 C 
ATOM     11  C   UNL A   1      32.600  26.790  23.807  1.00  0.00     0.096 C 
ATOM     12  N   UNL A   1      32.107  26.237  22.548  1.00  0.00    -0.321 N 
ATOM     13  C   UNL A   1      30.170  26.966  23.662  1.00  0.00     0.037 C 
ATOM     14  C   UNL A   1      30.778  26.765  22.286  1.00  0.00     0.122 C 
BRANCH  12  15
ATOM     15  C   UNL A   1      32.694  25.425  21.626  1.00  0.00     0.318 C 
ATOM     16  O   UNL A   1      33.131  25.877  20.562  1.00  0.00    -0.249 OA
ATOM     17  N   UNL A   1      32.839  24.095  21.790  1.00  0.00    -0.329 N 
ATOM     18  H   UNL A   1      33.382  23.701  21.070  1.00  0.00     0.165 HD
BRANCH  17  19
ATOM     19  C   UNL A   1      32.407  23.082  22.749  1.00  0.00     0.147 C 
ATOM     20  C   UNL A   1      31.019  23.409  23.333  1.00  0.00     0.092 C 
ATOM     21  C   UNL A   1      33.293  22.956  24.008  1.00  0.00     0.207 C 
ATOM     22  C   UNL A   1      31.165  23.325  24.845  1.00  0.00     0.264 C 
ATOM     23  N   UNL A   1      32.556  23.703  25.042  1.00  0.00    -0.331 N 
ATOM     24  C   UNL A   1      34.734  23.448  23.954  1.00  0.00     0.067 C 
ATOM     25  C   UNL A   1      33.069  23.396  26.374  1.00  0.00     0.262 C 
ATOM     26  H   UNL A   1      32.665  24.714  24.964  1.00  0.00     0.348 HD
ATOM     27  C   UNL A   1      35.389  23.213  25.322  1.00  0.00     0.012 C 
ATOM     28  C   UNL A   1      34.546  23.799  26.461  1.00  0.00     0.062 C 
ENDBRANCH  17  19
ENDBRANCH  12  15
ENDBRANCH   6   9
ENDBRANCH   4   5
ENDBRANCH   3   4
ENDBRANCH   2   3
ENDBRANCH   1   2
BRANCH   1  29
ATOM     29  C   UNL A   1      33.087  32.197  27.719  1.00  0.00     0.021 C 
BRANCH  29  30
ATOM     30  C   UNL A   1      33.585  33.601  27.405  1.00  0.00     0.116 C 
BRANCH  30  31
ATOM     31  N   UNL A   1      32.980  34.598  28.275  1.00  0.00    -0.352 N 
ATOM     32  C   UNL A   1      33.250  34.867  29.593  1.00  0.00     0.251 C 
ATOM     33  H   UNL A   1      32.284  35.157  27.861  1.00  0.00     0.163 HD
ATOM     34  O   UNL A   1      32.508  35.606  30.236  1.00  0.00    -0.269 OA
BRANCH  32  35
ATOM     35  C   UNL A   1      34.426  34.246  30.236  1.00  0.00     0.039 A 
ATOM     36  C   UNL A   1      34.228  33.315  31.258  1.00  0.00     0.014 A 
ATOM     37  C   UNL A   1      35.720  34.570  29.818  1.00  0.00     0.014 A 
ATOM     38  C   UNL A   1      35.328  32.670  31.825  1.00  0.00     0.010 A 
ATOM     39  C   UNL A   1      36.807  33.866  30.325  1.00  0.00     0.010 A 
ATOM     40  C   UNL A   1      36.625  32.916  31.340  1.00  0.00    -0.014 A 
BRANCH  40  41
ATOM     41  C   UNL A   1      37.799  32.183  31.880  1.00  0.00     0.031 A 
ATOM     42  C   UNL A   1      38.425  32.603  33.182  1.00  0.00     0.074 A 
ATOM     43  C   UNL A   1      38.349  31.185  31.158  1.00  0.00     0.049 A 
ATOM     44  N   UNL A   1      39.473  32.113  33.788  1.00  0.00    -0.248 NA
ATOM     45  C   UNL A   1      37.808  33.742  33.882  1.00  0.00     0.031 C 
ATOM     46  C   UNL A   1      37.881  30.735  29.845  1.00  0.00     0.029 A 
ATOM     47  N   UNL A   1      39.434  30.387  31.416  1.00  0.00    -0.354 N 
ATOM     48  C   UNL A   1      39.662  32.897  34.918  1.00  0.00     0.074 A 
ATOM     49  C   UNL A   1      38.643  33.923  34.894  1.00  0.00     0.031 C 
ATOM     50  C   UNL A   1      38.668  29.735  29.418  1.00  0.00     0.029 A 
ATOM     51  C   UNL A   1      39.716  29.497  30.405  1.00  0.00     0.049 A 
ATOM     52  H   UNL A   1      39.962  30.446  32.245  1.00  0.00     0.167 HD
ATOM     53  C   UNL A   1      40.582  32.761  35.904  1.00  0.00     0.034 A 
ATOM     54  C   UNL A   1      40.711  28.597  30.283  1.00  0.00     0.034 A 
ATOM     55  C   UNL A   1      41.573  31.720  35.940  1.00  0.00     0.049 A 
ATOM     56  C   UNL A   1      41.708  28.451  31.401  1.00  0.00     0.074 A 
ATOM     57  C   UNL A   1      42.493  31.445  36.935  1.00  0.00     0.029 A 
ATOM     58  N   UNL A   1      41.785  30.793  34.932  1.00  0.00    -0.354 N 
ATOM     59  N   UNL A   1      41.772  29.101  32.539  1.00  0.00    -0.248 NA
ATOM     60  C   UNL A   1      42.747  27.426  31.236  1.00  0.00     0.031 C 
ATOM     61  C   UNL A   1      43.287  30.374  36.512  1.00  0.00     0.029 A 
ATOM     62  C   UNL A   1      42.834  29.955  35.272  1.00  0.00     0.049 A 
ATOM     63  H   UNL A   1      41.267  30.738  34.097  1.00  0.00     0.167 HD
ATOM     64  C   UNL A   1      42.834  28.540  33.238  1.00  0.00     0.074 A 
ATOM     65  C   UNL A   1      43.370  27.483  32.405  1.00  0.00     0.031 C 
ATOM     66  C   UNL A   1      43.331  28.878  34.454  1.00  0.00     0.034 A 
BRANCH  53  67
ATOM     67  C   UNL A   1      40.532  33.742  37.048  1.00  0.00     0.023 A 
ATOM     68  C   UNL A   1      41.243  34.957  36.958  1.00  0.00     0.012 A 
ATOM     69  C   UNL A   1      39.741  33.489  38.185  1.00  0.00     0.148 A 
ATOM     70  C   UNL A   1      41.202  35.884  37.999  1.00  0.00     0.002 A 
ATOM     71  C   UNL A   1      39.665  34.438  39.196  1.00  0.00     0.091 A 
ATOM     72  F   UNL A   1      39.088  32.320  38.261  1.00  0.00    -0.205 F 
ATOM     73  C   UNL A   1      40.404  35.630  39.111  1.00  0.00     0.022 A 
BRANCH  71  74
ATOM     74  S   UNL A   1      38.605  34.243  40.633  1.00  0.00     0.127 S 
ATOM     75  O   UNL A   1      37.405  33.656  40.036  1.00  0.00    -0.237 OA
ATOM     76  O   UNL A   1      39.382  33.326  41.466  1.00  0.00    -0.237 OA
ATOM     77  O   UNL A   1      38.434  35.577  41.190  1.00  0.00    -0.744 OA
ENDBRANCH  71  74
ENDBRANCH  53  67
BRANCH  54  78
ATOM     78  C   UNL A   1      40.784  27.725  29.076  1.00  0.00     0.023 A 
ATOM     79  C   UNL A   1      39.921  26.617  28.967  1.00  0.00     0.012 A 
ATOM     80  C   UNL A   1      41.684  28.002  28.029  1.00  0.00     0.148 A 
ATOM     81  C   UNL A   1      39.979  25.779  27.853  1.00  0.00     0.002 A 
ATOM     82  C   UNL A   1      41.695  27.196  26.897  1.00  0.00     0.091 A 
ATOM     83  F   UNL A   1      42.500  29.056  28.156  1.00  0.00    -0.205 F 
ATOM     84  C   UNL A   1      40.858  26.073  26.814  1.00  0.00     0.022 A 
BRANCH  82  85
ATOM     85  S   UNL A   1      42.699  27.575  25.456  1.00  0.00     0.127 S 
ATOM     86  O   UNL A   1      42.486  26.393  24.623  1.00  0.00    -0.237 OA
ATOM     87  O   UNL A   1      42.066  28.799  24.963  1.00  0.00    -0.237 OA
ATOM     88  O   UNL A   1      44.054  27.759  25.956  1.00  0.00    -0.744 OA
ENDBRANCH  82  85
ENDBRANCH  54  78
BRANCH  66  89
ATOM     89  C   UNL A   1      44.491  28.076  34.984  1.00  0.00     0.023 A 
ATOM     90  C   UNL A   1      45.807  28.552  34.826  1.00  0.00     0.012 A 
ATOM     91  C   UNL A   1      44.269  26.883  35.700  1.00  0.00     0.148 A 
ATOM     92  C   UNL A   1      46.887  27.835  35.342  1.00  0.00     0.002 A 
ATOM     93  C   UNL A   1      45.345  26.203  36.257  1.00  0.00     0.091 A 
ATOM     94  F   UNL A   1      43.010  26.438  35.825  1.00  0.00    -0.205 F 
ATOM     95  C   UNL A   1      46.654  26.669  36.067  1.00  0.00     0.022 A 
BRANCH  93  96
ATOM     96  S   UNL A   1      45.135  24.748  37.291  1.00  0.00     0.127 S 
ATOM     97  O   UNL A   1      44.300  25.269  38.371  1.00  0.00    -0.237 OA
ATOM     98  O   UNL A   1      44.452  23.823  36.384  1.00  0.00    -0.237 OA
ATOM     99  O   UNL A   1      46.475  24.334  37.681  1.00  0.00    -0.744 OA
ENDBRANCH  93  96
ENDBRANCH  66  89
ENDBRANCH  40  41
ENDBRANCH  32  35
ENDBRANCH  30  31
ENDBRANCH  29  30
ENDBRANCH   1  29
TORSDOF 18
ENDMDL
