MODEL 1
REMARK VINA RESULT:     -11.6      0.000      0.000
REMARK SMILES O=C(NCCCCCCNC(=O)C1CN(c2cnccn2)C1)c1ccc(-c2c3nc(c(-c4cccc(S(=O)(=O)[O-])c4F)c4ccc([nH]4)c(-c4cccc(S(=O)(=O)[O-])c4F)c4nc(c(-c5cccc(S(=O)(=O)[O-])c5F)c5ccc2[nH]5)C=C4)C=C3)cc1
REMARK SMILES IDX 5 1 4 2 3 3 1 4 2 5 23 7 24 8 85 9 25 10 84 11 26 12 27 13
REMARK SMILES IDX 28 14 78 15 29 16 83 17 77 18 79 19 30 20 82 21 76 22 75 23
REMARK SMILES IDX 31 25 63 26 43 27 62 28 44 29 47 30 61 31 80 32 45 33 46 34
REMARK SMILES IDX 60 36 81 37 48 38 32 39 33 40 41 41 34 42 36 43 42 44 35 45
REMARK SMILES IDX 37 46 38 47 39 48 40 49 64 50 65 51 73 52 66 53 68 54 74 55
REMARK SMILES IDX 67 56 69 57 70 58 71 59 72 60 49 61 50 62 58 63 51 64 53 65
REMARK SMILES IDX 59 66 52 67 54 68 55 69 56 70 57 71 6 72 7 73 8 74 9 75
REMARK SMILES IDX 10 76 11 77 12 79 13 80 14 81 22 82 15 83 16 84 17 85 21 86
REMARK SMILES IDX 18 87 20 88 19 89
REMARK H PARENT 3 6 79 24 47 35 10 78
REMARK Flexibility Score: inf
ROOT
ATOM      1  C   UNL A   1      31.848  28.154  26.363  1.00  0.00     0.021 C 
ENDROOT
BRANCH   1   2
ATOM      2  C   UNL A   1      32.710  29.248  25.748  1.00  0.00     0.116 C 
BRANCH   2   3
ATOM      3  N   UNL A   1      32.262  30.585  26.096  1.00  0.00    -0.352 N 
ATOM      4  O   UNL A   1      32.219  32.510  27.271  1.00  0.00    -0.269 OA
ATOM      5  C   UNL A   1      32.812  31.471  26.995  1.00  0.00     0.251 C 
ATOM      6  H   UNL A   1      31.457  30.901  25.625  1.00  0.00     0.163 HD
BRANCH   5   7
ATOM      7  C   UNL A   1      34.101  31.145  27.648  1.00  0.00     0.039 A 
ATOM      8  C   UNL A   1      34.401  29.831  28.014  1.00  0.00     0.014 A 
ATOM      9  C   UNL A   1      35.017  32.169  27.908  1.00  0.00     0.014 A 
ATOM     10  C   UNL A   1      35.539  29.567  28.768  1.00  0.00     0.010 A 
ATOM     11  C   UNL A   1      36.206  31.885  28.589  1.00  0.00     0.010 A 
ATOM     12  C   UNL A   1      36.463  30.587  29.055  1.00  0.00    -0.014 A 
BRANCH  12  13
ATOM     13  C   UNL A   1      37.718  30.238  29.771  1.00  0.00     0.031 A 
ATOM     14  C   UNL A   1      37.989  30.712  31.173  1.00  0.00     0.074 A 
ATOM     15  C   UNL A   1      38.610  29.448  29.143  1.00  0.00     0.049 A 
ATOM     16  N   UNL A   1      38.998  30.420  31.955  1.00  0.00    -0.248 NA
ATOM     17  C   UNL A   1      37.014  31.634  31.776  1.00  0.00     0.031 C 
ATOM     18  C   UNL A   1      38.486  28.979  27.760  1.00  0.00     0.029 A 
ATOM     19  N   UNL A   1      39.785  28.889  29.577  1.00  0.00    -0.354 N 
ATOM     20  C   UNL A   1      38.798  31.138  33.127  1.00  0.00     0.074 A 
ATOM     21  C   UNL A   1      37.577  31.895  32.950  1.00  0.00     0.031 C 
ATOM     22  C   UNL A   1      39.520  28.176  27.472  1.00  0.00     0.029 A 
ATOM     23  C   UNL A   1      40.402  28.105  28.630  1.00  0.00     0.049 A 
ATOM     24  H   UNL A   1      40.151  29.036  30.479  1.00  0.00     0.167 HD
ATOM     25  C   UNL A   1      39.550  31.149  34.255  1.00  0.00     0.034 A 
ATOM     26  C   UNL A   1      41.551  27.405  28.684  1.00  0.00     0.034 A 
ATOM     27  C   UNL A   1      40.748  30.370  34.437  1.00  0.00     0.049 A 
ATOM     28  C   UNL A   1      42.330  27.389  29.967  1.00  0.00     0.074 A 
ATOM     29  C   UNL A   1      41.560  30.288  35.555  1.00  0.00     0.029 A 
ATOM     30  N   UNL A   1      41.307  29.537  33.479  1.00  0.00    -0.354 N 
ATOM     31  N   UNL A   1      42.054  27.978  31.104  1.00  0.00    -0.248 NA
ATOM     32  C   UNL A   1      43.562  26.587  29.985  1.00  0.00     0.031 C 
ATOM     33  C   UNL A   1      42.611  29.406  35.272  1.00  0.00     0.029 A 
ATOM     34  C   UNL A   1      42.448  28.933  33.981  1.00  0.00     0.049 A 
ATOM     35  H   UNL A   1      40.945  29.396  32.574  1.00  0.00     0.167 HD
ATOM     36  C   UNL A   1      43.070  27.612  31.977  1.00  0.00     0.074 A 
ATOM     37  C   UNL A   1      43.943  26.714  31.247  1.00  0.00     0.031 C 
ATOM     38  C   UNL A   1      43.280  28.007  33.257  1.00  0.00     0.034 A 
BRANCH  25  39
ATOM     39  C   UNL A   1      39.069  31.982  35.415  1.00  0.00     0.023 A 
ATOM     40  C   UNL A   1      39.219  33.383  35.360  1.00  0.00     0.012 A 
ATOM     41  C   UNL A   1      38.401  31.402  36.511  1.00  0.00     0.148 A 
ATOM     42  C   UNL A   1      38.730  34.191  36.387  1.00  0.00     0.002 A 
ATOM     43  C   UNL A   1      37.885  32.217  37.514  1.00  0.00     0.091 A 
ATOM     44  F   UNL A   1      38.285  30.067  36.556  1.00  0.00    -0.205 F 
ATOM     45  C   UNL A   1      38.055  33.611  37.455  1.00  0.00     0.022 A 
BRANCH  43  46
ATOM     46  S   UNL A   1      36.939  31.572  38.899  1.00  0.00     0.127 S 
ATOM     47  O   UNL A   1      37.889  31.722  40.000  1.00  0.00    -0.237 OA
ATOM     48  O   UNL A   1      35.799  32.489  38.949  1.00  0.00    -0.237 OA
ATOM     49  O   UNL A   1      36.599  30.201  38.547  1.00  0.00    -0.744 OA
ENDBRANCH  43  46
ENDBRANCH  25  39
BRANCH  26  50
ATOM     50  C   UNL A   1      41.987  26.618  27.497  1.00  0.00     0.023 A 
ATOM     51  C   UNL A   1      42.748  27.242  26.490  1.00  0.00     0.012 A 
ATOM     52  C   UNL A   1      41.706  25.243  27.392  1.00  0.00     0.148 A 
ATOM     53  C   UNL A   1      43.202  26.512  25.390  1.00  0.00     0.002 A 
ATOM     54  C   UNL A   1      42.214  24.509  26.327  1.00  0.00     0.091 A 
ATOM     55  F   UNL A   1      40.960  24.668  28.348  1.00  0.00    -0.205 F 
ATOM     56  C   UNL A   1      42.949  25.145  25.316  1.00  0.00     0.022 A 
BRANCH  54  57
ATOM     57  S   UNL A   1      42.062  22.721  26.265  1.00  0.00     0.127 S 
ATOM     58  O   UNL A   1      42.749  22.317  27.487  1.00  0.00    -0.237 OA
ATOM     59  O   UNL A   1      40.610  22.530  26.281  1.00  0.00    -0.237 OA
ATOM     60  O   UNL A   1      42.693  22.333  25.010  1.00  0.00    -0.744 OA
ENDBRANCH  54  57
ENDBRANCH  26  50
BRANCH  38  61
ATOM     61  C   UNL A   1      44.504  27.469  33.947  1.00  0.00     0.023 A 
ATOM     62  C   UNL A   1      45.718  28.178  33.852  1.00  0.00     0.012 A 
ATOM     63  C   UNL A   1      44.447  26.294  34.720  1.00  0.00     0.148 A 
ATOM     64  C   UNL A   1      46.865  27.707  34.488  1.00  0.00     0.002 A 
ATOM     65  C   UNL A   1      45.585  25.852  35.384  1.00  0.00     0.091 A 
ATOM     66  F   UNL A   1      43.289  25.619  34.778  1.00  0.00    -0.205 F 
ATOM     67  C   UNL A   1      46.797  26.551  35.261  1.00  0.00     0.022 A 
BRANCH  65  68
ATOM     68  S   UNL A   1      45.559  24.416  36.463  1.00  0.00     0.127 S 
ATOM     69  O   UNL A   1      44.550  24.801  37.449  1.00  0.00    -0.237 OA
ATOM     70  O   UNL A   1      45.144  23.345  35.556  1.00  0.00    -0.237 OA
ATOM     71  O   UNL A   1      46.918  24.280  36.969  1.00  0.00    -0.744 OA
ENDBRANCH  65  68
ENDBRANCH  38  61
ENDBRANCH  12  13
ENDBRANCH   5   7
ENDBRANCH   2   3
ENDBRANCH   1   2
BRANCH   1  72
ATOM     72  C   UNL A   1      31.597  26.942  25.466  1.00  0.00     0.002 C 
BRANCH  72  73
ATOM     73  C   UNL A   1      30.281  26.959  24.681  1.00  0.00     0.002 C 
BRANCH  73  74
ATOM     74  C   UNL A   1      30.401  27.198  23.169  1.00  0.00     0.021 C 
BRANCH  74  75
ATOM     75  C   UNL A   1      31.773  27.678  22.696  1.00  0.00     0.116 C 
BRANCH  75  76
ATOM     76  N   UNL A   1      32.176  27.007  21.476  1.00  0.00    -0.356 N 
ATOM     77  C   UNL A   1      32.645  25.741  21.246  1.00  0.00     0.226 C 
ATOM     78  H   UNL A   1      32.096  27.561  20.665  1.00  0.00     0.163 HD
ATOM     79  O   UNL A   1      32.902  25.475  20.060  1.00  0.00    -0.275 OA
BRANCH  77  80
ATOM     80  C   UNL A   1      32.833  24.702  22.346  1.00  0.00     0.117 C 
ATOM     81  C   UNL A   1      33.379  23.296  22.087  1.00  0.00     0.133 C 
ATOM     82  C   UNL A   1      33.942  24.864  23.390  1.00  0.00     0.133 C 
ATOM     83  N   UNL A   1      34.230  23.488  23.210  1.00  0.00    -0.354 N 
BRANCH  83  84
ATOM     84  C   UNL A   1      35.071  22.594  23.868  1.00  0.00     0.147 A 
ATOM     85  C   UNL A   1      36.452  22.596  23.653  1.00  0.00     0.157 A 
ATOM     86  N   UNL A   1      34.531  21.722  24.752  1.00  0.00    -0.236 NA
ATOM     87  N   UNL A   1      37.324  21.769  24.285  1.00  0.00    -0.259 NA
ATOM     88  C   UNL A   1      35.390  20.869  25.362  1.00  0.00     0.133 A 
ATOM     89  C   UNL A   1      36.755  20.897  25.141  1.00  0.00     0.131 A 
ENDBRANCH  83  84
ENDBRANCH  77  80
ENDBRANCH  75  76
ENDBRANCH  74  75
ENDBRANCH  73  74
ENDBRANCH  72  73
ENDBRANCH   1  72
TORSDOF 17
ENDMDL
MODEL 2
REMARK VINA RESULT:     -11.4      1.798      3.784
REMARK SMILES O=C(NCCCCCCNC(=O)C1CN(c2cnccn2)C1)c1ccc(-c2c3nc(c(-c4cccc(S(=O)(=O)[O-])c4F)c4ccc([nH]4)c(-c4cccc(S(=O)(=O)[O-])c4F)c4nc(c(-c5cccc(S(=O)(=O)[O-])c5F)c5ccc2[nH]5)C=C4)C=C3)cc1
REMARK SMILES IDX 5 1 4 2 3 3 1 4 2 5 23 7 24 8 85 9 25 10 84 11 26 12 27 13
REMARK SMILES IDX 28 14 78 15 29 16 83 17 77 18 79 19 30 20 82 21 76 22 75 23
REMARK SMILES IDX 31 25 63 26 43 27 62 28 44 29 47 30 61 31 80 32 45 33 46 34
REMARK SMILES IDX 60 36 81 37 48 38 32 39 33 40 41 41 34 42 36 43 42 44 35 45
REMARK SMILES IDX 37 46 38 47 39 48 40 49 64 50 65 51 73 52 66 53 68 54 74 55
REMARK SMILES IDX 67 56 69 57 70 58 71 59 72 60 49 61 50 62 58 63 51 64 53 65
REMARK SMILES IDX 59 66 52 67 54 68 55 69 56 70 57 71 6 72 7 73 8 74 9 75
REMARK SMILES IDX 10 76 11 77 12 79 13 80 14 81 22 82 15 83 16 84 17 85 21 86
REMARK SMILES IDX 18 87 20 88 19 89
REMARK H PARENT 3 6 79 24 47 35 10 78
REMARK Flexibility Score: inf
ROOT
ATOM      1  C   UNL A   1      31.856  29.383  26.976  1.00  0.00     0.021 C 
ENDROOT
BRANCH   1   2
ATOM      2  C   UNL A   1      32.893  30.323  26.378  1.00  0.00     0.116 C 
BRANCH   2   3
ATOM      3  N   UNL A   1      32.669  31.714  26.735  1.00  0.00    -0.352 N 
ATOM      4  O   UNL A   1      32.984  33.628  27.885  1.00  0.00    -0.269 OA
ATOM      5  C   UNL A   1      33.399  32.512  27.587  1.00  0.00     0.251 C 
ATOM      6  H   UNL A   1      31.892  32.143  26.310  1.00  0.00     0.163 HD
BRANCH   5   7
ATOM      7  C   UNL A   1      34.664  32.002  28.164  1.00  0.00     0.039 A 
ATOM      8  C   UNL A   1      34.716  30.741  28.762  1.00  0.00     0.014 A 
ATOM      9  C   UNL A   1      35.811  32.800  28.117  1.00  0.00     0.014 A 
ATOM     10  C   UNL A   1      35.864  30.345  29.439  1.00  0.00     0.010 A 
ATOM     11  C   UNL A   1      36.993  32.361  28.723  1.00  0.00     0.010 A 
ATOM     12  C   UNL A   1      37.022  31.143  29.418  1.00  0.00    -0.014 A 
BRANCH  12  13
ATOM     13  C   UNL A   1      38.258  30.630  30.065  1.00  0.00     0.031 A 
ATOM     14  C   UNL A   1      38.643  31.024  31.465  1.00  0.00     0.074 A 
ATOM     15  C   UNL A   1      39.025  29.764  29.374  1.00  0.00     0.049 A 
ATOM     16  N   UNL A   1      39.644  30.595  32.190  1.00  0.00    -0.248 NA
ATOM     17  C   UNL A   1      37.808  32.032  32.138  1.00  0.00     0.031 C 
ATOM     18  C   UNL A   1      38.788  29.357  27.987  1.00  0.00     0.029 A 
ATOM     19  N   UNL A   1      40.145  29.062  29.738  1.00  0.00    -0.354 N 
ATOM     20  C   UNL A   1      39.580  31.293  33.389  1.00  0.00     0.074 A 
ATOM     21  C   UNL A   1      38.447  32.189  33.291  1.00  0.00     0.031 C 
ATOM     22  C   UNL A   1      39.709  28.452  27.628  1.00  0.00     0.029 A 
ATOM     23  C   UNL A   1      40.627  28.243  28.742  1.00  0.00     0.049 A 
ATOM     24  H   UNL A   1      40.566  29.137  30.625  1.00  0.00     0.167 HD
ATOM     25  C   UNL A   1      40.377  31.181  34.481  1.00  0.00     0.034 A 
ATOM     26  C   UNL A   1      41.688  27.416  28.723  1.00  0.00     0.034 A 
ATOM     27  C   UNL A   1      41.484  30.266  34.585  1.00  0.00     0.049 A 
ATOM     28  C   UNL A   1      42.515  27.270  29.967  1.00  0.00     0.074 A 
ATOM     29  C   UNL A   1      42.329  30.056  35.661  1.00  0.00     0.029 A 
ATOM     30  N   UNL A   1      41.900  29.406  33.580  1.00  0.00    -0.354 N 
ATOM     31  N   UNL A   1      42.359  27.850  31.131  1.00  0.00    -0.248 NA
ATOM     32  C   UNL A   1      43.647  26.333  29.905  1.00  0.00     0.031 C 
ATOM     33  C   UNL A   1      43.258  29.070  35.306  1.00  0.00     0.029 A 
ATOM     34  C   UNL A   1      42.985  28.660  34.011  1.00  0.00     0.049 A 
ATOM     35  H   UNL A   1      41.486  29.336  32.689  1.00  0.00     0.167 HD
ATOM     36  C   UNL A   1      43.363  27.342  31.945  1.00  0.00     0.074 A 
ATOM     37  C   UNL A   1      44.095  26.375  31.151  1.00  0.00     0.031 C 
ATOM     38  C   UNL A   1      43.673  27.670  33.224  1.00  0.00     0.034 A 
BRANCH  25  39
ATOM     39  C   UNL A   1      40.046  32.027  35.684  1.00  0.00     0.023 A 
ATOM     40  C   UNL A   1      40.734  33.241  35.879  1.00  0.00     0.012 A 
ATOM     41  C   UNL A   1      39.009  31.672  36.570  1.00  0.00     0.148 A 
ATOM     42  C   UNL A   1      40.412  34.079  36.946  1.00  0.00     0.002 A 
ATOM     43  C   UNL A   1      38.669  32.529  37.612  1.00  0.00     0.091 A 
ATOM     44  F   UNL A   1      38.378  30.504  36.381  1.00  0.00    -0.205 F 
ATOM     45  C   UNL A   1      39.375  33.729  37.804  1.00  0.00     0.022 A 
BRANCH  43  46
ATOM     46  S   UNL A   1      37.302  32.203  38.732  1.00  0.00     0.127 S 
ATOM     47  O   UNL A   1      37.812  32.752  39.987  1.00  0.00    -0.237 OA
ATOM     48  O   UNL A   1      36.216  32.974  38.126  1.00  0.00    -0.237 OA
ATOM     49  O   UNL A   1      37.105  30.760  38.712  1.00  0.00    -0.744 OA
ENDBRANCH  43  46
ENDBRANCH  25  39
BRANCH  26  50
ATOM     50  C   UNL A   1      41.979  26.623  27.496  1.00  0.00     0.023 A 
ATOM     51  C   UNL A   1      42.634  27.235  26.411  1.00  0.00     0.012 A 
ATOM     52  C   UNL A   1      41.666  25.253  27.424  1.00  0.00     0.148 A 
ATOM     53  C   UNL A   1      42.953  26.500  25.269  1.00  0.00     0.002 A 
ATOM     54  C   UNL A   1      42.043  24.512  26.310  1.00  0.00     0.091 A 
ATOM     55  F   UNL A   1      41.021  24.689  28.456  1.00  0.00    -0.205 F 
ATOM     56  C   UNL A   1      42.673  25.137  25.223  1.00  0.00     0.022 A 
BRANCH  54  57
ATOM     57  S   UNL A   1      41.856  22.726  26.267  1.00  0.00     0.127 S 
ATOM     58  O   UNL A   1      42.471  22.390  24.987  1.00  0.00    -0.237 OA
ATOM     59  O   UNL A   1      42.615  22.304  27.446  1.00  0.00    -0.237 OA
ATOM     60  O   UNL A   1      40.421  22.496  26.375  1.00  0.00    -0.744 OA
ENDBRANCH  54  57
ENDBRANCH  26  50
BRANCH  38  61
ATOM     61  C   UNL A   1      44.856  26.974  33.841  1.00  0.00     0.023 A 
ATOM     62  C   UNL A   1      46.145  27.514  33.663  1.00  0.00     0.012 A 
ATOM     63  C   UNL A   1      44.692  25.819  34.628  1.00  0.00     0.148 A 
ATOM     64  C   UNL A   1      47.257  26.895  34.230  1.00  0.00     0.002 A 
ATOM     65  C   UNL A   1      45.801  25.229  35.223  1.00  0.00     0.091 A 
ATOM     66  F   UNL A   1      43.460  25.304  34.765  1.00  0.00    -0.205 F 
ATOM     67  C   UNL A   1      47.085  25.760  35.018  1.00  0.00     0.022 A 
BRANCH  65  68
ATOM     68  S   UNL A   1      45.652  23.811  36.316  1.00  0.00     0.127 S 
ATOM     69  O   UNL A   1      44.773  24.330  37.362  1.00  0.00    -0.237 OA
ATOM     70  O   UNL A   1      45.037  22.805  35.449  1.00  0.00    -0.237 OA
ATOM     71  O   UNL A   1      47.011  23.493  36.733  1.00  0.00    -0.744 OA
ENDBRANCH  65  68
ENDBRANCH  38  61
ENDBRANCH  12  13
ENDBRANCH   5   7
ENDBRANCH   2   3
ENDBRANCH   1   2
BRANCH   1  72
ATOM     72  C   UNL A   1      32.356  27.969  27.275  1.00  0.00     0.002 C 
BRANCH  72  73
ATOM     73  C   UNL A   1      33.398  27.413  26.300  1.00  0.00     0.002 C 
BRANCH  73  74
ATOM     74  C   UNL A   1      33.408  25.888  26.121  1.00  0.00     0.021 C 
BRANCH  74  75
ATOM     75  C   UNL A   1      32.114  25.293  25.565  1.00  0.00     0.116 C 
BRANCH  75  76
ATOM     76  N   UNL A   1      32.093  25.331  24.117  1.00  0.00    -0.356 N 
ATOM     77  C   UNL A   1      31.518  26.210  23.238  1.00  0.00     0.226 C 
ATOM     78  H   UNL A   1      32.582  24.592  23.686  1.00  0.00     0.163 HD
ATOM     79  O   UNL A   1      31.693  25.952  22.036  1.00  0.00    -0.275 OA
BRANCH  77  80
ATOM     80  C   UNL A   1      30.729  27.439  23.676  1.00  0.00     0.117 C 
ATOM     81  C   UNL A   1      31.206  28.873  23.429  1.00  0.00     0.133 C 
ATOM     82  C   UNL A   1      29.429  27.825  22.963  1.00  0.00     0.133 C 
ATOM     83  N   UNL A   1      29.893  29.164  22.971  1.00  0.00    -0.354 N 
BRANCH  83  84
ATOM     84  C   UNL A   1      29.304  30.380  22.632  1.00  0.00     0.147 A 
ATOM     85  C   UNL A   1      28.794  30.614  21.353  1.00  0.00     0.157 A 
ATOM     86  N   UNL A   1      29.208  31.344  23.578  1.00  0.00    -0.236 NA
ATOM     87  N   UNL A   1      28.185  31.766  20.971  1.00  0.00    -0.259 NA
ATOM     88  C   UNL A   1      28.633  32.511  23.198  1.00  0.00     0.133 A 
ATOM     89  C   UNL A   1      28.126  32.715  21.927  1.00  0.00     0.131 A 
ENDBRANCH  83  84
ENDBRANCH  77  80
ENDBRANCH  75  76
ENDBRANCH  74  75
ENDBRANCH  73  74
ENDBRANCH  72  73
ENDBRANCH   1  72
TORSDOF 17
ENDMDL
MODEL 3
REMARK VINA RESULT:     -11.3      5.395     10.495
REMARK SMILES O=C(NCCCCCCNC(=O)C1CN(c2cnccn2)C1)c1ccc(-c2c3nc(c(-c4cccc(S(=O)(=O)[O-])c4F)c4ccc([nH]4)c(-c4cccc(S(=O)(=O)[O-])c4F)c4nc(c(-c5cccc(S(=O)(=O)[O-])c5F)c5ccc2[nH]5)C=C4)C=C3)cc1
REMARK SMILES IDX 5 1 4 2 3 3 1 4 2 5 23 7 24 8 85 9 25 10 84 11 26 12 27 13
REMARK SMILES IDX 28 14 78 15 29 16 83 17 77 18 79 19 30 20 82 21 76 22 75 23
REMARK SMILES IDX 31 25 63 26 43 27 62 28 44 29 47 30 61 31 80 32 45 33 46 34
REMARK SMILES IDX 60 36 81 37 48 38 32 39 33 40 41 41 34 42 36 43 42 44 35 45
REMARK SMILES IDX 37 46 38 47 39 48 40 49 64 50 65 51 73 52 66 53 68 54 74 55
REMARK SMILES IDX 67 56 69 57 70 58 71 59 72 60 49 61 50 62 58 63 51 64 53 65
REMARK SMILES IDX 59 66 52 67 54 68 55 69 56 70 57 71 6 72 7 73 8 74 9 75
REMARK SMILES IDX 10 76 11 77 12 79 13 80 14 81 22 82 15 83 16 84 17 85 21 86
REMARK SMILES IDX 18 87 20 88 19 89
REMARK H PARENT 3 6 79 24 47 35 10 78
REMARK Flexibility Score: inf
ROOT
ATOM      1  C   UNL A   1      36.122  22.482  24.038  1.00  0.00     0.021 C 
ENDROOT
BRANCH   1   2
ATOM      2  C   UNL A   1      36.869  22.572  25.361  1.00  0.00     0.116 C 
BRANCH   2   3
ATOM      3  N   UNL A   1      37.763  21.448  25.586  1.00  0.00    -0.352 N 
ATOM      4  O   UNL A   1      39.711  20.425  26.077  1.00  0.00    -0.269 OA
ATOM      5  C   UNL A   1      39.045  21.456  26.087  1.00  0.00     0.251 C 
ATOM      6  H   UNL A   1      37.403  20.563  25.348  1.00  0.00     0.163 HD
BRANCH   5   7
ATOM      7  C   UNL A   1      39.622  22.718  26.605  1.00  0.00     0.039 A 
ATOM      8  C   UNL A   1      39.201  23.951  26.102  1.00  0.00     0.014 A 
ATOM      9  C   UNL A   1      40.605  22.668  27.597  1.00  0.00     0.014 A 
ATOM     10  C   UNL A   1      39.864  25.114  26.480  1.00  0.00     0.010 A 
ATOM     11  C   UNL A   1      41.210  23.849  28.041  1.00  0.00     0.010 A 
ATOM     12  C   UNL A   1      40.867  25.080  27.463  1.00  0.00    -0.014 A 
BRANCH  12  13
ATOM     13  C   UNL A   1      41.474  26.361  27.913  1.00  0.00     0.031 A 
ATOM     14  C   UNL A   1      42.902  26.715  27.599  1.00  0.00     0.074 A 
ATOM     15  C   UNL A   1      40.697  27.228  28.591  1.00  0.00     0.049 A 
ATOM     16  N   UNL A   1      43.543  27.828  27.852  1.00  0.00    -0.248 NA
ATOM     17  C   UNL A   1      43.721  25.695  26.925  1.00  0.00     0.031 C 
ATOM     18  C   UNL A   1      39.317  26.968  29.009  1.00  0.00     0.029 A 
ATOM     19  N   UNL A   1      40.944  28.501  29.038  1.00  0.00    -0.354 N 
ATOM     20  C   UNL A   1      44.841  27.638  27.396  1.00  0.00     0.074 A 
ATOM     21  C   UNL A   1      44.904  26.293  26.863  1.00  0.00     0.031 C 
ATOM     22  C   UNL A   1      38.827  28.057  29.617  1.00  0.00     0.029 A 
ATOM     23  C   UNL A   1      39.867  29.078  29.672  1.00  0.00     0.049 A 
ATOM     24  H   UNL A   1      41.808  28.957  28.919  1.00  0.00     0.167 HD
ATOM     25  C   UNL A   1      45.879  28.510  27.400  1.00  0.00     0.034 A 
ATOM     26  C   UNL A   1      39.728  30.293  30.235  1.00  0.00     0.034 A 
ATOM     27  C   UNL A   1      45.803  29.857  27.904  1.00  0.00     0.049 A 
ATOM     28  C   UNL A   1      40.876  31.257  30.170  1.00  0.00     0.074 A 
ATOM     29  C   UNL A   1      46.791  30.828  27.921  1.00  0.00     0.029 A 
ATOM     30  N   UNL A   1      44.677  30.428  28.478  1.00  0.00    -0.354 N 
ATOM     31  N   UNL A   1      42.055  31.097  29.621  1.00  0.00    -0.248 NA
ATOM     32  C   UNL A   1      40.665  32.581  30.774  1.00  0.00     0.031 C 
ATOM     33  C   UNL A   1      46.261  31.984  28.507  1.00  0.00     0.029 A 
ATOM     34  C   UNL A   1      44.942  31.736  28.847  1.00  0.00     0.049 A 
ATOM     35  H   UNL A   1      43.814  29.969  28.605  1.00  0.00     0.167 HD
ATOM     36  C   UNL A   1      42.724  32.300  29.803  1.00  0.00     0.074 A 
ATOM     37  C   UNL A   1      41.802  33.193  30.475  1.00  0.00     0.031 C 
ATOM     38  C   UNL A   1      43.998  32.626  29.473  1.00  0.00     0.034 A 
BRANCH  25  39
ATOM     39  C   UNL A   1      47.179  28.062  26.783  1.00  0.00     0.023 A 
ATOM     40  C   UNL A   1      48.229  27.644  27.625  1.00  0.00     0.012 A 
ATOM     41  C   UNL A   1      47.338  27.972  25.385  1.00  0.00     0.148 A 
ATOM     42  C   UNL A   1      49.424  27.164  27.088  1.00  0.00     0.002 A 
ATOM     43  C   UNL A   1      48.518  27.459  24.858  1.00  0.00     0.091 A 
ATOM     44  F   UNL A   1      46.336  28.391  24.600  1.00  0.00    -0.205 F 
ATOM     45  C   UNL A   1      49.564  27.062  25.708  1.00  0.00     0.022 A 
BRANCH  43  46
ATOM     46  S   UNL A   1      48.771  27.221  23.094  1.00  0.00     0.127 S 
ATOM     47  O   UNL A   1      47.980  28.316  22.533  1.00  0.00    -0.237 OA
ATOM     48  O   UNL A   1      50.219  27.388  22.964  1.00  0.00    -0.237 OA
ATOM     49  O   UNL A   1      48.287  25.881  22.797  1.00  0.00    -0.744 OA
ENDBRANCH  43  46
ENDBRANCH  25  39
BRANCH  26  50
ATOM     50  C   UNL A   1      38.426  30.671  30.851  1.00  0.00     0.023 A 
ATOM     51  C   UNL A   1      38.198  30.408  32.215  1.00  0.00     0.012 A 
ATOM     52  C   UNL A   1      37.438  31.345  30.108  1.00  0.00     0.148 A 
ATOM     53  C   UNL A   1      37.001  30.791  32.821  1.00  0.00     0.002 A 
ATOM     54  C   UNL A   1      36.276  31.781  30.734  1.00  0.00     0.091 A 
ATOM     55  F   UNL A   1      37.659  31.568  28.804  1.00  0.00    -0.205 F 
ATOM     56  C   UNL A   1      36.048  31.491  32.087  1.00  0.00     0.022 A 
BRANCH  54  57
ATOM     57  S   UNL A   1      35.090  32.827  29.881  1.00  0.00     0.127 S 
ATOM     58  O   UNL A   1      34.556  31.916  28.873  1.00  0.00    -0.237 OA
ATOM     59  O   UNL A   1      34.156  33.179  30.952  1.00  0.00    -0.237 OA
ATOM     60  O   UNL A   1      35.871  33.953  29.385  1.00  0.00    -0.744 OA
ENDBRANCH  54  57
ENDBRANCH  26  50
BRANCH  38  61
ATOM     61  C   UNL A   1      44.466  34.009  29.836  1.00  0.00     0.023 A 
ATOM     62  C   UNL A   1      45.117  34.217  31.069  1.00  0.00     0.012 A 
ATOM     63  C   UNL A   1      44.303  35.090  28.949  1.00  0.00     0.148 A 
ATOM     64  C   UNL A   1      45.568  35.486  31.428  1.00  0.00     0.002 A 
ATOM     65  C   UNL A   1      44.790  36.345  29.296  1.00  0.00     0.091 A 
ATOM     66  F   UNL A   1      43.658  34.879  27.792  1.00  0.00    -0.205 F 
ATOM     67  C   UNL A   1      45.414  36.547  30.539  1.00  0.00     0.022 A 
BRANCH  65  68
ATOM     68  S   UNL A   1      44.701  37.743  28.173  1.00  0.00     0.127 S 
ATOM     69  O   UNL A   1      43.258  37.945  28.060  1.00  0.00    -0.237 OA
ATOM     70  O   UNL A   1      45.406  38.790  28.913  1.00  0.00    -0.237 OA
ATOM     71  O   UNL A   1      45.376  37.312  26.956  1.00  0.00    -0.744 OA
ENDBRANCH  65  68
ENDBRANCH  38  61
ENDBRANCH  12  13
ENDBRANCH   5   7
ENDBRANCH   2   3
ENDBRANCH   1   2
BRANCH   1  72
ATOM     72  C   UNL A   1      34.698  23.036  24.055  1.00  0.00     0.002 C 
BRANCH  72  73
ATOM     73  C   UNL A   1      33.594  22.042  23.681  1.00  0.00     0.002 C 
BRANCH  73  74
ATOM     74  C   UNL A   1      32.929  21.300  24.850  1.00  0.00     0.021 C 
BRANCH  74  75
ATOM     75  C   UNL A   1      33.066  21.982  26.211  1.00  0.00     0.116 C 
BRANCH  75  76
ATOM     76  N   UNL A   1      31.777  22.144  26.853  1.00  0.00    -0.356 N 
ATOM     77  C   UNL A   1      30.858  23.159  26.804  1.00  0.00     0.226 C 
ATOM     78  H   UNL A   1      31.514  21.389  27.428  1.00  0.00     0.163 HD
ATOM     79  O   UNL A   1      29.834  22.983  27.485  1.00  0.00    -0.275 OA
BRANCH  77  80
ATOM     80  C   UNL A   1      31.042  24.419  25.966  1.00  0.00     0.117 C 
ATOM     81  C   UNL A   1      30.134  25.646  26.086  1.00  0.00     0.133 C 
ATOM     82  C   UNL A   1      32.225  25.358  26.220  1.00  0.00     0.133 C 
ATOM     83  N   UNL A   1      31.314  26.438  26.112  1.00  0.00    -0.354 N 
BRANCH  83  84
ATOM     84  C   UNL A   1      31.474  27.821  26.066  1.00  0.00     0.147 A 
ATOM     85  C   UNL A   1      31.808  28.556  27.206  1.00  0.00     0.157 A 
ATOM     86  N   UNL A   1      31.320  28.456  24.880  1.00  0.00    -0.236 NA
ATOM     87  N   UNL A   1      32.005  29.900  27.218  1.00  0.00    -0.259 NA
ATOM     88  C   UNL A   1      31.479  29.802  24.889  1.00  0.00     0.133 A 
ATOM     89  C   UNL A   1      31.822  30.507  26.029  1.00  0.00     0.131 A 
ENDBRANCH  83  84
ENDBRANCH  77  80
ENDBRANCH  75  76
ENDBRANCH  74  75
ENDBRANCH  73  74
ENDBRANCH  72  73
ENDBRANCH   1  72
TORSDOF 17
ENDMDL
