MODEL 1
REMARK VINA RESULT:     -10.6      0.000      0.000
REMARK SMILES C#CCN(CC(=O)NCCCCCCNC(=O)c1ccc(-c2c3nc(c(-c4cccc(S(=O)(=O)[O-])c4F)c4ccc([nH]4)c(-c4cccc(S(=O)(=O)[O-])c4F)c4nc(c(-c5cccc(S(=O)(=O)[O-])c5F)c5ccc2[nH]5)C=C4)C=C3)cc1)C(=O)c1cc([N+](=O)[O-])c(F)cc1F
REMARK SMILES IDX 11 1 10 2 9 3 8 4 6 5 7 6 5 8 4 9 3 10 2 11 1 12 81 13 82 14
REMARK SMILES IDX 83 15 84 16 92 17 85 18 91 19 93 20 89 21 90 22 86 23 87 24
REMARK SMILES IDX 88 25 12 26 13 27 14 28 15 29 16 30 17 32 18 33 19 34 80 35
REMARK SMILES IDX 20 36 79 37 21 38 22 39 23 40 73 41 24 42 78 43 72 44 74 45
REMARK SMILES IDX 25 46 77 47 71 48 70 49 26 51 58 52 38 53 57 54 39 55 42 56
REMARK SMILES IDX 56 57 75 58 40 59 41 60 55 62 76 63 43 64 27 65 28 66 36 67
REMARK SMILES IDX 29 68 31 69 37 70 30 71 32 72 33 73 34 74 35 75 59 76 60 77
REMARK SMILES IDX 68 78 61 79 63 80 69 81 62 82 64 83 65 84 66 85 67 86 44 87
REMARK SMILES IDX 45 88 53 89 46 90 48 91 54 92 47 93 49 94 50 95 51 96 52 97
REMARK H PARENT 8 7 15 31 74 50 42 61
REMARK Flexibility Score: inf
ROOT
ATOM      1  C   UNL A   1      30.636  27.402  24.624  1.00  0.00     0.002 C 
ENDROOT
BRANCH   1   2
ATOM      2  C   UNL A   1      29.965  26.209  25.315  1.00  0.00     0.021 C 
BRANCH   2   3
ATOM      3  C   UNL A   1      30.456  24.833  24.858  1.00  0.00     0.116 C 
BRANCH   3   4
ATOM      4  N   UNL A   1      30.787  23.943  25.950  1.00  0.00    -0.355 N 
ATOM      5  C   UNL A   1      31.966  23.714  26.591  1.00  0.00     0.239 C 
ATOM      6  O   UNL A   1      31.930  23.013  27.609  1.00  0.00    -0.273 OA
ATOM      7  H   UNL A   1      30.030  23.413  26.288  1.00  0.00     0.163 HD
BRANCH   5   8
ATOM      8  C   UNL A   1      33.292  24.383  26.183  1.00  0.00     0.220 C 
BRANCH   8   9
ATOM      9  N   UNL A   1      34.384  23.518  25.734  1.00  0.00    -0.318 N 
BRANCH   9  10
ATOM     10  C   UNL A   1      35.370  23.105  26.734  1.00  0.00     0.210 C 
BRANCH  10  11
ATOM     11  C   UNL A   1      36.778  23.531  26.354  1.00  0.00    -0.085 C 
ATOM     12  C   UNL A   1      37.986  23.897  26.028  1.00  0.00     0.006 C 
ENDBRANCH  10  11
ENDBRANCH   9  10
BRANCH   9  13
ATOM     13  C   UNL A   1      34.497  22.991  24.445  1.00  0.00     0.258 C 
ATOM     14  O   UNL A   1      35.252  23.439  23.585  1.00  0.00    -0.269 OA
BRANCH  13  15
ATOM     15  C   UNL A   1      33.732  21.789  24.055  1.00  0.00     0.082 A 
ATOM     16  C   UNL A   1      34.114  20.546  24.580  1.00  0.00     0.105 A 
ATOM     17  C   UNL A   1      32.747  21.849  23.072  1.00  0.00     0.139 A 
ATOM     18  C   UNL A   1      33.444  19.383  24.156  1.00  0.00     0.305 A 
ATOM     19  C   UNL A   1      32.048  20.707  22.693  1.00  0.00     0.086 A 
ATOM     20  F   UNL A   1      32.472  22.994  22.441  1.00  0.00    -0.206 F 
ATOM     21  C   UNL A   1      32.395  19.474  23.239  1.00  0.00     0.203 A 
ATOM     22  F   UNL A   1      31.698  18.403  22.837  1.00  0.00    -0.199 F 
BRANCH  18  23
ATOM     23  N   UNL A   1      33.877  18.077  24.654  1.00  0.00     0.065 N 
ATOM     24  O   UNL A   1      33.088  17.458  25.382  1.00  0.00    -0.258 OA
ATOM     25  O   UNL A   1      34.999  17.661  24.337  1.00  0.00    -0.258 OA
ENDBRANCH  18  23
ENDBRANCH  13  15
ENDBRANCH   9  13
ENDBRANCH   8   9
ENDBRANCH   5   8
ENDBRANCH   3   4
ENDBRANCH   2   3
ENDBRANCH   1   2
BRANCH   1  26
ATOM     26  C   UNL A   1      32.154  27.494  24.791  1.00  0.00     0.002 C 
BRANCH  26  27
ATOM     27  C   UNL A   1      32.760  28.887  24.585  1.00  0.00     0.021 C 
BRANCH  27  28
ATOM     28  C   UNL A   1      33.682  29.367  25.703  1.00  0.00     0.116 C 
BRANCH  28  29
ATOM     29  N   UNL A   1      33.308  30.686  26.187  1.00  0.00    -0.352 N 
ATOM     30  C   UNL A   1      33.813  31.418  27.232  1.00  0.00     0.251 C 
ATOM     31  H   UNL A   1      32.580  31.122  25.688  1.00  0.00     0.163 HD
ATOM     32  O   UNL A   1      33.216  32.427  27.602  1.00  0.00    -0.269 OA
BRANCH  30  33
ATOM     33  C   UNL A   1      35.058  31.005  27.925  1.00  0.00     0.039 A 
ATOM     34  C   UNL A   1      35.075  29.777  28.594  1.00  0.00     0.014 A 
ATOM     35  C   UNL A   1      36.183  31.834  27.966  1.00  0.00     0.014 A 
ATOM     36  C   UNL A   1      36.229  29.363  29.265  1.00  0.00     0.010 A 
ATOM     37  C   UNL A   1      37.355  31.390  28.580  1.00  0.00     0.010 A 
ATOM     38  C   UNL A   1      37.387  30.157  29.247  1.00  0.00    -0.014 A 
BRANCH  38  39
ATOM     39  C   UNL A   1      38.636  29.698  29.912  1.00  0.00     0.031 A 
ATOM     40  C   UNL A   1      39.028  30.226  31.266  1.00  0.00     0.074 A 
ATOM     41  C   UNL A   1      39.459  28.853  29.261  1.00  0.00     0.049 A 
ATOM     42  N   UNL A   1      40.075  29.931  31.994  1.00  0.00    -0.248 NA
ATOM     43  C   UNL A   1      38.146  31.236  31.872  1.00  0.00     0.031 C 
ATOM     44  C   UNL A   1      39.247  28.346  27.904  1.00  0.00     0.029 A 
ATOM     45  N   UNL A   1      40.652  28.290  29.643  1.00  0.00    -0.354 N 
ATOM     46  C   UNL A   1      39.999  30.741  33.121  1.00  0.00     0.074 A 
ATOM     47  C   UNL A   1      38.818  31.563  32.967  1.00  0.00     0.031 C 
ATOM     48  C   UNL A   1      40.273  27.548  27.567  1.00  0.00     0.029 A 
ATOM     49  C   UNL A   1      41.222  27.497  28.675  1.00  0.00     0.049 A 
ATOM     50  H   UNL A   1      41.061  28.440  30.527  1.00  0.00     0.167 HD
ATOM     51  C   UNL A   1      40.816  30.776  34.201  1.00  0.00     0.034 A 
ATOM     52  C   UNL A   1      42.378  26.803  28.679  1.00  0.00     0.034 A 
ATOM     53  C   UNL A   1      41.961  29.922  34.375  1.00  0.00     0.049 A 
ATOM     54  C   UNL A   1      43.223  26.793  29.923  1.00  0.00     0.074 A 
ATOM     55  C   UNL A   1      42.788  29.805  35.480  1.00  0.00     0.029 A 
ATOM     56  N   UNL A   1      42.448  29.045  33.419  1.00  0.00    -0.354 N 
ATOM     57  N   UNL A   1      43.028  27.419  31.057  1.00  0.00    -0.248 NA
ATOM     58  C   UNL A   1      44.423  25.943  29.904  1.00  0.00     0.031 C 
ATOM     59  C   UNL A   1      43.784  28.868  35.183  1.00  0.00     0.029 A 
ATOM     60  C   UNL A   1      43.567  28.388  33.902  1.00  0.00     0.049 A 
ATOM     61  H   UNL A   1      42.055  28.909  32.527  1.00  0.00     0.167 HD
ATOM     62  C   UNL A   1      44.061  27.019  31.897  1.00  0.00     0.074 A 
ATOM     63  C   UNL A   1      44.863  26.073  31.149  1.00  0.00     0.031 C 
ATOM     64  C   UNL A   1      44.331  27.413  33.167  1.00  0.00     0.034 A 
BRANCH  51  65
ATOM     65  C   UNL A   1      40.465  31.732  35.313  1.00  0.00     0.023 A 
ATOM     66  C   UNL A   1      41.210  32.919  35.468  1.00  0.00     0.012 A 
ATOM     67  C   UNL A   1      39.371  31.488  36.167  1.00  0.00     0.148 A 
ATOM     68  C   UNL A   1      40.897  33.829  36.476  1.00  0.00     0.002 A 
ATOM     69  C   UNL A   1      39.039  32.422  37.143  1.00  0.00     0.091 A 
ATOM     70  F   UNL A   1      38.688  30.344  36.022  1.00  0.00    -0.205 F 
ATOM     71  C   UNL A   1      39.807  33.586  37.306  1.00  0.00     0.022 A 
BRANCH  69  72
ATOM     72  S   UNL A   1      37.603  32.232  38.207  1.00  0.00     0.127 S 
ATOM     73  O   UNL A   1      38.096  32.789  39.468  1.00  0.00    -0.237 OA
ATOM     74  O   UNL A   1      36.604  33.062  37.528  1.00  0.00    -0.237 OA
ATOM     75  O   UNL A   1      37.301  30.812  38.221  1.00  0.00    -0.744 OA
ENDBRANCH  69  72
ENDBRANCH  51  65
BRANCH  52  76
ATOM     76  C   UNL A   1      42.752  25.992  27.486  1.00  0.00     0.023 A 
ATOM     77  C   UNL A   1      43.581  26.557  26.498  1.00  0.00     0.012 A 
ATOM     78  C   UNL A   1      42.334  24.654  27.350  1.00  0.00     0.148 A 
ATOM     79  C   UNL A   1      43.964  25.814  25.381  1.00  0.00     0.002 A 
ATOM     80  C   UNL A   1      42.767  23.902  26.264  1.00  0.00     0.091 A 
ATOM     81  F   UNL A   1      41.535  24.139  28.295  1.00  0.00    -0.205 F 
ATOM     82  C   UNL A   1      43.568  24.484  25.270  1.00  0.00     0.022 A 
BRANCH  80  83
ATOM     83  S   UNL A   1      42.421  22.144  26.117  1.00  0.00     0.127 S 
ATOM     84  O   UNL A   1      40.968  22.136  25.968  1.00  0.00    -0.237 OA
ATOM     85  O   UNL A   1      43.167  21.788  24.910  1.00  0.00    -0.237 OA
ATOM     86  O   UNL A   1      42.938  21.541  27.338  1.00  0.00    -0.744 OA
ENDBRANCH  80  83
ENDBRANCH  52  76
BRANCH  64  87
ATOM     87  C   UNL A   1      45.538  26.810  33.839  1.00  0.00     0.023 A 
ATOM     88  C   UNL A   1      46.787  27.454  33.740  1.00  0.00     0.012 A 
ATOM     89  C   UNL A   1      45.424  25.640  34.615  1.00  0.00     0.148 A 
ATOM     90  C   UNL A   1      47.912  26.923  34.370  1.00  0.00     0.002 A 
ATOM     91  C   UNL A   1      46.540  25.141  35.278  1.00  0.00     0.091 A 
ATOM     92  F   UNL A   1      44.234  25.027  34.682  1.00  0.00    -0.205 F 
ATOM     93  C   UNL A   1      47.786  25.774  35.147  1.00  0.00     0.022 A 
BRANCH  91  94
ATOM     94  S   UNL A   1      46.443  23.720  36.373  1.00  0.00     0.127 S 
ATOM     95  O   UNL A   1      45.287  24.058  37.201  1.00  0.00    -0.237 OA
ATOM     96  O   UNL A   1      46.220  22.616  35.438  1.00  0.00    -0.237 OA
ATOM     97  O   UNL A   1      47.723  23.668  37.065  1.00  0.00    -0.744 OA
ENDBRANCH  91  94
ENDBRANCH  64  87
ENDBRANCH  38  39
ENDBRANCH  30  33
ENDBRANCH  28  29
ENDBRANCH  27  28
ENDBRANCH  26  27
ENDBRANCH   1  26
TORSDOF 22
ENDMDL
MODEL 2
REMARK VINA RESULT:     -10.3      1.654      2.198
REMARK SMILES C#CCN(CC(=O)NCCCCCCNC(=O)c1ccc(-c2c3nc(c(-c4cccc(S(=O)(=O)[O-])c4F)c4ccc([nH]4)c(-c4cccc(S(=O)(=O)[O-])c4F)c4nc(c(-c5cccc(S(=O)(=O)[O-])c5F)c5ccc2[nH]5)C=C4)C=C3)cc1)C(=O)c1cc([N+](=O)[O-])c(F)cc1F
REMARK SMILES IDX 11 1 10 2 9 3 8 4 6 5 7 6 5 8 4 9 3 10 2 11 1 12 81 13 82 14
REMARK SMILES IDX 83 15 84 16 92 17 85 18 91 19 93 20 89 21 90 22 86 23 87 24
REMARK SMILES IDX 88 25 12 26 13 27 14 28 15 29 16 30 17 32 18 33 19 34 80 35
REMARK SMILES IDX 20 36 79 37 21 38 22 39 23 40 73 41 24 42 78 43 72 44 74 45
REMARK SMILES IDX 25 46 77 47 71 48 70 49 26 51 58 52 38 53 57 54 39 55 42 56
REMARK SMILES IDX 56 57 75 58 40 59 41 60 55 62 76 63 43 64 27 65 28 66 36 67
REMARK SMILES IDX 29 68 31 69 37 70 30 71 32 72 33 73 34 74 35 75 59 76 60 77
REMARK SMILES IDX 68 78 61 79 63 80 69 81 62 82 64 83 65 84 66 85 67 86 44 87
REMARK SMILES IDX 45 88 53 89 46 90 48 91 54 92 47 93 49 94 50 95 51 96 52 97
REMARK H PARENT 8 7 15 31 74 50 42 61
REMARK Flexibility Score: inf
ROOT
ATOM      1  C   UNL A   1      31.060  28.328  23.905  1.00  0.00     0.002 C 
ENDROOT
BRANCH   1   2
ATOM      2  C   UNL A   1      30.621  26.862  23.829  1.00  0.00     0.021 C 
BRANCH   2   3
ATOM      3  C   UNL A   1      31.717  25.838  24.135  1.00  0.00     0.116 C 
BRANCH   3   4
ATOM      4  N   UNL A   1      32.222  25.160  22.960  1.00  0.00    -0.355 N 
ATOM      5  C   UNL A   1      33.320  24.374  22.784  1.00  0.00     0.239 C 
ATOM      6  O   UNL A   1      33.426  23.785  21.702  1.00  0.00    -0.273 OA
ATOM      7  H   UNL A   1      31.679  25.290  22.150  1.00  0.00     0.163 HD
BRANCH   5   8
ATOM      8  C   UNL A   1      34.344  24.094  23.900  1.00  0.00     0.220 C 
BRANCH   8   9
ATOM      9  N   UNL A   1      33.955  23.170  24.967  1.00  0.00    -0.318 N 
BRANCH   9  10
ATOM     10  C   UNL A   1      34.776  23.159  26.179  1.00  0.00     0.210 C 
BRANCH  10  11
ATOM     11  C   UNL A   1      36.242  23.418  25.874  1.00  0.00    -0.085 C 
ATOM     12  C   UNL A   1      37.500  23.640  25.613  1.00  0.00     0.006 C 
ENDBRANCH  10  11
ENDBRANCH   9  10
BRANCH   9  13
ATOM     13  C   UNL A   1      32.809  22.371  24.943  1.00  0.00     0.258 C 
ATOM     14  O   UNL A   1      31.713  22.730  25.368  1.00  0.00    -0.269 OA
BRANCH  13  15
ATOM     15  C   UNL A   1      32.842  21.028  24.330  1.00  0.00     0.082 A 
ATOM     16  C   UNL A   1      33.733  20.073  24.843  1.00  0.00     0.105 A 
ATOM     17  C   UNL A   1      32.121  20.745  23.172  1.00  0.00     0.139 A 
ATOM     18  C   UNL A   1      33.831  18.815  24.219  1.00  0.00     0.305 A 
ATOM     19  C   UNL A   1      32.178  19.484  22.587  1.00  0.00     0.086 A 
ATOM     20  F   UNL A   1      31.387  21.686  22.572  1.00  0.00    -0.206 F 
ATOM     21  C   UNL A   1      33.030  18.517  23.114  1.00  0.00     0.203 A 
ATOM     22  F   UNL A   1      33.055  17.322  22.512  1.00  0.00    -0.199 F 
BRANCH  18  23
ATOM     23  N   UNL A   1      34.801  17.837  24.712  1.00  0.00     0.065 N 
ATOM     24  O   UNL A   1      34.367  16.725  25.044  1.00  0.00    -0.258 OA
ATOM     25  O   UNL A   1      35.993  18.164  24.781  1.00  0.00    -0.258 OA
ENDBRANCH  18  23
ENDBRANCH  13  15
ENDBRANCH   9  13
ENDBRANCH   8   9
ENDBRANCH   5   8
ENDBRANCH   3   4
ENDBRANCH   2   3
ENDBRANCH   1   2
BRANCH   1  26
ATOM     26  C   UNL A   1      31.785  28.735  25.190  1.00  0.00     0.002 C 
BRANCH  26  27
ATOM     27  C   UNL A   1      33.292  28.976  25.053  1.00  0.00     0.021 C 
BRANCH  27  28
ATOM     28  C   UNL A   1      34.043  29.169  26.368  1.00  0.00     0.116 C 
BRANCH  28  29
ATOM     29  N   UNL A   1      33.799  30.480  26.946  1.00  0.00    -0.352 N 
ATOM     30  C   UNL A   1      34.484  31.154  27.926  1.00  0.00     0.251 C 
ATOM     31  H   UNL A   1      33.023  30.960  26.577  1.00  0.00     0.163 HD
ATOM     32  O   UNL A   1      33.990  32.168  28.414  1.00  0.00    -0.269 OA
BRANCH  30  33
ATOM     33  C   UNL A   1      35.800  30.671  28.409  1.00  0.00     0.039 A 
ATOM     34  C   UNL A   1      35.828  29.665  29.380  1.00  0.00     0.014 A 
ATOM     35  C   UNL A   1      36.998  31.234  27.958  1.00  0.00     0.014 A 
ATOM     36  C   UNL A   1      37.052  29.195  29.864  1.00  0.00     0.010 A 
ATOM     37  C   UNL A   1      38.219  30.718  28.393  1.00  0.00     0.010 A 
ATOM     38  C   UNL A   1      38.261  29.703  29.360  1.00  0.00    -0.014 A 
BRANCH  38  39
ATOM     39  C   UNL A   1      39.567  29.170  29.830  1.00  0.00     0.031 A 
ATOM     40  C   UNL A   1      40.309  29.831  30.960  1.00  0.00     0.074 A 
ATOM     41  C   UNL A   1      40.124  28.124  29.187  1.00  0.00     0.049 A 
ATOM     42  N   UNL A   1      41.453  29.496  31.502  1.00  0.00    -0.248 NA
ATOM     43  C   UNL A   1      39.704  31.040  31.541  1.00  0.00     0.031 C 
ATOM     44  C   UNL A   1      39.557  27.456  28.013  1.00  0.00     0.029 A 
ATOM     45  N   UNL A   1      41.301  27.455  29.414  1.00  0.00    -0.354 N 
ATOM     46  C   UNL A   1      41.722  30.468  32.458  1.00  0.00     0.074 A 
ATOM     47  C   UNL A   1      40.636  31.423  32.402  1.00  0.00     0.031 C 
ATOM     48  C   UNL A   1      40.386  26.474  27.623  1.00  0.00     0.029 A 
ATOM     49  C   UNL A   1      41.547  26.450  28.508  1.00  0.00     0.049 A 
ATOM     50  H   UNL A   1      41.911  27.674  30.155  1.00  0.00     0.167 HD
ATOM     51  C   UNL A   1      42.759  30.544  33.327  1.00  0.00     0.034 A 
ATOM     52  C   UNL A   1      42.589  25.601  28.402  1.00  0.00     0.034 A 
ATOM     53  C   UNL A   1      43.811  29.566  33.416  1.00  0.00     0.049 A 
ATOM     54  C   UNL A   1      43.685  25.652  29.431  1.00  0.00     0.074 A 
ATOM     55  C   UNL A   1      44.845  29.495  34.333  1.00  0.00     0.029 A 
ATOM     56  N   UNL A   1      43.970  28.493  32.553  1.00  0.00    -0.354 N 
ATOM     57  N   UNL A   1      43.820  26.464  30.450  1.00  0.00    -0.248 NA
ATOM     58  C   UNL A   1      44.747  24.642  29.322  1.00  0.00     0.031 C 
ATOM     59  C   UNL A   1      45.639  28.387  34.013  1.00  0.00     0.029 A 
ATOM     60  C   UNL A   1      45.088  27.758  32.909  1.00  0.00     0.049 A 
ATOM     61  H   UNL A   1      43.374  28.284  31.797  1.00  0.00     0.167 HD
ATOM     62  C   UNL A   1      44.963  26.046  31.123  1.00  0.00     0.074 A 
ATOM     63  C   UNL A   1      45.467  24.890  30.408  1.00  0.00     0.031 C 
ATOM     64  C   UNL A   1      45.554  26.582  32.220  1.00  0.00     0.034 A 
BRANCH  51  65
ATOM     65  C   UNL A   1      42.775  31.697  34.298  1.00  0.00     0.023 A 
ATOM     66  C   UNL A   1      43.341  32.927  33.905  1.00  0.00     0.012 A 
ATOM     67  C   UNL A   1      42.186  31.585  35.573  1.00  0.00     0.148 A 
ATOM     68  C   UNL A   1      43.355  34.016  34.776  1.00  0.00     0.002 A 
ATOM     69  C   UNL A   1      42.165  32.689  36.420  1.00  0.00     0.091 A 
ATOM     70  F   UNL A   1      41.673  30.403  35.941  1.00  0.00    -0.205 F 
ATOM     71  C   UNL A   1      42.759  33.899  36.028  1.00  0.00     0.022 A 
BRANCH  69  72
ATOM     72  S   UNL A   1      41.349  32.658  38.021  1.00  0.00     0.127 S 
ATOM     73  O   UNL A   1      39.996  32.237  37.653  1.00  0.00    -0.237 OA
ATOM     74  O   UNL A   1      42.124  31.645  38.742  1.00  0.00    -0.237 OA
ATOM     75  O   UNL A   1      41.467  34.003  38.555  1.00  0.00    -0.744 OA
ENDBRANCH  69  72
ENDBRANCH  51  65
BRANCH  52  76
ATOM     76  C   UNL A   1      42.594  24.575  27.322  1.00  0.00     0.023 A 
ATOM     77  C   UNL A   1      43.262  24.845  26.112  1.00  0.00     0.012 A 
ATOM     78  C   UNL A   1      41.984  23.318  27.504  1.00  0.00     0.148 A 
ATOM     79  C   UNL A   1      43.300  23.894  25.093  1.00  0.00     0.002 A 
ATOM     80  C   UNL A   1      42.075  22.354  26.507  1.00  0.00     0.091 A 
ATOM     81  F   UNL A   1      41.342  23.085  28.658  1.00  0.00    -0.205 F 
ATOM     82  C   UNL A   1      42.718  22.645  25.294  1.00  0.00     0.022 A 
BRANCH  80  83
ATOM     83  S   UNL A   1      41.478  20.675  26.739  1.00  0.00     0.127 S 
ATOM     84  O   UNL A   1      41.814  20.057  25.459  1.00  0.00    -0.237 OA
ATOM     85  O   UNL A   1      42.283  20.220  27.873  1.00  0.00    -0.237 OA
ATOM     86  O   UNL A   1      40.056  20.803  27.030  1.00  0.00    -0.744 OA
ENDBRANCH  80  83
ENDBRANCH  52  76
BRANCH  64  87
ATOM     87  C   UNL A   1      46.805  25.915  32.731  1.00  0.00     0.023 A 
ATOM     88  C   UNL A   1      48.065  26.364  32.290  1.00  0.00     0.012 A 
ATOM     89  C   UNL A   1      46.735  24.884  33.688  1.00  0.00     0.148 A 
ATOM     90  C   UNL A   1      49.236  25.773  32.765  1.00  0.00     0.002 A 
ATOM     91  C   UNL A   1      47.907  24.330  34.191  1.00  0.00     0.091 A 
ATOM     92  F   UNL A   1      45.528  24.452  34.081  1.00  0.00    -0.205 F 
ATOM     93  C   UNL A   1      49.157  24.764  33.723  1.00  0.00     0.022 A 
BRANCH  91  94
ATOM     94  S   UNL A   1      47.895  23.092  35.494  1.00  0.00     0.127 S 
ATOM     95  O   UNL A   1      49.269  23.161  35.985  1.00  0.00    -0.237 OA
ATOM     96  O   UNL A   1      46.890  23.618  36.420  1.00  0.00    -0.237 OA
ATOM     97  O   UNL A   1      47.516  21.843  34.847  1.00  0.00    -0.744 OA
ENDBRANCH  91  94
ENDBRANCH  64  87
ENDBRANCH  38  39
ENDBRANCH  30  33
ENDBRANCH  28  29
ENDBRANCH  27  28
ENDBRANCH  26  27
ENDBRANCH   1  26
TORSDOF 22
ENDMDL
MODEL 3
REMARK VINA RESULT:     -10.3      1.802      2.247
REMARK SMILES C#CCN(CC(=O)NCCCCCCNC(=O)c1ccc(-c2c3nc(c(-c4cccc(S(=O)(=O)[O-])c4F)c4ccc([nH]4)c(-c4cccc(S(=O)(=O)[O-])c4F)c4nc(c(-c5cccc(S(=O)(=O)[O-])c5F)c5ccc2[nH]5)C=C4)C=C3)cc1)C(=O)c1cc([N+](=O)[O-])c(F)cc1F
REMARK SMILES IDX 11 1 10 2 9 3 8 4 6 5 7 6 5 8 4 9 3 10 2 11 1 12 81 13 82 14
REMARK SMILES IDX 83 15 84 16 92 17 85 18 91 19 93 20 89 21 90 22 86 23 87 24
REMARK SMILES IDX 88 25 12 26 13 27 14 28 15 29 16 30 17 32 18 33 19 34 80 35
REMARK SMILES IDX 20 36 79 37 21 38 22 39 23 40 73 41 24 42 78 43 72 44 74 45
REMARK SMILES IDX 25 46 77 47 71 48 70 49 26 51 58 52 38 53 57 54 39 55 42 56
REMARK SMILES IDX 56 57 75 58 40 59 41 60 55 62 76 63 43 64 27 65 28 66 36 67
REMARK SMILES IDX 29 68 31 69 37 70 30 71 32 72 33 73 34 74 35 75 59 76 60 77
REMARK SMILES IDX 68 78 61 79 63 80 69 81 62 82 64 83 65 84 66 85 67 86 44 87
REMARK SMILES IDX 45 88 53 89 46 90 48 91 54 92 47 93 49 94 50 95 51 96 52 97
REMARK H PARENT 8 7 15 31 74 50 42 61
REMARK Flexibility Score: inf
ROOT
ATOM      1  C   UNL A   1      30.140  27.892  23.626  1.00  0.00     0.002 C 
ENDROOT
BRANCH   1   2
ATOM      2  C   UNL A   1      29.448  26.532  23.775  1.00  0.00     0.021 C 
BRANCH   2   3
ATOM      3  C   UNL A   1      30.367  25.316  23.641  1.00  0.00     0.116 C 
BRANCH   3   4
ATOM      4  N   UNL A   1      31.238  25.371  22.486  1.00  0.00    -0.355 N 
ATOM      5  C   UNL A   1      32.594  25.304  22.384  1.00  0.00     0.239 C 
ATOM      6  O   UNL A   1      33.072  25.211  21.248  1.00  0.00    -0.273 OA
ATOM      7  H   UNL A   1      30.769  25.474  21.627  1.00  0.00     0.163 HD
BRANCH   5   8
ATOM      8  C   UNL A   1      33.528  25.211  23.606  1.00  0.00     0.220 C 
BRANCH   8   9
ATOM      9  N   UNL A   1      33.893  23.877  24.086  1.00  0.00    -0.318 N 
BRANCH   9  10
ATOM     10  C   UNL A   1      35.186  23.339  23.658  1.00  0.00     0.210 C 
BRANCH  10  11
ATOM     11  C   UNL A   1      36.200  23.329  24.790  1.00  0.00    -0.085 C 
ATOM     12  C   UNL A   1      37.069  23.320  25.760  1.00  0.00     0.006 C 
ENDBRANCH  10  11
ENDBRANCH   9  10
BRANCH   9  13
ATOM     13  C   UNL A   1      33.137  23.127  24.991  1.00  0.00     0.258 C 
ATOM     14  O   UNL A   1      32.415  23.620  25.854  1.00  0.00    -0.269 OA
BRANCH  13  15
ATOM     15  C   UNL A   1      33.120  21.652  24.915  1.00  0.00     0.082 A 
ATOM     16  C   UNL A   1      32.731  21.043  23.713  1.00  0.00     0.105 A 
ATOM     17  C   UNL A   1      33.337  20.869  26.046  1.00  0.00     0.139 A 
ATOM     18  C   UNL A   1      32.635  19.640  23.651  1.00  0.00     0.305 A 
ATOM     19  C   UNL A   1      33.294  19.480  25.971  1.00  0.00     0.086 A 
ATOM     20  F   UNL A   1      33.554  21.429  27.240  1.00  0.00    -0.206 F 
ATOM     21  C   UNL A   1      32.947  18.866  24.770  1.00  0.00     0.203 A 
ATOM     22  F   UNL A   1      32.912  17.527  24.749  1.00  0.00    -0.199 F 
BRANCH  18  23
ATOM     23  N   UNL A   1      32.171  19.001  22.418  1.00  0.00     0.065 N 
ATOM     24  O   UNL A   1      32.003  17.773  22.445  1.00  0.00    -0.258 OA
ATOM     25  O   UNL A   1      31.978  19.705  21.419  1.00  0.00    -0.258 OA
ENDBRANCH  18  23
ENDBRANCH  13  15
ENDBRANCH   9  13
ENDBRANCH   8   9
ENDBRANCH   5   8
ENDBRANCH   3   4
ENDBRANCH   2   3
ENDBRANCH   1   2
BRANCH   1  26
ATOM     26  C   UNL A   1      31.222  28.199  24.664  1.00  0.00     0.002 C 
BRANCH  26  27
ATOM     27  C   UNL A   1      32.540  28.746  24.106  1.00  0.00     0.021 C 
BRANCH  27  28
ATOM     28  C   UNL A   1      33.465  29.392  25.135  1.00  0.00     0.116 C 
BRANCH  28  29
ATOM     29  N   UNL A   1      32.896  30.608  25.690  1.00  0.00    -0.352 N 
ATOM     30  C   UNL A   1      33.209  31.283  26.844  1.00  0.00     0.251 C 
ATOM     31  H   UNL A   1      32.176  31.013  25.155  1.00  0.00     0.163 HD
ATOM     32  O   UNL A   1      32.466  32.181  27.234  1.00  0.00    -0.269 OA
BRANCH  30  33
ATOM     33  C   UNL A   1      34.419  30.937  27.627  1.00  0.00     0.039 A 
ATOM     34  C   UNL A   1      34.495  29.670  28.216  1.00  0.00     0.014 A 
ATOM     35  C   UNL A   1      35.448  31.860  27.832  1.00  0.00     0.014 A 
ATOM     36  C   UNL A   1      35.618  29.316  28.969  1.00  0.00     0.010 A 
ATOM     37  C   UNL A   1      36.597  31.482  28.529  1.00  0.00     0.010 A 
ATOM     38  C   UNL A   1      36.689  30.212  29.116  1.00  0.00    -0.014 A 
BRANCH  38  39
ATOM     39  C   UNL A   1      37.910  29.823  29.871  1.00  0.00     0.031 A 
ATOM     40  C   UNL A   1      38.182  30.383  31.241  1.00  0.00     0.074 A 
ATOM     41  C   UNL A   1      38.817  29.014  29.288  1.00  0.00     0.049 A 
ATOM     42  N   UNL A   1      39.190  30.147  32.042  1.00  0.00    -0.248 NA
ATOM     43  C   UNL A   1      37.212  31.353  31.772  1.00  0.00     0.031 C 
ATOM     44  C   UNL A   1      38.724  28.484  27.927  1.00  0.00     0.029 A 
ATOM     45  N   UNL A   1      40.007  28.515  29.758  1.00  0.00    -0.354 N 
ATOM     46  C   UNL A   1      38.997  30.963  33.151  1.00  0.00     0.074 A 
ATOM     47  C   UNL A   1      37.790  31.723  32.906  1.00  0.00     0.031 C 
ATOM     48  C   UNL A   1      39.809  27.736  27.670  1.00  0.00     0.029 A 
ATOM     49  C   UNL A   1      40.681  27.743  28.841  1.00  0.00     0.049 A 
ATOM     50  H   UNL A   1      40.346  28.694  30.665  1.00  0.00     0.167 HD
ATOM     51  C   UNL A   1      39.735  31.049  34.284  1.00  0.00     0.034 A 
ATOM     52  C   UNL A   1      41.866  27.107  28.932  1.00  0.00     0.034 A 
ATOM     53  C   UNL A   1      40.906  30.255  34.547  1.00  0.00     0.049 A 
ATOM     54  C   UNL A   1      42.624  27.151  30.231  1.00  0.00     0.074 A 
ATOM     55  C   UNL A   1      41.660  30.190  35.706  1.00  0.00     0.029 A 
ATOM     56  N   UNL A   1      41.500  29.395  33.637  1.00  0.00    -0.354 N 
ATOM     57  N   UNL A   1      42.321  27.778  31.341  1.00  0.00    -0.248 NA
ATOM     58  C   UNL A   1      43.862  26.363  30.305  1.00  0.00     0.031 C 
ATOM     59  C   UNL A   1      42.720  29.302  35.490  1.00  0.00     0.029 A 
ATOM     60  C   UNL A   1      42.614  28.799  34.204  1.00  0.00     0.049 A 
ATOM     61  H   UNL A   1      41.177  29.231  32.722  1.00  0.00     0.167 HD
ATOM     62  C   UNL A   1      43.312  27.438  32.255  1.00  0.00     0.074 A 
ATOM     63  C   UNL A   1      44.210  26.526  31.575  1.00  0.00     0.031 C 
ATOM     64  C   UNL A   1      43.475  27.857  33.535  1.00  0.00     0.034 A 
BRANCH  51  65
ATOM     65  C   UNL A   1      39.262  31.997  35.357  1.00  0.00     0.023 A 
ATOM     66  C   UNL A   1      38.330  31.547  36.316  1.00  0.00     0.012 A 
ATOM     67  C   UNL A   1      39.773  33.306  35.453  1.00  0.00     0.148 A 
ATOM     68  C   UNL A   1      37.887  32.396  37.329  1.00  0.00     0.002 A 
ATOM     69  C   UNL A   1      39.358  34.132  36.493  1.00  0.00     0.091 A 
ATOM     70  F   UNL A   1      40.640  33.725  34.520  1.00  0.00    -0.205 F 
ATOM     71  C   UNL A   1      38.408  33.683  37.423  1.00  0.00     0.022 A 
BRANCH  69  72
ATOM     72  S   UNL A   1      40.034  35.778  36.742  1.00  0.00     0.127 S 
ATOM     73  O   UNL A   1      41.466  35.494  36.854  1.00  0.00    -0.237 OA
ATOM     74  O   UNL A   1      39.648  36.461  35.504  1.00  0.00    -0.237 OA
ATOM     75  O   UNL A   1      39.398  36.294  37.941  1.00  0.00    -0.744 OA
ENDBRANCH  69  72
ENDBRANCH  51  65
BRANCH  52  76
ATOM     76  C   UNL A   1      42.361  26.305  27.779  1.00  0.00     0.023 A 
ATOM     77  C   UNL A   1      43.340  26.851  26.925  1.00  0.00     0.012 A 
ATOM     78  C   UNL A   1      41.906  24.992  27.551  1.00  0.00     0.148 A 
ATOM     79  C   UNL A   1      43.837  26.114  25.850  1.00  0.00     0.002 A 
ATOM     80  C   UNL A   1      42.447  24.243  26.512  1.00  0.00     0.091 A 
ATOM     81  F   UNL A   1      40.965  24.496  28.367  1.00  0.00    -0.205 F 
ATOM     82  C   UNL A   1      43.400  24.807  25.651  1.00  0.00     0.022 A 
BRANCH  80  83
ATOM     83  S   UNL A   1      42.045  22.508  26.272  1.00  0.00     0.127 S 
ATOM     84  O   UNL A   1      42.625  21.897  27.466  1.00  0.00    -0.237 OA
ATOM     85  O   UNL A   1      40.583  22.535  26.241  1.00  0.00    -0.237 OA
ATOM     86  O   UNL A   1      42.661  22.137  25.005  1.00  0.00    -0.744 OA
ENDBRANCH  80  83
ENDBRANCH  52  76
BRANCH  64  87
ATOM     87  C   UNL A   1      44.660  27.322  34.295  1.00  0.00     0.023 A 
ATOM     88  C   UNL A   1      45.876  28.034  34.285  1.00  0.00     0.012 A 
ATOM     89  C   UNL A   1      44.556  26.146  35.065  1.00  0.00     0.148 A 
ATOM     90  C   UNL A   1      46.980  27.566  34.997  1.00  0.00     0.002 A 
ATOM     91  C   UNL A   1      45.646  25.710  35.809  1.00  0.00     0.091 A 
ATOM     92  F   UNL A   1      43.400  25.468  35.047  1.00  0.00    -0.205 F 
ATOM     93  C   UNL A   1      46.862  26.411  35.767  1.00  0.00     0.022 A 
BRANCH  91  94
ATOM     94  S   UNL A   1      45.548  24.285  36.899  1.00  0.00     0.127 S 
ATOM     95  O   UNL A   1      45.141  23.229  35.975  1.00  0.00    -0.237 OA
ATOM     96  O   UNL A   1      46.922  24.168  37.390  1.00  0.00    -0.237 OA
ATOM     97  O   UNL A   1      44.575  24.639  37.923  1.00  0.00    -0.744 OA
ENDBRANCH  91  94
ENDBRANCH  64  87
ENDBRANCH  38  39
ENDBRANCH  30  33
ENDBRANCH  28  29
ENDBRANCH  27  28
ENDBRANCH  26  27
ENDBRANCH   1  26
TORSDOF 22
ENDMDL
