MODEL 1
REMARK VINA RESULT:     -10.8      0.000      0.000
REMARK SMILES CC[C@@H](NS(=O)(=O)c1cc(C)ccc1C)C(=O)NCCCCCCNC(=O)c1ccc(-c2c3nc(c(-c4cccc(S(=O)(=O)[O-])c4F)c4ccc([nH]4)c(-c4cccc(S(=O)(=O)[O-])c4F)c4nc(c(-c5cccc(S(=O)(=O)[O-])c5F)c5ccc2[nH]5)C=C4)C=C3)cc1
REMARK SMILES IDX 21 1 20 2 19 3 18 4 16 5 17 6 3 8 2 9 1 10 4 11 5 13 6 14
REMARK SMILES IDX 7 15 8 16 9 17 14 18 10 19 13 20 15 21 11 22 12 23 22 24
REMARK SMILES IDX 23 25 24 26 25 27 26 28 27 30 28 31 29 32 90 33 30 34 89 35
REMARK SMILES IDX 31 36 32 37 33 38 83 39 34 40 88 41 82 42 84 43 35 44 87 45
REMARK SMILES IDX 81 46 80 47 36 49 68 50 48 51 67 52 49 53 52 54 66 55 85 56
REMARK SMILES IDX 50 57 51 58 65 60 86 61 53 62 37 63 38 64 46 65 39 66 41 67
REMARK SMILES IDX 47 68 40 69 42 70 43 71 44 72 45 73 69 74 70 75 78 76 71 77
REMARK SMILES IDX 73 78 79 79 72 80 74 81 75 82 76 83 77 84 54 85 55 86 63 87
REMARK SMILES IDX 56 88 58 89 64 90 57 91 59 92 60 93 61 94 62 95
REMARK H PARENT 18 7 4 12 25 29 84 48 52 59
REMARK Flexibility Score: inf
ROOT
ATOM      1  C   UNL A   1      34.019  30.598  27.304  1.00  0.00     0.002 C 
ENDROOT
BRANCH   1   2
ATOM      2  C   UNL A   1      34.410  29.138  27.560  1.00  0.00     0.021 C 
BRANCH   2   3
ATOM      3  C   UNL A   1      33.392  28.134  27.033  1.00  0.00     0.116 C 
BRANCH   3   4
ATOM      4  N   UNL A   1      33.876  27.452  25.843  1.00  0.00    -0.355 N 
ATOM      5  C   UNL A   1      33.319  26.440  25.112  1.00  0.00     0.238 C 
ATOM      6  O   UNL A   1      33.944  26.023  24.132  1.00  0.00    -0.273 OA
ATOM      7  H   UNL A   1      34.746  27.772  25.509  1.00  0.00     0.163 HD
BRANCH   5   8
ATOM      8  C   UNL A   1      31.950  25.863  25.482  1.00  0.00     0.158 C 
BRANCH   8   9
ATOM      9  C   UNL A   1      30.842  26.789  24.968  1.00  0.00     0.027 C 
ATOM     10  C   UNL A   1      29.557  26.067  24.612  1.00  0.00     0.006 C 
ENDBRANCH   8   9
BRANCH   8  11
ATOM     11  N   UNL A   1      31.839  24.466  24.982  1.00  0.00    -0.199 NA
ATOM     12  H   UNL A   1      32.694  24.265  24.464  1.00  0.00     0.142 HD
BRANCH  11  13
ATOM     13  S   UNL A   1      31.627  23.216  26.092  1.00  0.00     0.241 S 
ATOM     14  O   UNL A   1      32.035  23.717  27.403  1.00  0.00    -0.207 OA
ATOM     15  O   UNL A   1      30.305  22.694  25.904  1.00  0.00    -0.207 OA
BRANCH  13  16
ATOM     16  C   UNL A   1      32.792  21.958  25.585  1.00  0.00     0.085 A 
ATOM     17  C   UNL A   1      32.271  20.806  24.971  1.00  0.00     0.025 A 
ATOM     18  C   UNL A   1      34.178  22.086  25.793  1.00  0.00    -0.031 A 
ATOM     19  C   UNL A   1      33.105  19.744  24.606  1.00  0.00    -0.050 A 
ATOM     20  C   UNL A   1      35.003  21.006  25.429  1.00  0.00     0.005 A 
ATOM     21  C   UNL A   1      34.841  23.323  26.333  1.00  0.00     0.046 C 
ATOM     22  C   UNL A   1      32.540  18.503  23.982  1.00  0.00     0.044 C 
ATOM     23  C   UNL A   1      34.472  19.846  24.858  1.00  0.00     0.004 A 
ENDBRANCH  13  16
ENDBRANCH  11  13
ENDBRANCH   8  11
ENDBRANCH   5   8
ENDBRANCH   3   4
ENDBRANCH   2   3
ENDBRANCH   1   2
BRANCH   1  24
ATOM     24  C   UNL A   1      35.040  31.680  27.686  1.00  0.00     0.002 C 
BRANCH  24  25
ATOM     25  C   UNL A   1      34.573  33.024  28.271  1.00  0.00     0.021 C 
BRANCH  25  26
ATOM     26  C   UNL A   1      35.514  33.801  29.192  1.00  0.00     0.116 C 
BRANCH  26  27
ATOM     27  N   UNL A   1      35.335  33.507  30.624  1.00  0.00    -0.352 N 
ATOM     28  C   UNL A   1      35.698  32.434  31.430  1.00  0.00     0.251 C 
ATOM     29  H   UNL A   1      34.861  34.219  31.112  1.00  0.00     0.163 HD
ATOM     30  O   UNL A   1      35.138  32.289  32.515  1.00  0.00    -0.269 OA
BRANCH  28  31
ATOM     31  C   UNL A   1      36.749  31.478  31.013  1.00  0.00     0.039 A 
ATOM     32  C   UNL A   1      36.526  30.145  30.664  1.00  0.00     0.014 A 
ATOM     33  C   UNL A   1      38.052  31.924  31.040  1.00  0.00     0.014 A 
ATOM     34  C   UNL A   1      37.645  29.332  30.438  1.00  0.00     0.010 A 
ATOM     35  C   UNL A   1      39.058  31.281  30.409  1.00  0.00     0.010 A 
ATOM     36  C   UNL A   1      38.917  29.925  30.364  1.00  0.00    -0.014 A 
BRANCH  36  37
ATOM     37  C   UNL A   1      40.162  29.210  30.181  1.00  0.00     0.031 A 
ATOM     38  C   UNL A   1      40.814  28.921  31.459  1.00  0.00     0.074 A 
ATOM     39  C   UNL A   1      40.552  28.611  29.031  1.00  0.00     0.049 A 
ATOM     40  N   UNL A   1      41.794  29.575  31.976  1.00  0.00    -0.248 NA
ATOM     41  C   UNL A   1      40.172  27.952  32.356  1.00  0.00     0.031 C 
ATOM     42  C   UNL A   1      39.816  28.473  27.762  1.00  0.00     0.029 A 
ATOM     43  N   UNL A   1      41.677  27.878  28.801  1.00  0.00    -0.354 N 
ATOM     44  C   UNL A   1      42.081  28.889  33.142  1.00  0.00     0.074 A 
ATOM     45  C   UNL A   1      40.913  28.103  33.454  1.00  0.00     0.031 C 
ATOM     46  C   UNL A   1      40.421  27.544  26.984  1.00  0.00     0.029 A 
ATOM     47  C   UNL A   1      41.661  27.140  27.621  1.00  0.00     0.049 A 
ATOM     48  H   UNL A   1      42.441  27.870  29.421  1.00  0.00     0.167 HD
ATOM     49  C   UNL A   1      43.365  28.760  33.562  1.00  0.00     0.034 A 
ATOM     50  C   UNL A   1      42.596  26.244  27.221  1.00  0.00     0.034 A 
ATOM     51  C   UNL A   1      44.259  29.627  32.834  1.00  0.00     0.049 A 
ATOM     52  C   UNL A   1      43.844  26.568  27.949  1.00  0.00     0.074 A 
ATOM     53  C   UNL A   1      44.332  30.984  32.598  1.00  0.00     0.029 A 
ATOM     54  N   UNL A   1      45.020  29.025  31.859  1.00  0.00    -0.354 N 
ATOM     55  N   UNL A   1      44.520  27.667  27.763  1.00  0.00    -0.248 NA
ATOM     56  C   UNL A   1      44.150  25.849  29.174  1.00  0.00     0.031 C 
ATOM     57  C   UNL A   1      44.793  31.109  31.252  1.00  0.00     0.029 A 
ATOM     58  C   UNL A   1      45.024  29.827  30.748  1.00  0.00     0.049 A 
ATOM     59  H   UNL A   1      45.486  28.162  31.947  1.00  0.00     0.167 HD
ATOM     60  C   UNL A   1      44.968  28.015  29.030  1.00  0.00     0.074 A 
ATOM     61  C   UNL A   1      44.850  26.789  29.815  1.00  0.00     0.031 C 
ATOM     62  C   UNL A   1      45.102  29.327  29.388  1.00  0.00     0.034 A 
BRANCH  49  63
ATOM     63  C   UNL A   1      43.862  27.574  34.337  1.00  0.00     0.023 A 
ATOM     64  C   UNL A   1      44.575  27.830  35.522  1.00  0.00     0.012 A 
ATOM     65  C   UNL A   1      43.869  26.247  33.848  1.00  0.00     0.148 A 
ATOM     66  C   UNL A   1      45.265  26.812  36.188  1.00  0.00     0.002 A 
ATOM     67  C   UNL A   1      44.466  25.223  34.568  1.00  0.00     0.091 A 
ATOM     68  F   UNL A   1      43.430  25.982  32.613  1.00  0.00    -0.205 F 
ATOM     69  C   UNL A   1      45.192  25.503  35.725  1.00  0.00     0.022 A 
BRANCH  67  70
ATOM     70  S   UNL A   1      44.313  23.513  34.041  1.00  0.00     0.127 S 
ATOM     71  O   UNL A   1      45.152  22.829  35.019  1.00  0.00    -0.237 OA
ATOM     72  O   UNL A   1      42.874  23.281  34.184  1.00  0.00    -0.237 OA
ATOM     73  O   UNL A   1      44.781  23.501  32.660  1.00  0.00    -0.744 OA
ENDBRANCH  67  70
ENDBRANCH  49  63
BRANCH  50  74
ATOM     74  C   UNL A   1      42.471  25.009  26.415  1.00  0.00     0.023 A 
ATOM     75  C   UNL A   1      43.465  24.677  25.472  1.00  0.00     0.012 A 
ATOM     76  C   UNL A   1      41.549  24.008  26.790  1.00  0.00     0.148 A 
ATOM     77  C   UNL A   1      43.568  23.380  24.955  1.00  0.00     0.002 A 
ATOM     78  C   UNL A   1      41.666  22.715  26.287  1.00  0.00     0.091 A 
ATOM     79  F   UNL A   1      40.611  24.308  27.699  1.00  0.00    -0.205 F 
ATOM     80  C   UNL A   1      42.680  22.394  25.376  1.00  0.00     0.022 A 
BRANCH  78  81
ATOM     81  S   UNL A   1      40.606  21.371  26.832  1.00  0.00     0.127 S 
ATOM     82  O   UNL A   1      41.156  20.241  26.084  1.00  0.00    -0.237 OA
ATOM     83  O   UNL A   1      40.867  21.336  28.268  1.00  0.00    -0.237 OA
ATOM     84  O   UNL A   1      39.251  21.752  26.453  1.00  0.00    -0.744 OA
ENDBRANCH  78  81
ENDBRANCH  50  74
BRANCH  62  85
ATOM     85  C   UNL A   1      45.066  30.357  28.281  1.00  0.00     0.023 A 
ATOM     86  C   UNL A   1      43.862  30.760  27.663  1.00  0.00     0.012 A 
ATOM     87  C   UNL A   1      46.252  31.033  27.946  1.00  0.00     0.148 A 
ATOM     88  C   UNL A   1      43.845  31.783  26.710  1.00  0.00     0.002 A 
ATOM     89  C   UNL A   1      46.225  32.082  27.031  1.00  0.00     0.091 A 
ATOM     90  F   UNL A   1      47.390  30.650  28.544  1.00  0.00    -0.205 F 
ATOM     91  C   UNL A   1      45.026  32.452  26.402  1.00  0.00     0.022 A 
BRANCH  89  92
ATOM     92  S   UNL A   1      47.684  33.064  26.675  1.00  0.00     0.127 S 
ATOM     93  O   UNL A   1      47.979  33.657  27.978  1.00  0.00    -0.237 OA
ATOM     94  O   UNL A   1      48.644  32.051  26.234  1.00  0.00    -0.237 OA
ATOM     95  O   UNL A   1      47.290  34.005  25.634  1.00  0.00    -0.744 OA
ENDBRANCH  89  92
ENDBRANCH  62  85
ENDBRANCH  36  37
ENDBRANCH  28  31
ENDBRANCH  26  27
ENDBRANCH  25  26
ENDBRANCH  24  25
ENDBRANCH   1  24
TORSDOF 20
ENDMDL
MODEL 2
REMARK VINA RESULT:     -10.5      1.628      2.091
REMARK SMILES CC[C@@H](NS(=O)(=O)c1cc(C)ccc1C)C(=O)NCCCCCCNC(=O)c1ccc(-c2c3nc(c(-c4cccc(S(=O)(=O)[O-])c4F)c4ccc([nH]4)c(-c4cccc(S(=O)(=O)[O-])c4F)c4nc(c(-c5cccc(S(=O)(=O)[O-])c5F)c5ccc2[nH]5)C=C4)C=C3)cc1
REMARK SMILES IDX 21 1 20 2 19 3 18 4 16 5 17 6 3 8 2 9 1 10 4 11 5 13 6 14
REMARK SMILES IDX 7 15 8 16 9 17 14 18 10 19 13 20 15 21 11 22 12 23 22 24
REMARK SMILES IDX 23 25 24 26 25 27 26 28 27 30 28 31 29 32 90 33 30 34 89 35
REMARK SMILES IDX 31 36 32 37 33 38 83 39 34 40 88 41 82 42 84 43 35 44 87 45
REMARK SMILES IDX 81 46 80 47 36 49 68 50 48 51 67 52 49 53 52 54 66 55 85 56
REMARK SMILES IDX 50 57 51 58 65 60 86 61 53 62 37 63 38 64 46 65 39 66 41 67
REMARK SMILES IDX 47 68 40 69 42 70 43 71 44 72 45 73 69 74 70 75 78 76 71 77
REMARK SMILES IDX 73 78 79 79 72 80 74 81 75 82 76 83 77 84 54 85 55 86 63 87
REMARK SMILES IDX 56 88 58 89 64 90 57 91 59 92 60 93 61 94 62 95
REMARK H PARENT 18 7 4 12 25 29 84 48 52 59
REMARK Flexibility Score: inf
ROOT
ATOM      1  C   UNL A   1      34.276  30.418  27.212  1.00  0.00     0.002 C 
ENDROOT
BRANCH   1   2
ATOM      2  C   UNL A   1      34.730  28.964  27.040  1.00  0.00     0.021 C 
BRANCH   2   3
ATOM      3  C   UNL A   1      33.614  28.025  26.596  1.00  0.00     0.116 C 
BRANCH   3   4
ATOM      4  N   UNL A   1      33.729  27.683  25.187  1.00  0.00    -0.355 N 
ATOM      5  C   UNL A   1      32.943  26.886  24.402  1.00  0.00     0.238 C 
ATOM      6  O   UNL A   1      33.263  26.746  23.217  1.00  0.00    -0.273 OA
ATOM      7  H   UNL A   1      34.496  28.091  24.724  1.00  0.00     0.163 HD
BRANCH   5   8
ATOM      8  C   UNL A   1      31.690  26.212  24.967  1.00  0.00     0.158 C 
BRANCH   8   9
ATOM      9  C   UNL A   1      30.448  27.023  24.582  1.00  0.00     0.027 C 
ATOM     10  C   UNL A   1      29.394  26.217  23.847  1.00  0.00     0.006 C 
ENDBRANCH   8   9
BRANCH   8  11
ATOM     11  N   UNL A   1      31.636  24.793  24.524  1.00  0.00    -0.199 NA
ATOM     12  H   UNL A   1      32.089  24.747  23.612  1.00  0.00     0.142 HD
BRANCH  11  13
ATOM     13  S   UNL A   1      32.347  23.608  25.490  1.00  0.00     0.241 S 
ATOM     14  O   UNL A   1      32.440  24.143  26.846  1.00  0.00    -0.207 OA
ATOM     15  O   UNL A   1      31.646  22.381  25.249  1.00  0.00    -0.207 OA
BRANCH  13  16
ATOM     16  C   UNL A   1      34.004  23.430  24.842  1.00  0.00     0.085 A 
ATOM     17  C   UNL A   1      35.071  23.668  25.726  1.00  0.00     0.025 A 
ATOM     18  C   UNL A   1      34.255  23.081  23.502  1.00  0.00    -0.031 A 
ATOM     19  C   UNL A   1      36.397  23.618  25.284  1.00  0.00    -0.050 A 
ATOM     20  C   UNL A   1      35.594  23.044  23.070  1.00  0.00     0.005 A 
ATOM     21  C   UNL A   1      33.190  22.696  22.515  1.00  0.00     0.046 C 
ATOM     22  C   UNL A   1      37.531  23.905  26.222  1.00  0.00     0.044 C 
ATOM     23  C   UNL A   1      36.648  23.323  23.944  1.00  0.00     0.004 A 
ENDBRANCH  13  16
ENDBRANCH  11  13
ENDBRANCH   8  11
ENDBRANCH   5   8
ENDBRANCH   3   4
ENDBRANCH   2   3
ENDBRANCH   1   2
BRANCH   1  24
ATOM     24  C   UNL A   1      35.332  31.440  27.658  1.00  0.00     0.002 C 
BRANCH  24  25
ATOM     25  C   UNL A   1      34.929  32.887  27.987  1.00  0.00     0.021 C 
BRANCH  25  26
ATOM     26  C   UNL A   1      35.731  33.663  29.032  1.00  0.00     0.116 C 
BRANCH  26  27
ATOM     27  N   UNL A   1      35.357  33.364  30.424  1.00  0.00    -0.352 N 
ATOM     28  C   UNL A   1      35.601  32.285  31.266  1.00  0.00     0.251 C 
ATOM     29  H   UNL A   1      34.824  34.076  30.846  1.00  0.00     0.163 HD
ATOM     30  O   UNL A   1      34.898  32.139  32.265  1.00  0.00    -0.269 OA
BRANCH  28  31
ATOM     31  C   UNL A   1      36.695  31.326  30.992  1.00  0.00     0.039 A 
ATOM     32  C   UNL A   1      36.518  29.978  30.676  1.00  0.00     0.014 A 
ATOM     33  C   UNL A   1      37.986  31.787  31.128  1.00  0.00     0.014 A 
ATOM     34  C   UNL A   1      37.660  29.169  30.593  1.00  0.00     0.010 A 
ATOM     35  C   UNL A   1      39.054  31.131  30.623  1.00  0.00     0.010 A 
ATOM     36  C   UNL A   1      38.928  29.774  30.619  1.00  0.00    -0.014 A 
BRANCH  36  37
ATOM     37  C   UNL A   1      40.190  29.066  30.586  1.00  0.00     0.031 A 
ATOM     38  C   UNL A   1      40.783  28.954  31.919  1.00  0.00     0.074 A 
ATOM     39  C   UNL A   1      40.644  28.334  29.541  1.00  0.00     0.049 A 
ATOM     40  N   UNL A   1      41.729  29.687  32.393  1.00  0.00    -0.248 NA
ATOM     41  C   UNL A   1      40.112  28.093  32.902  1.00  0.00     0.031 C 
ATOM     42  C   UNL A   1      39.972  28.022  28.268  1.00  0.00     0.029 A 
ATOM     43  N   UNL A   1      41.788  27.600  29.458  1.00  0.00    -0.354 N 
ATOM     44  C   UNL A   1      41.968  29.160  33.649  1.00  0.00     0.074 A 
ATOM     45  C   UNL A   1      40.798  28.397  34.005  1.00  0.00     0.031 C 
ATOM     46  C   UNL A   1      40.626  27.014  27.643  1.00  0.00     0.029 A 
ATOM     47  C   UNL A   1      41.840  26.719  28.383  1.00  0.00     0.049 A 
ATOM     48  H   UNL A   1      42.522  27.686  30.109  1.00  0.00     0.167 HD
ATOM     49  C   UNL A   1      43.232  29.111  34.142  1.00  0.00     0.034 A 
ATOM     50  C   UNL A   1      42.806  25.799  28.144  1.00  0.00     0.034 A 
ATOM     51  C   UNL A   1      44.148  29.897  33.351  1.00  0.00     0.049 A 
ATOM     52  C   UNL A   1      44.012  26.237  28.882  1.00  0.00     0.074 A 
ATOM     53  C   UNL A   1      44.214  31.215  32.947  1.00  0.00     0.029 A 
ATOM     54  N   UNL A   1      44.963  29.191  32.497  1.00  0.00    -0.354 N 
ATOM     55  N   UNL A   1      44.682  27.316  28.588  1.00  0.00    -0.248 NA
ATOM     56  C   UNL A   1      44.269  25.685  30.201  1.00  0.00     0.031 C 
ATOM     57  C   UNL A   1      44.737  31.177  31.619  1.00  0.00     0.029 A 
ATOM     58  C   UNL A   1      45.010  29.847  31.294  1.00  0.00     0.049 A 
ATOM     59  H   UNL A   1      45.437  28.356  32.715  1.00  0.00     0.167 HD
ATOM     60  C   UNL A   1      45.062  27.830  29.820  1.00  0.00     0.074 A 
ATOM     61  C   UNL A   1      44.924  26.712  30.748  1.00  0.00     0.031 C 
ATOM     62  C   UNL A   1      45.161  29.180  30.014  1.00  0.00     0.034 A 
BRANCH  49  63
ATOM     63  C   UNL A   1      43.708  28.043  35.083  1.00  0.00     0.023 A 
ATOM     64  C   UNL A   1      44.377  28.461  36.248  1.00  0.00     0.012 A 
ATOM     65  C   UNL A   1      43.739  26.663  34.775  1.00  0.00     0.148 A 
ATOM     66  C   UNL A   1      45.048  27.547  37.066  1.00  0.00     0.002 A 
ATOM     67  C   UNL A   1      44.315  25.749  35.645  1.00  0.00     0.091 A 
ATOM     68  F   UNL A   1      43.344  26.233  33.571  1.00  0.00    -0.205 F 
ATOM     69  C   UNL A   1      44.998  26.188  36.778  1.00  0.00     0.022 A 
BRANCH  67  70
ATOM     70  S   UNL A   1      44.189  23.984  35.344  1.00  0.00     0.127 S 
ATOM     71  O   UNL A   1      44.995  23.834  34.137  1.00  0.00    -0.237 OA
ATOM     72  O   UNL A   1      44.781  23.427  36.562  1.00  0.00    -0.237 OA
ATOM     73  O   UNL A   1      42.760  23.725  35.208  1.00  0.00    -0.744 OA
ENDBRANCH  67  70
ENDBRANCH  49  63
BRANCH  50  74
ATOM     74  C   UNL A   1      42.737  24.469  27.497  1.00  0.00     0.023 A 
ATOM     75  C   UNL A   1      41.495  23.815  27.360  1.00  0.00     0.012 A 
ATOM     76  C   UNL A   1      43.828  23.990  26.741  1.00  0.00     0.148 A 
ATOM     77  C   UNL A   1      41.334  22.749  26.465  1.00  0.00     0.002 A 
ATOM     78  C   UNL A   1      43.658  22.942  25.840  1.00  0.00     0.091 A 
ATOM     79  F   UNL A   1      45.008  24.616  26.851  1.00  0.00    -0.205 F 
ATOM     80  C   UNL A   1      42.410  22.324  25.692  1.00  0.00     0.022 A 
BRANCH  78  81
ATOM     81  S   UNL A   1      44.977  22.382  24.756  1.00  0.00     0.127 S 
ATOM     82  O   UNL A   1      44.285  21.382  23.943  1.00  0.00    -0.237 OA
ATOM     83  O   UNL A   1      45.332  23.606  24.045  1.00  0.00    -0.237 OA
ATOM     84  O   UNL A   1      46.013  21.846  25.631  1.00  0.00    -0.744 OA
ENDBRANCH  78  81
ENDBRANCH  50  74
BRANCH  62  85
ATOM     85  C   UNL A   1      45.164  30.061  28.784  1.00  0.00     0.023 A 
ATOM     86  C   UNL A   1      43.985  30.358  28.065  1.00  0.00     0.012 A 
ATOM     87  C   UNL A   1      46.355  30.712  28.420  1.00  0.00     0.148 A 
ATOM     88  C   UNL A   1      44.000  31.252  26.990  1.00  0.00     0.002 A 
ATOM     89  C   UNL A   1      46.358  31.636  27.380  1.00  0.00     0.091 A 
ATOM     90  F   UNL A   1      47.468  30.431  29.114  1.00  0.00    -0.205 F 
ATOM     91  C   UNL A   1      45.186  31.900  26.654  1.00  0.00     0.022 A 
BRANCH  89  92
ATOM     92  S   UNL A   1      47.819  32.594  26.969  1.00  0.00     0.127 S 
ATOM     93  O   UNL A   1      48.139  33.227  28.247  1.00  0.00    -0.237 OA
ATOM     94  O   UNL A   1      48.764  31.560  26.547  1.00  0.00    -0.237 OA
ATOM     95  O   UNL A   1      47.416  33.503  25.903  1.00  0.00    -0.744 OA
ENDBRANCH  89  92
ENDBRANCH  62  85
ENDBRANCH  36  37
ENDBRANCH  28  31
ENDBRANCH  26  27
ENDBRANCH  25  26
ENDBRANCH  24  25
ENDBRANCH   1  24
TORSDOF 20
ENDMDL
MODEL 3
REMARK VINA RESULT:     -10.3      1.770      2.298
REMARK SMILES CC[C@@H](NS(=O)(=O)c1cc(C)ccc1C)C(=O)NCCCCCCNC(=O)c1ccc(-c2c3nc(c(-c4cccc(S(=O)(=O)[O-])c4F)c4ccc([nH]4)c(-c4cccc(S(=O)(=O)[O-])c4F)c4nc(c(-c5cccc(S(=O)(=O)[O-])c5F)c5ccc2[nH]5)C=C4)C=C3)cc1
REMARK SMILES IDX 21 1 20 2 19 3 18 4 16 5 17 6 3 8 2 9 1 10 4 11 5 13 6 14
REMARK SMILES IDX 7 15 8 16 9 17 14 18 10 19 13 20 15 21 11 22 12 23 22 24
REMARK SMILES IDX 23 25 24 26 25 27 26 28 27 30 28 31 29 32 90 33 30 34 89 35
REMARK SMILES IDX 31 36 32 37 33 38 83 39 34 40 88 41 82 42 84 43 35 44 87 45
REMARK SMILES IDX 81 46 80 47 36 49 68 50 48 51 67 52 49 53 52 54 66 55 85 56
REMARK SMILES IDX 50 57 51 58 65 60 86 61 53 62 37 63 38 64 46 65 39 66 41 67
REMARK SMILES IDX 47 68 40 69 42 70 43 71 44 72 45 73 69 74 70 75 78 76 71 77
REMARK SMILES IDX 73 78 79 79 72 80 74 81 75 82 76 83 77 84 54 85 55 86 63 87
REMARK SMILES IDX 56 88 58 89 64 90 57 91 59 92 60 93 61 94 62 95
REMARK H PARENT 18 7 4 12 25 29 84 48 52 59
REMARK Flexibility Score: inf
ROOT
ATOM      1  C   UNL A   1      35.935  30.330  28.193  1.00  0.00     0.002 C 
ENDROOT
BRANCH   1   2
ATOM      2  C   UNL A   1      35.428  29.289  27.188  1.00  0.00     0.021 C 
BRANCH   2   3
ATOM      3  C   UNL A   1      34.017  29.567  26.683  1.00  0.00     0.116 C 
BRANCH   3   4
ATOM      4  N   UNL A   1      33.015  28.884  27.486  1.00  0.00    -0.355 N 
ATOM      5  C   UNL A   1      31.909  28.174  27.108  1.00  0.00     0.238 C 
ATOM      6  O   UNL A   1      31.201  27.692  27.997  1.00  0.00    -0.273 OA
ATOM      7  H   UNL A   1      33.156  28.942  28.458  1.00  0.00     0.163 HD
BRANCH   5   8
ATOM      8  C   UNL A   1      31.576  27.962  25.629  1.00  0.00     0.158 C 
BRANCH   8   9
ATOM      9  C   UNL A   1      31.309  29.315  24.960  1.00  0.00     0.027 C 
ATOM     10  C   UNL A   1      30.817  29.205  23.530  1.00  0.00     0.006 C 
ENDBRANCH   8   9
BRANCH   8  11
ATOM     11  N   UNL A   1      32.658  27.178  24.975  1.00  0.00    -0.199 NA
ATOM     12  H   UNL A   1      33.317  26.910  25.706  1.00  0.00     0.142 HD
BRANCH  11  13
ATOM     13  S   UNL A   1      32.254  25.773  24.135  1.00  0.00     0.241 S 
ATOM     14  O   UNL A   1      30.893  25.405  24.520  1.00  0.00    -0.207 OA
ATOM     15  O   UNL A   1      32.574  25.992  22.755  1.00  0.00    -0.207 OA
BRANCH  13  16
ATOM     16  C   UNL A   1      33.372  24.529  24.768  1.00  0.00     0.085 A 
ATOM     17  C   UNL A   1      34.536  24.271  24.024  1.00  0.00     0.025 A 
ATOM     18  C   UNL A   1      33.112  23.815  25.953  1.00  0.00    -0.031 A 
ATOM     19  C   UNL A   1      35.430  23.266  24.411  1.00  0.00    -0.050 A 
ATOM     20  C   UNL A   1      34.016  22.802  26.324  1.00  0.00     0.005 A 
ATOM     21  C   UNL A   1      31.960  24.098  26.874  1.00  0.00     0.046 C 
ATOM     22  C   UNL A   1      36.653  22.971  23.596  1.00  0.00     0.044 C 
ATOM     23  C   UNL A   1      35.149  22.522  25.556  1.00  0.00     0.004 A 
ENDBRANCH  13  16
ENDBRANCH  11  13
ENDBRANCH   8  11
ENDBRANCH   5   8
ENDBRANCH   3   4
ENDBRANCH   2   3
ENDBRANCH   1   2
BRANCH   1  24
ATOM     24  C   UNL A   1      35.848  31.808  27.784  1.00  0.00     0.002 C 
BRANCH  24  25
ATOM     25  C   UNL A   1      35.596  32.897  28.840  1.00  0.00     0.021 C 
BRANCH  25  26
ATOM     26  C   UNL A   1      34.418  32.744  29.801  1.00  0.00     0.116 C 
BRANCH  26  27
ATOM     27  N   UNL A   1      34.754  32.994  31.213  1.00  0.00    -0.352 N 
ATOM     28  C   UNL A   1      35.556  32.329  32.134  1.00  0.00     0.251 C 
ATOM     29  H   UNL A   1      34.323  33.798  31.580  1.00  0.00     0.163 HD
ATOM     30  O   UNL A   1      35.402  32.559  33.332  1.00  0.00    -0.269 OA
BRANCH  28  31
ATOM     31  C   UNL A   1      36.595  31.367  31.699  1.00  0.00     0.039 A 
ATOM     32  C   UNL A   1      36.388  30.001  31.500  1.00  0.00     0.014 A 
ATOM     33  C   UNL A   1      37.876  31.850  31.548  1.00  0.00     0.014 A 
ATOM     34  C   UNL A   1      37.509  29.202  31.234  1.00  0.00     0.010 A 
ATOM     35  C   UNL A   1      38.836  31.178  30.876  1.00  0.00     0.010 A 
ATOM     36  C   UNL A   1      38.742  29.821  30.972  1.00  0.00    -0.014 A 
BRANCH  36  37
ATOM     37  C   UNL A   1      39.988  29.127  30.726  1.00  0.00     0.031 A 
ATOM     38  C   UNL A   1      40.654  28.749  31.973  1.00  0.00     0.074 A 
ATOM     39  C   UNL A   1      40.370  28.613  29.531  1.00  0.00     0.049 A 
ATOM     40  N   UNL A   1      41.637  29.369  32.526  1.00  0.00    -0.248 NA
ATOM     41  C   UNL A   1      40.025  27.715  32.805  1.00  0.00     0.031 C 
ATOM     42  C   UNL A   1      39.621  28.564  28.264  1.00  0.00     0.029 A 
ATOM     43  N   UNL A   1      41.495  27.904  29.239  1.00  0.00    -0.354 N 
ATOM     44  C   UNL A   1      41.938  28.602  33.637  1.00  0.00     0.074 A 
ATOM     45  C   UNL A   1      40.777  27.791  33.903  1.00  0.00     0.031 C 
ATOM     46  C   UNL A   1      40.222  27.696  27.415  1.00  0.00     0.029 A 
ATOM     47  C   UNL A   1      41.470  27.253  28.009  1.00  0.00     0.049 A 
ATOM     48  H   UNL A   1      42.265  27.856  29.849  1.00  0.00     0.167 HD
ATOM     49  C   UNL A   1      43.227  28.449  34.035  1.00  0.00     0.034 A 
ATOM     50  C   UNL A   1      42.405  26.393  27.536  1.00  0.00     0.034 A 
ATOM     51  C   UNL A   1      44.110  29.371  33.362  1.00  0.00     0.049 A 
ATOM     52  C   UNL A   1      43.658  26.670  28.274  1.00  0.00     0.074 A 
ATOM     53  C   UNL A   1      44.176  30.742  33.223  1.00  0.00     0.029 A 
ATOM     54  N   UNL A   1      44.864  28.844  32.339  1.00  0.00    -0.354 N 
ATOM     55  N   UNL A   1      44.329  27.782  28.161  1.00  0.00    -0.248 NA
ATOM     56  C   UNL A   1      43.980  25.866  29.441  1.00  0.00     0.031 C 
ATOM     57  C   UNL A   1      44.622  30.965  31.886  1.00  0.00     0.029 A 
ATOM     58  C   UNL A   1      44.853  29.725  31.288  1.00  0.00     0.049 A 
ATOM     59  H   UNL A   1      45.334  27.979  32.360  1.00  0.00     0.167 HD
ATOM     60  C   UNL A   1      44.787  28.040  29.445  1.00  0.00     0.074 A 
ATOM     61  C   UNL A   1      44.682  26.761  30.141  1.00  0.00     0.031 C 
ATOM     62  C   UNL A   1      44.920  29.324  29.896  1.00  0.00     0.034 A 
BRANCH  49  63
ATOM     63  C   UNL A   1      43.737  27.213  34.717  1.00  0.00     0.023 A 
ATOM     64  C   UNL A   1      43.716  26.014  33.981  1.00  0.00     0.012 A 
ATOM     65  C   UNL A   1      44.015  27.122  36.100  1.00  0.00     0.148 A 
ATOM     66  C   UNL A   1      43.957  24.782  34.595  1.00  0.00     0.002 A 
ATOM     67  C   UNL A   1      44.358  25.910  36.682  1.00  0.00     0.091 A 
ATOM     68  F   UNL A   1      43.809  28.175  36.899  1.00  0.00    -0.205 F 
ATOM     69  C   UNL A   1      44.302  24.730  35.941  1.00  0.00     0.022 A 
BRANCH  67  70
ATOM     70  S   UNL A   1      44.892  25.827  38.394  1.00  0.00     0.127 S 
ATOM     71  O   UNL A   1      45.175  24.404  38.544  1.00  0.00    -0.237 OA
ATOM     72  O   UNL A   1      46.068  26.699  38.387  1.00  0.00    -0.237 OA
ATOM     73  O   UNL A   1      43.770  26.352  39.165  1.00  0.00    -0.744 OA
ENDBRANCH  67  70
ENDBRANCH  49  63
BRANCH  50  74
ATOM     74  C   UNL A   1      42.276  25.218  26.645  1.00  0.00     0.023 A 
ATOM     75  C   UNL A   1      43.225  25.000  25.625  1.00  0.00     0.012 A 
ATOM     76  C   UNL A   1      41.415  24.156  26.992  1.00  0.00     0.148 A 
ATOM     77  C   UNL A   1      43.343  23.750  25.003  1.00  0.00     0.002 A 
ATOM     78  C   UNL A   1      41.548  22.910  26.384  1.00  0.00     0.091 A 
ATOM     79  F   UNL A   1      40.522  24.349  27.972  1.00  0.00    -0.205 F 
ATOM     80  C   UNL A   1      42.518  22.701  25.395  1.00  0.00     0.022 A 
BRANCH  78  81
ATOM     81  S   UNL A   1      40.570  21.488  26.881  1.00  0.00     0.127 S 
ATOM     82  O   UNL A   1      40.793  21.469  28.327  1.00  0.00    -0.237 OA
ATOM     83  O   UNL A   1      39.225  21.882  26.476  1.00  0.00    -0.237 OA
ATOM     84  O   UNL A   1      41.129  20.348  26.163  1.00  0.00    -0.744 OA
ENDBRANCH  78  81
ENDBRANCH  50  74
BRANCH  62  85
ATOM     85  C   UNL A   1      44.868  30.431  28.866  1.00  0.00     0.023 A 
ATOM     86  C   UNL A   1      43.664  31.075  28.509  1.00  0.00     0.012 A 
ATOM     87  C   UNL A   1      46.075  30.925  28.343  1.00  0.00     0.148 A 
ATOM     88  C   UNL A   1      43.657  32.160  27.627  1.00  0.00     0.002 A 
ATOM     89  C   UNL A   1      46.071  32.034  27.501  1.00  0.00     0.091 A 
ATOM     90  F   UNL A   1      47.216  30.313  28.693  1.00  0.00    -0.205 F 
ATOM     91  C   UNL A   1      44.864  32.646  27.131  1.00  0.00     0.022 A 
BRANCH  89  92
ATOM     92  S   UNL A   1      47.593  32.786  26.920  1.00  0.00     0.127 S 
ATOM     93  O   UNL A   1      47.114  33.660  25.850  1.00  0.00    -0.237 OA
ATOM     94  O   UNL A   1      48.072  33.487  28.112  1.00  0.00    -0.237 OA
ATOM     95  O   UNL A   1      48.448  31.685  26.493  1.00  0.00    -0.744 OA
ENDBRANCH  89  92
ENDBRANCH  62  85
ENDBRANCH  36  37
ENDBRANCH  28  31
ENDBRANCH  26  27
ENDBRANCH  25  26
ENDBRANCH  24  25
ENDBRANCH   1  24
TORSDOF 20
ENDMDL
