MODEL 1
REMARK VINA RESULT:      -9.4      0.000      0.000
REMARK SMILES CS(=O)(=O)Nc1ccc(-c2cc(Cl)cc3c2O[C@H](C(F)(F)F)C(C(=O)NCCCCCCNC(=O)c2ccc(-c4c5nc(c(-c6cccc(S(=O)(=O)[O-])c6F)c6ccc([nH]6)c(-c6cccc(S(=O)(=O)[O-])c6F)c6nc(c(-c7cccc(S(=O)(=O)[O-])c7F)c7ccc4[nH]7)C=C6)C=C5)cc2)=C3)cc1
REMARK SMILES IDX 29 1 28 2 27 3 26 4 24 5 25 6 23 8 10 9 11 10 16 11 12 12
REMARK SMILES IDX 15 13 17 14 13 15 14 16 99 17 18 18 9 19 6 20 7 21 101 22
REMARK SMILES IDX 8 23 100 24 5 25 2 27 1 28 3 29 4 30 19 31 20 32 21 33 22 34
REMARK SMILES IDX 30 35 31 36 32 37 33 38 34 39 35 41 36 42 37 43 98 44 38 45
REMARK SMILES IDX 97 46 39 47 40 48 41 49 91 50 42 51 96 52 90 53 92 54 43 55
REMARK SMILES IDX 95 56 89 57 88 58 44 60 76 61 56 62 75 63 57 64 60 65 74 66
REMARK SMILES IDX 93 67 58 68 59 69 73 71 94 72 61 73 45 74 46 75 54 76 47 77
REMARK SMILES IDX 49 78 55 79 48 80 50 81 51 82 52 83 53 84 77 85 78 86 86 87
REMARK SMILES IDX 79 88 81 89 87 90 80 91 82 92 83 93 84 94 85 95 62 96 63 97
REMARK SMILES IDX 71 98 64 99 66 100 72 101 65 102 67 103 68 104 69 105 70 106
REMARK H PARENT 26 7 5 26 33 40 92 59 60 70
REMARK Flexibility Score: inf
ROOT
ATOM      1  C   UNL A   1      48.948  39.047  28.881  1.00  0.00     0.002 C 
ENDROOT
BRANCH   1   2
ATOM      2  C   UNL A   1      47.539  39.250  29.462  1.00  0.00     0.021 C 
BRANCH   2   3
ATOM      3  C   UNL A   1      47.234  40.682  29.929  1.00  0.00     0.116 C 
BRANCH   3   4
ATOM      4  N   UNL A   1      45.934  41.091  29.431  1.00  0.00    -0.352 N 
ATOM      5  C   UNL A   1      45.702  42.165  28.636  1.00  0.00     0.251 C 
ATOM      6  O   UNL A   1      44.815  42.961  28.921  1.00  0.00    -0.270 OA
ATOM      7  H   UNL A   1      45.158  40.544  29.690  1.00  0.00     0.163 HD
BRANCH   5   8
ATOM      8  C   UNL A   1      46.445  42.205  27.342  1.00  0.00     0.067 C 
ATOM      9  C   UNL A   1      43.279  42.208  24.796  1.00  0.00     0.026 A 
ATOM     10  C   UNL A   1      42.368  41.248  25.317  1.00  0.00     0.033 A 
ATOM     11  C   UNL A   1      44.575  42.181  25.337  1.00  0.00     0.135 A 
ATOM     12  C   UNL A   1      42.763  40.209  26.156  1.00  0.00     0.042 A 
ATOM     13  C   UNL A   1      44.986  41.046  26.085  1.00  0.00     0.019 A 
ATOM     14  O   UNL A   1      45.467  43.244  25.252  1.00  0.00    -0.475 OA
ATOM     15  Cl  UNL A   1      41.591  39.107  26.759  1.00  0.00    -0.084 Cl
ATOM     16  C   UNL A   1      44.094  40.051  26.477  1.00  0.00     0.032 A 
ATOM     17  C   UNL A   1      46.351  41.050  26.653  1.00  0.00     0.025 C 
ATOM     18  C   UNL A   1      46.246  43.468  26.515  1.00  0.00     0.314 C 
BRANCH   9  19
ATOM     19  C   UNL A   1      42.778  42.927  23.587  1.00  0.00    -0.014 A 
ATOM     20  C   UNL A   1      42.935  43.466  20.791  1.00  0.00     0.048 A 
ATOM     21  C   UNL A   1      42.058  42.499  21.287  1.00  0.00     0.027 A 
ATOM     22  C   UNL A   1      43.591  44.287  21.705  1.00  0.00     0.027 A 
ATOM     23  C   UNL A   1      41.951  42.255  22.666  1.00  0.00     0.011 A 
ATOM     24  C   UNL A   1      43.507  44.025  23.091  1.00  0.00     0.011 A 
BRANCH  20  25
ATOM     25  N   UNL A   1      43.243  43.379  19.400  1.00  0.00    -0.284 N 
ATOM     26  H   UNL A   1      43.380  42.470  19.047  1.00  0.00     0.180 HD
BRANCH  25  27
ATOM     27  S   UNL A   1      43.401  44.614  18.303  1.00  0.00     0.229 S 
ATOM     28  C   UNL A   1      43.300  43.815  16.710  1.00  0.00     0.183 C 
ATOM     29  O   UNL A   1      44.704  45.228  18.444  1.00  0.00    -0.207 OA
ATOM     30  O   UNL A   1      42.194  45.399  18.456  1.00  0.00    -0.207 OA
ENDBRANCH  25  27
ENDBRANCH  20  25
ENDBRANCH   9  19
BRANCH  18  31
ATOM     31  C   UNL A   1      47.642  44.076  26.244  1.00  0.00     0.429 C 
ATOM     32  F   UNL A   1      47.730  45.365  26.639  1.00  0.00    -0.167 F 
ATOM     33  F   UNL A   1      48.610  43.379  26.884  1.00  0.00    -0.167 F 
ATOM     34  F   UNL A   1      47.967  44.053  24.924  1.00  0.00    -0.167 F 
ENDBRANCH  18  31
ENDBRANCH   5   8
ENDBRANCH   3   4
ENDBRANCH   2   3
ENDBRANCH   1   2
BRANCH   1  35
ATOM     35  C   UNL A   1      49.030  39.104  27.354  1.00  0.00     0.002 C 
BRANCH  35  36
ATOM     36  C   UNL A   1      48.615  37.815  26.649  1.00  0.00     0.021 C 
BRANCH  36  37
ATOM     37  C   UNL A   1      47.276  37.893  25.924  1.00  0.00     0.116 C 
BRANCH  37  38
ATOM     38  N   UNL A   1      46.909  36.630  25.299  1.00  0.00    -0.352 N 
ATOM     39  C   UNL A   1      46.289  35.541  25.862  1.00  0.00     0.251 C 
ATOM     40  H   UNL A   1      47.134  36.545  24.345  1.00  0.00     0.163 HD
ATOM     41  O   UNL A   1      46.201  34.489  25.238  1.00  0.00    -0.269 OA
BRANCH  39  42
ATOM     42  C   UNL A   1      45.753  35.642  27.235  1.00  0.00     0.039 A 
ATOM     43  C   UNL A   1      44.784  36.607  27.515  1.00  0.00     0.014 A 
ATOM     44  C   UNL A   1      46.192  34.769  28.236  1.00  0.00     0.014 A 
ATOM     45  C   UNL A   1      44.213  36.660  28.787  1.00  0.00     0.010 A 
ATOM     46  C   UNL A   1      45.563  34.770  29.476  1.00  0.00     0.010 A 
ATOM     47  C   UNL A   1      44.575  35.722  29.769  1.00  0.00    -0.014 A 
BRANCH  47  48
ATOM     48  C   UNL A   1      43.924  35.716  31.103  1.00  0.00     0.031 A 
ATOM     49  C   UNL A   1      42.616  35.004  31.310  1.00  0.00     0.074 A 
ATOM     50  C   UNL A   1      44.470  36.424  32.111  1.00  0.00     0.049 A 
ATOM     51  N   UNL A   1      41.877  34.930  32.386  1.00  0.00    -0.248 NA
ATOM     52  C   UNL A   1      42.046  34.310  30.143  1.00  0.00     0.031 C 
ATOM     53  C   UNL A   1      45.688  37.232  32.014  1.00  0.00     0.029 A 
ATOM     54  N   UNL A   1      44.054  36.605  33.407  1.00  0.00    -0.354 N 
ATOM     55  C   UNL A   1      40.746  34.211  32.022  1.00  0.00     0.074 A 
ATOM     56  C   UNL A   1      40.873  33.913  30.612  1.00  0.00     0.031 C 
ATOM     57  C   UNL A   1      45.920  37.822  33.196  1.00  0.00     0.029 A 
ATOM     58  C   UNL A   1      44.852  37.463  34.126  1.00  0.00     0.049 A 
ATOM     59  H   UNL A   1      43.260  36.163  33.785  1.00  0.00     0.167 HD
ATOM     60  C   UNL A   1      39.709  33.806  32.795  1.00  0.00     0.034 A 
ATOM     61  C   UNL A   1      44.733  37.923  35.387  1.00  0.00     0.034 A 
ATOM     62  C   UNL A   1      39.599  34.086  34.201  1.00  0.00     0.049 A 
ATOM     63  C   UNL A   1      43.595  37.437  36.239  1.00  0.00     0.074 A 
ATOM     64  C   UNL A   1      38.633  33.653  35.092  1.00  0.00     0.029 A 
ATOM     65  N   UNL A   1      40.474  34.887  34.920  1.00  0.00    -0.354 N 
ATOM     66  N   UNL A   1      42.617  36.623  35.921  1.00  0.00    -0.248 NA
ATOM     67  C   UNL A   1      43.564  37.897  37.634  1.00  0.00     0.031 C 
ATOM     68  C   UNL A   1      38.906  34.221  36.342  1.00  0.00     0.029 A 
ATOM     69  C   UNL A   1      40.064  34.974  36.239  1.00  0.00     0.049 A 
ATOM     70  H   UNL A   1      41.271  35.329  34.546  1.00  0.00     0.167 HD
ATOM     71  C   UNL A   1      41.871  36.451  37.081  1.00  0.00     0.074 A 
ATOM     72  C   UNL A   1      42.523  37.228  38.115  1.00  0.00     0.031 C 
ATOM     73  C   UNL A   1      40.742  35.722  37.270  1.00  0.00     0.034 A 
BRANCH  60  74
ATOM     74  C   UNL A   1      38.634  32.981  32.132  1.00  0.00     0.023 A 
ATOM     75  C   UNL A   1      38.815  31.590  31.979  1.00  0.00     0.012 A 
ATOM     76  C   UNL A   1      37.438  33.571  31.680  1.00  0.00     0.148 A 
ATOM     77  C   UNL A   1      37.853  30.811  31.340  1.00  0.00     0.002 A 
ATOM     78  C   UNL A   1      36.460  32.779  31.090  1.00  0.00     0.091 A 
ATOM     79  F   UNL A   1      37.287  34.897  31.814  1.00  0.00    -0.205 F 
ATOM     80  C   UNL A   1      36.672  31.404  30.903  1.00  0.00     0.022 A 
BRANCH  78  81
ATOM     81  S   UNL A   1      34.870  33.435  30.569  1.00  0.00     0.127 S 
ATOM     82  O   UNL A   1      35.277  34.524  29.684  1.00  0.00    -0.237 OA
ATOM     83  O   UNL A   1      34.273  32.286  29.887  1.00  0.00    -0.237 OA
ATOM     84  O   UNL A   1      34.186  33.838  31.789  1.00  0.00    -0.744 OA
ENDBRANCH  78  81
ENDBRANCH  60  74
BRANCH  61  85
ATOM     85  C   UNL A   1      45.758  38.862  35.922  1.00  0.00     0.023 A 
ATOM     86  C   UNL A   1      46.949  38.356  36.474  1.00  0.00     0.012 A 
ATOM     87  C   UNL A   1      45.579  40.257  35.829  1.00  0.00     0.148 A 
ATOM     88  C   UNL A   1      47.938  39.222  36.943  1.00  0.00     0.002 A 
ATOM     89  C   UNL A   1      46.591  41.113  36.244  1.00  0.00     0.091 A 
ATOM     90  F   UNL A   1      44.434  40.715  35.305  1.00  0.00    -0.205 F 
ATOM     91  C   UNL A   1      47.765  40.598  36.818  1.00  0.00     0.022 A 
BRANCH  89  92
ATOM     92  S   UNL A   1      46.516  42.890  35.992  1.00  0.00     0.127 S 
ATOM     93  O   UNL A   1      45.346  43.255  36.784  1.00  0.00    -0.237 OA
ATOM     94  O   UNL A   1      47.798  43.324  36.549  1.00  0.00    -0.237 OA
ATOM     95  O   UNL A   1      46.389  43.081  34.555  1.00  0.00    -0.744 OA
ENDBRANCH  89  92
ENDBRANCH  61  85
BRANCH  73  96
ATOM     96  C   UNL A   1      40.147  35.701  38.654  1.00  0.00     0.023 A 
ATOM     97  C   UNL A   1      39.250  36.711  39.053  1.00  0.00     0.012 A 
ATOM     98  C   UNL A   1      40.424  34.636  39.536  1.00  0.00     0.148 A 
ATOM     99  C   UNL A   1      38.664  36.681  40.318  1.00  0.00     0.002 A 
ATOM    100  C   UNL A   1      39.797  34.586  40.774  1.00  0.00     0.091 A 
ATOM    101  F   UNL A   1      41.295  33.693  39.145  1.00  0.00    -0.205 F 
ATOM    102  C   UNL A   1      38.928  35.613  41.173  1.00  0.00     0.022 A 
BRANCH 100 103
ATOM    103  S   UNL A   1      39.998  33.200  41.901  1.00  0.00     0.127 S 
ATOM    104  O   UNL A   1      39.023  33.521  42.943  1.00  0.00    -0.237 OA
ATOM    105  O   UNL A   1      39.637  32.061  41.058  1.00  0.00    -0.237 OA
ATOM    106  O   UNL A   1      41.391  33.224  42.323  1.00  0.00    -0.744 OA
ENDBRANCH 100 103
ENDBRANCH  73  96
ENDBRANCH  47  48
ENDBRANCH  39  42
ENDBRANCH  37  38
ENDBRANCH  36  37
ENDBRANCH  35  36
ENDBRANCH   1  35
TORSDOF 20
ENDMDL
MODEL 2
REMARK VINA RESULT:      -9.4      6.094     12.227
REMARK SMILES CS(=O)(=O)Nc1ccc(-c2cc(Cl)cc3c2O[C@H](C(F)(F)F)C(C(=O)NCCCCCCNC(=O)c2ccc(-c4c5nc(c(-c6cccc(S(=O)(=O)[O-])c6F)c6ccc([nH]6)c(-c6cccc(S(=O)(=O)[O-])c6F)c6nc(c(-c7cccc(S(=O)(=O)[O-])c7F)c7ccc4[nH]7)C=C6)C=C5)cc2)=C3)cc1
REMARK SMILES IDX 29 1 28 2 27 3 26 4 24 5 25 6 23 8 10 9 11 10 16 11 12 12
REMARK SMILES IDX 15 13 17 14 13 15 14 16 99 17 18 18 9 19 6 20 7 21 101 22
REMARK SMILES IDX 8 23 100 24 5 25 2 27 1 28 3 29 4 30 19 31 20 32 21 33 22 34
REMARK SMILES IDX 30 35 31 36 32 37 33 38 34 39 35 41 36 42 37 43 98 44 38 45
REMARK SMILES IDX 97 46 39 47 40 48 41 49 91 50 42 51 96 52 90 53 92 54 43 55
REMARK SMILES IDX 95 56 89 57 88 58 44 60 76 61 56 62 75 63 57 64 60 65 74 66
REMARK SMILES IDX 93 67 58 68 59 69 73 71 94 72 61 73 45 74 46 75 54 76 47 77
REMARK SMILES IDX 49 78 55 79 48 80 50 81 51 82 52 83 53 84 77 85 78 86 86 87
REMARK SMILES IDX 79 88 81 89 87 90 80 91 82 92 83 93 84 94 85 95 62 96 63 97
REMARK SMILES IDX 71 98 64 99 66 100 72 101 65 102 67 103 68 104 69 105 70 106
REMARK H PARENT 26 7 5 26 33 40 92 59 60 70
REMARK Flexibility Score: inf
ROOT
ATOM      1  C   UNL A   1      40.911  25.245  27.069  1.00  0.00     0.002 C 
ENDROOT
BRANCH   1   2
ATOM      2  C   UNL A   1      40.211  26.587  27.341  1.00  0.00     0.021 C 
BRANCH   2   3
ATOM      3  C   UNL A   1      39.525  26.691  28.712  1.00  0.00     0.116 C 
BRANCH   3   4
ATOM      4  N   UNL A   1      38.620  27.825  28.720  1.00  0.00    -0.352 N 
ATOM      5  C   UNL A   1      38.344  28.601  29.797  1.00  0.00     0.251 C 
ATOM      6  O   UNL A   1      37.182  28.850  30.095  1.00  0.00    -0.270 OA
ATOM      7  H   UNL A   1      38.170  28.050  27.873  1.00  0.00     0.163 HD
BRANCH   5   8
ATOM      8  C   UNL A   1      39.512  29.260  30.455  1.00  0.00     0.067 C 
ATOM      9  C   UNL A   1      37.722  32.727  31.590  1.00  0.00     0.026 A 
ATOM     10  C   UNL A   1      36.930  33.130  30.480  1.00  0.00     0.033 A 
ATOM     11  C   UNL A   1      38.662  31.712  31.338  1.00  0.00     0.135 A 
ATOM     12  C   UNL A   1      37.187  32.711  29.176  1.00  0.00     0.042 A 
ATOM     13  C   UNL A   1      38.991  31.397  29.994  1.00  0.00     0.019 A 
ATOM     14  O   UNL A   1      39.238  30.933  32.334  1.00  0.00    -0.475 OA
ATOM     15  Cl  UNL A   1      36.163  33.228  27.897  1.00  0.00    -0.084 Cl
ATOM     16  C   UNL A   1      38.276  31.907  28.914  1.00  0.00     0.032 A 
ATOM     17  C   UNL A   1      39.973  30.317  29.758  1.00  0.00     0.025 C 
ATOM     18  C   UNL A   1      39.371  29.487  31.954  1.00  0.00     0.314 C 
BRANCH   9  19
ATOM     19  C   UNL A   1      37.594  33.616  32.783  1.00  0.00    -0.014 A 
ATOM     20  C   UNL A   1      37.812  34.021  35.598  1.00  0.00     0.048 A 
ATOM     21  C   UNL A   1      38.862  34.358  34.740  1.00  0.00     0.027 A 
ATOM     22  C   UNL A   1      36.593  33.659  35.030  1.00  0.00     0.027 A 
ATOM     23  C   UNL A   1      38.746  34.194  33.350  1.00  0.00     0.011 A 
ATOM     24  C   UNL A   1      36.483  33.466  33.634  1.00  0.00     0.011 A 
BRANCH  20  25
ATOM     25  N   UNL A   1      38.151  33.869  36.975  1.00  0.00    -0.284 N 
ATOM     26  H   UNL A   1      38.669  34.606  37.374  1.00  0.00     0.180 HD
BRANCH  25  27
ATOM     27  S   UNL A   1      37.786  32.609  37.990  1.00  0.00     0.229 S 
ATOM     28  C   UNL A   1      37.994  31.147  36.985  1.00  0.00     0.183 C 
ATOM     29  O   UNL A   1      36.403  32.703  38.408  1.00  0.00    -0.207 OA
ATOM     30  O   UNL A   1      38.854  32.601  38.967  1.00  0.00    -0.207 OA
ENDBRANCH  25  27
ENDBRANCH  20  25
ENDBRANCH   9  19
BRANCH  18  31
ATOM     31  C   UNL A   1      40.575  28.807  32.646  1.00  0.00     0.429 C 
ATOM     32  F   UNL A   1      41.339  29.684  33.334  1.00  0.00    -0.167 F 
ATOM     33  F   UNL A   1      40.165  27.848  33.509  1.00  0.00    -0.167 F 
ATOM     34  F   UNL A   1      41.401  28.190  31.758  1.00  0.00    -0.167 F 
ENDBRANCH  18  31
ENDBRANCH   5   8
ENDBRANCH   3   4
ENDBRANCH   2   3
ENDBRANCH   1   2
BRANCH   1  35
ATOM     35  C   UNL A   1      41.716  25.190  25.769  1.00  0.00     0.002 C 
BRANCH  35  36
ATOM     36  C   UNL A   1      42.794  26.264  25.646  1.00  0.00     0.021 C 
BRANCH  36  37
ATOM     37  C   UNL A   1      44.161  25.744  25.215  1.00  0.00     0.116 C 
BRANCH  37  38
ATOM     38  N   UNL A   1      44.566  24.562  25.963  1.00  0.00    -0.352 N 
ATOM     39  C   UNL A   1      44.898  24.457  27.291  1.00  0.00     0.251 C 
ATOM     40  H   UNL A   1      44.606  23.725  25.447  1.00  0.00     0.163 HD
ATOM     41  O   UNL A   1      45.379  23.417  27.728  1.00  0.00    -0.269 OA
BRANCH  39  42
ATOM     42  C   UNL A   1      44.694  25.618  28.183  1.00  0.00     0.039 A 
ATOM     43  C   UNL A   1      43.523  25.694  28.938  1.00  0.00     0.014 A 
ATOM     44  C   UNL A   1      45.669  26.614  28.287  1.00  0.00     0.014 A 
ATOM     45  C   UNL A   1      43.354  26.744  29.842  1.00  0.00     0.010 A 
ATOM     46  C   UNL A   1      45.536  27.612  29.247  1.00  0.00     0.010 A 
ATOM     47  C   UNL A   1      44.373  27.694  30.027  1.00  0.00    -0.014 A 
BRANCH  47  48
ATOM     48  C   UNL A   1      44.243  28.774  31.037  1.00  0.00     0.031 A 
ATOM     49  C   UNL A   1      44.456  28.482  32.497  1.00  0.00     0.074 A 
ATOM     50  C   UNL A   1      43.849  30.003  30.649  1.00  0.00     0.049 A 
ATOM     51  N   UNL A   1      44.340  29.281  33.524  1.00  0.00    -0.248 NA
ATOM     52  C   UNL A   1      44.817  27.099  32.851  1.00  0.00     0.031 C 
ATOM     53  C   UNL A   1      43.522  30.390  29.275  1.00  0.00     0.029 A 
ATOM     54  N   UNL A   1      43.625  31.144  31.378  1.00  0.00    -0.354 N 
ATOM     55  C   UNL A   1      44.582  28.498  34.646  1.00  0.00     0.074 A 
ATOM     56  C   UNL A   1      44.805  27.148  34.174  1.00  0.00     0.031 C 
ATOM     57  C   UNL A   1      43.138  31.676  29.260  1.00  0.00     0.029 A 
ATOM     58  C   UNL A   1      43.160  32.196  30.625  1.00  0.00     0.049 A 
ATOM     59  H   UNL A   1      43.781  31.203  32.349  1.00  0.00     0.167 HD
ATOM     60  C   UNL A   1      44.647  28.870  35.947  1.00  0.00     0.034 A 
ATOM     61  C   UNL A   1      42.779  33.435  30.990  1.00  0.00     0.034 A 
ATOM     62  C   UNL A   1      44.447  30.217  36.407  1.00  0.00     0.049 A 
ATOM     63  C   UNL A   1      42.889  33.840  32.433  1.00  0.00     0.074 A 
ATOM     64  C   UNL A   1      44.572  30.715  37.692  1.00  0.00     0.029 A 
ATOM     65  N   UNL A   1      44.063  31.280  35.603  1.00  0.00    -0.354 N 
ATOM     66  N   UNL A   1      43.277  33.126  33.461  1.00  0.00    -0.248 NA
ATOM     67  C   UNL A   1      42.549  35.231  32.762  1.00  0.00     0.031 C 
ATOM     68  C   UNL A   1      44.229  32.073  37.669  1.00  0.00     0.029 A 
ATOM     69  C   UNL A   1      43.931  32.429  36.364  1.00  0.00     0.049 A 
ATOM     70  H   UNL A   1      43.907  31.225  34.632  1.00  0.00     0.167 HD
ATOM     71  C   UNL A   1      43.256  33.984  34.554  1.00  0.00     0.074 A 
ATOM     72  C   UNL A   1      42.837  35.279  34.057  1.00  0.00     0.031 C 
ATOM     73  C   UNL A   1      43.548  33.722  35.853  1.00  0.00     0.034 A 
BRANCH  60  74
ATOM     74  C   UNL A   1      44.987  27.801  36.956  1.00  0.00     0.023 A 
ATOM     75  C   UNL A   1      43.962  26.986  37.482  1.00  0.00     0.012 A 
ATOM     76  C   UNL A   1      46.316  27.586  37.369  1.00  0.00     0.148 A 
ATOM     77  C   UNL A   1      44.244  26.015  38.442  1.00  0.00     0.002 A 
ATOM     78  C   UNL A   1      46.597  26.580  38.287  1.00  0.00     0.091 A 
ATOM     79  F   UNL A   1      47.277  28.379  36.876  1.00  0.00    -0.205 F 
ATOM     80  C   UNL A   1      45.562  25.807  38.836  1.00  0.00     0.022 A 
BRANCH  78  81
ATOM     81  S   UNL A   1      48.272  26.178  38.798  1.00  0.00     0.127 S 
ATOM     82  O   UNL A   1      48.039  25.076  39.729  1.00  0.00    -0.237 OA
ATOM     83  O   UNL A   1      48.893  25.787  37.532  1.00  0.00    -0.237 OA
ATOM     84  O   UNL A   1      48.812  27.395  39.387  1.00  0.00    -0.744 OA
ENDBRANCH  78  81
ENDBRANCH  60  74
BRANCH  61  85
ATOM     85  C   UNL A   1      42.305  34.391  29.950  1.00  0.00     0.023 A 
ATOM     86  C   UNL A   1      40.925  34.551  29.724  1.00  0.00     0.012 A 
ATOM     87  C   UNL A   1      43.218  35.186  29.230  1.00  0.00     0.148 A 
ATOM     88  C   UNL A   1      40.463  35.471  28.782  1.00  0.00     0.002 A 
ATOM     89  C   UNL A   1      42.749  36.141  28.336  1.00  0.00     0.091 A 
ATOM     90  F   UNL A   1      44.528  35.012  29.459  1.00  0.00    -0.205 F 
ATOM     91  C   UNL A   1      41.373  36.273  28.098  1.00  0.00     0.022 A 
BRANCH  89  92
ATOM     92  S   UNL A   1      43.837  37.313  27.518  1.00  0.00     0.127 S 
ATOM     93  O   UNL A   1      44.672  36.430  26.708  1.00  0.00    -0.237 OA
ATOM     94  O   UNL A   1      42.884  38.126  26.761  1.00  0.00    -0.237 OA
ATOM     95  O   UNL A   1      44.524  38.027  28.584  1.00  0.00    -0.744 OA
ENDBRANCH  89  92
ENDBRANCH  61  85
BRANCH  73  96
ATOM     96  C   UNL A   1      43.455  34.862  36.834  1.00  0.00     0.023 A 
ATOM     97  C   UNL A   1      44.547  35.736  37.005  1.00  0.00     0.012 A 
ATOM     98  C   UNL A   1      42.257  35.108  37.534  1.00  0.00     0.148 A 
ATOM     99  C   UNL A   1      44.459  36.817  37.882  1.00  0.00     0.002 A 
ATOM    100  C   UNL A   1      42.160  36.216  38.367  1.00  0.00     0.091 A 
ATOM    101  F   UNL A   1      41.236  34.254  37.373  1.00  0.00    -0.205 F 
ATOM    102  C   UNL A   1      43.263  37.064  38.552  1.00  0.00     0.022 A 
BRANCH 100 103
ATOM    103  S   UNL A   1      40.631  36.670  39.194  1.00  0.00     0.127 S 
ATOM    104  O   UNL A   1      41.053  37.823  39.988  1.00  0.00    -0.237 OA
ATOM    105  O   UNL A   1      39.754  36.991  38.069  1.00  0.00    -0.237 OA
ATOM    106  O   UNL A   1      40.226  35.500  39.961  1.00  0.00    -0.744 OA
ENDBRANCH 100 103
ENDBRANCH  73  96
ENDBRANCH  47  48
ENDBRANCH  39  42
ENDBRANCH  37  38
ENDBRANCH  36  37
ENDBRANCH  35  36
ENDBRANCH   1  35
TORSDOF 20
ENDMDL
MODEL 3
REMARK VINA RESULT:      -9.4      7.162     13.864
REMARK SMILES CS(=O)(=O)Nc1ccc(-c2cc(Cl)cc3c2O[C@H](C(F)(F)F)C(C(=O)NCCCCCCNC(=O)c2ccc(-c4c5nc(c(-c6cccc(S(=O)(=O)[O-])c6F)c6ccc([nH]6)c(-c6cccc(S(=O)(=O)[O-])c6F)c6nc(c(-c7cccc(S(=O)(=O)[O-])c7F)c7ccc4[nH]7)C=C6)C=C5)cc2)=C3)cc1
REMARK SMILES IDX 29 1 28 2 27 3 26 4 24 5 25 6 23 8 10 9 11 10 16 11 12 12
REMARK SMILES IDX 15 13 17 14 13 15 14 16 99 17 18 18 9 19 6 20 7 21 101 22
REMARK SMILES IDX 8 23 100 24 5 25 2 27 1 28 3 29 4 30 19 31 20 32 21 33 22 34
REMARK SMILES IDX 30 35 31 36 32 37 33 38 34 39 35 41 36 42 37 43 98 44 38 45
REMARK SMILES IDX 97 46 39 47 40 48 41 49 91 50 42 51 96 52 90 53 92 54 43 55
REMARK SMILES IDX 95 56 89 57 88 58 44 60 76 61 56 62 75 63 57 64 60 65 74 66
REMARK SMILES IDX 93 67 58 68 59 69 73 71 94 72 61 73 45 74 46 75 54 76 47 77
REMARK SMILES IDX 49 78 55 79 48 80 50 81 51 82 52 83 53 84 77 85 78 86 86 87
REMARK SMILES IDX 79 88 81 89 87 90 80 91 82 92 83 93 84 94 85 95 62 96 63 97
REMARK SMILES IDX 71 98 64 99 66 100 72 101 65 102 67 103 68 104 69 105 70 106
REMARK H PARENT 26 7 5 26 33 40 92 59 60 70
REMARK Flexibility Score: inf
ROOT
ATOM      1  C   UNL A   1      39.589  34.460  35.639  1.00  0.00     0.002 C 
ENDROOT
BRANCH   1   2
ATOM      2  C   UNL A   1      38.925  34.849  34.307  1.00  0.00     0.021 C 
BRANCH   2   3
ATOM      3  C   UNL A   1      37.602  34.127  34.010  1.00  0.00     0.116 C 
BRANCH   3   4
ATOM      4  N   UNL A   1      37.853  32.712  33.812  1.00  0.00    -0.352 N 
ATOM      5  C   UNL A   1      37.880  32.081  32.612  1.00  0.00     0.251 C 
ATOM      6  O   UNL A   1      37.244  31.048  32.445  1.00  0.00    -0.270 OA
ATOM      7  H   UNL A   1      38.017  32.165  34.614  1.00  0.00     0.163 HD
BRANCH   5   8
ATOM      8  C   UNL A   1      38.852  32.609  31.608  1.00  0.00     0.067 C 
ATOM      9  C   UNL A   1      40.179  29.079  30.097  1.00  0.00     0.026 A 
ATOM     10  C   UNL A   1      40.373  28.230  31.221  1.00  0.00     0.033 A 
ATOM     11  C   UNL A   1      40.002  30.444  30.381  1.00  0.00     0.135 A 
ATOM     12  C   UNL A   1      40.580  28.717  32.510  1.00  0.00     0.042 A 
ATOM     13  C   UNL A   1      40.342  30.928  31.672  1.00  0.00     0.019 A 
ATOM     14  O   UNL A   1      39.431  31.347  29.492  1.00  0.00    -0.475 OA
ATOM     15  Cl  UNL A   1      40.780  27.618  33.815  1.00  0.00    -0.084 Cl
ATOM     16  C   UNL A   1      40.652  30.076  32.728  1.00  0.00     0.032 A 
ATOM     17  C   UNL A   1      40.133  32.366  31.947  1.00  0.00     0.025 C 
ATOM     18  C   UNL A   1      38.503  32.325  30.153  1.00  0.00     0.314 C 
BRANCH   9  19
ATOM     19  C   UNL A   1      40.440  28.418  28.784  1.00  0.00    -0.014 A 
ATOM     20  C   UNL A   1      41.149  26.098  27.283  1.00  0.00     0.048 A 
ATOM     21  C   UNL A   1      39.809  26.429  27.503  1.00  0.00     0.027 A 
ATOM     22  C   UNL A   1      42.122  27.024  27.652  1.00  0.00     0.027 A 
ATOM     23  C   UNL A   1      39.456  27.590  28.211  1.00  0.00     0.011 A 
ATOM     24  C   UNL A   1      41.770  28.177  28.389  1.00  0.00     0.011 A 
BRANCH  20  25
ATOM     25  N   UNL A   1      41.406  24.749  26.899  1.00  0.00    -0.284 N 
ATOM     26  H   UNL A   1      40.655  24.272  26.475  1.00  0.00     0.180 HD
BRANCH  25  27
ATOM     27  S   UNL A   1      42.807  23.878  27.077  1.00  0.00     0.229 S 
ATOM     28  C   UNL A   1      42.754  22.666  25.767  1.00  0.00     0.183 C 
ATOM     29  O   UNL A   1      42.800  23.197  28.354  1.00  0.00    -0.207 OA
ATOM     30  O   UNL A   1      43.865  24.810  26.744  1.00  0.00    -0.207 OA
ENDBRANCH  25  27
ENDBRANCH  20  25
ENDBRANCH   9  19
BRANCH  18  31
ATOM     31  C   UNL A   1      38.453  33.680  29.410  1.00  0.00     0.429 C 
ATOM     32  F   UNL A   1      37.658  33.642  28.318  1.00  0.00    -0.167 F 
ATOM     33  F   UNL A   1      37.999  34.665  30.220  1.00  0.00    -0.167 F 
ATOM     34  F   UNL A   1      39.680  34.079  28.980  1.00  0.00    -0.167 F 
ENDBRANCH  18  31
ENDBRANCH   5   8
ENDBRANCH   3   4
ENDBRANCH   2   3
ENDBRANCH   1   2
BRANCH   1  35
ATOM     35  C   UNL A   1      40.047  35.640  36.499  1.00  0.00     0.002 C 
BRANCH  35  36
ATOM     36  C   UNL A   1      40.180  35.324  37.988  1.00  0.00     0.021 C 
BRANCH  36  37
ATOM     37  C   UNL A   1      41.589  34.951  38.433  1.00  0.00     0.116 C 
BRANCH  37  38
ATOM     38  N   UNL A   1      41.590  33.985  39.522  1.00  0.00    -0.352 N 
ATOM     39  C   UNL A   1      41.823  32.632  39.470  1.00  0.00     0.251 C 
ATOM     40  H   UNL A   1      41.399  34.349  40.416  1.00  0.00     0.163 HD
ATOM     41  O   UNL A   1      41.622  31.932  40.457  1.00  0.00    -0.269 OA
BRANCH  39  42
ATOM     42  C   UNL A   1      42.294  32.026  38.208  1.00  0.00     0.039 A 
ATOM     43  C   UNL A   1      41.359  31.695  37.225  1.00  0.00     0.014 A 
ATOM     44  C   UNL A   1      43.658  31.806  37.989  1.00  0.00     0.014 A 
ATOM     45  C   UNL A   1      41.797  31.195  35.998  1.00  0.00     0.010 A 
ATOM     46  C   UNL A   1      44.097  31.387  36.737  1.00  0.00     0.010 A 
ATOM     47  C   UNL A   1      43.171  31.067  35.733  1.00  0.00    -0.014 A 
BRANCH  47  48
ATOM     48  C   UNL A   1      43.659  30.608  34.407  1.00  0.00     0.031 A 
ATOM     49  C   UNL A   1      44.023  29.166  34.188  1.00  0.00     0.074 A 
ATOM     50  C   UNL A   1      43.854  31.507  33.423  1.00  0.00     0.049 A 
ATOM     51  N   UNL A   1      44.509  28.590  33.119  1.00  0.00    -0.248 NA
ATOM     52  C   UNL A   1      43.848  28.255  35.332  1.00  0.00     0.031 C 
ATOM     53  C   UNL A   1      43.625  32.949  33.539  1.00  0.00     0.029 A 
ATOM     54  N   UNL A   1      44.319  31.346  32.142  1.00  0.00    -0.354 N 
ATOM     55  C   UNL A   1      44.726  27.263  33.467  1.00  0.00     0.074 A 
ATOM     56  C   UNL A   1      44.364  27.130  34.861  1.00  0.00     0.031 C 
ATOM     57  C   UNL A   1      43.952  33.541  32.380  1.00  0.00     0.029 A 
ATOM     58  C   UNL A   1      44.444  32.528  31.450  1.00  0.00     0.049 A 
ATOM     59  H   UNL A   1      44.544  30.469  31.756  1.00  0.00     0.167 HD
ATOM     60  C   UNL A   1      45.156  26.239  32.691  1.00  0.00     0.034 A 
ATOM     61  C   UNL A   1      44.914  32.774  30.211  1.00  0.00     0.034 A 
ATOM     62  C   UNL A   1      45.493  26.373  31.300  1.00  0.00     0.049 A 
ATOM     63  C   UNL A   1      45.355  31.621  29.353  1.00  0.00     0.074 A 
ATOM     64  C   UNL A   1      45.860  25.385  30.404  1.00  0.00     0.029 A 
ATOM     65  N   UNL A   1      45.524  27.572  30.604  1.00  0.00    -0.354 N 
ATOM     66  N   UNL A   1      45.401  30.345  29.649  1.00  0.00    -0.248 NA
ATOM     67  C   UNL A   1      45.772  31.935  27.980  1.00  0.00     0.031 C 
ATOM     68  C   UNL A   1      46.145  25.993  29.175  1.00  0.00     0.029 A 
ATOM     69  C   UNL A   1      45.917  27.354  29.295  1.00  0.00     0.049 A 
ATOM     70  H   UNL A   1      45.298  28.452  30.986  1.00  0.00     0.167 HD
ATOM     71  C   UNL A   1      45.823  29.699  28.493  1.00  0.00     0.074 A 
ATOM     72  C   UNL A   1      45.998  30.724  27.485  1.00  0.00     0.031 C 
ATOM     73  C   UNL A   1      46.053  28.377  28.288  1.00  0.00     0.034 A 
BRANCH  60  74
ATOM     74  C   UNL A   1      45.245  24.876  33.332  1.00  0.00     0.023 A 
ATOM     75  C   UNL A   1      44.141  24.000  33.267  1.00  0.00     0.012 A 
ATOM     76  C   UNL A   1      46.422  24.451  33.978  1.00  0.00     0.148 A 
ATOM     77  C   UNL A   1      44.185  22.749  33.880  1.00  0.00     0.002 A 
ATOM     78  C   UNL A   1      46.476  23.182  34.543  1.00  0.00     0.091 A 
ATOM     79  F   UNL A   1      47.457  25.301  34.050  1.00  0.00    -0.205 F 
ATOM     80  C   UNL A   1      45.355  22.338  34.510  1.00  0.00     0.022 A 
BRANCH  78  81
ATOM     81  S   UNL A   1      47.966  22.527  35.306  1.00  0.00     0.127 S 
ATOM     82  O   UNL A   1      48.143  23.438  36.435  1.00  0.00    -0.237 OA
ATOM     83  O   UNL A   1      47.553  21.173  35.674  1.00  0.00    -0.237 OA
ATOM     84  O   UNL A   1      48.998  22.587  34.281  1.00  0.00    -0.744 OA
ENDBRANCH  78  81
ENDBRANCH  60  74
BRANCH  61  85
ATOM     85  C   UNL A   1      44.938  34.173  29.703  1.00  0.00     0.023 A 
ATOM     86  C   UNL A   1      46.051  34.993  29.966  1.00  0.00     0.012 A 
ATOM     87  C   UNL A   1      43.888  34.671  28.906  1.00  0.00     0.148 A 
ATOM     88  C   UNL A   1      46.109  36.294  29.463  1.00  0.00     0.002 A 
ATOM     89  C   UNL A   1      43.979  35.945  28.360  1.00  0.00     0.091 A 
ATOM     90  F   UNL A   1      42.836  33.873  28.674  1.00  0.00    -0.205 F 
ATOM     91  C   UNL A   1      45.080  36.765  28.651  1.00  0.00     0.022 A 
BRANCH  89  92
ATOM     92  S   UNL A   1      42.772  36.582  27.191  1.00  0.00     0.127 S 
ATOM     93  O   UNL A   1      41.556  36.601  27.998  1.00  0.00    -0.237 OA
ATOM     94  O   UNL A   1      43.326  37.900  26.879  1.00  0.00    -0.237 OA
ATOM     95  O   UNL A   1      42.772  35.649  26.074  1.00  0.00    -0.744 OA
ENDBRANCH  89  92
ENDBRANCH  61  85
BRANCH  73  96
ATOM     96  C   UNL A   1      46.493  27.950  26.912  1.00  0.00     0.023 A 
ATOM     97  C   UNL A   1      45.538  27.754  25.895  1.00  0.00     0.012 A 
ATOM     98  C   UNL A   1      47.863  27.813  26.609  1.00  0.00     0.148 A 
ATOM     99  C   UNL A   1      45.937  27.396  24.607  1.00  0.00     0.002 A 
ATOM    100  C   UNL A   1      48.255  27.506  25.312  1.00  0.00     0.091 A 
ATOM    101  F   UNL A   1      48.756  27.985  27.595  1.00  0.00    -0.205 F 
ATOM    102  C   UNL A   1      47.294  27.284  24.313  1.00  0.00     0.022 A 
BRANCH 100 103
ATOM    103  S   UNL A   1      49.981  27.439  24.817  1.00  0.00     0.127 S 
ATOM    104  O   UNL A   1      49.870  27.100  23.398  1.00  0.00    -0.237 OA
ATOM    105  O   UNL A   1      50.434  28.803  25.086  1.00  0.00    -0.237 OA
ATOM    106  O   UNL A   1      50.600  26.420  25.654  1.00  0.00    -0.744 OA
ENDBRANCH 100 103
ENDBRANCH  73  96
ENDBRANCH  47  48
ENDBRANCH  39  42
ENDBRANCH  37  38
ENDBRANCH  36  37
ENDBRANCH  35  36
ENDBRANCH   1  35
TORSDOF 20
ENDMDL
