MODEL 1
REMARK VINA RESULT:     -12.4      0.000      0.000
REMARK SMILES Cc1ccc(C[C@@H](Cc2cc(F)cc(Br)c2)C(=O)NCCCCCCNC(=O)c2ccc(-c3c4nc(c(-c5cccc(S(=O)(=O)[O-])c5F)c5ccc([nH]5)c(-c5cccc(S(=O)(=O)[O-])c5F)c5nc(c(-c6cccc(S(=O)(=O)[O-])c6F)c6ccc3[nH]6)C=C5)C=C4)cc2)cc1
REMARK SMILES IDX 23 1 22 2 21 3 20 4 19 5 17 6 18 7 7 9 6 10 5 11 1 12 2 13
REMARK SMILES IDX 3 14 93 15 4 16 92 17 8 18 9 19 10 20 16 21 11 22 14 23
REMARK SMILES IDX 12 24 13 25 15 26 24 27 25 28 26 29 27 30 28 32 29 33 30 34
REMARK SMILES IDX 91 35 31 36 90 37 32 38 33 39 34 40 84 41 35 42 89 43 83 44
REMARK SMILES IDX 85 45 36 46 88 47 82 48 81 49 37 51 69 52 49 53 68 54 50 55
REMARK SMILES IDX 53 56 67 57 86 58 51 59 52 60 66 62 87 63 54 64 38 65 39 66
REMARK SMILES IDX 47 67 40 68 42 69 48 70 41 71 43 72 44 73 45 74 46 75 70 76
REMARK SMILES IDX 71 77 79 78 72 79 74 80 80 81 73 82 75 83 76 84 77 85 78 86
REMARK SMILES IDX 55 87 56 88 64 89 57 90 59 91 65 92 58 93 60 94 61 95 62 96
REMARK SMILES IDX 63 97
REMARK H PARENT 19 8 26 31 85 50 53 61
REMARK Flexibility Score: inf
ROOT
ATOM      1  C   UNL A   1      36.220  21.817  24.003  1.00  0.00     0.002 C 
ENDROOT
BRANCH   1   2
ATOM      2  C   UNL A   1      34.974  22.010  24.889  1.00  0.00     0.002 C 
BRANCH   2   3
ATOM      3  C   UNL A   1      33.666  21.406  24.364  1.00  0.00     0.021 C 
BRANCH   3   4
ATOM      4  C   UNL A   1      32.616  22.437  23.980  1.00  0.00     0.116 C 
BRANCH   4   5
ATOM      5  N   UNL A   1      33.039  23.262  22.865  1.00  0.00    -0.356 N 
ATOM      6  C   UNL A   1      32.825  24.584  22.633  1.00  0.00     0.223 C 
ATOM      7  O   UNL A   1      33.421  25.111  21.689  1.00  0.00    -0.275 OA
ATOM      8  H   UNL A   1      33.559  22.794  22.172  1.00  0.00     0.163 HD
BRANCH   6   9
ATOM      9  C   UNL A   1      31.864  25.406  23.484  1.00  0.00     0.087 C 
BRANCH   9  10
ATOM     10  C   UNL A   1      32.377  25.310  24.948  1.00  0.00     0.049 C 
BRANCH  10  11
ATOM     11  C   UNL A   1      32.639  26.574  25.736  1.00  0.00    -0.047 A 
ATOM     12  C   UNL A   1      33.266  30.451  27.553  1.00  0.00     0.044 C 
ATOM     13  C   UNL A   1      33.064  29.104  26.928  1.00  0.00    -0.051 A 
ATOM     14  C   UNL A   1      31.855  28.429  27.107  1.00  0.00     0.004 A 
ATOM     15  C   UNL A   1      34.064  28.504  26.159  1.00  0.00     0.004 A 
ATOM     16  C   UNL A   1      31.639  27.188  26.502  1.00  0.00     0.004 A 
ATOM     17  C   UNL A   1      33.855  27.251  25.572  1.00  0.00     0.004 A 
ENDBRANCH  10  11
ENDBRANCH   9  10
BRANCH   9  18
ATOM     18  C   UNL A   1      31.546  26.837  22.982  1.00  0.00     0.049 C 
BRANCH  18  19
ATOM     19  C   UNL A   1      30.158  27.453  22.958  1.00  0.00    -0.043 A 
ATOM     20  C   UNL A   1      29.129  26.729  23.592  1.00  0.00     0.043 A 
ATOM     21  C   UNL A   1      29.831  28.696  22.403  1.00  0.00     0.019 A 
ATOM     22  C   UNL A   1      27.862  27.280  23.756  1.00  0.00     0.124 A 
ATOM     23  C   UNL A   1      28.562  29.255  22.615  1.00  0.00     0.021 A 
ATOM     24  F   UNL A   1      26.916  26.575  24.392  1.00  0.00    -0.207 F 
ATOM     25  C   UNL A   1      27.574  28.555  23.302  1.00  0.00     0.055 A 
ATOM     26  Br  UNL A   1      28.201  31.014  22.018  1.00  0.00    -0.051 Br
ENDBRANCH  18  19
ENDBRANCH   9  18
ENDBRANCH   6   9
ENDBRANCH   4   5
ENDBRANCH   3   4
ENDBRANCH   2   3
ENDBRANCH   1   2
BRANCH   1  27
ATOM     27  C   UNL A   1      37.511  21.398  24.714  1.00  0.00     0.021 C 
BRANCH  27  28
ATOM     28  C   UNL A   1      38.108  22.478  25.606  1.00  0.00     0.116 C 
BRANCH  28  29
ATOM     29  N   UNL A   1      39.442  22.182  26.086  1.00  0.00    -0.352 N 
ATOM     30  C   UNL A   1      40.432  23.044  26.528  1.00  0.00     0.251 C 
ATOM     31  H   UNL A   1      39.680  21.227  26.100  1.00  0.00     0.163 HD
ATOM     32  O   UNL A   1      41.566  22.609  26.651  1.00  0.00    -0.269 OA
BRANCH  30  33
ATOM     33  C   UNL A   1      40.093  24.434  26.949  1.00  0.00     0.039 A 
ATOM     34  C   UNL A   1      40.809  25.488  26.362  1.00  0.00     0.014 A 
ATOM     35  C   UNL A   1      39.217  24.701  27.998  1.00  0.00     0.014 A 
ATOM     36  C   UNL A   1      40.817  26.750  26.961  1.00  0.00     0.010 A 
ATOM     37  C   UNL A   1      39.281  25.924  28.639  1.00  0.00     0.010 A 
ATOM     38  C   UNL A   1      40.127  26.928  28.155  1.00  0.00    -0.014 A 
BRANCH  38  39
ATOM     39  C   UNL A   1      40.277  28.074  29.038  1.00  0.00     0.031 A 
ATOM     40  C   UNL A   1      39.350  29.222  28.975  1.00  0.00     0.074 A 
ATOM     41  C   UNL A   1      41.143  27.967  30.070  1.00  0.00     0.049 A 
ATOM     42  N   UNL A   1      39.574  30.363  29.533  1.00  0.00    -0.248 NA
ATOM     43  C   UNL A   1      38.091  29.164  28.248  1.00  0.00     0.031 C 
ATOM     44  C   UNL A   1      41.132  28.732  31.310  1.00  0.00     0.029 A 
ATOM     45  N   UNL A   1      42.353  27.266  30.106  1.00  0.00    -0.354 N 
ATOM     46  C   UNL A   1      38.403  31.090  29.475  1.00  0.00     0.074 A 
ATOM     47  C   UNL A   1      37.535  30.325  28.607  1.00  0.00     0.031 C 
ATOM     48  C   UNL A   1      42.358  28.690  31.850  1.00  0.00     0.029 A 
ATOM     49  C   UNL A   1      43.229  28.042  30.884  1.00  0.00     0.049 A 
ATOM     50  H   UNL A   1      42.551  26.404  29.674  1.00  0.00     0.167 HD
ATOM     51  C   UNL A   1      38.247  32.178  30.284  1.00  0.00     0.034 A 
ATOM     52  C   UNL A   1      44.421  28.532  30.441  1.00  0.00     0.034 A 
ATOM     53  C   UNL A   1      39.456  32.429  31.078  1.00  0.00     0.049 A 
ATOM     54  C   UNL A   1      44.541  30.039  30.565  1.00  0.00     0.074 A 
ATOM     55  C   UNL A   1      39.821  32.090  32.372  1.00  0.00     0.029 A 
ATOM     56  N   UNL A   1      40.606  32.896  30.457  1.00  0.00    -0.354 N 
ATOM     57  N   UNL A   1      43.569  30.826  30.933  1.00  0.00    -0.248 NA
ATOM     58  C   UNL A   1      45.757  30.784  30.247  1.00  0.00     0.031 C 
ATOM     59  C   UNL A   1      41.219  32.292  32.502  1.00  0.00     0.029 A 
ATOM     60  C   UNL A   1      41.701  32.773  31.297  1.00  0.00     0.049 A 
ATOM     61  H   UNL A   1      40.638  33.264  29.544  1.00  0.00     0.167 HD
ATOM     62  C   UNL A   1      43.938  32.135  30.759  1.00  0.00     0.074 A 
ATOM     63  C   UNL A   1      45.349  32.053  30.423  1.00  0.00     0.031 C 
ATOM     64  C   UNL A   1      43.029  33.158  30.831  1.00  0.00     0.034 A 
BRANCH  51  65
ATOM     65  C   UNL A   1      36.908  32.818  30.611  1.00  0.00     0.023 A 
ATOM     66  C   UNL A   1      36.310  32.489  31.851  1.00  0.00     0.012 A 
ATOM     67  C   UNL A   1      36.152  33.663  29.770  1.00  0.00     0.148 A 
ATOM     68  C   UNL A   1      35.000  32.858  32.178  1.00  0.00     0.002 A 
ATOM     69  C   UNL A   1      34.815  33.960  30.055  1.00  0.00     0.091 A 
ATOM     70  F   UNL A   1      36.744  34.266  28.735  1.00  0.00    -0.205 F 
ATOM     71  C   UNL A   1      34.234  33.555  31.258  1.00  0.00     0.022 A 
BRANCH  69  72
ATOM     72  S   UNL A   1      33.735  34.761  28.856  1.00  0.00     0.127 S 
ATOM     73  O   UNL A   1      34.477  35.983  28.536  1.00  0.00    -0.237 OA
ATOM     74  O   UNL A   1      33.680  33.783  27.774  1.00  0.00    -0.237 OA
ATOM     75  O   UNL A   1      32.477  35.004  29.556  1.00  0.00    -0.744 OA
ENDBRANCH  69  72
ENDBRANCH  51  65
BRANCH  52  76
ATOM     76  C   UNL A   1      45.070  27.694  29.395  1.00  0.00     0.023 A 
ATOM     77  C   UNL A   1      45.441  26.382  29.771  1.00  0.00     0.012 A 
ATOM     78  C   UNL A   1      44.962  28.007  28.029  1.00  0.00     0.148 A 
ATOM     79  C   UNL A   1      45.594  25.377  28.814  1.00  0.00     0.002 A 
ATOM     80  C   UNL A   1      45.103  26.995  27.080  1.00  0.00     0.091 A 
ATOM     81  F   UNL A   1      44.638  29.259  27.684  1.00  0.00    -0.205 F 
ATOM     82  C   UNL A   1      45.391  25.677  27.472  1.00  0.00     0.022 A 
BRANCH  80  83
ATOM     83  S   UNL A   1      44.766  27.277  25.336  1.00  0.00     0.127 S 
ATOM     84  O   UNL A   1      45.827  28.212  24.980  1.00  0.00    -0.237 OA
ATOM     85  O   UNL A   1      44.911  25.935  24.772  1.00  0.00    -0.237 OA
ATOM     86  O   UNL A   1      43.406  27.795  25.296  1.00  0.00    -0.744 OA
ENDBRANCH  80  83
ENDBRANCH  52  76
BRANCH  64  87
ATOM     87  C   UNL A   1      43.278  34.607  30.442  1.00  0.00     0.023 A 
ATOM     88  C   UNL A   1      43.623  35.597  31.382  1.00  0.00     0.012 A 
ATOM     89  C   UNL A   1      43.323  34.994  29.075  1.00  0.00     0.148 A 
ATOM     90  C   UNL A   1      43.943  36.905  31.002  1.00  0.00     0.002 A 
ATOM     91  C   UNL A   1      43.749  36.266  28.695  1.00  0.00     0.091 A 
ATOM     92  F   UNL A   1      42.934  34.133  28.122  1.00  0.00    -0.205 F 
ATOM     93  C   UNL A   1      44.033  37.235  29.657  1.00  0.00     0.022 A 
BRANCH  91  94
ATOM     94  S   UNL A   1      44.100  36.635  26.970  1.00  0.00     0.127 S 
ATOM     95  O   UNL A   1      42.788  36.478  26.348  1.00  0.00    -0.237 OA
ATOM     96  O   UNL A   1      44.581  38.017  27.028  1.00  0.00    -0.237 OA
ATOM     97  O   UNL A   1      45.120  35.668  26.589  1.00  0.00    -0.744 OA
ENDBRANCH  91  94
ENDBRANCH  64  87
ENDBRANCH  38  39
ENDBRANCH  30  33
ENDBRANCH  28  29
ENDBRANCH  27  28
ENDBRANCH   1  27
TORSDOF 20
ENDMDL
MODEL 2
REMARK VINA RESULT:     -12.4      4.244      9.831
REMARK SMILES Cc1ccc(C[C@@H](Cc2cc(F)cc(Br)c2)C(=O)NCCCCCCNC(=O)c2ccc(-c3c4nc(c(-c5cccc(S(=O)(=O)[O-])c5F)c5ccc([nH]5)c(-c5cccc(S(=O)(=O)[O-])c5F)c5nc(c(-c6cccc(S(=O)(=O)[O-])c6F)c6ccc3[nH]6)C=C5)C=C4)cc2)cc1
REMARK SMILES IDX 23 1 22 2 21 3 20 4 19 5 17 6 18 7 7 9 6 10 5 11 1 12 2 13
REMARK SMILES IDX 3 14 93 15 4 16 92 17 8 18 9 19 10 20 16 21 11 22 14 23
REMARK SMILES IDX 12 24 13 25 15 26 24 27 25 28 26 29 27 30 28 32 29 33 30 34
REMARK SMILES IDX 91 35 31 36 90 37 32 38 33 39 34 40 84 41 35 42 89 43 83 44
REMARK SMILES IDX 85 45 36 46 88 47 82 48 81 49 37 51 69 52 49 53 68 54 50 55
REMARK SMILES IDX 53 56 67 57 86 58 51 59 52 60 66 62 87 63 54 64 38 65 39 66
REMARK SMILES IDX 47 67 40 68 42 69 48 70 41 71 43 72 44 73 45 74 46 75 70 76
REMARK SMILES IDX 71 77 79 78 72 79 74 80 80 81 73 82 75 83 76 84 77 85 78 86
REMARK SMILES IDX 55 87 56 88 64 89 57 90 59 91 65 92 58 93 60 94 61 95 62 96
REMARK SMILES IDX 63 97
REMARK H PARENT 19 8 26 31 85 50 53 61
REMARK Flexibility Score: inf
ROOT
ATOM      1  C   UNL A   1      31.750  30.559  25.564  1.00  0.00     0.002 C 
ENDROOT
BRANCH   1   2
ATOM      2  C   UNL A   1      31.753  29.221  24.799  1.00  0.00     0.002 C 
BRANCH   2   3
ATOM      3  C   UNL A   1      30.441  28.831  24.107  1.00  0.00     0.021 C 
BRANCH   3   4
ATOM      4  C   UNL A   1      30.626  27.961  22.873  1.00  0.00     0.116 C 
BRANCH   4   5
ATOM      5  N   UNL A   1      31.990  27.987  22.382  1.00  0.00    -0.356 N 
ATOM      6  C   UNL A   1      32.928  27.003  22.373  1.00  0.00     0.223 C 
ATOM      7  O   UNL A   1      33.976  27.208  21.753  1.00  0.00    -0.275 OA
ATOM      8  H   UNL A   1      32.280  28.846  21.998  1.00  0.00     0.163 HD
BRANCH   6   9
ATOM      9  C   UNL A   1      32.726  25.689  23.118  1.00  0.00     0.087 C 
BRANCH   9  10
ATOM     10  C   UNL A   1      33.566  24.620  22.365  1.00  0.00     0.049 C 
BRANCH  10  11
ATOM     11  C   UNL A   1      33.625  23.204  22.894  1.00  0.00    -0.047 A 
ATOM     12  C   UNL A   1      33.690  19.358  24.874  1.00  0.00     0.044 C 
ATOM     13  C   UNL A   1      33.683  20.687  24.183  1.00  0.00    -0.051 A 
ATOM     14  C   UNL A   1      32.536  21.115  23.512  1.00  0.00     0.004 A 
ATOM     15  C   UNL A   1      34.806  21.518  24.196  1.00  0.00     0.004 A 
ATOM     16  C   UNL A   1      32.502  22.367  22.893  1.00  0.00     0.004 A 
ATOM     17  C   UNL A   1      34.778  22.762  23.556  1.00  0.00     0.004 A 
ENDBRANCH  10  11
ENDBRANCH   9  10
BRANCH   9  18
ATOM     18  C   UNL A   1      32.920  25.728  24.655  1.00  0.00     0.049 C 
BRANCH  18  19
ATOM     19  C   UNL A   1      32.570  24.590  25.597  1.00  0.00    -0.043 A 
ATOM     20  C   UNL A   1      33.627  24.036  26.347  1.00  0.00     0.043 A 
ATOM     21  C   UNL A   1      31.284  24.081  25.814  1.00  0.00     0.019 A 
ATOM     22  C   UNL A   1      33.382  23.098  27.345  1.00  0.00     0.124 A 
ATOM     23  C   UNL A   1      31.049  23.168  26.853  1.00  0.00     0.021 A 
ATOM     24  F   UNL A   1      34.408  22.617  28.060  1.00  0.00    -0.207 F 
ATOM     25  C   UNL A   1      32.094  22.680  27.630  1.00  0.00     0.055 A 
ATOM     26  Br  UNL A   1      29.276  22.638  27.249  1.00  0.00    -0.051 Br
ENDBRANCH  18  19
ENDBRANCH   9  18
ENDBRANCH   6   9
ENDBRANCH   4   5
ENDBRANCH   3   4
ENDBRANCH   2   3
ENDBRANCH   1   2
BRANCH   1  27
ATOM     27  C   UNL A   1      32.420  30.566  26.942  1.00  0.00     0.021 C 
BRANCH  27  28
ATOM     28  C   UNL A   1      33.922  30.323  26.905  1.00  0.00     0.116 C 
BRANCH  28  29
ATOM     29  N   UNL A   1      34.714  31.418  27.424  1.00  0.00    -0.352 N 
ATOM     30  C   UNL A   1      35.886  31.387  28.162  1.00  0.00     0.251 C 
ATOM     31  H   UNL A   1      34.369  32.318  27.222  1.00  0.00     0.163 HD
ATOM     32  O   UNL A   1      36.252  32.415  28.710  1.00  0.00    -0.269 OA
BRANCH  30  33
ATOM     33  C   UNL A   1      36.732  30.160  28.189  1.00  0.00     0.039 A 
ATOM     34  C   UNL A   1      36.821  29.453  29.398  1.00  0.00     0.014 A 
ATOM     35  C   UNL A   1      37.542  29.790  27.118  1.00  0.00     0.014 A 
ATOM     36  C   UNL A   1      37.859  28.541  29.603  1.00  0.00     0.010 A 
ATOM     37  C   UNL A   1      38.615  28.947  27.340  1.00  0.00     0.010 A 
ATOM     38  C   UNL A   1      38.807  28.371  28.600  1.00  0.00    -0.014 A 
BRANCH  38  39
ATOM     39  C   UNL A   1      40.084  27.695  28.771  1.00  0.00     0.031 A 
ATOM     40  C   UNL A   1      40.219  26.240  28.566  1.00  0.00     0.074 A 
ATOM     41  C   UNL A   1      41.191  28.460  28.898  1.00  0.00     0.049 A 
ATOM     42  N   UNL A   1      41.239  25.547  28.947  1.00  0.00    -0.248 NA
ATOM     43  C   UNL A   1      39.183  25.446  27.921  1.00  0.00     0.031 C 
ATOM     44  C   UNL A   1      42.566  28.071  28.613  1.00  0.00     0.029 A 
ATOM     45  N   UNL A   1      41.305  29.708  29.520  1.00  0.00    -0.354 N 
ATOM     46  C   UNL A   1      41.127  24.296  28.377  1.00  0.00     0.074 A 
ATOM     47  C   UNL A   1      39.800  24.266  27.805  1.00  0.00     0.031 C 
ATOM     48  C   UNL A   1      43.390  28.890  29.282  1.00  0.00     0.029 A 
ATOM     49  C   UNL A   1      42.564  29.716  30.146  1.00  0.00     0.049 A 
ATOM     50  H   UNL A   1      40.640  30.433  29.520  1.00  0.00     0.167 HD
ATOM     51  C   UNL A   1      42.222  23.483  28.322  1.00  0.00     0.034 A 
ATOM     52  C   UNL A   1      42.756  29.899  31.482  1.00  0.00     0.034 A 
ATOM     53  C   UNL A   1      43.380  24.104  28.978  1.00  0.00     0.049 A 
ATOM     54  C   UNL A   1      43.523  28.771  32.146  1.00  0.00     0.074 A 
ATOM     55  C   UNL A   1      44.460  24.827  28.495  1.00  0.00     0.029 A 
ATOM     56  N   UNL A   1      43.397  24.248  30.358  1.00  0.00    -0.354 N 
ATOM     57  N   UNL A   1      43.864  27.663  31.549  1.00  0.00    -0.248 NA
ATOM     58  C   UNL A   1      43.935  28.785  33.547  1.00  0.00     0.031 C 
ATOM     59  C   UNL A   1      45.088  25.467  29.596  1.00  0.00     0.029 A 
ATOM     60  C   UNL A   1      44.404  25.117  30.747  1.00  0.00     0.049 A 
ATOM     61  H   UNL A   1      42.778  23.796  30.975  1.00  0.00     0.167 HD
ATOM     62  C   UNL A   1      44.371  26.777  32.464  1.00  0.00     0.074 A 
ATOM     63  C   UNL A   1      44.485  27.566  33.679  1.00  0.00     0.031 C 
ATOM     64  C   UNL A   1      44.575  25.457  32.156  1.00  0.00     0.034 A 
BRANCH  51  65
ATOM     65  C   UNL A   1      42.354  22.282  27.400  1.00  0.00     0.023 A 
ATOM     66  C   UNL A   1      41.525  21.164  27.658  1.00  0.00     0.012 A 
ATOM     67  C   UNL A   1      43.277  22.131  26.343  1.00  0.00     0.148 A 
ATOM     68  C   UNL A   1      41.689  19.937  27.005  1.00  0.00     0.002 A 
ATOM     69  C   UNL A   1      43.502  20.884  25.751  1.00  0.00     0.091 A 
ATOM     70  F   UNL A   1      43.880  23.210  25.833  1.00  0.00    -0.205 F 
ATOM     71  C   UNL A   1      42.711  19.782  26.083  1.00  0.00     0.022 A 
BRANCH  69  72
ATOM     72  S   UNL A   1      44.884  20.589  24.633  1.00  0.00     0.127 S 
ATOM     73  O   UNL A   1      44.549  21.443  23.492  1.00  0.00    -0.237 OA
ATOM     74  O   UNL A   1      46.029  21.044  25.416  1.00  0.00    -0.237 OA
ATOM     75  O   UNL A   1      44.851  19.162  24.330  1.00  0.00    -0.744 OA
ENDBRANCH  69  72
ENDBRANCH  51  65
BRANCH  52  76
ATOM     76  C   UNL A   1      41.714  30.739  32.136  1.00  0.00     0.023 A 
ATOM     77  C   UNL A   1      41.667  32.102  31.758  1.00  0.00     0.012 A 
ATOM     78  C   UNL A   1      40.595  30.168  32.766  1.00  0.00     0.148 A 
ATOM     79  C   UNL A   1      40.497  32.847  31.904  1.00  0.00     0.002 A 
ATOM     80  C   UNL A   1      39.425  30.915  32.895  1.00  0.00     0.091 A 
ATOM     81  F   UNL A   1      40.661  28.885  33.144  1.00  0.00    -0.205 F 
ATOM     82  C   UNL A   1      39.366  32.243  32.442  1.00  0.00     0.022 A 
BRANCH  80  83
ATOM     83  S   UNL A   1      37.894  30.183  33.492  1.00  0.00     0.127 S 
ATOM     84  O   UNL A   1      37.935  30.532  34.908  1.00  0.00    -0.237 OA
ATOM     85  O   UNL A   1      36.885  30.896  32.709  1.00  0.00    -0.237 OA
ATOM     86  O   UNL A   1      38.005  28.768  33.171  1.00  0.00    -0.744 OA
ENDBRANCH  80  83
ENDBRANCH  52  76
BRANCH  64  87
ATOM     87  C   UNL A   1      44.919  24.351  33.141  1.00  0.00     0.023 A 
ATOM     88  C   UNL A   1      44.023  23.313  33.459  1.00  0.00     0.012 A 
ATOM     89  C   UNL A   1      46.233  24.233  33.671  1.00  0.00     0.148 A 
ATOM     90  C   UNL A   1      44.383  22.248  34.293  1.00  0.00     0.002 A 
ATOM     91  C   UNL A   1      46.618  23.115  34.409  1.00  0.00     0.091 A 
ATOM     92  F   UNL A   1      47.123  25.218  33.479  1.00  0.00    -0.205 F 
ATOM     93  C   UNL A   1      45.688  22.133  34.748  1.00  0.00     0.022 A 
BRANCH  91  94
ATOM     94  S   UNL A   1      48.351  22.832  34.801  1.00  0.00     0.127 S 
ATOM     95  O   UNL A   1      48.432  23.283  36.188  1.00  0.00    -0.237 OA
ATOM     96  O   UNL A   1      48.489  21.385  34.625  1.00  0.00    -0.237 OA
ATOM     97  O   UNL A   1      49.082  23.621  33.818  1.00  0.00    -0.744 OA
ENDBRANCH  91  94
ENDBRANCH  64  87
ENDBRANCH  38  39
ENDBRANCH  30  33
ENDBRANCH  28  29
ENDBRANCH  27  28
ENDBRANCH   1  27
TORSDOF 20
ENDMDL
MODEL 3
REMARK VINA RESULT:     -12.3      3.716      9.178
REMARK SMILES Cc1ccc(C[C@@H](Cc2cc(F)cc(Br)c2)C(=O)NCCCCCCNC(=O)c2ccc(-c3c4nc(c(-c5cccc(S(=O)(=O)[O-])c5F)c5ccc([nH]5)c(-c5cccc(S(=O)(=O)[O-])c5F)c5nc(c(-c6cccc(S(=O)(=O)[O-])c6F)c6ccc3[nH]6)C=C5)C=C4)cc2)cc1
REMARK SMILES IDX 23 1 22 2 21 3 20 4 19 5 17 6 18 7 7 9 6 10 5 11 1 12 2 13
REMARK SMILES IDX 3 14 93 15 4 16 92 17 8 18 9 19 10 20 16 21 11 22 14 23
REMARK SMILES IDX 12 24 13 25 15 26 24 27 25 28 26 29 27 30 28 32 29 33 30 34
REMARK SMILES IDX 91 35 31 36 90 37 32 38 33 39 34 40 84 41 35 42 89 43 83 44
REMARK SMILES IDX 85 45 36 46 88 47 82 48 81 49 37 51 69 52 49 53 68 54 50 55
REMARK SMILES IDX 53 56 67 57 86 58 51 59 52 60 66 62 87 63 54 64 38 65 39 66
REMARK SMILES IDX 47 67 40 68 42 69 48 70 41 71 43 72 44 73 45 74 46 75 70 76
REMARK SMILES IDX 71 77 79 78 72 79 74 80 80 81 73 82 75 83 76 84 77 85 78 86
REMARK SMILES IDX 55 87 56 88 64 89 57 90 59 91 65 92 58 93 60 94 61 95 62 96
REMARK SMILES IDX 63 97
REMARK H PARENT 19 8 26 31 85 50 53 61
REMARK Flexibility Score: inf
ROOT
ATOM      1  C   UNL A   1      31.784  30.261  25.724  1.00  0.00     0.002 C 
ENDROOT
BRANCH   1   2
ATOM      2  C   UNL A   1      32.710  29.154  25.186  1.00  0.00     0.002 C 
BRANCH   2   3
ATOM      3  C   UNL A   1      32.529  27.759  25.798  1.00  0.00     0.021 C 
BRANCH   3   4
ATOM      4  C   UNL A   1      33.123  26.634  24.964  1.00  0.00     0.116 C 
BRANCH   4   5
ATOM      5  N   UNL A   1      33.805  27.127  23.784  1.00  0.00    -0.356 N 
ATOM      6  C   UNL A   1      33.338  27.295  22.518  1.00  0.00     0.223 C 
ATOM      7  O   UNL A   1      34.060  27.884  21.708  1.00  0.00    -0.275 OA
ATOM      8  H   UNL A   1      34.748  27.377  23.919  1.00  0.00     0.163 HD
BRANCH   6   9
ATOM      9  C   UNL A   1      31.980  26.758  22.082  1.00  0.00     0.087 C 
BRANCH   9  10
ATOM     10  C   UNL A   1      32.224  25.319  21.547  1.00  0.00     0.049 C 
BRANCH  10  11
ATOM     11  C   UNL A   1      32.377  24.173  22.522  1.00  0.00    -0.047 A 
ATOM     12  C   UNL A   1      32.988  21.248  25.651  1.00  0.00     0.044 C 
ATOM     13  C   UNL A   1      32.787  22.252  24.557  1.00  0.00    -0.051 A 
ATOM     14  C   UNL A   1      31.517  22.787  24.330  1.00  0.00     0.004 A 
ATOM     15  C   UNL A   1      33.850  22.673  23.754  1.00  0.00     0.004 A 
ATOM     16  C   UNL A   1      31.320  23.750  23.337  1.00  0.00     0.004 A 
ATOM     17  C   UNL A   1      33.646  23.621  22.745  1.00  0.00     0.004 A 
ENDBRANCH  10  11
ENDBRANCH   9  10
BRANCH   9  18
ATOM     18  C   UNL A   1      30.821  26.903  23.098  1.00  0.00     0.049 C 
BRANCH  18  19
ATOM     19  C   UNL A   1      29.661  27.873  22.951  1.00  0.00    -0.043 A 
ATOM     20  C   UNL A   1      28.413  27.452  23.451  1.00  0.00     0.043 A 
ATOM     21  C   UNL A   1      29.742  29.159  22.405  1.00  0.00     0.019 A 
ATOM     22  C   UNL A   1      27.330  28.325  23.501  1.00  0.00     0.124 A 
ATOM     23  C   UNL A   1      28.655  30.040  22.504  1.00  0.00     0.021 A 
ATOM     24  F   UNL A   1      26.167  27.901  24.013  1.00  0.00    -0.207 F 
ATOM     25  C   UNL A   1      27.447  29.632  23.061  1.00  0.00     0.055 A 
ATOM     26  Br  UNL A   1      28.848  31.833  21.930  1.00  0.00    -0.051 Br
ENDBRANCH  18  19
ENDBRANCH   9  18
ENDBRANCH   6   9
ENDBRANCH   4   5
ENDBRANCH   3   4
ENDBRANCH   2   3
ENDBRANCH   1   2
BRANCH   1  27
ATOM     27  C   UNL A   1      32.210  30.941  27.030  1.00  0.00     0.021 C 
BRANCH  27  28
ATOM     28  C   UNL A   1      33.627  30.606  27.472  1.00  0.00     0.116 C 
BRANCH  28  29
ATOM     29  N   UNL A   1      34.222  31.588  28.354  1.00  0.00    -0.352 N 
ATOM     30  C   UNL A   1      35.312  31.467  29.201  1.00  0.00     0.251 C 
ATOM     31  H   UNL A   1      33.789  32.472  28.351  1.00  0.00     0.163 HD
ATOM     32  O   UNL A   1      35.492  32.337  30.040  1.00  0.00    -0.269 OA
BRANCH  30  33
ATOM     33  C   UNL A   1      36.297  30.364  29.015  1.00  0.00     0.039 A 
ATOM     34  C   UNL A   1      36.610  29.571  30.130  1.00  0.00     0.014 A 
ATOM     35  C   UNL A   1      37.018  30.200  27.835  1.00  0.00     0.014 A 
ATOM     36  C   UNL A   1      37.767  28.789  30.132  1.00  0.00     0.010 A 
ATOM     37  C   UNL A   1      38.203  29.490  27.857  1.00  0.00     0.010 A 
ATOM     38  C   UNL A   1      38.607  28.835  29.025  1.00  0.00    -0.014 A 
BRANCH  38  39
ATOM     39  C   UNL A   1      39.968  28.320  28.994  1.00  0.00     0.031 A 
ATOM     40  C   UNL A   1      40.244  26.885  28.791  1.00  0.00     0.074 A 
ATOM     41  C   UNL A   1      40.979  29.215  28.926  1.00  0.00     0.049 A 
ATOM     42  N   UNL A   1      41.389  26.330  29.009  1.00  0.00    -0.248 NA
ATOM     43  C   UNL A   1      39.222  25.953  28.336  1.00  0.00     0.031 C 
ATOM     44  C   UNL A   1      42.327  28.980  28.425  1.00  0.00     0.029 A 
ATOM     45  N   UNL A   1      41.040  30.487  29.503  1.00  0.00    -0.354 N 
ATOM     46  C   UNL A   1      41.340  25.057  28.483  1.00  0.00     0.074 A 
ATOM     47  C   UNL A   1      39.951  24.851  28.137  1.00  0.00     0.031 C 
ATOM     48  C   UNL A   1      43.142  29.913  28.938  1.00  0.00     0.029 A 
ATOM     49  C   UNL A   1      42.372  30.664  29.914  1.00  0.00     0.049 A 
ATOM     50  H   UNL A   1      40.299  31.129  29.602  1.00  0.00     0.167 HD
ATOM     51  C   UNL A   1      42.502  24.377  28.261  1.00  0.00     0.034 A 
ATOM     52  C   UNL A   1      42.753  30.915  31.198  1.00  0.00     0.034 A 
ATOM     53  C   UNL A   1      43.667  25.151  28.709  1.00  0.00     0.049 A 
ATOM     54  C   UNL A   1      43.749  29.908  31.743  1.00  0.00     0.074 A 
ATOM     55  C   UNL A   1      44.559  25.980  28.045  1.00  0.00     0.029 A 
ATOM     56  N   UNL A   1      43.888  25.344  30.065  1.00  0.00    -0.354 N 
ATOM     57  N   UNL A   1      44.121  28.828  31.114  1.00  0.00    -0.248 NA
ATOM     58  C   UNL A   1      44.376  30.019  33.057  1.00  0.00     0.031 C 
ATOM     59  C   UNL A   1      45.272  26.727  29.018  1.00  0.00     0.029 A 
ATOM     60  C   UNL A   1      44.831  26.338  30.271  1.00  0.00     0.049 A 
ATOM     61  H   UNL A   1      43.436  24.843  30.782  1.00  0.00     0.167 HD
ATOM     62  C   UNL A   1      44.873  28.040  31.946  1.00  0.00     0.074 A 
ATOM     63  C   UNL A   1      45.085  28.878  33.114  1.00  0.00     0.031 C 
ATOM     64  C   UNL A   1      45.185  26.744  31.627  1.00  0.00     0.034 A 
BRANCH  51  65
ATOM     65  C   UNL A   1      42.629  23.169  27.347  1.00  0.00     0.023 A 
ATOM     66  C   UNL A   1      41.924  21.996  27.709  1.00  0.00     0.012 A 
ATOM     67  C   UNL A   1      43.442  23.066  26.198  1.00  0.00     0.148 A 
ATOM     68  C   UNL A   1      42.114  20.771  27.060  1.00  0.00     0.002 A 
ATOM     69  C   UNL A   1      43.700  21.827  25.602  1.00  0.00     0.091 A 
ATOM     70  F   UNL A   1      43.898  24.176  25.609  1.00  0.00    -0.205 F 
ATOM     71  C   UNL A   1      43.040  20.674  26.035  1.00  0.00     0.022 A 
BRANCH  69  72
ATOM     72  S   UNL A   1      44.973  21.614  24.345  1.00  0.00     0.127 S 
ATOM     73  O   UNL A   1      44.550  22.561  23.311  1.00  0.00    -0.237 OA
ATOM     74  O   UNL A   1      46.189  21.996  25.056  1.00  0.00    -0.237 OA
ATOM     75  O   UNL A   1      44.892  20.217  23.931  1.00  0.00    -0.744 OA
ENDBRANCH  69  72
ENDBRANCH  51  65
BRANCH  52  76
ATOM     76  C   UNL A   1      41.736  31.648  32.001  1.00  0.00     0.023 A 
ATOM     77  C   UNL A   1      41.445  32.974  31.602  1.00  0.00     0.012 A 
ATOM     78  C   UNL A   1      40.827  30.972  32.833  1.00  0.00     0.148 A 
ATOM     79  C   UNL A   1      40.228  33.572  31.931  1.00  0.00     0.002 A 
ATOM     80  C   UNL A   1      39.607  31.571  33.145  1.00  0.00     0.091 A 
ATOM     81  F   UNL A   1      41.125  29.728  33.227  1.00  0.00    -0.205 F 
ATOM     82  C   UNL A   1      39.296  32.857  32.674  1.00  0.00     0.022 A 
BRANCH  80  83
ATOM     83  S   UNL A   1      38.311  30.683  34.021  1.00  0.00     0.127 S 
ATOM     84  O   UNL A   1      38.776  30.769  35.401  1.00  0.00    -0.237 OA
ATOM     85  O   UNL A   1      37.126  31.485  33.717  1.00  0.00    -0.237 OA
ATOM     86  O   UNL A   1      38.299  29.355  33.424  1.00  0.00    -0.744 OA
ENDBRANCH  80  83
ENDBRANCH  52  76
BRANCH  64  87
ATOM     87  C   UNL A   1      45.815  25.720  32.558  1.00  0.00     0.023 A 
ATOM     88  C   UNL A   1      47.208  25.581  32.702  1.00  0.00     0.012 A 
ATOM     89  C   UNL A   1      45.010  24.954  33.446  1.00  0.00     0.148 A 
ATOM     90  C   UNL A   1      47.777  24.702  33.631  1.00  0.00     0.002 A 
ATOM     91  C   UNL A   1      45.582  24.164  34.443  1.00  0.00     0.091 A 
ATOM     92  F   UNL A   1      43.675  24.970  33.323  1.00  0.00    -0.205 F 
ATOM     93  C   UNL A   1      46.966  24.012  34.521  1.00  0.00     0.022 A 
BRANCH  91  94
ATOM     94  S   UNL A   1      44.563  23.458  35.745  1.00  0.00     0.127 S 
ATOM     95  O   UNL A   1      45.518  22.620  36.466  1.00  0.00    -0.237 OA
ATOM     96  O   UNL A   1      44.118  24.642  36.484  1.00  0.00    -0.237 OA
ATOM     97  O   UNL A   1      43.494  22.764  35.039  1.00  0.00    -0.744 OA
ENDBRANCH  91  94
ENDBRANCH  64  87
ENDBRANCH  38  39
ENDBRANCH  30  33
ENDBRANCH  28  29
ENDBRANCH  27  28
ENDBRANCH   1  27
TORSDOF 20
ENDMDL
