MODEL 1
REMARK VINA RESULT:     -11.1      0.000      0.000
REMARK SMILES Cc1nc(C)c(C(=O)N[C@@H](CCS(C)(=O)=O)C(=O)NCCCCCCNC(=O)c2ccc(-c3c4nc(c(-c5cccc(S(=O)(=O)[O-])c5F)c5ccc([nH]5)c(-c5cccc(S(=O)(=O)[O-])c5F)c5nc(c(-c6cccc(S(=O)(=O)[O-])c6F)c6ccc3[nH]6)C=C5)C=C4)cc2)s1
REMARK SMILES IDX 22 1 21 2 20 3 19 4 17 5 18 6 10 8 9 9 7 10 8 11 6 13 1 14
REMARK SMILES IDX 2 15 3 16 92 17 4 18 5 19 11 20 12 21 13 22 14 23 15 24
REMARK SMILES IDX 16 25 23 26 24 27 25 28 26 29 27 30 28 32 29 33 30 34 91 35
REMARK SMILES IDX 31 36 90 37 32 38 33 39 34 40 84 41 35 42 89 43 83 44 85 45
REMARK SMILES IDX 36 46 88 47 82 48 81 49 37 51 69 52 49 53 68 54 50 55 53 56
REMARK SMILES IDX 67 57 86 58 51 59 52 60 66 62 87 63 54 64 38 65 39 66 47 67
REMARK SMILES IDX 40 68 42 69 48 70 41 71 43 72 44 73 45 74 46 75 70 76 71 77
REMARK SMILES IDX 79 78 72 79 74 80 80 81 73 82 75 83 76 84 77 85 78 86 55 87
REMARK SMILES IDX 56 88 64 89 57 90 59 91 65 92 58 93 60 94 61 95 62 96 63 97
REMARK H PARENT 19 7 9 12 26 31 85 50 53 61
REMARK Flexibility Score: inf
ROOT
ATOM      1  C   UNL A   1      33.138  29.720  26.101  1.00  0.00     0.002 C 
ENDROOT
BRANCH   1   2
ATOM      2  C   UNL A   1      33.451  28.793  24.919  1.00  0.00     0.021 C 
BRANCH   2   3
ATOM      3  C   UNL A   1      32.521  28.913  23.717  1.00  0.00     0.116 C 
BRANCH   3   4
ATOM      4  N   UNL A   1      32.407  27.686  22.954  1.00  0.00    -0.354 N 
ATOM      5  C   UNL A   1      31.386  26.796  22.831  1.00  0.00     0.242 C 
ATOM      6  O   UNL A   1      31.428  26.001  21.884  1.00  0.00    -0.273 OA
ATOM      7  H   UNL A   1      33.211  27.456  22.434  1.00  0.00     0.163 HD
BRANCH   5   8
ATOM      8  C   UNL A   1      30.156  26.785  23.756  1.00  0.00     0.172 C 
BRANCH   8   9
ATOM      9  N   UNL A   1      30.505  26.666  25.172  1.00  0.00    -0.339 N 
ATOM     10  C   UNL A   1      31.394  25.854  25.853  1.00  0.00     0.263 C 
ATOM     11  O   UNL A   1      31.717  26.320  26.951  1.00  0.00    -0.268 OA
ATOM     12  H   UNL A   1      30.012  27.288  25.755  1.00  0.00     0.164 HD
BRANCH  10  13
ATOM     13  C   UNL A   1      31.885  24.549  25.403  1.00  0.00     0.115 A 
ATOM     14  C   UNL A   1      32.218  20.712  24.731  1.00  0.00     0.079 C 
ATOM     15  C   UNL A   1      32.315  22.188  24.895  1.00  0.00     0.091 A 
ATOM     16  N   UNL A   1      33.395  22.889  24.654  1.00  0.00    -0.246 NA
ATOM     17  S   UNL A   1      30.997  23.083  25.486  1.00  0.00    -0.113 S 
ATOM     18  C   UNL A   1      33.176  24.232  24.958  1.00  0.00     0.061 A 
ATOM     19  C   UNL A   1      34.368  25.117  24.815  1.00  0.00     0.068 C 
ENDBRANCH  10  13
ENDBRANCH   8   9
BRANCH   8  20
ATOM     20  C   UNL A   1      29.008  27.784  23.493  1.00  0.00     0.051 C 
BRANCH  20  21
ATOM     21  C   UNL A   1      29.150  28.933  22.506  1.00  0.00     0.139 C 
BRANCH  21  22
ATOM     22  S   UNL A   1      28.261  30.444  22.891  1.00  0.00     0.147 S 
ATOM     23  C   UNL A   1      28.192  31.376  21.385  1.00  0.00     0.158 C 
ATOM     24  O   UNL A   1      26.900  30.063  23.225  1.00  0.00    -0.229 OA
ATOM     25  O   UNL A   1      29.032  31.233  23.821  1.00  0.00    -0.229 OA
ENDBRANCH  21  22
ENDBRANCH  20  21
ENDBRANCH   8  20
ENDBRANCH   5   8
ENDBRANCH   3   4
ENDBRANCH   2   3
ENDBRANCH   1   2
BRANCH   1  26
ATOM     26  C   UNL A   1      31.695  30.213  26.236  1.00  0.00     0.002 C 
BRANCH  26  27
ATOM     27  C   UNL A   1      31.503  31.681  26.612  1.00  0.00     0.021 C 
BRANCH  27  28
ATOM     28  C   UNL A   1      32.722  32.350  27.226  1.00  0.00     0.116 C 
BRANCH  28  29
ATOM     29  N   UNL A   1      32.511  33.759  27.515  1.00  0.00    -0.352 N 
ATOM     30  C   UNL A   1      33.141  34.557  28.437  1.00  0.00     0.251 C 
ATOM     31  H   UNL A   1      31.818  34.204  26.973  1.00  0.00     0.163 HD
ATOM     32  O   UNL A   1      32.745  35.702  28.634  1.00  0.00    -0.269 OA
BRANCH  30  33
ATOM     33  C   UNL A   1      34.281  34.020  29.211  1.00  0.00     0.039 A 
ATOM     34  C   UNL A   1      34.026  33.108  30.238  1.00  0.00     0.014 A 
ATOM     35  C   UNL A   1      35.593  34.405  28.922  1.00  0.00     0.014 A 
ATOM     36  C   UNL A   1      35.093  32.551  30.946  1.00  0.00     0.010 A 
ATOM     37  C   UNL A   1      36.656  33.781  29.565  1.00  0.00     0.010 A 
ATOM     38  C   UNL A   1      36.418  32.863  30.598  1.00  0.00    -0.014 A 
BRANCH  38  39
ATOM     39  C   UNL A   1      37.563  32.250  31.317  1.00  0.00     0.031 A 
ATOM     40  C   UNL A   1      38.333  31.120  30.687  1.00  0.00     0.074 A 
ATOM     41  C   UNL A   1      37.869  32.668  32.562  1.00  0.00     0.049 A 
ATOM     42  N   UNL A   1      39.341  30.441  31.169  1.00  0.00    -0.248 NA
ATOM     43  C   UNL A   1      37.896  30.673  29.353  1.00  0.00     0.031 C 
ATOM     44  C   UNL A   1      37.147  33.700  33.310  1.00  0.00     0.029 A 
ATOM     45  N   UNL A   1      38.854  32.261  33.425  1.00  0.00    -0.354 N 
ATOM     46  C   UNL A   1      39.635  29.469  30.219  1.00  0.00     0.074 A 
ATOM     47  C   UNL A   1      38.672  29.619  29.151  1.00  0.00     0.031 C 
ATOM     48  C   UNL A   1      37.721  33.854  34.513  1.00  0.00     0.029 A 
ATOM     49  C   UNL A   1      38.829  32.912  34.637  1.00  0.00     0.049 A 
ATOM     50  H   UNL A   1      39.516  31.568  33.200  1.00  0.00     0.167 HD
ATOM     51  C   UNL A   1      40.635  28.556  30.218  1.00  0.00     0.034 A 
ATOM     52  C   UNL A   1      39.606  32.762  35.726  1.00  0.00     0.034 A 
ATOM     53  C   UNL A   1      41.612  28.437  31.266  1.00  0.00     0.049 A 
ATOM     54  C   UNL A   1      40.734  31.765  35.684  1.00  0.00     0.074 A 
ATOM     55  C   UNL A   1      42.712  27.602  31.324  1.00  0.00     0.029 A 
ATOM     56  N   UNL A   1      41.601  29.169  32.443  1.00  0.00    -0.354 N 
ATOM     57  N   UNL A   1      41.088  30.959  34.713  1.00  0.00    -0.248 NA
ATOM     58  C   UNL A   1      41.594  31.687  36.873  1.00  0.00     0.031 C 
ATOM     59  C   UNL A   1      43.348  27.803  32.554  1.00  0.00     0.029 A 
ATOM     60  C   UNL A   1      42.670  28.797  33.241  1.00  0.00     0.049 A 
ATOM     61  H   UNL A   1      40.933  29.852  32.678  1.00  0.00     0.167 HD
ATOM     62  C   UNL A   1      42.235  30.310  35.155  1.00  0.00     0.074 A 
ATOM     63  C   UNL A   1      42.526  30.832  36.474  1.00  0.00     0.031 C 
ATOM     64  C   UNL A   1      42.975  29.361  34.530  1.00  0.00     0.034 A 
BRANCH  51  65
ATOM     65  C   UNL A   1      40.747  27.639  29.027  1.00  0.00     0.023 A 
ATOM     66  C   UNL A   1      39.905  26.511  28.931  1.00  0.00     0.012 A 
ATOM     67  C   UNL A   1      41.643  27.922  27.978  1.00  0.00     0.148 A 
ATOM     68  C   UNL A   1      39.981  25.658  27.830  1.00  0.00     0.002 A 
ATOM     69  C   UNL A   1      41.678  27.096  26.861  1.00  0.00     0.091 A 
ATOM     70  F   UNL A   1      42.450  28.986  28.096  1.00  0.00    -0.205 F 
ATOM     71  C   UNL A   1      40.859  25.957  26.792  1.00  0.00     0.022 A 
BRANCH  69  72
ATOM     72  S   UNL A   1      42.711  27.440  25.432  1.00  0.00     0.127 S 
ATOM     73  O   UNL A   1      44.010  27.678  26.058  1.00  0.00    -0.237 OA
ATOM     74  O   UNL A   1      42.618  26.188  24.680  1.00  0.00    -0.237 OA
ATOM     75  O   UNL A   1      42.116  28.592  24.772  1.00  0.00    -0.744 OA
ENDBRANCH  69  72
ENDBRANCH  51  65
BRANCH  52  76
ATOM     76  C   UNL A   1      39.385  33.616  36.927  1.00  0.00     0.023 A 
ATOM     77  C   UNL A   1      39.805  34.961  36.912  1.00  0.00     0.012 A 
ATOM     78  C   UNL A   1      38.750  33.110  38.077  1.00  0.00     0.148 A 
ATOM     79  C   UNL A   1      39.634  35.774  38.032  1.00  0.00     0.002 A 
ATOM     80  C   UNL A   1      38.530  33.940  39.169  1.00  0.00     0.091 A 
ATOM     81  F   UNL A   1      38.364  31.826  38.075  1.00  0.00    -0.205 F 
ATOM     82  C   UNL A   1      38.989  35.267  39.158  1.00  0.00     0.022 A 
BRANCH  80  83
ATOM     83  S   UNL A   1      37.597  33.411  40.611  1.00  0.00     0.127 S 
ATOM     84  O   UNL A   1      38.353  32.238  41.043  1.00  0.00    -0.237 OA
ATOM     85  O   UNL A   1      37.710  34.577  41.487  1.00  0.00    -0.237 OA
ATOM     86  O   UNL A   1      36.246  33.149  40.132  1.00  0.00    -0.744 OA
ENDBRANCH  80  83
ENDBRANCH  52  76
BRANCH  64  87
ATOM     87  C   UNL A   1      44.208  28.860  35.238  1.00  0.00     0.023 A 
ATOM     88  C   UNL A   1      45.456  29.473  35.008  1.00  0.00     0.012 A 
ATOM     89  C   UNL A   1      44.113  27.817  36.180  1.00  0.00     0.148 A 
ATOM     90  C   UNL A   1      46.597  29.025  35.673  1.00  0.00     0.002 A 
ATOM     91  C   UNL A   1      45.242  27.415  36.881  1.00  0.00     0.091 A 
ATOM     92  F   UNL A   1      42.920  27.235  36.372  1.00  0.00    -0.205 F 
ATOM     93  C   UNL A   1      46.488  28.006  36.617  1.00  0.00     0.022 A 
BRANCH  91  94
ATOM     94  S   UNL A   1      45.177  26.182  38.186  1.00  0.00     0.127 S 
ATOM     95  O   UNL A   1      45.102  24.941  37.419  1.00  0.00    -0.237 OA
ATOM     96  O   UNL A   1      46.449  26.397  38.877  1.00  0.00    -0.237 OA
ATOM     97  O   UNL A   1      43.997  26.500  38.979  1.00  0.00    -0.744 OA
ENDBRANCH  91  94
ENDBRANCH  64  87
ENDBRANCH  38  39
ENDBRANCH  30  33
ENDBRANCH  28  29
ENDBRANCH  27  28
ENDBRANCH  26  27
ENDBRANCH   1  26
TORSDOF 21
ENDMDL
MODEL 2
REMARK VINA RESULT:     -10.8      0.924      7.689
REMARK SMILES Cc1nc(C)c(C(=O)N[C@@H](CCS(C)(=O)=O)C(=O)NCCCCCCNC(=O)c2ccc(-c3c4nc(c(-c5cccc(S(=O)(=O)[O-])c5F)c5ccc([nH]5)c(-c5cccc(S(=O)(=O)[O-])c5F)c5nc(c(-c6cccc(S(=O)(=O)[O-])c6F)c6ccc3[nH]6)C=C5)C=C4)cc2)s1
REMARK SMILES IDX 22 1 21 2 20 3 19 4 17 5 18 6 10 8 9 9 7 10 8 11 6 13 1 14
REMARK SMILES IDX 2 15 3 16 92 17 4 18 5 19 11 20 12 21 13 22 14 23 15 24
REMARK SMILES IDX 16 25 23 26 24 27 25 28 26 29 27 30 28 32 29 33 30 34 91 35
REMARK SMILES IDX 31 36 90 37 32 38 33 39 34 40 84 41 35 42 89 43 83 44 85 45
REMARK SMILES IDX 36 46 88 47 82 48 81 49 37 51 69 52 49 53 68 54 50 55 53 56
REMARK SMILES IDX 67 57 86 58 51 59 52 60 66 62 87 63 54 64 38 65 39 66 47 67
REMARK SMILES IDX 40 68 42 69 48 70 41 71 43 72 44 73 45 74 46 75 70 76 71 77
REMARK SMILES IDX 79 78 72 79 74 80 80 81 73 82 75 83 76 84 77 85 78 86 55 87
REMARK SMILES IDX 56 88 64 89 57 90 59 91 65 92 58 93 60 94 61 95 62 96 63 97
REMARK H PARENT 19 7 9 12 26 31 85 50 53 61
REMARK Flexibility Score: inf
ROOT
ATOM      1  C   UNL A   1      33.033  29.535  27.183  1.00  0.00     0.002 C 
ENDROOT
BRANCH   1   2
ATOM      2  C   UNL A   1      33.832  28.639  26.229  1.00  0.00     0.021 C 
BRANCH   2   3
ATOM      3  C   UNL A   1      33.718  28.978  24.746  1.00  0.00     0.116 C 
BRANCH   3   4
ATOM      4  N   UNL A   1      33.862  27.825  23.880  1.00  0.00    -0.354 N 
ATOM      5  C   UNL A   1      32.935  27.030  23.281  1.00  0.00     0.242 C 
ATOM      6  O   UNL A   1      33.314  26.308  22.350  1.00  0.00    -0.273 OA
ATOM      7  H   UNL A   1      34.795  27.572  23.694  1.00  0.00     0.163 HD
BRANCH   5   8
ATOM      8  C   UNL A   1      31.441  27.046  23.648  1.00  0.00     0.172 C 
BRANCH   8   9
ATOM      9  N   UNL A   1      31.182  26.591  25.015  1.00  0.00    -0.339 N 
ATOM     10  C   UNL A   1      31.658  25.523  25.753  1.00  0.00     0.263 C 
ATOM     11  O   UNL A   1      31.547  25.699  26.971  1.00  0.00    -0.268 OA
ATOM     12  H   UNL A   1      30.544  27.157  25.507  1.00  0.00     0.164 HD
BRANCH  10  13
ATOM     13  C   UNL A   1      32.190  24.270  25.209  1.00  0.00     0.115 A 
ATOM     14  C   UNL A   1      32.495  20.601  23.893  1.00  0.00     0.079 C 
ATOM     15  C   UNL A   1      32.620  22.003  24.377  1.00  0.00     0.091 A 
ATOM     16  N   UNL A   1      33.760  22.605  24.609  1.00  0.00    -0.246 NA
ATOM     17  S   UNL A   1      31.237  22.926  24.727  1.00  0.00    -0.113 S 
ATOM     18  C   UNL A   1      33.534  23.889  25.105  1.00  0.00     0.061 A 
ATOM     19  C   UNL A   1      34.761  24.640  25.501  1.00  0.00     0.068 C 
ENDBRANCH  10  13
ENDBRANCH   8   9
BRANCH   8  20
ATOM     20  C   UNL A   1      30.577  28.259  23.237  1.00  0.00     0.051 C 
BRANCH  20  21
ATOM     21  C   UNL A   1      29.060  28.179  23.167  1.00  0.00     0.139 C 
BRANCH  21  22
ATOM     22  S   UNL A   1      28.194  29.675  22.682  1.00  0.00     0.147 S 
ATOM     23  C   UNL A   1      29.002  31.010  23.523  1.00  0.00     0.158 C 
ATOM     24  O   UNL A   1      28.425  29.859  21.260  1.00  0.00    -0.229 OA
ATOM     25  O   UNL A   1      26.844  29.637  23.188  1.00  0.00    -0.229 OA
ENDBRANCH  21  22
ENDBRANCH  20  21
ENDBRANCH   8  20
ENDBRANCH   5   8
ENDBRANCH   3   4
ENDBRANCH   2   3
ENDBRANCH   1   2
BRANCH   1  26
ATOM     26  C   UNL A   1      31.753  30.169  26.634  1.00  0.00     0.002 C 
BRANCH  26  27
ATOM     27  C   UNL A   1      31.662  31.693  26.689  1.00  0.00     0.021 C 
BRANCH  27  28
ATOM     28  C   UNL A   1      32.892  32.388  27.249  1.00  0.00     0.116 C 
BRANCH  28  29
ATOM     29  N   UNL A   1      32.624  33.748  27.688  1.00  0.00    -0.352 N 
ATOM     30  C   UNL A   1      33.244  34.477  28.672  1.00  0.00     0.251 C 
ATOM     31  H   UNL A   1      31.896  34.211  27.214  1.00  0.00     0.163 HD
ATOM     32  O   UNL A   1      32.802  35.575  28.997  1.00  0.00    -0.269 OA
BRANCH  30  33
ATOM     33  C   UNL A   1      34.432  33.921  29.356  1.00  0.00     0.039 A 
ATOM     34  C   UNL A   1      34.240  33.047  30.429  1.00  0.00     0.014 A 
ATOM     35  C   UNL A   1      35.724  34.250  28.940  1.00  0.00     0.014 A 
ATOM     36  C   UNL A   1      35.347  32.471  31.055  1.00  0.00     0.010 A 
ATOM     37  C   UNL A   1      36.820  33.606  29.504  1.00  0.00     0.010 A 
ATOM     38  C   UNL A   1      36.646  32.725  30.581  1.00  0.00    -0.014 A 
BRANCH  38  39
ATOM     39  C   UNL A   1      37.830  32.091  31.212  1.00  0.00     0.031 A 
ATOM     40  C   UNL A   1      38.397  32.655  32.488  1.00  0.00     0.074 A 
ATOM     41  C   UNL A   1      38.433  31.050  30.604  1.00  0.00     0.049 A 
ATOM     42  N   UNL A   1      39.439  32.258  33.172  1.00  0.00    -0.248 NA
ATOM     43  C   UNL A   1      37.725  33.836  33.056  1.00  0.00     0.031 C 
ATOM     44  C   UNL A   1      38.025  30.465  29.325  1.00  0.00     0.029 A 
ATOM     45  N   UNL A   1      39.529  30.312  30.972  1.00  0.00    -0.354 N 
ATOM     46  C   UNL A   1      39.567  33.157  34.225  1.00  0.00     0.074 A 
ATOM     47  C   UNL A   1      38.523  34.145  34.067  1.00  0.00     0.031 C 
ATOM     48  C   UNL A   1      38.851  29.451  29.021  1.00  0.00     0.029 A 
ATOM     49  C   UNL A   1      39.865  29.335  30.064  1.00  0.00     0.049 A 
ATOM     50  H   UNL A   1      40.028  30.466  31.806  1.00  0.00     0.167 HD
ATOM     51  C   UNL A   1      40.453  33.145  35.250  1.00  0.00     0.034 A 
ATOM     52  C   UNL A   1      40.880  28.449  30.068  1.00  0.00     0.034 A 
ATOM     53  C   UNL A   1      41.465  32.138  35.422  1.00  0.00     0.049 A 
ATOM     54  C   UNL A   1      41.827  28.433  31.238  1.00  0.00     0.074 A 
ATOM     55  C   UNL A   1      42.358  31.988  36.466  1.00  0.00     0.029 A 
ATOM     56  N   UNL A   1      41.725  31.117  34.521  1.00  0.00    -0.354 N 
ATOM     57  N   UNL A   1      41.839  29.199  32.302  1.00  0.00    -0.248 NA
ATOM     58  C   UNL A   1      42.876  27.404  31.227  1.00  0.00     0.031 C 
ATOM     59  C   UNL A   1      43.183  30.895  36.181  1.00  0.00     0.029 A 
ATOM     60  C   UNL A   1      42.772  30.337  34.981  1.00  0.00     0.049 A 
ATOM     61  H   UNL A   1      41.237  30.967  33.680  1.00  0.00     0.167 HD
ATOM     62  C   UNL A   1      42.866  28.718  33.106  1.00  0.00     0.074 A 
ATOM     63  C   UNL A   1      43.440  27.583  32.414  1.00  0.00     0.031 C 
ATOM     64  C   UNL A   1      43.300  29.180  34.304  1.00  0.00     0.034 A 
BRANCH  51  65
ATOM     65  C   UNL A   1      40.339  34.231  36.288  1.00  0.00     0.023 A 
ATOM     66  C   UNL A   1      40.687  35.558  35.954  1.00  0.00     0.012 A 
ATOM     67  C   UNL A   1      39.837  33.954  37.574  1.00  0.00     0.148 A 
ATOM     68  C   UNL A   1      40.575  36.581  36.895  1.00  0.00     0.002 A 
ATOM     69  C   UNL A   1      39.682  34.987  38.490  1.00  0.00     0.091 A 
ATOM     70  F   UNL A   1      39.532  32.685  37.881  1.00  0.00    -0.205 F 
ATOM     71  C   UNL A   1      40.063  36.298  38.157  1.00  0.00     0.022 A 
BRANCH  69  72
ATOM     72  S   UNL A   1      38.951  34.743  40.113  1.00  0.00     0.127 S 
ATOM     73  O   UNL A   1      38.572  36.108  40.474  1.00  0.00    -0.237 OA
ATOM     74  O   UNL A   1      37.826  33.858  39.811  1.00  0.00    -0.237 OA
ATOM     75  O   UNL A   1      39.990  34.146  40.938  1.00  0.00    -0.744 OA
ENDBRANCH  69  72
ENDBRANCH  51  65
BRANCH  52  76
ATOM     76  C   UNL A   1      41.017  27.463  28.958  1.00  0.00     0.023 A 
ATOM     77  C   UNL A   1      40.251  26.281  28.978  1.00  0.00     0.012 A 
ATOM     78  C   UNL A   1      41.891  27.696  27.879  1.00  0.00     0.148 A 
ATOM     79  C   UNL A   1      40.382  25.331  27.965  1.00  0.00     0.002 A 
ATOM     80  C   UNL A   1      41.975  26.773  26.844  1.00  0.00     0.091 A 
ATOM     81  F   UNL A   1      42.618  28.822  27.883  1.00  0.00    -0.205 F 
ATOM     82  C   UNL A   1      41.236  25.580  26.894  1.00  0.00     0.022 A 
BRANCH  80  83
ATOM     83  S   UNL A   1      42.952  27.067  25.365  1.00  0.00     0.127 S 
ATOM     84  O   UNL A   1      42.253  28.202  24.766  1.00  0.00    -0.237 OA
ATOM     85  O   UNL A   1      44.265  27.379  25.930  1.00  0.00    -0.237 OA
ATOM     86  O   UNL A   1      42.905  25.825  24.607  1.00  0.00    -0.744 OA
ENDBRANCH  80  83
ENDBRANCH  52  76
BRANCH  64  87
ATOM     87  C   UNL A   1      44.419  28.427  34.978  1.00  0.00     0.023 A 
ATOM     88  C   UNL A   1      45.761  28.761  34.711  1.00  0.00     0.012 A 
ATOM     89  C   UNL A   1      44.131  27.426  35.927  1.00  0.00     0.148 A 
ATOM     90  C   UNL A   1      46.800  28.080  35.345  1.00  0.00     0.002 A 
ATOM     91  C   UNL A   1      45.168  26.791  36.597  1.00  0.00     0.091 A 
ATOM     92  F   UNL A   1      42.847  27.111  36.156  1.00  0.00    -0.205 F 
ATOM     93  C   UNL A   1      46.504  27.105  36.296  1.00  0.00     0.022 A 
BRANCH  91  94
ATOM     94  S   UNL A   1      44.881  25.598  37.908  1.00  0.00     0.127 S 
ATOM     95  O   UNL A   1      44.365  26.450  38.978  1.00  0.00    -0.237 OA
ATOM     96  O   UNL A   1      43.888  24.709  37.304  1.00  0.00    -0.237 OA
ATOM     97  O   UNL A   1      46.170  24.974  38.173  1.00  0.00    -0.744 OA
ENDBRANCH  91  94
ENDBRANCH  64  87
ENDBRANCH  38  39
ENDBRANCH  30  33
ENDBRANCH  28  29
ENDBRANCH  27  28
ENDBRANCH  26  27
ENDBRANCH   1  26
TORSDOF 21
ENDMDL
MODEL 3
REMARK VINA RESULT:     -10.7      5.805     11.843
REMARK SMILES Cc1nc(C)c(C(=O)N[C@@H](CCS(C)(=O)=O)C(=O)NCCCCCCNC(=O)c2ccc(-c3c4nc(c(-c5cccc(S(=O)(=O)[O-])c5F)c5ccc([nH]5)c(-c5cccc(S(=O)(=O)[O-])c5F)c5nc(c(-c6cccc(S(=O)(=O)[O-])c6F)c6ccc3[nH]6)C=C5)C=C4)cc2)s1
REMARK SMILES IDX 22 1 21 2 20 3 19 4 17 5 18 6 10 8 9 9 7 10 8 11 6 13 1 14
REMARK SMILES IDX 2 15 3 16 92 17 4 18 5 19 11 20 12 21 13 22 14 23 15 24
REMARK SMILES IDX 16 25 23 26 24 27 25 28 26 29 27 30 28 32 29 33 30 34 91 35
REMARK SMILES IDX 31 36 90 37 32 38 33 39 34 40 84 41 35 42 89 43 83 44 85 45
REMARK SMILES IDX 36 46 88 47 82 48 81 49 37 51 69 52 49 53 68 54 50 55 53 56
REMARK SMILES IDX 67 57 86 58 51 59 52 60 66 62 87 63 54 64 38 65 39 66 47 67
REMARK SMILES IDX 40 68 42 69 48 70 41 71 43 72 44 73 45 74 46 75 70 76 71 77
REMARK SMILES IDX 79 78 72 79 74 80 80 81 73 82 75 83 76 84 77 85 78 86 55 87
REMARK SMILES IDX 56 88 64 89 57 90 59 91 65 92 58 93 60 94 61 95 62 96 63 97
REMARK H PARENT 19 7 9 12 26 31 85 50 53 61
REMARK Flexibility Score: inf
ROOT
ATOM      1  C   UNL A   1      37.747  22.430  25.449  1.00  0.00     0.002 C 
ENDROOT
BRANCH   1   2
ATOM      2  C   UNL A   1      36.657  23.500  25.589  1.00  0.00     0.021 C 
BRANCH   2   3
ATOM      3  C   UNL A   1      35.253  23.077  25.168  1.00  0.00     0.116 C 
BRANCH   3   4
ATOM      4  N   UNL A   1      34.948  23.393  23.787  1.00  0.00    -0.354 N 
ATOM      5  C   UNL A   1      33.802  23.259  23.067  1.00  0.00     0.242 C 
ATOM      6  O   UNL A   1      33.715  23.885  22.004  1.00  0.00    -0.273 OA
ATOM      7  H   UNL A   1      35.703  23.770  23.281  1.00  0.00     0.163 HD
BRANCH   5   8
ATOM      8  C   UNL A   1      32.591  22.439  23.547  1.00  0.00     0.172 C 
BRANCH   8   9
ATOM      9  N   UNL A   1      31.310  23.081  23.250  1.00  0.00    -0.339 N 
ATOM     10  C   UNL A   1      30.772  24.306  23.600  1.00  0.00     0.263 C 
ATOM     11  O   UNL A   1      29.871  24.666  22.835  1.00  0.00    -0.268 OA
ATOM     12  H   UNL A   1      30.713  22.534  22.690  1.00  0.00     0.164 HD
BRANCH  10  13
ATOM     13  C   UNL A   1      31.145  25.107  24.770  1.00  0.00     0.115 A 
ATOM     14  C   UNL A   1      32.603  27.921  27.058  1.00  0.00     0.079 C 
ATOM     15  C   UNL A   1      32.000  26.734  26.394  1.00  0.00     0.091 A 
ATOM     16  N   UNL A   1      31.618  25.650  27.023  1.00  0.00    -0.246 NA
ATOM     17  S   UNL A   1      31.818  26.684  24.705  1.00  0.00    -0.113 S 
ATOM     18  C   UNL A   1      31.149  24.704  26.112  1.00  0.00     0.061 A 
ATOM     19  C   UNL A   1      30.775  23.387  26.703  1.00  0.00     0.068 C 
ENDBRANCH  10  13
ENDBRANCH   8   9
BRANCH   8  20
ATOM     20  C   UNL A   1      32.576  20.912  23.314  1.00  0.00     0.051 C 
BRANCH  20  21
ATOM     21  C   UNL A   1      32.744  19.922  24.456  1.00  0.00     0.139 C 
BRANCH  21  22
ATOM     22  S   UNL A   1      32.713  18.179  24.026  1.00  0.00     0.147 S 
ATOM     23  C   UNL A   1      34.374  17.591  24.219  1.00  0.00     0.158 C 
ATOM     24  O   UNL A   1      31.900  17.509  25.025  1.00  0.00    -0.229 OA
ATOM     25  O   UNL A   1      32.393  18.034  22.627  1.00  0.00    -0.229 OA
ENDBRANCH  21  22
ENDBRANCH  20  21
ENDBRANCH   8  20
ENDBRANCH   5   8
ENDBRANCH   3   4
ENDBRANCH   2   3
ENDBRANCH   1   2
BRANCH   1  26
ATOM     26  C   UNL A   1      37.333  21.088  24.840  1.00  0.00     0.002 C 
BRANCH  26  27
ATOM     27  C   UNL A   1      38.344  19.948  24.938  1.00  0.00     0.021 C 
BRANCH  27  28
ATOM     28  C   UNL A   1      39.261  20.006  26.149  1.00  0.00     0.116 C 
BRANCH  28  29
ATOM     29  N   UNL A   1      40.413  19.129  26.031  1.00  0.00    -0.352 N 
ATOM     30  C   UNL A   1      41.748  19.448  26.042  1.00  0.00     0.251 C 
ATOM     31  H   UNL A   1      40.209  18.171  25.927  1.00  0.00     0.163 HD
ATOM     32  O   UNL A   1      42.590  18.588  25.802  1.00  0.00    -0.269 OA
BRANCH  30  33
ATOM     33  C   UNL A   1      42.164  20.840  26.320  1.00  0.00     0.039 A 
ATOM     34  C   UNL A   1      42.432  21.210  27.641  1.00  0.00     0.014 A 
ATOM     35  C   UNL A   1      42.299  21.772  25.288  1.00  0.00     0.014 A 
ATOM     36  C   UNL A   1      42.876  22.504  27.918  1.00  0.00     0.010 A 
ATOM     37  C   UNL A   1      42.828  23.030  25.555  1.00  0.00     0.010 A 
ATOM     38  C   UNL A   1      43.104  23.417  26.874  1.00  0.00    -0.014 A 
BRANCH  38  39
ATOM     39  C   UNL A   1      43.611  24.785  27.149  1.00  0.00     0.031 A 
ATOM     40  C   UNL A   1      42.682  25.841  27.688  1.00  0.00     0.074 A 
ATOM     41  C   UNL A   1      44.889  25.094  26.854  1.00  0.00     0.049 A 
ATOM     42  N   UNL A   1      42.932  27.094  27.964  1.00  0.00    -0.248 NA
ATOM     43  C   UNL A   1      41.282  25.446  27.921  1.00  0.00     0.031 C 
ATOM     44  C   UNL A   1      45.864  24.180  26.254  1.00  0.00     0.029 A 
ATOM     45  N   UNL A   1      45.582  26.269  27.000  1.00  0.00    -0.354 N 
ATOM     46  C   UNL A   1      41.720  27.644  28.367  1.00  0.00     0.074 A 
ATOM     47  C   UNL A   1      40.726  26.599  28.260  1.00  0.00     0.031 C 
ATOM     48  C   UNL A   1      47.031  24.823  26.095  1.00  0.00     0.029 A 
ATOM     49  C   UNL A   1      46.881  26.202  26.550  1.00  0.00     0.049 A 
ATOM     50  H   UNL A   1      45.189  27.082  27.390  1.00  0.00     0.167 HD
ATOM     51  C   UNL A   1      41.462  28.894  28.817  1.00  0.00     0.034 A 
ATOM     52  C   UNL A   1      47.839  27.147  26.503  1.00  0.00     0.034 A 
ATOM     53  C   UNL A   1      42.462  29.918  28.957  1.00  0.00     0.049 A 
ATOM     54  C   UNL A   1      47.536  28.519  27.044  1.00  0.00     0.074 A 
ATOM     55  C   UNL A   1      42.322  31.191  29.479  1.00  0.00     0.029 A 
ATOM     56  N   UNL A   1      43.785  29.788  28.564  1.00  0.00    -0.354 N 
ATOM     57  N   UNL A   1      46.422  28.974  27.563  1.00  0.00    -0.248 NA
ATOM     58  C   UNL A   1      48.636  29.494  27.033  1.00  0.00     0.031 C 
ATOM     59  C   UNL A   1      43.554  31.845  29.369  1.00  0.00     0.029 A 
ATOM     60  C   UNL A   1      44.471  30.963  28.823  1.00  0.00     0.049 A 
ATOM     61  H   UNL A   1      44.179  28.981  28.163  1.00  0.00     0.167 HD
ATOM     62  C   UNL A   1      46.697  30.273  27.977  1.00  0.00     0.074 A 
ATOM     63  C   UNL A   1      48.089  30.522  27.667  1.00  0.00     0.031 C 
ATOM     64  C   UNL A   1      45.870  31.179  28.553  1.00  0.00     0.034 A 
BRANCH  51  65
ATOM     65  C   UNL A   1      40.048  29.214  29.230  1.00  0.00     0.023 A 
ATOM     66  C   UNL A   1      39.083  29.519  28.246  1.00  0.00     0.012 A 
ATOM     67  C   UNL A   1      39.659  29.158  30.582  1.00  0.00     0.148 A 
ATOM     68  C   UNL A   1      37.765  29.802  28.605  1.00  0.00     0.002 A 
ATOM     69  C   UNL A   1      38.333  29.392  30.928  1.00  0.00     0.091 A 
ATOM     70  F   UNL A   1      40.593  28.888  31.505  1.00  0.00    -0.205 F 
ATOM     71  C   UNL A   1      37.389  29.728  29.943  1.00  0.00     0.022 A 
BRANCH  69  72
ATOM     72  S   UNL A   1      37.728  29.238  32.612  1.00  0.00     0.127 S 
ATOM     73  O   UNL A   1      36.367  29.757  32.485  1.00  0.00    -0.237 OA
ATOM     74  O   UNL A   1      37.811  27.794  32.835  1.00  0.00    -0.237 OA
ATOM     75  O   UNL A   1      38.624  30.034  33.438  1.00  0.00    -0.744 OA
ENDBRANCH  69  72
ENDBRANCH  51  65
BRANCH  52  76
ATOM     76  C   UNL A   1      49.195  26.813  25.980  1.00  0.00     0.023 A 
ATOM     77  C   UNL A   1      50.095  26.091  26.788  1.00  0.00     0.012 A 
ATOM     78  C   UNL A   1      49.591  27.194  24.684  1.00  0.00     0.148 A 
ATOM     79  C   UNL A   1      51.378  25.790  26.331  1.00  0.00     0.002 A 
ATOM     80  C   UNL A   1      50.849  26.842  24.212  1.00  0.00     0.091 A 
ATOM     81  F   UNL A   1      48.723  27.887  23.933  1.00  0.00    -0.205 F 
ATOM     82  C   UNL A   1      51.753  26.157  25.041  1.00  0.00     0.022 A 
BRANCH  80  83
ATOM     83  S   UNL A   1      51.371  27.161  22.523  1.00  0.00     0.127 S 
ATOM     84  O   UNL A   1      51.480  28.618  22.514  1.00  0.00    -0.237 OA
ATOM     85  O   UNL A   1      52.646  26.446  22.462  1.00  0.00    -0.237 OA
ATOM     86  O   UNL A   1      50.328  26.600  21.675  1.00  0.00    -0.744 OA
ENDBRANCH  80  83
ENDBRANCH  52  76
BRANCH  64  87
ATOM     87  C   UNL A   1      46.457  32.512  28.941  1.00  0.00     0.023 A 
ATOM     88  C   UNL A   1      47.042  32.687  30.211  1.00  0.00     0.012 A 
ATOM     89  C   UNL A   1      46.482  33.574  28.016  1.00  0.00     0.148 A 
ATOM     90  C   UNL A   1      47.604  33.913  30.569  1.00  0.00     0.002 A 
ATOM     91  C   UNL A   1      47.093  34.773  28.358  1.00  0.00     0.091 A 
ATOM     92  F   UNL A   1      45.905  33.394  26.819  1.00  0.00    -0.205 F 
ATOM     93  C   UNL A   1      47.640  34.950  29.639  1.00  0.00     0.022 A 
BRANCH  91  94
ATOM     94  S   UNL A   1      47.277  36.127  27.193  1.00  0.00     0.127 S 
ATOM     95  O   UNL A   1      48.077  35.506  26.139  1.00  0.00    -0.237 OA
ATOM     96  O   UNL A   1      45.890  36.407  26.822  1.00  0.00    -0.237 OA
ATOM     97  O   UNL A   1      47.935  37.201  27.926  1.00  0.00    -0.744 OA
ENDBRANCH  91  94
ENDBRANCH  64  87
ENDBRANCH  38  39
ENDBRANCH  30  33
ENDBRANCH  28  29
ENDBRANCH  27  28
ENDBRANCH  26  27
ENDBRANCH   1  26
TORSDOF 21
ENDMDL
