MODEL 1
REMARK VINA RESULT:     -11.2      0.000      0.000
REMARK SMILES CCC[C@H](NC(=O)c1cc2ccccc2[nH]1)C(=O)NCCCCCCNC(=O)c1ccc(-c2c3nc(c(-c4cccc(S(=O)(=O)[O-])c4F)c4ccc([nH]4)c(-c4cccc(S(=O)(=O)[O-])c4F)c4nc(c(-c5cccc(S(=O)(=O)[O-])c5F)c5ccc2[nH]5)C=C4)C=C3)cc1
REMARK SMILES IDX 23 1 22 2 21 3 20 4 19 5 17 6 18 7 4 9 3 10 2 11 1 12 5 13
REMARK SMILES IDX 6 14 7 16 8 17 9 18 16 19 10 20 15 21 11 23 14 24 12 25
REMARK SMILES IDX 13 26 24 27 25 28 26 29 27 30 28 32 29 33 30 34 91 35 31 36
REMARK SMILES IDX 90 37 32 38 33 39 34 40 84 41 35 42 89 43 83 44 85 45 36 46
REMARK SMILES IDX 88 47 82 48 81 49 37 51 69 52 49 53 68 54 50 55 53 56 67 57
REMARK SMILES IDX 86 58 51 59 52 60 66 62 87 63 54 64 38 65 39 66 47 67 40 68
REMARK SMILES IDX 42 69 48 70 41 71 43 72 44 73 45 74 46 75 70 76 71 77 79 78
REMARK SMILES IDX 72 79 74 80 80 81 73 82 75 83 76 84 77 85 78 86 55 87 56 88
REMARK SMILES IDX 64 89 57 90 59 91 65 92 58 93 60 94 61 95 62 96 63 97
REMARK H PARENT 19 8 5 15 16 22 26 31 85 50 53 61
REMARK Flexibility Score: inf
ROOT
ATOM      1  C   UNL A   1      34.170  22.113  24.030  1.00  0.00     0.002 C 
ENDROOT
BRANCH   1   2
ATOM      2  C   UNL A   1      32.706  22.537  24.179  1.00  0.00     0.002 C 
BRANCH   2   3
ATOM      3  C   UNL A   1      31.951  21.933  25.365  1.00  0.00     0.021 C 
BRANCH   3   4
ATOM      4  C   UNL A   1      31.598  22.918  26.473  1.00  0.00     0.116 C 
BRANCH   4   5
ATOM      5  N   UNL A   1      30.477  23.766  26.134  1.00  0.00    -0.354 N 
ATOM      6  C   UNL A   1      30.453  25.121  25.975  1.00  0.00     0.242 C 
ATOM      7  O   UNL A   1      29.362  25.655  25.740  1.00  0.00    -0.273 OA
ATOM      8  H   UNL A   1      29.617  23.305  26.000  1.00  0.00     0.163 HD
BRANCH   6   9
ATOM      9  C   UNL A   1      31.724  25.990  26.141  1.00  0.00     0.171 C 
BRANCH   9  10
ATOM     10  C   UNL A   1      31.390  27.382  26.726  1.00  0.00     0.035 C 
BRANCH  10  11
ATOM     11  C   UNL A   1      32.534  28.255  27.259  1.00  0.00    -0.001 C 
ATOM     12  C   UNL A   1      32.254  29.751  27.180  1.00  0.00     0.004 C 
ENDBRANCH  10  11
ENDBRANCH   9  10
BRANCH   9  13
ATOM     13  N   UNL A   1      32.491  25.969  24.904  1.00  0.00    -0.339 N 
ATOM     14  C   UNL A   1      32.277  26.618  23.714  1.00  0.00     0.268 C 
ATOM     15  H   UNL A   1      33.292  25.397  24.924  1.00  0.00     0.164 HD
ATOM     16  O   UNL A   1      33.038  26.329  22.792  1.00  0.00    -0.268 OA
BRANCH  14  17
ATOM     17  C   UNL A   1      31.187  27.554  23.544  1.00  0.00     0.105 A 
ATOM     18  C   UNL A   1      31.259  28.932  23.706  1.00  0.00     0.042 A 
ATOM     19  N   UNL A   1      29.861  27.278  23.290  1.00  0.00    -0.351 N 
ATOM     20  C   UNL A   1      29.974  29.493  23.489  1.00  0.00     0.000 A 
ATOM     21  C   UNL A   1      29.112  28.433  23.231  1.00  0.00     0.046 A 
ATOM     22  H   UNL A   1      29.496  26.373  23.166  1.00  0.00     0.167 HD
ATOM     23  C   UNL A   1      29.457  30.802  23.497  1.00  0.00     0.010 A 
ATOM     24  C   UNL A   1      27.746  28.609  22.983  1.00  0.00     0.026 A 
ATOM     25  C   UNL A   1      28.093  31.000  23.244  1.00  0.00     0.001 A 
ATOM     26  C   UNL A   1      27.252  29.917  22.992  1.00  0.00     0.002 A 
ENDBRANCH  14  17
ENDBRANCH   9  13
ENDBRANCH   6   9
ENDBRANCH   4   5
ENDBRANCH   3   4
ENDBRANCH   2   3
ENDBRANCH   1   2
BRANCH   1  27
ATOM     27  C   UNL A   1      35.203  22.935  24.808  1.00  0.00     0.021 C 
BRANCH  27  28
ATOM     28  C   UNL A   1      35.762  22.287  26.074  1.00  0.00     0.116 C 
BRANCH  28  29
ATOM     29  N   UNL A   1      36.759  21.270  25.790  1.00  0.00    -0.352 N 
ATOM     30  C   UNL A   1      38.129  21.353  25.778  1.00  0.00     0.251 C 
ATOM     31  H   UNL A   1      36.394  20.382  25.573  1.00  0.00     0.163 HD
ATOM     32  O   UNL A   1      38.783  20.395  25.372  1.00  0.00    -0.269 OA
BRANCH  30  33
ATOM     33  C   UNL A   1      38.826  22.582  26.224  1.00  0.00     0.039 A 
ATOM     34  C   UNL A   1      39.886  22.454  27.128  1.00  0.00     0.014 A 
ATOM     35  C   UNL A   1      38.420  23.852  25.804  1.00  0.00     0.014 A 
ATOM     36  C   UNL A   1      40.574  23.591  27.567  1.00  0.00     0.010 A 
ATOM     37  C   UNL A   1      39.139  24.981  26.201  1.00  0.00     0.010 A 
ATOM     38  C   UNL A   1      40.220  24.862  27.089  1.00  0.00    -0.014 A 
BRANCH  38  39
ATOM     39  C   UNL A   1      40.974  26.075  27.496  1.00  0.00     0.031 A 
ATOM     40  C   UNL A   1      40.295  27.169  28.273  1.00  0.00     0.074 A 
ATOM     41  C   UNL A   1      42.251  26.228  27.096  1.00  0.00     0.049 A 
ATOM     42  N   UNL A   1      40.773  28.325  28.658  1.00  0.00    -0.248 NA
ATOM     43  C   UNL A   1      38.889  26.945  28.649  1.00  0.00     0.031 C 
ATOM     44  C   UNL A   1      43.003  25.269  26.283  1.00  0.00     0.029 A 
ATOM     45  N   UNL A   1      43.135  27.259  27.294  1.00  0.00    -0.354 N 
ATOM     46  C   UNL A   1      39.722  28.980  29.288  1.00  0.00     0.074 A 
ATOM     47  C   UNL A   1      38.575  28.101  29.219  1.00  0.00     0.031 C 
ATOM     48  C   UNL A   1      44.231  25.759  26.049  1.00  0.00     0.029 A 
ATOM     49  C   UNL A   1      44.350  27.072  26.677  1.00  0.00     0.049 A 
ATOM     50  H   UNL A   1      42.920  28.059  27.827  1.00  0.00     0.167 HD
ATOM     51  C   UNL A   1      39.721  30.189  29.898  1.00  0.00     0.034 A 
ATOM     52  C   UNL A   1      45.437  27.866  26.622  1.00  0.00     0.034 A 
ATOM     53  C   UNL A   1      40.875  31.037  30.020  1.00  0.00     0.049 A 
ATOM     54  C   UNL A   1      45.425  29.180  27.355  1.00  0.00     0.074 A 
ATOM     55  C   UNL A   1      40.990  32.245  30.686  1.00  0.00     0.029 A 
ATOM     56  N   UNL A   1      42.117  30.767  29.469  1.00  0.00    -0.354 N 
ATOM     57  N   UNL A   1      44.467  29.712  28.074  1.00  0.00    -0.248 NA
ATOM     58  C   UNL A   1      46.654  29.987  27.298  1.00  0.00     0.031 C 
ATOM     59  C   UNL A   1      42.305  32.702  30.542  1.00  0.00     0.029 A 
ATOM     60  C   UNL A   1      43.006  31.780  29.782  1.00  0.00     0.049 A 
ATOM     61  H   UNL A   1      42.335  29.970  28.931  1.00  0.00     0.167 HD
ATOM     62  C   UNL A   1      44.986  30.899  28.581  1.00  0.00     0.074 A 
ATOM     63  C   UNL A   1      46.349  30.998  28.102  1.00  0.00     0.031 C 
ATOM     64  C   UNL A   1      44.380  31.831  29.355  1.00  0.00     0.034 A 
BRANCH  51  65
ATOM     65  C   UNL A   1      38.442  30.637  30.554  1.00  0.00     0.023 A 
ATOM     66  C   UNL A   1      38.247  30.368  31.923  1.00  0.00     0.012 A 
ATOM     67  C   UNL A   1      37.470  31.368  29.845  1.00  0.00     0.148 A 
ATOM     68  C   UNL A   1      37.092  30.799  32.574  1.00  0.00     0.002 A 
ATOM     69  C   UNL A   1      36.335  31.823  30.509  1.00  0.00     0.091 A 
ATOM     70  F   UNL A   1      37.661  31.589  28.536  1.00  0.00    -0.205 F 
ATOM     71  C   UNL A   1      36.142  31.534  31.869  1.00  0.00     0.022 A 
BRANCH  69  72
ATOM     72  S   UNL A   1      35.089  32.830  29.696  1.00  0.00     0.127 S 
ATOM     73  O   UNL A   1      34.292  33.289  30.832  1.00  0.00    -0.237 OA
ATOM     74  O   UNL A   1      35.895  33.871  29.056  1.00  0.00    -0.237 OA
ATOM     75  O   UNL A   1      34.409  31.939  28.765  1.00  0.00    -0.744 OA
ENDBRANCH  69  72
ENDBRANCH  51  65
BRANCH  52  76
ATOM     76  C   UNL A   1      46.663  27.394  25.920  1.00  0.00     0.023 A 
ATOM     77  C   UNL A   1      46.818  27.677  24.549  1.00  0.00     0.012 A 
ATOM     78  C   UNL A   1      47.689  26.713  26.600  1.00  0.00     0.148 A 
ATOM     79  C   UNL A   1      47.963  27.271  23.864  1.00  0.00     0.002 A 
ATOM     80  C   UNL A   1      48.851  26.354  25.922  1.00  0.00     0.091 A 
ATOM     81  F   UNL A   1      47.519  26.430  27.899  1.00  0.00    -0.205 F 
ATOM     82  C   UNL A   1      48.984  26.621  24.551  1.00  0.00     0.022 A 
BRANCH  80  83
ATOM     83  S   UNL A   1      50.257  25.638  26.782  1.00  0.00     0.127 S 
ATOM     84  O   UNL A   1      49.675  24.430  27.359  1.00  0.00    -0.237 OA
ATOM     85  O   UNL A   1      51.208  25.406  25.695  1.00  0.00    -0.237 OA
ATOM     86  O   UNL A   1      50.680  26.665  27.727  1.00  0.00    -0.744 OA
ENDBRANCH  80  83
ENDBRANCH  52  76
BRANCH  64  87
ATOM     87  C   UNL A   1      45.186  33.038  29.754  1.00  0.00     0.023 A 
ATOM     88  C   UNL A   1      46.080  32.942  30.837  1.00  0.00     0.012 A 
ATOM     89  C   UNL A   1      45.121  34.232  29.011  1.00  0.00     0.148 A 
ATOM     90  C   UNL A   1      46.885  34.025  31.188  1.00  0.00     0.002 A 
ATOM     91  C   UNL A   1      45.953  35.296  29.344  1.00  0.00     0.091 A 
ATOM     92  F   UNL A   1      44.245  34.313  27.998  1.00  0.00    -0.205 F 
ATOM     93  C   UNL A   1      46.831  35.196  30.435  1.00  0.00     0.022 A 
BRANCH  91  94
ATOM     94  S   UNL A   1      45.997  36.805  28.371  1.00  0.00     0.127 S 
ATOM     95  O   UNL A   1      47.190  37.467  28.896  1.00  0.00    -0.237 OA
ATOM     96  O   UNL A   1      46.133  36.300  27.004  1.00  0.00    -0.237 OA
ATOM     97  O   UNL A   1      44.730  37.477  28.636  1.00  0.00    -0.744 OA
ENDBRANCH  91  94
ENDBRANCH  64  87
ENDBRANCH  38  39
ENDBRANCH  30  33
ENDBRANCH  28  29
ENDBRANCH  27  28
ENDBRANCH   1  27
TORSDOF 20
ENDMDL
MODEL 2
REMARK VINA RESULT:     -11.1      4.816      8.207
REMARK SMILES CCC[C@H](NC(=O)c1cc2ccccc2[nH]1)C(=O)NCCCCCCNC(=O)c1ccc(-c2c3nc(c(-c4cccc(S(=O)(=O)[O-])c4F)c4ccc([nH]4)c(-c4cccc(S(=O)(=O)[O-])c4F)c4nc(c(-c5cccc(S(=O)(=O)[O-])c5F)c5ccc2[nH]5)C=C4)C=C3)cc1
REMARK SMILES IDX 23 1 22 2 21 3 20 4 19 5 17 6 18 7 4 9 3 10 2 11 1 12 5 13
REMARK SMILES IDX 6 14 7 16 8 17 9 18 16 19 10 20 15 21 11 23 14 24 12 25
REMARK SMILES IDX 13 26 24 27 25 28 26 29 27 30 28 32 29 33 30 34 91 35 31 36
REMARK SMILES IDX 90 37 32 38 33 39 34 40 84 41 35 42 89 43 83 44 85 45 36 46
REMARK SMILES IDX 88 47 82 48 81 49 37 51 69 52 49 53 68 54 50 55 53 56 67 57
REMARK SMILES IDX 86 58 51 59 52 60 66 62 87 63 54 64 38 65 39 66 47 67 40 68
REMARK SMILES IDX 42 69 48 70 41 71 43 72 44 73 45 74 46 75 70 76 71 77 79 78
REMARK SMILES IDX 72 79 74 80 80 81 73 82 75 83 76 84 77 85 78 86 55 87 56 88
REMARK SMILES IDX 64 89 57 90 59 91 65 92 58 93 60 94 61 95 62 96 63 97
REMARK H PARENT 19 8 5 15 16 22 26 31 85 50 53 61
REMARK Flexibility Score: inf
ROOT
ATOM      1  C   UNL A   1      31.320  28.966  23.913  1.00  0.00     0.002 C 
ENDROOT
BRANCH   1   2
ATOM      2  C   UNL A   1      30.389  27.821  23.500  1.00  0.00     0.002 C 
BRANCH   2   3
ATOM      3  C   UNL A   1      31.017  26.728  22.634  1.00  0.00     0.021 C 
BRANCH   3   4
ATOM      4  C   UNL A   1      31.355  25.437  23.371  1.00  0.00     0.116 C 
BRANCH   4   5
ATOM      5  N   UNL A   1      31.868  24.408  22.494  1.00  0.00    -0.354 N 
ATOM      6  C   UNL A   1      33.063  23.754  22.556  1.00  0.00     0.242 C 
ATOM      7  O   UNL A   1      33.325  22.943  21.659  1.00  0.00    -0.273 OA
ATOM      8  H   UNL A   1      31.275  24.144  21.752  1.00  0.00     0.163 HD
BRANCH   6   9
ATOM      9  C   UNL A   1      34.102  24.046  23.668  1.00  0.00     0.171 C 
BRANCH   9  10
ATOM     10  C   UNL A   1      35.417  23.267  23.438  1.00  0.00     0.035 C 
BRANCH  10  11
ATOM     11  C   UNL A   1      36.515  23.334  24.508  1.00  0.00    -0.001 C 
ATOM     12  C   UNL A   1      37.297  22.036  24.668  1.00  0.00     0.004 C 
ENDBRANCH  10  11
ENDBRANCH   9  10
BRANCH   9  13
ATOM     13  N   UNL A   1      33.472  23.894  24.972  1.00  0.00    -0.339 N 
ATOM     14  C   UNL A   1      33.037  22.767  25.623  1.00  0.00     0.268 C 
ATOM     15  H   UNL A   1      33.337  24.735  25.465  1.00  0.00     0.164 HD
ATOM     16  O   UNL A   1      32.440  22.948  26.683  1.00  0.00    -0.268 OA
BRANCH  14  17
ATOM     17  C   UNL A   1      33.230  21.446  25.067  1.00  0.00     0.105 A 
ATOM     18  C   UNL A   1      32.367  20.790  24.198  1.00  0.00     0.042 A 
ATOM     19  N   UNL A   1      34.232  20.543  25.348  1.00  0.00    -0.351 N 
ATOM     20  C   UNL A   1      32.887  19.502  23.910  1.00  0.00     0.000 A 
ATOM     21  C   UNL A   1      34.059  19.369  24.646  1.00  0.00     0.046 A 
ATOM     22  H   UNL A   1      34.976  20.714  25.969  1.00  0.00     0.167 HD
ATOM     23  C   UNL A   1      32.469  18.429  23.101  1.00  0.00     0.010 A 
ATOM     24  C   UNL A   1      34.843  18.211  24.622  1.00  0.00     0.026 A 
ATOM     25  C   UNL A   1      33.244  17.262  23.059  1.00  0.00     0.001 A 
ATOM     26  C   UNL A   1      34.413  17.157  23.810  1.00  0.00     0.002 A 
ENDBRANCH  14  17
ENDBRANCH   9  13
ENDBRANCH   6   9
ENDBRANCH   4   5
ENDBRANCH   3   4
ENDBRANCH   2   3
ENDBRANCH   1   2
BRANCH   1  27
ATOM     27  C   UNL A   1      31.567  29.137  25.416  1.00  0.00     0.021 C 
BRANCH  27  28
ATOM     28  C   UNL A   1      32.856  29.860  25.807  1.00  0.00     0.116 C 
BRANCH  28  29
ATOM     29  N   UNL A   1      32.622  31.219  26.261  1.00  0.00    -0.352 N 
ATOM     30  C   UNL A   1      33.251  31.945  27.240  1.00  0.00     0.251 C 
ATOM     31  H   UNL A   1      31.898  31.694  25.792  1.00  0.00     0.163 HD
ATOM     32  O   UNL A   1      32.797  33.043  27.557  1.00  0.00    -0.269 OA
BRANCH  30  33
ATOM     33  C   UNL A   1      34.451  31.419  27.932  1.00  0.00     0.039 A 
ATOM     34  C   UNL A   1      35.546  32.273  28.107  1.00  0.00     0.014 A 
ATOM     35  C   UNL A   1      34.528  30.093  28.367  1.00  0.00     0.014 A 
ATOM     36  C   UNL A   1      36.694  31.815  28.762  1.00  0.00     0.010 A 
ATOM     37  C   UNL A   1      35.653  29.652  29.065  1.00  0.00     0.010 A 
ATOM     38  C   UNL A   1      36.748  30.507  29.267  1.00  0.00    -0.014 A 
BRANCH  38  39
ATOM     39  C   UNL A   1      37.933  30.020  30.017  1.00  0.00     0.031 A 
ATOM     40  C   UNL A   1      38.226  30.538  31.399  1.00  0.00     0.074 A 
ATOM     41  C   UNL A   1      38.793  29.170  29.422  1.00  0.00     0.049 A 
ATOM     42  N   UNL A   1      39.246  30.278  32.177  1.00  0.00    -0.248 NA
ATOM     43  C   UNL A   1      37.259  31.487  31.973  1.00  0.00     0.031 C 
ATOM     44  C   UNL A   1      38.656  28.645  28.061  1.00  0.00     0.029 A 
ATOM     45  N   UNL A   1      39.967  28.620  29.873  1.00  0.00    -0.354 N 
ATOM     46  C   UNL A   1      39.063  31.054  33.314  1.00  0.00     0.074 A 
ATOM     47  C   UNL A   1      37.845  31.810  33.119  1.00  0.00     0.031 C 
ATOM     48  C   UNL A   1      39.706  27.855  27.788  1.00  0.00     0.029 A 
ATOM     49  C   UNL A   1      40.599  27.828  28.943  1.00  0.00     0.049 A 
ATOM     50  H   UNL A   1      40.323  28.777  30.777  1.00  0.00     0.167 HD
ATOM     51  C   UNL A   1      39.823  31.110  34.434  1.00  0.00     0.034 A 
ATOM     52  C   UNL A   1      41.766  27.157  29.011  1.00  0.00     0.034 A 
ATOM     53  C   UNL A   1      41.001  30.315  34.655  1.00  0.00     0.049 A 
ATOM     54  C   UNL A   1      42.561  27.194  30.288  1.00  0.00     0.074 A 
ATOM     55  C   UNL A   1      41.792  30.246  35.788  1.00  0.00     0.029 A 
ATOM     56  N   UNL A   1      41.555  29.448  33.728  1.00  0.00    -0.354 N 
ATOM     57  N   UNL A   1      42.290  27.817  31.408  1.00  0.00    -0.248 NA
ATOM     58  C   UNL A   1      43.804  26.408  30.322  1.00  0.00     0.031 C 
ATOM     59  C   UNL A   1      42.823  29.331  35.547  1.00  0.00     0.029 A 
ATOM     60  C   UNL A   1      42.675  28.835  34.262  1.00  0.00     0.049 A 
ATOM     61  H   UNL A   1      41.203  29.291  32.821  1.00  0.00     0.167 HD
ATOM     62  C   UNL A   1      43.309  27.475  32.290  1.00  0.00     0.074 A 
ATOM     63  C   UNL A   1      44.193  26.574  31.580  1.00  0.00     0.031 C 
ATOM     64  C   UNL A   1      43.506  27.888  33.566  1.00  0.00     0.034 A 
BRANCH  51  65
ATOM     65  C   UNL A   1      39.358  32.009  35.547  1.00  0.00     0.023 A 
ATOM     66  C   UNL A   1      38.465  31.498  36.510  1.00  0.00     0.012 A 
ATOM     67  C   UNL A   1      39.841  33.325  35.680  1.00  0.00     0.148 A 
ATOM     68  C   UNL A   1      38.040  32.289  37.576  1.00  0.00     0.002 A 
ATOM     69  C   UNL A   1      39.439  34.098  36.764  1.00  0.00     0.091 A 
ATOM     70  F   UNL A   1      40.668  33.802  34.738  1.00  0.00    -0.205 F 
ATOM     71  C   UNL A   1      38.535  33.585  37.708  1.00  0.00     0.022 A 
BRANCH  69  72
ATOM     72  S   UNL A   1      40.073  35.755  37.048  1.00  0.00     0.127 S 
ATOM     73  O   UNL A   1      39.650  36.446  35.832  1.00  0.00    -0.237 OA
ATOM     74  O   UNL A   1      39.360  36.161  38.260  1.00  0.00    -0.237 OA
ATOM     75  O   UNL A   1      41.511  35.601  37.221  1.00  0.00    -0.744 OA
ENDBRANCH  69  72
ENDBRANCH  51  65
BRANCH  52  76
ATOM     76  C   UNL A   1      42.203  26.317  27.862  1.00  0.00     0.023 A 
ATOM     77  C   UNL A   1      43.102  26.857  26.922  1.00  0.00     0.012 A 
ATOM     78  C   UNL A   1      41.777  24.984  27.715  1.00  0.00     0.148 A 
ATOM     79  C   UNL A   1      43.552  26.092  25.847  1.00  0.00     0.002 A 
ATOM     80  C   UNL A   1      42.267  24.211  26.668  1.00  0.00     0.091 A 
ATOM     81  F   UNL A   1      40.903  24.490  28.604  1.00  0.00    -0.205 F 
ATOM     82  C   UNL A   1      43.146  24.767  25.724  1.00  0.00     0.022 A 
BRANCH  80  83
ATOM     83  S   UNL A   1      41.888  22.459  26.536  1.00  0.00     0.127 S 
ATOM     84  O   UNL A   1      42.446  21.934  27.778  1.00  0.00    -0.237 OA
ATOM     85  O   UNL A   1      40.426  22.456  26.468  1.00  0.00    -0.237 OA
ATOM     86  O   UNL A   1      42.536  22.027  25.304  1.00  0.00    -0.744 OA
ENDBRANCH  80  83
ENDBRANCH  52  76
BRANCH  64  87
ATOM     87  C   UNL A   1      44.713  27.359  34.292  1.00  0.00     0.023 A 
ATOM     88  C   UNL A   1      45.917  28.088  34.251  1.00  0.00     0.012 A 
ATOM     89  C   UNL A   1      44.634  26.193  35.078  1.00  0.00     0.148 A 
ATOM     90  C   UNL A   1      47.032  27.654  34.965  1.00  0.00     0.002 A 
ATOM     91  C   UNL A   1      45.740  25.786  35.817  1.00  0.00     0.091 A 
ATOM     92  F   UNL A   1      43.487  25.498  35.085  1.00  0.00    -0.205 F 
ATOM     93  C   UNL A   1      46.940  26.511  35.757  1.00  0.00     0.022 A 
BRANCH  91  94
ATOM     94  S   UNL A   1      45.672  24.371  36.922  1.00  0.00     0.127 S 
ATOM     95  O   UNL A   1      47.056  24.282  37.383  1.00  0.00    -0.237 OA
ATOM     96  O   UNL A   1      44.718  24.808  37.942  1.00  0.00    -0.237 OA
ATOM     97  O   UNL A   1      45.203  23.259  36.104  1.00  0.00    -0.744 OA
ENDBRANCH  91  94
ENDBRANCH  64  87
ENDBRANCH  38  39
ENDBRANCH  30  33
ENDBRANCH  28  29
ENDBRANCH  27  28
ENDBRANCH   1  27
TORSDOF 20
ENDMDL
MODEL 3
REMARK VINA RESULT:     -11.1      1.925      7.924
REMARK SMILES CCC[C@H](NC(=O)c1cc2ccccc2[nH]1)C(=O)NCCCCCCNC(=O)c1ccc(-c2c3nc(c(-c4cccc(S(=O)(=O)[O-])c4F)c4ccc([nH]4)c(-c4cccc(S(=O)(=O)[O-])c4F)c4nc(c(-c5cccc(S(=O)(=O)[O-])c5F)c5ccc2[nH]5)C=C4)C=C3)cc1
REMARK SMILES IDX 23 1 22 2 21 3 20 4 19 5 17 6 18 7 4 9 3 10 2 11 1 12 5 13
REMARK SMILES IDX 6 14 7 16 8 17 9 18 16 19 10 20 15 21 11 23 14 24 12 25
REMARK SMILES IDX 13 26 24 27 25 28 26 29 27 30 28 32 29 33 30 34 91 35 31 36
REMARK SMILES IDX 90 37 32 38 33 39 34 40 84 41 35 42 89 43 83 44 85 45 36 46
REMARK SMILES IDX 88 47 82 48 81 49 37 51 69 52 49 53 68 54 50 55 53 56 67 57
REMARK SMILES IDX 86 58 51 59 52 60 66 62 87 63 54 64 38 65 39 66 47 67 40 68
REMARK SMILES IDX 42 69 48 70 41 71 43 72 44 73 45 74 46 75 70 76 71 77 79 78
REMARK SMILES IDX 72 79 74 80 80 81 73 82 75 83 76 84 77 85 78 86 55 87 56 88
REMARK SMILES IDX 64 89 57 90 59 91 65 92 58 93 60 94 61 95 62 96 63 97
REMARK H PARENT 19 8 5 15 16 22 26 31 85 50 53 61
REMARK Flexibility Score: inf
ROOT
ATOM      1  C   UNL A   1      35.122  22.043  24.244  1.00  0.00     0.002 C 
ENDROOT
BRANCH   1   2
ATOM      2  C   UNL A   1      33.657  22.400  23.971  1.00  0.00     0.002 C 
BRANCH   2   3
ATOM      3  C   UNL A   1      32.672  22.099  25.102  1.00  0.00     0.021 C 
BRANCH   3   4
ATOM      4  C   UNL A   1      32.487  23.225  26.112  1.00  0.00     0.116 C 
BRANCH   4   5
ATOM      5  N   UNL A   1      31.229  23.920  25.954  1.00  0.00    -0.354 N 
ATOM      6  C   UNL A   1      30.996  25.264  25.929  1.00  0.00     0.242 C 
ATOM      7  O   UNL A   1      29.823  25.645  25.842  1.00  0.00    -0.273 OA
ATOM      8  H   UNL A   1      30.435  23.347  25.852  1.00  0.00     0.163 HD
BRANCH   6   9
ATOM      9  C   UNL A   1      32.141  26.298  26.067  1.00  0.00     0.171 C 
BRANCH   9  10
ATOM     10  C   UNL A   1      31.644  27.617  26.701  1.00  0.00     0.035 C 
BRANCH  10  11
ATOM     11  C   UNL A   1      32.626  28.457  27.531  1.00  0.00    -0.001 C 
ATOM     12  C   UNL A   1      33.784  29.025  26.721  1.00  0.00     0.004 C 
ENDBRANCH  10  11
ENDBRANCH   9  10
BRANCH   9  13
ATOM     13  N   UNL A   1      32.849  26.410  24.799  1.00  0.00    -0.339 N 
ATOM     14  C   UNL A   1      32.524  27.094  23.656  1.00  0.00     0.268 C 
ATOM     15  H   UNL A   1      33.699  25.914  24.756  1.00  0.00     0.164 HD
ATOM     16  O   UNL A   1      33.264  26.923  22.690  1.00  0.00    -0.268 OA
BRANCH  14  17
ATOM     17  C   UNL A   1      31.347  27.933  23.582  1.00  0.00     0.105 A 
ATOM     18  C   UNL A   1      30.102  27.554  23.095  1.00  0.00     0.042 A 
ATOM     19  N   UNL A   1      31.238  29.274  23.877  1.00  0.00    -0.351 N 
ATOM     20  C   UNL A   1      29.222  28.664  23.154  1.00  0.00     0.000 A 
ATOM     21  C   UNL A   1      29.960  29.735  23.647  1.00  0.00     0.046 A 
ATOM     22  H   UNL A   1      31.977  29.832  24.209  1.00  0.00     0.167 HD
ATOM     23  C   UNL A   1      27.868  28.868  22.825  1.00  0.00     0.010 A 
ATOM     24  C   UNL A   1      29.416  31.011  23.828  1.00  0.00     0.026 A 
ATOM     25  C   UNL A   1      27.304  30.137  23.005  1.00  0.00     0.001 A 
ATOM     26  C   UNL A   1      28.070  31.192  23.498  1.00  0.00     0.002 A 
ENDBRANCH  14  17
ENDBRANCH   9  13
ENDBRANCH   6   9
ENDBRANCH   4   5
ENDBRANCH   3   4
ENDBRANCH   2   3
ENDBRANCH   1   2
BRANCH   1  27
ATOM     27  C   UNL A   1      36.067  23.214  24.536  1.00  0.00     0.021 C 
BRANCH  27  28
ATOM     28  C   UNL A   1      36.658  23.265  25.945  1.00  0.00     0.116 C 
BRANCH  28  29
ATOM     29  N   UNL A   1      37.808  22.393  26.103  1.00  0.00    -0.352 N 
ATOM     30  C   UNL A   1      39.103  22.690  26.447  1.00  0.00     0.251 C 
ATOM     31  H   UNL A   1      37.630  21.439  25.938  1.00  0.00     0.163 HD
ATOM     32  O   UNL A   1      39.956  21.807  26.388  1.00  0.00    -0.269 OA
BRANCH  30  33
ATOM     33  C   UNL A   1      39.490  24.058  26.865  1.00  0.00     0.039 A 
ATOM     34  C   UNL A   1      39.270  24.435  28.194  1.00  0.00     0.014 A 
ATOM     35  C   UNL A   1      40.018  24.983  25.959  1.00  0.00     0.014 A 
ATOM     36  C   UNL A   1      39.629  25.716  28.628  1.00  0.00     0.010 A 
ATOM     37  C   UNL A   1      40.423  26.242  26.404  1.00  0.00     0.010 A 
ATOM     38  C   UNL A   1      40.229  26.622  27.742  1.00  0.00    -0.014 A 
BRANCH  38  39
ATOM     39  C   UNL A   1      40.671  27.965  28.197  1.00  0.00     0.031 A 
ATOM     40  C   UNL A   1      42.134  28.314  28.231  1.00  0.00     0.074 A 
ATOM     41  C   UNL A   1      39.760  28.844  28.657  1.00  0.00     0.049 A 
ATOM     42  N   UNL A   1      42.710  29.409  28.657  1.00  0.00    -0.248 NA
ATOM     43  C   UNL A   1      43.075  27.293  27.741  1.00  0.00     0.031 C 
ATOM     44  C   UNL A   1      38.318  28.601  28.737  1.00  0.00     0.029 A 
ATOM     45  N   UNL A   1      39.912  30.107  29.170  1.00  0.00    -0.354 N 
ATOM     46  C   UNL A   1      44.076  29.198  28.521  1.00  0.00     0.074 A 
ATOM     47  C   UNL A   1      44.246  27.863  27.990  1.00  0.00     0.031 C 
ATOM     48  C   UNL A   1      37.721  29.678  29.272  1.00  0.00     0.029 A 
ATOM     49  C   UNL A   1      38.734  30.680  29.589  1.00  0.00     0.049 A 
ATOM     50  H   UNL A   1      40.783  30.562  29.233  1.00  0.00     0.167 HD
ATOM     51  C   UNL A   1      45.096  30.049  28.784  1.00  0.00     0.034 A 
ATOM     52  C   UNL A   1      38.496  31.875  30.163  1.00  0.00     0.034 A 
ATOM     53  C   UNL A   1      44.926  31.397  29.255  1.00  0.00     0.049 A 
ATOM     54  C   UNL A   1      39.642  32.822  30.394  1.00  0.00     0.074 A 
ATOM     55  C   UNL A   1      45.895  32.360  29.477  1.00  0.00     0.029 A 
ATOM     56  N   UNL A   1      43.709  31.976  29.572  1.00  0.00    -0.354 N 
ATOM     57  N   UNL A   1      40.913  32.658  30.116  1.00  0.00    -0.248 NA
ATOM     58  C   UNL A   1      39.319  34.130  30.983  1.00  0.00     0.031 C 
ATOM     59  C   UNL A   1      45.262  33.525  29.924  1.00  0.00     0.029 A 
ATOM     60  C   UNL A   1      43.899  33.284  29.984  1.00  0.00     0.049 A 
ATOM     61  H   UNL A   1      42.836  31.523  29.514  1.00  0.00     0.167 HD
ATOM     62  C   UNL A   1      41.536  33.851  30.467  1.00  0.00     0.074 A 
ATOM     63  C   UNL A   1      40.500  34.735  30.959  1.00  0.00     0.031 C 
ATOM     64  C   UNL A   1      42.850  34.175  30.406  1.00  0.00     0.034 A 
BRANCH  51  65
ATOM     65  C   UNL A   1      46.494  29.573  28.492  1.00  0.00     0.023 A 
ATOM     66  C   UNL A   1      47.064  29.860  27.236  1.00  0.00     0.012 A 
ATOM     67  C   UNL A   1      47.260  28.903  29.464  1.00  0.00     0.148 A 
ATOM     68  C   UNL A   1      48.368  29.468  26.942  1.00  0.00     0.002 A 
ATOM     69  C   UNL A   1      48.572  28.543  29.175  1.00  0.00     0.091 A 
ATOM     70  F   UNL A   1      46.690  28.614  30.644  1.00  0.00    -0.205 F 
ATOM     71  C   UNL A   1      49.125  28.819  27.915  1.00  0.00     0.022 A 
BRANCH  69  72
ATOM     72  S   UNL A   1      49.641  27.759  30.389  1.00  0.00     0.127 S 
ATOM     73  O   UNL A   1      49.874  28.854  31.329  1.00  0.00    -0.237 OA
ATOM     74  O   UNL A   1      48.793  26.683  30.905  1.00  0.00    -0.237 OA
ATOM     75  O   UNL A   1      50.808  27.302  29.649  1.00  0.00    -0.744 OA
ENDBRANCH  69  72
ENDBRANCH  51  65
BRANCH  52  76
ATOM     76  C   UNL A   1      37.096  32.279  30.475  1.00  0.00     0.023 A 
ATOM     77  C   UNL A   1      36.611  32.109  31.786  1.00  0.00     0.012 A 
ATOM     78  C   UNL A   1      36.263  32.868  29.506  1.00  0.00     0.148 A 
ATOM     79  C   UNL A   1      35.314  32.498  32.120  1.00  0.00     0.002 A 
ATOM     80  C   UNL A   1      34.987  33.299  29.858  1.00  0.00     0.091 A 
ATOM     81  F   UNL A   1      36.730  33.003  28.257  1.00  0.00    -0.205 F 
ATOM     82  C   UNL A   1      34.506  33.103  31.162  1.00  0.00     0.022 A 
BRANCH  80  83
ATOM     83  S   UNL A   1      33.952  34.208  28.705  1.00  0.00     0.127 S 
ATOM     84  O   UNL A   1      33.624  33.183  27.719  1.00  0.00    -0.237 OA
ATOM     85  O   UNL A   1      32.834  34.631  29.550  1.00  0.00    -0.237 OA
ATOM     86  O   UNL A   1      34.788  35.309  28.239  1.00  0.00    -0.744 OA
ENDBRANCH  80  83
ENDBRANCH  52  76
BRANCH  64  87
ATOM     87  C   UNL A   1      43.251  35.551  30.865  1.00  0.00     0.023 A 
ATOM     88  C   UNL A   1      43.594  35.754  32.215  1.00  0.00     0.012 A 
ATOM     89  C   UNL A   1      43.368  36.616  29.951  1.00  0.00     0.148 A 
ATOM     90  C   UNL A   1      44.029  37.003  32.654  1.00  0.00     0.002 A 
ATOM     91  C   UNL A   1      43.838  37.850  30.389  1.00  0.00     0.091 A 
ATOM     92  F   UNL A   1      43.013  36.409  28.674  1.00  0.00    -0.205 F 
ATOM     93  C   UNL A   1      44.163  38.047  31.740  1.00  0.00     0.022 A 
BRANCH  91  94
ATOM     94  S   UNL A   1      44.113  39.215  29.255  1.00  0.00     0.127 S 
ATOM     95  O   UNL A   1      44.595  40.261  30.155  1.00  0.00    -0.237 OA
ATOM     96  O   UNL A   1      45.128  38.678  28.348  1.00  0.00    -0.237 OA
ATOM     97  O   UNL A   1      42.822  39.465  28.625  1.00  0.00    -0.744 OA
ENDBRANCH  91  94
ENDBRANCH  64  87
ENDBRANCH  38  39
ENDBRANCH  30  33
ENDBRANCH  28  29
ENDBRANCH  27  28
ENDBRANCH   1  27
TORSDOF 20
ENDMDL
