MODEL 1
REMARK VINA RESULT:     -10.6      0.000      0.000
REMARK SMILES Cc1ccccc1C(=O)Nc1ccc(N2CCC(n3c(C)nc4cccnc43)CC2)c(C(=O)NCCCCCCNC(=O)c2ccc(-c3c4nc(c(-c5cccc(S(=O)(=O)[O-])c5F)c5ccc([nH]5)c(-c5cccc(S(=O)(=O)[O-])c5F)c5nc(c(-c6cccc(S(=O)(=O)[O-])c6F)c6ccc3[nH]6)C=C5)C=C4)cc2)c1
REMARK SMILES IDX 38 1 37 2 36 3 35 4 34 5 32 6 33 7 31 9 11 10 12 11 107 12
REMARK SMILES IDX 13 13 14 14 10 15 8 16 9 17 7 19 1 20 2 21 3 22 4 23 6 24
REMARK SMILES IDX 5 25 15 26 16 27 30 28 17 29 29 30 18 31 19 32 20 33 28 34
REMARK SMILES IDX 21 35 22 36 23 37 27 38 24 39 26 40 25 41 39 42 40 43 41 44
REMARK SMILES IDX 42 45 43 47 44 48 45 49 106 50 46 51 105 52 47 53 48 54
REMARK SMILES IDX 49 55 99 56 50 57 104 58 98 59 100 60 51 61 103 62 97 63
REMARK SMILES IDX 96 64 52 66 84 67 64 68 83 69 65 70 68 71 82 72 101 73 66 74
REMARK SMILES IDX 67 75 81 77 102 78 69 79 53 80 54 81 62 82 55 83 57 84 63 85
REMARK SMILES IDX 56 86 58 87 59 88 60 89 61 90 85 91 86 92 94 93 87 94 89 95
REMARK SMILES IDX 95 96 88 97 90 98 91 99 92 100 93 101 70 102 71 103 79 104
REMARK SMILES IDX 72 105 74 106 80 107 73 108 75 109 76 110 77 111 78 112
REMARK H PARENT 34 8 10 18 41 46 100 65 68 76
REMARK Flexibility Score: inf
ROOT
ATOM      1  C   UNL A   1      36.820  29.095  28.307  1.00  0.00     0.002 C 
ENDROOT
BRANCH   1   2
ATOM      2  C   UNL A   1      38.127  29.834  27.983  1.00  0.00     0.002 C 
BRANCH   2   3
ATOM      3  C   UNL A   1      39.093  29.381  26.879  1.00  0.00     0.021 C 
BRANCH   3   4
ATOM      4  C   UNL A   1      40.470  28.831  27.219  1.00  0.00     0.116 C 
BRANCH   4   5
ATOM      5  N   UNL A   1      40.825  27.518  26.751  1.00  0.00    -0.352 N 
ATOM      6  C   UNL A   1      42.081  27.002  26.491  1.00  0.00     0.253 C 
ATOM      7  O   UNL A   1      42.135  25.798  26.219  1.00  0.00    -0.269 OA
ATOM      8  H   UNL A   1      40.073  26.902  26.596  1.00  0.00     0.163 HD
BRANCH   6   9
ATOM      9  C   UNL A   1      43.370  27.796  26.462  1.00  0.00     0.065 A 
ATOM     10  C   UNL A   1      45.563  27.877  25.355  1.00  0.00     0.042 A 
ATOM     11  C   UNL A   1      45.947  28.942  26.143  1.00  0.00     0.028 A 
ATOM     12  C   UNL A   1      44.238  27.423  25.401  1.00  0.00     0.042 A 
ATOM     13  C   UNL A   1      45.085  29.376  27.150  1.00  0.00     0.029 A 
ATOM     14  C   UNL A   1      43.868  28.704  27.430  1.00  0.00     0.050 A 
BRANCH  10  15
ATOM     15  N   UNL A   1      46.483  27.136  24.603  1.00  0.00    -0.322 N 
ATOM     16  C   UNL A   1      46.984  25.858  24.793  1.00  0.00     0.255 C 
ATOM     17  O   UNL A   1      47.923  25.505  24.070  1.00  0.00    -0.269 OA
ATOM     18  H   UNL A   1      46.832  27.600  23.807  1.00  0.00     0.170 HD
BRANCH  16  19
ATOM     19  C   UNL A   1      46.424  24.838  25.750  1.00  0.00     0.043 A 
ATOM     20  C   UNL A   1      45.959  22.924  24.078  1.00  0.00     0.045 C 
ATOM     21  C   UNL A   1      45.939  23.551  25.437  1.00  0.00    -0.038 A 
ATOM     22  C   UNL A   1      45.429  22.729  26.466  1.00  0.00     0.004 A 
ATOM     23  C   UNL A   1      45.536  23.093  27.803  1.00  0.00     0.000 A 
ATOM     24  C   UNL A   1      46.556  25.167  27.116  1.00  0.00     0.014 A 
ATOM     25  C   UNL A   1      46.138  24.297  28.130  1.00  0.00     0.001 A 
ENDBRANCH  16  19
ENDBRANCH  10  15
BRANCH  14  26
ATOM     26  N   UNL A   1      43.434  28.800  28.757  1.00  0.00    -0.371 N 
ATOM     27  C   UNL A   1      43.425  27.611  29.602  1.00  0.00     0.118 C 
ATOM     28  C   UNL A   1      43.098  30.121  29.263  1.00  0.00     0.118 C 
ATOM     29  C   UNL A   1      42.408  27.665  30.732  1.00  0.00     0.047 C 
ATOM     30  C   UNL A   1      41.975  30.070  30.281  1.00  0.00     0.047 C 
ATOM     31  C   UNL A   1      42.224  29.044  31.390  1.00  0.00     0.094 C 
BRANCH  31  32
ATOM     32  N   UNL A   1      41.255  29.049  32.504  1.00  0.00    -0.310 N 
ATOM     33  C   UNL A   1      39.911  28.679  32.528  1.00  0.00     0.108 A 
ATOM     34  C   UNL A   1      41.490  29.682  33.717  1.00  0.00     0.160 A 
ATOM     35  C   UNL A   1      39.185  27.838  31.543  1.00  0.00     0.088 C 
ATOM     36  N   UNL A   1      39.297  29.157  33.595  1.00  0.00    -0.232 NA
ATOM     37  C   UNL A   1      40.252  29.787  34.331  1.00  0.00     0.108 A 
ATOM     38  N   UNL A   1      42.661  30.136  34.205  1.00  0.00    -0.237 NA
ATOM     39  C   UNL A   1      40.168  30.477  35.545  1.00  0.00     0.034 A 
ATOM     40  C   UNL A   1      42.539  30.761  35.402  1.00  0.00     0.113 A 
ATOM     41  C   UNL A   1      41.350  30.983  36.081  1.00  0.00     0.022 A 
ENDBRANCH  31  32
ENDBRANCH  14  26
ENDBRANCH   6   9
ENDBRANCH   4   5
ENDBRANCH   3   4
ENDBRANCH   2   3
ENDBRANCH   1   2
BRANCH   1  42
ATOM     42  C   UNL A   1      35.487  29.728  27.931  1.00  0.00     0.021 C 
BRANCH  42  43
ATOM     43  C   UNL A   1      35.395  31.251  27.941  1.00  0.00     0.116 C 
BRANCH  43  44
ATOM     44  N   UNL A   1      34.699  31.812  29.108  1.00  0.00    -0.352 N 
ATOM     45  C   UNL A   1      35.236  32.393  30.255  1.00  0.00     0.251 C 
ATOM     46  H   UNL A   1      33.716  31.770  29.075  1.00  0.00     0.163 HD
ATOM     47  O   UNL A   1      34.498  32.837  31.132  1.00  0.00    -0.269 OA
BRANCH  45  48
ATOM     48  C   UNL A   1      36.705  32.509  30.367  1.00  0.00     0.039 A 
ATOM     49  C   UNL A   1      37.458  31.482  30.934  1.00  0.00     0.014 A 
ATOM     50  C   UNL A   1      37.271  33.757  30.165  1.00  0.00     0.014 A 
ATOM     51  C   UNL A   1      38.648  31.805  31.586  1.00  0.00     0.010 A 
ATOM     52  C   UNL A   1      38.410  34.102  30.849  1.00  0.00     0.010 A 
ATOM     53  C   UNL A   1      39.032  33.143  31.645  1.00  0.00    -0.014 A 
BRANCH  53  54
ATOM     54  C   UNL A   1      39.980  33.684  32.603  1.00  0.00     0.031 A 
ATOM     55  C   UNL A   1      39.509  34.339  33.826  1.00  0.00     0.074 A 
ATOM     56  C   UNL A   1      41.296  33.447  32.402  1.00  0.00     0.049 A 
ATOM     57  N   UNL A   1      40.174  35.247  34.451  1.00  0.00    -0.248 NA
ATOM     58  C   UNL A   1      38.225  34.014  34.431  1.00  0.00     0.031 C 
ATOM     59  C   UNL A   1      42.386  33.583  33.357  1.00  0.00     0.029 A 
ATOM     60  N   UNL A   1      41.937  33.188  31.184  1.00  0.00    -0.354 N 
ATOM     61  C   UNL A   1      39.549  35.436  35.665  1.00  0.00     0.074 A 
ATOM     62  C   UNL A   1      38.299  34.714  35.567  1.00  0.00     0.031 C 
ATOM     63  C   UNL A   1      43.544  33.669  32.681  1.00  0.00     0.029 A 
ATOM     64  C   UNL A   1      43.212  33.773  31.268  1.00  0.00     0.049 A 
ATOM     65  H   UNL A   1      41.567  32.692  30.419  1.00  0.00     0.167 HD
ATOM     66  C   UNL A   1      40.238  36.023  36.683  1.00  0.00     0.034 A 
ATOM     67  C   UNL A   1      43.662  34.736  30.409  1.00  0.00     0.034 A 
ATOM     68  C   UNL A   1      41.610  36.347  36.268  1.00  0.00     0.049 A 
ATOM     69  C   UNL A   1      44.038  36.022  31.119  1.00  0.00     0.074 A 
ATOM     70  C   UNL A   1      42.801  35.649  36.402  1.00  0.00     0.029 A 
ATOM     71  N   UNL A   1      41.848  37.352  35.337  1.00  0.00    -0.354 N 
ATOM     72  N   UNL A   1      43.807  36.264  32.378  1.00  0.00    -0.248 NA
ATOM     73  C   UNL A   1      44.645  37.163  30.438  1.00  0.00     0.031 C 
ATOM     74  C   UNL A   1      43.742  36.203  35.500  1.00  0.00     0.029 A 
ATOM     75  C   UNL A   1      43.138  37.255  34.832  1.00  0.00     0.049 A 
ATOM     76  H   UNL A   1      41.193  38.038  35.073  1.00  0.00     0.167 HD
ATOM     77  C   UNL A   1      44.034  37.592  32.640  1.00  0.00     0.074 A 
ATOM     78  C   UNL A   1      44.656  38.080  31.420  1.00  0.00     0.031 C 
ATOM     79  C   UNL A   1      43.616  38.181  33.807  1.00  0.00     0.034 A 
BRANCH  66  80
ATOM     80  C   UNL A   1      39.811  35.936  38.139  1.00  0.00     0.023 A 
ATOM     81  C   UNL A   1      39.348  37.124  38.750  1.00  0.00     0.012 A 
ATOM     82  C   UNL A   1      39.883  34.795  38.972  1.00  0.00     0.148 A 
ATOM     83  C   UNL A   1      39.089  37.216  40.120  1.00  0.00     0.002 A 
ATOM     84  C   UNL A   1      39.689  34.901  40.355  1.00  0.00     0.091 A 
ATOM     85  F   UNL A   1      40.075  33.590  38.424  1.00  0.00    -0.205 F 
ATOM     86  C   UNL A   1      39.298  36.113  40.931  1.00  0.00     0.022 A 
BRANCH  84  87
ATOM     87  S   UNL A   1      40.025  33.546  41.493  1.00  0.00     0.127 S 
ATOM     88  O   UNL A   1      41.422  33.226  41.189  1.00  0.00    -0.237 OA
ATOM     89  O   UNL A   1      39.817  34.169  42.798  1.00  0.00    -0.237 OA
ATOM     90  O   UNL A   1      39.088  32.486  41.141  1.00  0.00    -0.744 OA
ENDBRANCH  84  87
ENDBRANCH  66  80
BRANCH  67  91
ATOM     91  C   UNL A   1      43.011  34.691  29.062  1.00  0.00     0.023 A 
ATOM     92  C   UNL A   1      42.051  35.688  28.774  1.00  0.00     0.012 A 
ATOM     93  C   UNL A   1      43.616  34.008  27.998  1.00  0.00     0.148 A 
ATOM     94  C   UNL A   1      41.873  36.144  27.466  1.00  0.00     0.002 A 
ATOM     95  C   UNL A   1      43.418  34.456  26.694  1.00  0.00     0.091 A 
ATOM     96  F   UNL A   1      44.438  32.986  28.264  1.00  0.00    -0.205 F 
ATOM     97  C   UNL A   1      42.601  35.564  26.431  1.00  0.00     0.022 A 
BRANCH  95  98
ATOM     98  S   UNL A   1      44.306  33.678  25.343  1.00  0.00     0.127 S 
ATOM     99  O   UNL A   1      45.681  34.069  25.631  1.00  0.00    -0.237 OA
ATOM    100  O   UNL A   1      44.021  32.257  25.539  1.00  0.00    -0.237 OA
ATOM    101  O   UNL A   1      43.696  34.249  24.151  1.00  0.00    -0.744 OA
ENDBRANCH  95  98
ENDBRANCH  67  91
BRANCH  79 102
ATOM    102  C   UNL A   1      43.630  39.674  34.097  1.00  0.00     0.023 A 
ATOM    103  C   UNL A   1      44.231  40.220  35.248  1.00  0.00     0.012 A 
ATOM    104  C   UNL A   1      43.122  40.610  33.155  1.00  0.00     0.148 A 
ATOM    105  C   UNL A   1      44.246  41.596  35.505  1.00  0.00     0.002 A 
ATOM    106  C   UNL A   1      43.249  41.983  33.357  1.00  0.00     0.091 A 
ATOM    107  F   UNL A   1      42.480  40.177  32.061  1.00  0.00    -0.205 F 
ATOM    108  C   UNL A   1      43.772  42.480  34.551  1.00  0.00     0.022 A 
BRANCH 106 109
ATOM    109  S   UNL A   1      42.885  43.158  32.045  1.00  0.00     0.127 S 
ATOM    110  O   UNL A   1      42.199  44.222  32.774  1.00  0.00    -0.237 OA
ATOM    111  O   UNL A   1      44.221  43.514  31.565  1.00  0.00    -0.237 OA
ATOM    112  O   UNL A   1      42.084  42.418  31.080  1.00  0.00    -0.744 OA
ENDBRANCH 106 109
ENDBRANCH  79 102
ENDBRANCH  53  54
ENDBRANCH  45  48
ENDBRANCH  43  44
ENDBRANCH  42  43
ENDBRANCH   1  42
TORSDOF 20
ENDMDL
MODEL 2
REMARK VINA RESULT:      -9.9      6.148     14.514
REMARK SMILES Cc1ccccc1C(=O)Nc1ccc(N2CCC(n3c(C)nc4cccnc43)CC2)c(C(=O)NCCCCCCNC(=O)c2ccc(-c3c4nc(c(-c5cccc(S(=O)(=O)[O-])c5F)c5ccc([nH]5)c(-c5cccc(S(=O)(=O)[O-])c5F)c5nc(c(-c6cccc(S(=O)(=O)[O-])c6F)c6ccc3[nH]6)C=C5)C=C4)cc2)c1
REMARK SMILES IDX 38 1 37 2 36 3 35 4 34 5 32 6 33 7 31 9 11 10 12 11 107 12
REMARK SMILES IDX 13 13 14 14 10 15 8 16 9 17 7 19 1 20 2 21 3 22 4 23 6 24
REMARK SMILES IDX 5 25 15 26 16 27 30 28 17 29 29 30 18 31 19 32 20 33 28 34
REMARK SMILES IDX 21 35 22 36 23 37 27 38 24 39 26 40 25 41 39 42 40 43 41 44
REMARK SMILES IDX 42 45 43 47 44 48 45 49 106 50 46 51 105 52 47 53 48 54
REMARK SMILES IDX 49 55 99 56 50 57 104 58 98 59 100 60 51 61 103 62 97 63
REMARK SMILES IDX 96 64 52 66 84 67 64 68 83 69 65 70 68 71 82 72 101 73 66 74
REMARK SMILES IDX 67 75 81 77 102 78 69 79 53 80 54 81 62 82 55 83 57 84 63 85
REMARK SMILES IDX 56 86 58 87 59 88 60 89 61 90 85 91 86 92 94 93 87 94 89 95
REMARK SMILES IDX 95 96 88 97 90 98 91 99 92 100 93 101 70 102 71 103 79 104
REMARK SMILES IDX 72 105 74 106 80 107 73 108 75 109 76 110 77 111 78 112
REMARK H PARENT 34 8 10 18 41 46 100 65 68 76
REMARK Flexibility Score: inf
ROOT
ATOM      1  C   UNL A   1      46.915  37.262  28.573  1.00  0.00     0.002 C 
ENDROOT
BRANCH   1   2
ATOM      2  C   UNL A   1      47.541  38.647  28.355  1.00  0.00     0.002 C 
BRANCH   2   3
ATOM      3  C   UNL A   1      46.752  39.845  27.810  1.00  0.00     0.021 C 
BRANCH   3   4
ATOM      4  C   UNL A   1      46.535  40.028  26.315  1.00  0.00     0.116 C 
BRANCH   4   5
ATOM      5  N   UNL A   1      45.222  40.381  25.844  1.00  0.00    -0.352 N 
ATOM      6  C   UNL A   1      44.625  41.627  25.800  1.00  0.00     0.253 C 
ATOM      7  O   UNL A   1      43.530  41.692  25.230  1.00  0.00    -0.269 OA
ATOM      8  H   UNL A   1      44.675  39.635  25.507  1.00  0.00     0.163 HD
BRANCH   6   9
ATOM      9  C   UNL A   1      45.172  42.889  26.432  1.00  0.00     0.065 A 
ATOM     10  C   UNL A   1      45.023  44.247  28.476  1.00  0.00     0.042 A 
ATOM     11  C   UNL A   1      45.876  45.189  27.938  1.00  0.00     0.028 A 
ATOM     12  C   UNL A   1      44.811  43.040  27.797  1.00  0.00     0.042 A 
ATOM     13  C   UNL A   1      46.304  45.032  26.621  1.00  0.00     0.029 A 
ATOM     14  C   UNL A   1      45.825  43.978  25.801  1.00  0.00     0.050 A 
BRANCH  10  15
ATOM     15  N   UNL A   1      44.248  44.504  29.613  1.00  0.00    -0.322 N 
ATOM     16  C   UNL A   1      43.836  43.664  30.634  1.00  0.00     0.255 C 
ATOM     17  O   UNL A   1      43.008  44.111  31.436  1.00  0.00    -0.269 OA
ATOM     18  H   UNL A   1      43.947  45.438  29.702  1.00  0.00     0.170 HD
BRANCH  16  19
ATOM     19  C   UNL A   1      44.375  42.281  30.893  1.00  0.00     0.043 A 
ATOM     20  C   UNL A   1      42.460  40.895  29.849  1.00  0.00     0.045 C 
ATOM     21  C   UNL A   1      43.758  41.052  30.578  1.00  0.00    -0.038 A 
ATOM     22  C   UNL A   1      44.405  39.841  30.912  1.00  0.00     0.004 A 
ATOM     23  C   UNL A   1      45.705  39.827  31.403  1.00  0.00     0.000 A 
ATOM     24  C   UNL A   1      45.708  42.237  31.354  1.00  0.00     0.014 A 
ATOM     25  C   UNL A   1      46.372  41.027  31.586  1.00  0.00     0.001 A 
ENDBRANCH  16  19
ENDBRANCH  10  15
BRANCH  14  26
ATOM     26  N   UNL A   1      45.803  44.260  24.431  1.00  0.00    -0.371 N 
ATOM     27  C   UNL A   1      45.066  45.422  23.946  1.00  0.00     0.118 C 
ATOM     28  C   UNL A   1      46.605  43.423  23.556  1.00  0.00     0.118 C 
ATOM     29  C   UNL A   1      44.588  45.294  22.507  1.00  0.00     0.047 C 
ATOM     30  C   UNL A   1      45.964  43.249  22.192  1.00  0.00     0.047 C 
ATOM     31  C   UNL A   1      45.560  44.579  21.551  1.00  0.00     0.094 C 
BRANCH  31  32
ATOM     32  N   UNL A   1      45.077  44.504  20.158  1.00  0.00    -0.310 N 
ATOM     33  C   UNL A   1      45.642  44.997  18.983  1.00  0.00     0.108 A 
ATOM     34  C   UNL A   1      43.792  44.106  19.815  1.00  0.00     0.160 A 
ATOM     35  C   UNL A   1      47.051  45.409  18.758  1.00  0.00     0.088 C 
ATOM     36  N   UNL A   1      44.756  45.050  18.004  1.00  0.00    -0.232 NA
ATOM     37  C   UNL A   1      43.609  44.516  18.505  1.00  0.00     0.108 A 
ATOM     38  N   UNL A   1      42.882  43.479  20.587  1.00  0.00    -0.237 NA
ATOM     39  C   UNL A   1      42.352  44.330  17.918  1.00  0.00     0.034 A 
ATOM     40  C   UNL A   1      41.693  43.282  19.965  1.00  0.00     0.113 A 
ATOM     41  C   UNL A   1      41.372  43.703  18.683  1.00  0.00     0.022 A 
ENDBRANCH  31  32
ENDBRANCH  14  26
ENDBRANCH   6   9
ENDBRANCH   4   5
ENDBRANCH   3   4
ENDBRANCH   2   3
ENDBRANCH   1   2
BRANCH   1  42
ATOM     42  C   UNL A   1      46.792  36.300  27.399  1.00  0.00     0.021 C 
BRANCH  42  43
ATOM     43  C   UNL A   1      45.397  36.043  26.834  1.00  0.00     0.116 C 
BRANCH  43  44
ATOM     44  N   UNL A   1      44.578  37.251  26.662  1.00  0.00    -0.352 N 
ATOM     45  C   UNL A   1      43.415  37.626  27.331  1.00  0.00     0.251 C 
ATOM     46  H   UNL A   1      44.895  37.884  25.978  1.00  0.00     0.163 HD
ATOM     47  O   UNL A   1      42.866  38.696  27.076  1.00  0.00    -0.269 OA
BRANCH  45  48
ATOM     48  C   UNL A   1      42.889  36.735  28.387  1.00  0.00     0.039 A 
ATOM     49  C   UNL A   1      43.499  36.679  29.639  1.00  0.00     0.014 A 
ATOM     50  C   UNL A   1      41.974  35.764  28.014  1.00  0.00     0.014 A 
ATOM     51  C   UNL A   1      43.435  35.489  30.363  1.00  0.00     0.010 A 
ATOM     52  C   UNL A   1      41.947  34.567  28.686  1.00  0.00     0.010 A 
ATOM     53  C   UNL A   1      42.765  34.403  29.801  1.00  0.00    -0.014 A 
BRANCH  53  54
ATOM     54  C   UNL A   1      42.953  33.022  30.209  1.00  0.00     0.031 A 
ATOM     55  C   UNL A   1      44.014  32.208  29.610  1.00  0.00     0.074 A 
ATOM     56  C   UNL A   1      42.216  32.556  31.242  1.00  0.00     0.049 A 
ATOM     57  N   UNL A   1      43.960  30.926  29.510  1.00  0.00    -0.248 NA
ATOM     58  C   UNL A   1      45.227  32.800  29.064  1.00  0.00     0.031 C 
ATOM     59  C   UNL A   1      42.444  31.358  32.036  1.00  0.00     0.029 A 
ATOM     60  N   UNL A   1      40.967  33.021  31.673  1.00  0.00    -0.354 N 
ATOM     61  C   UNL A   1      45.217  30.500  29.140  1.00  0.00     0.074 A 
ATOM     62  C   UNL A   1      45.940  31.703  28.791  1.00  0.00     0.031 C 
ATOM     63  C   UNL A   1      41.300  31.026  32.657  1.00  0.00     0.029 A 
ATOM     64  C   UNL A   1      40.258  31.898  32.135  1.00  0.00     0.049 A 
ATOM     65  H   UNL A   1      40.648  33.951  31.657  1.00  0.00     0.167 HD
ATOM     66  C   UNL A   1      45.566  29.200  29.348  1.00  0.00     0.034 A 
ATOM     67  C   UNL A   1      39.059  31.493  31.617  1.00  0.00     0.034 A 
ATOM     68  C   UNL A   1      44.469  28.458  29.984  1.00  0.00     0.049 A 
ATOM     69  C   UNL A   1      39.110  30.082  31.063  1.00  0.00     0.074 A 
ATOM     70  C   UNL A   1      44.198  28.177  31.315  1.00  0.00     0.029 A 
ATOM     71  N   UNL A   1      43.302  28.181  29.281  1.00  0.00    -0.354 N 
ATOM     72  N   UNL A   1      40.200  29.381  30.930  1.00  0.00    -0.248 NA
ATOM     73  C   UNL A   1      37.935  29.381  30.553  1.00  0.00     0.031 C 
ATOM     74  C   UNL A   1      42.841  27.786  31.417  1.00  0.00     0.029 A 
ATOM     75  C   UNL A   1      42.286  27.802  30.149  1.00  0.00     0.049 A 
ATOM     76  H   UNL A   1      43.208  28.244  28.302  1.00  0.00     0.167 HD
ATOM     77  C   UNL A   1      39.939  28.265  30.174  1.00  0.00     0.074 A 
ATOM     78  C   UNL A   1      38.490  28.263  30.057  1.00  0.00     0.031 C 
ATOM     79  C   UNL A   1      40.946  27.495  29.651  1.00  0.00     0.034 A 
BRANCH  66  80
ATOM     80  C   UNL A   1      47.005  28.712  29.347  1.00  0.00     0.023 A 
ATOM     81  C   UNL A   1      47.575  28.378  28.098  1.00  0.00     0.012 A 
ATOM     82  C   UNL A   1      47.824  28.500  30.480  1.00  0.00     0.148 A 
ATOM     83  C   UNL A   1      48.823  27.760  27.978  1.00  0.00     0.002 A 
ATOM     84  C   UNL A   1      49.044  27.821  30.370  1.00  0.00     0.091 A 
ATOM     85  F   UNL A   1      47.459  29.011  31.662  1.00  0.00    -0.205 F 
ATOM     86  C   UNL A   1      49.542  27.444  29.119  1.00  0.00     0.022 A 
BRANCH  84  87
ATOM     87  S   UNL A   1      49.999  27.291  31.803  1.00  0.00     0.127 S 
ATOM     88  O   UNL A   1      51.103  26.553  31.183  1.00  0.00    -0.237 OA
ATOM     89  O   UNL A   1      50.386  28.561  32.412  1.00  0.00    -0.237 OA
ATOM     90  O   UNL A   1      49.102  26.457  32.595  1.00  0.00    -0.744 OA
ENDBRANCH  84  87
ENDBRANCH  66  80
BRANCH  67  91
ATOM     91  C   UNL A   1      38.269  32.601  30.996  1.00  0.00     0.023 A 
ATOM     92  C   UNL A   1      38.475  32.851  29.620  1.00  0.00     0.012 A 
ATOM     93  C   UNL A   1      37.087  33.060  31.596  1.00  0.00     0.148 A 
ATOM     94  C   UNL A   1      37.437  33.339  28.824  1.00  0.00     0.002 A 
ATOM     95  C   UNL A   1      36.063  33.563  30.797  1.00  0.00     0.091 A 
ATOM     96  F   UNL A   1      36.936  32.929  32.919  1.00  0.00    -0.205 F 
ATOM     97  C   UNL A   1      36.210  33.642  29.405  1.00  0.00     0.022 A 
BRANCH  95  98
ATOM     98  S   UNL A   1      34.495  34.014  31.543  1.00  0.00     0.127 S 
ATOM     99  O   UNL A   1      34.155  32.797  32.271  1.00  0.00    -0.237 OA
ATOM    100  O   UNL A   1      34.850  35.153  32.388  1.00  0.00    -0.237 OA
ATOM    101  O   UNL A   1      33.654  34.356  30.405  1.00  0.00    -0.744 OA
ENDBRANCH  95  98
ENDBRANCH  67  91
BRANCH  79 102
ATOM    102  C   UNL A   1      40.766  26.375  28.636  1.00  0.00     0.023 A 
ATOM    103  C   UNL A   1      39.733  26.377  27.678  1.00  0.00     0.012 A 
ATOM    104  C   UNL A   1      41.706  25.314  28.539  1.00  0.00     0.148 A 
ATOM    105  C   UNL A   1      39.578  25.347  26.743  1.00  0.00     0.002 A 
ATOM    106  C   UNL A   1      41.618  24.358  27.529  1.00  0.00     0.091 A 
ATOM    107  F   UNL A   1      42.685  25.202  29.448  1.00  0.00    -0.205 F 
ATOM    108  C   UNL A   1      40.531  24.346  26.655  1.00  0.00     0.022 A 
BRANCH 106 109
ATOM    109  S   UNL A   1      42.958  23.200  27.218  1.00  0.00     0.127 S 
ATOM    110  O   UNL A   1      42.779  22.233  28.299  1.00  0.00    -0.237 OA
ATOM    111  O   UNL A   1      42.628  22.690  25.886  1.00  0.00    -0.237 OA
ATOM    112  O   UNL A   1      44.174  24.001  27.265  1.00  0.00    -0.744 OA
ENDBRANCH 106 109
ENDBRANCH  79 102
ENDBRANCH  53  54
ENDBRANCH  45  48
ENDBRANCH  43  44
ENDBRANCH  42  43
ENDBRANCH   1  42
TORSDOF 20
ENDMDL
MODEL 3
REMARK VINA RESULT:      -9.7      4.385     11.244
REMARK SMILES Cc1ccccc1C(=O)Nc1ccc(N2CCC(n3c(C)nc4cccnc43)CC2)c(C(=O)NCCCCCCNC(=O)c2ccc(-c3c4nc(c(-c5cccc(S(=O)(=O)[O-])c5F)c5ccc([nH]5)c(-c5cccc(S(=O)(=O)[O-])c5F)c5nc(c(-c6cccc(S(=O)(=O)[O-])c6F)c6ccc3[nH]6)C=C5)C=C4)cc2)c1
REMARK SMILES IDX 38 1 37 2 36 3 35 4 34 5 32 6 33 7 31 9 11 10 12 11 107 12
REMARK SMILES IDX 13 13 14 14 10 15 8 16 9 17 7 19 1 20 2 21 3 22 4 23 6 24
REMARK SMILES IDX 5 25 15 26 16 27 30 28 17 29 29 30 18 31 19 32 20 33 28 34
REMARK SMILES IDX 21 35 22 36 23 37 27 38 24 39 26 40 25 41 39 42 40 43 41 44
REMARK SMILES IDX 42 45 43 47 44 48 45 49 106 50 46 51 105 52 47 53 48 54
REMARK SMILES IDX 49 55 99 56 50 57 104 58 98 59 100 60 51 61 103 62 97 63
REMARK SMILES IDX 96 64 52 66 84 67 64 68 83 69 65 70 68 71 82 72 101 73 66 74
REMARK SMILES IDX 67 75 81 77 102 78 69 79 53 80 54 81 62 82 55 83 57 84 63 85
REMARK SMILES IDX 56 86 58 87 59 88 60 89 61 90 85 91 86 92 94 93 87 94 89 95
REMARK SMILES IDX 95 96 88 97 90 98 91 99 92 100 93 101 70 102 71 103 79 104
REMARK SMILES IDX 72 105 74 106 80 107 73 108 75 109 76 110 77 111 78 112
REMARK H PARENT 34 8 10 18 41 46 100 65 68 76
REMARK Flexibility Score: inf
ROOT
ATOM      1  C   UNL A   1      36.861  33.990  32.330  1.00  0.00     0.002 C 
ENDROOT
BRANCH   1   2
ATOM      2  C   UNL A   1      35.695  34.945  32.620  1.00  0.00     0.002 C 
BRANCH   2   3
ATOM      3  C   UNL A   1      34.413  34.982  31.776  1.00  0.00     0.021 C 
BRANCH   3   4
ATOM      4  C   UNL A   1      34.146  33.931  30.709  1.00  0.00     0.116 C 
BRANCH   4   5
ATOM      5  N   UNL A   1      34.510  34.220  29.347  1.00  0.00    -0.352 N 
ATOM      6  C   UNL A   1      35.062  33.376  28.401  1.00  0.00     0.253 C 
ATOM      7  O   UNL A   1      35.167  33.828  27.256  1.00  0.00    -0.269 OA
ATOM      8  H   UNL A   1      34.343  35.143  29.047  1.00  0.00     0.163 HD
BRANCH   6   9
ATOM      9  C   UNL A   1      35.592  31.983  28.666  1.00  0.00     0.065 A 
ATOM     10  C   UNL A   1      37.625  30.788  29.360  1.00  0.00     0.042 A 
ATOM     11  C   UNL A   1      36.995  29.572  29.189  1.00  0.00     0.028 A 
ATOM     12  C   UNL A   1      36.881  31.971  29.260  1.00  0.00     0.042 A 
ATOM     13  C   UNL A   1      35.701  29.554  28.672  1.00  0.00     0.029 A 
ATOM     14  C   UNL A   1      35.050  30.741  28.247  1.00  0.00     0.050 A 
BRANCH  10  15
ATOM     15  N   UNL A   1      39.014  30.896  29.496  1.00  0.00    -0.322 N 
ATOM     16  C   UNL A   1      40.007  29.935  29.413  1.00  0.00     0.255 C 
ATOM     17  O   UNL A   1      41.150  30.270  29.747  1.00  0.00    -0.269 OA
ATOM     18  H   UNL A   1      39.339  31.808  29.682  1.00  0.00     0.170 HD
BRANCH  16  19
ATOM     19  C   UNL A   1      39.824  28.540  28.872  1.00  0.00     0.043 A 
ATOM     20  C   UNL A   1      40.809  28.888  26.509  1.00  0.00     0.045 C 
ATOM     21  C   UNL A   1      40.147  28.078  27.579  1.00  0.00    -0.038 A 
ATOM     22  C   UNL A   1      39.888  26.732  27.235  1.00  0.00     0.004 A 
ATOM     23  C   UNL A   1      39.469  25.810  28.186  1.00  0.00     0.000 A 
ATOM     24  C   UNL A   1      39.436  27.576  29.827  1.00  0.00     0.014 A 
ATOM     25  C   UNL A   1      39.282  26.225  29.495  1.00  0.00     0.001 A 
ENDBRANCH  16  19
ENDBRANCH  10  15
BRANCH  14  26
ATOM     26  N   UNL A   1      34.107  30.564  27.229  1.00  0.00    -0.371 N 
ATOM     27  C   UNL A   1      32.859  31.319  27.263  1.00  0.00     0.118 C 
ATOM     28  C   UNL A   1      34.464  29.693  26.122  1.00  0.00     0.118 C 
ATOM     29  C   UNL A   1      31.707  30.640  26.536  1.00  0.00     0.047 C 
ATOM     30  C   UNL A   1      33.259  28.959  25.565  1.00  0.00     0.047 C 
ATOM     31  C   UNL A   1      32.089  29.894  25.245  1.00  0.00     0.094 C 
BRANCH  31  32
ATOM     32  N   UNL A   1      30.941  29.277  24.551  1.00  0.00    -0.310 N 
ATOM     33  C   UNL A   1      30.715  27.949  24.192  1.00  0.00     0.108 A 
ATOM     34  C   UNL A   1      29.957  30.011  23.905  1.00  0.00     0.160 A 
ATOM     35  C   UNL A   1      31.388  26.739  24.728  1.00  0.00     0.088 C 
ATOM     36  N   UNL A   1      29.763  27.849  23.282  1.00  0.00    -0.232 NA
ATOM     37  C   UNL A   1      29.294  29.111  23.085  1.00  0.00     0.108 A 
ATOM     38  N   UNL A   1      29.698  31.330  24.010  1.00  0.00    -0.237 NA
ATOM     39  C   UNL A   1      28.298  29.596  22.231  1.00  0.00     0.034 A 
ATOM     40  C   UNL A   1      28.698  31.749  23.196  1.00  0.00     0.113 A 
ATOM     41  C   UNL A   1      28.007  30.958  22.290  1.00  0.00     0.022 A 
ENDBRANCH  31  32
ENDBRANCH  14  26
ENDBRANCH   6   9
ENDBRANCH   4   5
ENDBRANCH   3   4
ENDBRANCH   2   3
ENDBRANCH   1   2
BRANCH   1  42
ATOM     42  C   UNL A   1      37.802  33.588  33.459  1.00  0.00     0.021 C 
BRANCH  42  43
ATOM     43  C   UNL A   1      38.084  32.101  33.653  1.00  0.00     0.116 C 
BRANCH  43  44
ATOM     44  N   UNL A   1      37.608  31.552  34.930  1.00  0.00    -0.352 N 
ATOM     45  C   UNL A   1      38.335  30.937  35.948  1.00  0.00     0.251 C 
ATOM     46  H   UNL A   1      36.640  31.629  35.090  1.00  0.00     0.163 HD
ATOM     47  O   UNL A   1      37.774  30.555  36.972  1.00  0.00    -0.269 OA
BRANCH  45  48
ATOM     48  C   UNL A   1      39.799  30.803  35.788  1.00  0.00     0.039 A 
ATOM     49  C   UNL A   1      40.656  31.821  36.204  1.00  0.00     0.014 A 
ATOM     50  C   UNL A   1      40.268  29.791  34.967  1.00  0.00     0.014 A 
ATOM     51  C   UNL A   1      41.868  31.991  35.537  1.00  0.00     0.010 A 
ATOM     52  C   UNL A   1      41.431  29.976  34.262  1.00  0.00     0.010 A 
ATOM     53  C   UNL A   1      42.171  31.136  34.478  1.00  0.00    -0.014 A 
BRANCH  53  54
ATOM     54  C   UNL A   1      43.152  31.422  33.446  1.00  0.00     0.031 A 
ATOM     55  C   UNL A   1      42.774  32.178  32.250  1.00  0.00     0.074 A 
ATOM     56  C   UNL A   1      44.441  31.091  33.683  1.00  0.00     0.049 A 
ATOM     57  N   UNL A   1      43.366  32.059  31.113  1.00  0.00    -0.248 NA
ATOM     58  C   UNL A   1      41.672  33.130  32.254  1.00  0.00     0.031 C 
ATOM     59  C   UNL A   1      45.629  31.558  32.982  1.00  0.00     0.029 A 
ATOM     60  N   UNL A   1      44.919  30.091  34.539  1.00  0.00    -0.354 N 
ATOM     61  C   UNL A   1      42.915  33.089  30.318  1.00  0.00     0.074 A 
ATOM     62  C   UNL A   1      41.803  33.670  31.038  1.00  0.00     0.031 C 
ATOM     63  C   UNL A   1      46.636  30.703  33.222  1.00  0.00     0.029 A 
ATOM     64  C   UNL A   1      46.076  29.565  33.937  1.00  0.00     0.049 A 
ATOM     65  H   UNL A   1      44.523  29.811  35.395  1.00  0.00     0.167 HD
ATOM     66  C   UNL A   1      43.646  33.457  29.228  1.00  0.00     0.034 A 
ATOM     67  C   UNL A   1      46.219  28.251  33.590  1.00  0.00     0.034 A 
ATOM     68  C   UNL A   1      44.862  32.641  29.115  1.00  0.00     0.049 A 
ATOM     69  C   UNL A   1      46.481  28.065  32.108  1.00  0.00     0.074 A 
ATOM     70  C   UNL A   1      46.160  32.857  29.555  1.00  0.00     0.029 A 
ATOM     71  N   UNL A   1      44.781  31.293  28.783  1.00  0.00    -0.354 N 
ATOM     72  N   UNL A   1      46.411  29.017  31.221  1.00  0.00    -0.248 NA
ATOM     73  C   UNL A   1      46.775  26.768  31.505  1.00  0.00     0.031 C 
ATOM     74  C   UNL A   1      46.843  31.617  29.543  1.00  0.00     0.029 A 
ATOM     75  C   UNL A   1      45.975  30.646  29.074  1.00  0.00     0.049 A 
ATOM     76  H   UNL A   1      43.988  30.858  28.395  1.00  0.00     0.167 HD
ATOM     77  C   UNL A   1      46.450  28.475  29.961  1.00  0.00     0.074 A 
ATOM     78  C   UNL A   1      46.784  27.080  30.198  1.00  0.00     0.031 C 
ATOM     79  C   UNL A   1      46.126  29.209  28.848  1.00  0.00     0.034 A 
BRANCH  66  80
ATOM     80  C   UNL A   1      43.471  34.788  28.516  1.00  0.00     0.023 A 
ATOM     81  C   UNL A   1      43.049  34.750  27.167  1.00  0.00     0.012 A 
ATOM     82  C   UNL A   1      43.744  36.070  29.046  1.00  0.00     0.148 A 
ATOM     83  C   UNL A   1      43.015  35.887  26.355  1.00  0.00     0.002 A 
ATOM     84  C   UNL A   1      43.775  37.200  28.218  1.00  0.00     0.091 A 
ATOM     85  F   UNL A   1      43.910  36.216  30.366  1.00  0.00    -0.205 F 
ATOM     86  C   UNL A   1      43.417  37.108  26.870  1.00  0.00     0.022 A 
BRANCH  84  87
ATOM     87  S   UNL A   1      44.371  38.804  28.781  1.00  0.00     0.127 S 
ATOM     88  O   UNL A   1      44.414  39.572  27.533  1.00  0.00    -0.237 OA
ATOM     89  O   UNL A   1      43.326  39.221  29.713  1.00  0.00    -0.237 OA
ATOM     90  O   UNL A   1      45.683  38.560  29.368  1.00  0.00    -0.744 OA
ENDBRANCH  84  87
ENDBRANCH  66  80
BRANCH  67  91
ATOM     91  C   UNL A   1      45.383  27.319  34.409  1.00  0.00     0.023 A 
ATOM     92  C   UNL A   1      44.070  27.059  33.956  1.00  0.00     0.012 A 
ATOM     93  C   UNL A   1      45.983  26.414  35.297  1.00  0.00     0.148 A 
ATOM     94  C   UNL A   1      43.467  25.824  34.200  1.00  0.00     0.002 A 
ATOM     95  C   UNL A   1      45.366  25.193  35.552  1.00  0.00     0.091 A 
ATOM     96  F   UNL A   1      47.178  26.712  35.820  1.00  0.00    -0.205 F 
ATOM     97  C   UNL A   1      44.141  24.867  34.952  1.00  0.00     0.022 A 
BRANCH  95  98
ATOM     98  S   UNL A   1      46.198  23.972  36.570  1.00  0.00     0.127 S 
ATOM     99  O   UNL A   1      47.439  23.770  35.831  1.00  0.00    -0.237 OA
ATOM    100  O   UNL A   1      46.354  24.664  37.849  1.00  0.00    -0.237 OA
ATOM    101  O   UNL A   1      45.266  22.855  36.606  1.00  0.00    -0.744 OA
ENDBRANCH  95  98
ENDBRANCH  67  91
BRANCH  79 102
ATOM    102  C   UNL A   1      45.935  28.649  27.446  1.00  0.00     0.023 A 
ATOM    103  C   UNL A   1      46.873  28.846  26.414  1.00  0.00     0.012 A 
ATOM    104  C   UNL A   1      44.836  27.803  27.137  1.00  0.00     0.148 A 
ATOM    105  C   UNL A   1      46.694  28.321  25.128  1.00  0.00     0.002 A 
ATOM    106  C   UNL A   1      44.724  27.184  25.893  1.00  0.00     0.091 A 
ATOM    107  F   UNL A   1      43.864  27.611  28.041  1.00  0.00    -0.205 F 
ATOM    108  C   UNL A   1      45.629  27.474  24.872  1.00  0.00     0.022 A 
BRANCH 106 109
ATOM    109  S   UNL A   1      43.513  25.888  25.599  1.00  0.00     0.127 S 
ATOM    110  O   UNL A   1      44.299  24.901  24.863  1.00  0.00    -0.237 OA
ATOM    111  O   UNL A   1      43.151  25.484  26.959  1.00  0.00    -0.237 OA
ATOM    112  O   UNL A   1      42.435  26.533  24.863  1.00  0.00    -0.744 OA
ENDBRANCH 106 109
ENDBRANCH  79 102
ENDBRANCH  53  54
ENDBRANCH  45  48
ENDBRANCH  43  44
ENDBRANCH  42  43
ENDBRANCH   1  42
TORSDOF 20
ENDMDL
