MODEL 1
REMARK VINA RESULT:     -11.4      0.000      0.000
REMARK SMILES CC[C@@](C)(NC(=O)Nc1c(C)cccc1Cl)C(=O)NCCCCCCNC(=O)c1ccc(-c2c3nc(c(-c4cccc(S(=O)(=O)[O-])c4F)c4ccc([nH]4)c(-c4cccc(S(=O)(=O)[O-])c4F)c4nc(c(-c5cccc(S(=O)(=O)[O-])c5F)c5ccc2[nH]5)C=C4)C=C3)cc1
REMARK SMILES IDX 23 1 22 2 21 3 20 4 19 5 17 6 18 7 3 9 4 10 2 11 1 12 5 13
REMARK SMILES IDX 6 14 7 16 8 17 9 19 10 20 15 21 11 22 12 23 14 24 16 25
REMARK SMILES IDX 13 26 24 27 25 28 26 29 27 30 28 32 29 33 30 34 91 35 31 36
REMARK SMILES IDX 90 37 32 38 33 39 34 40 84 41 35 42 89 43 83 44 85 45 36 46
REMARK SMILES IDX 88 47 82 48 81 49 37 51 69 52 49 53 68 54 50 55 53 56 67 57
REMARK SMILES IDX 86 58 51 59 52 60 66 62 87 63 54 64 38 65 39 66 47 67 40 68
REMARK SMILES IDX 42 69 48 70 41 71 43 72 44 73 45 74 46 75 70 76 71 77 79 78
REMARK SMILES IDX 72 79 74 80 80 81 73 82 75 83 76 84 77 85 78 86 55 87 56 88
REMARK SMILES IDX 64 89 57 90 59 91 65 92 58 93 60 94 61 95 62 96 63 97
REMARK H PARENT 19 8 5 15 8 18 26 31 85 50 53 61
REMARK Flexibility Score: inf
ROOT
ATOM      1  C   UNL A   1      36.245  21.647  25.230  1.00  0.00     0.002 C 
ENDROOT
BRANCH   1   2
ATOM      2  C   UNL A   1      34.994  20.786  25.057  1.00  0.00     0.002 C 
BRANCH   2   3
ATOM      3  C   UNL A   1      33.806  20.956  26.018  1.00  0.00     0.021 C 
BRANCH   3   4
ATOM      4  C   UNL A   1      32.510  21.670  25.589  1.00  0.00     0.116 C 
BRANCH   4   5
ATOM      5  N   UNL A   1      32.086  21.536  24.202  1.00  0.00    -0.354 N 
ATOM      6  C   UNL A   1      32.190  22.352  23.074  1.00  0.00     0.245 C 
ATOM      7  O   UNL A   1      32.442  21.855  21.974  1.00  0.00    -0.272 OA
ATOM      8  H   UNL A   1      31.627  20.684  24.021  1.00  0.00     0.163 HD
BRANCH   6   9
ATOM      9  C   UNL A   1      32.126  23.873  23.213  1.00  0.00     0.117 C 
ATOM     10  C   UNL A   1      30.622  24.132  23.481  1.00  0.00     0.045 C 
BRANCH   9  11
ATOM     11  C   UNL A   1      32.930  24.653  24.294  1.00  0.00     0.035 C 
ATOM     12  C   UNL A   1      32.198  25.262  25.471  1.00  0.00     0.007 C 
ENDBRANCH   9  11
BRANCH   9  13
ATOM     13  N   UNL A   1      32.591  24.330  21.919  1.00  0.00    -0.324 N 
ATOM     14  C   UNL A   1      32.525  25.522  21.329  1.00  0.00     0.320 C 
ATOM     15  H   UNL A   1      33.035  23.636  21.381  1.00  0.00     0.166 HD
ATOM     16  O   UNL A   1      32.865  25.507  20.133  1.00  0.00    -0.248 OA
ATOM     17  N   UNL A   1      32.088  26.712  21.761  1.00  0.00    -0.306 N 
ATOM     18  H   UNL A   1      32.241  27.300  20.986  1.00  0.00     0.171 HD
BRANCH  17  19
ATOM     19  C   UNL A   1      31.517  27.604  22.739  1.00  0.00     0.064 A 
ATOM     20  C   UNL A   1      30.219  27.936  23.230  1.00  0.00    -0.026 A 
ATOM     21  C   UNL A   1      32.571  28.269  23.445  1.00  0.00     0.064 A 
ATOM     22  C   UNL A   1      29.015  27.044  23.496  1.00  0.00     0.046 C 
ATOM     23  C   UNL A   1      30.039  29.112  24.019  1.00  0.00     0.005 A 
ATOM     24  C   UNL A   1      32.373  29.316  24.352  1.00  0.00     0.023 A 
ATOM     25  Cl  UNL A   1      34.243  27.794  23.234  1.00  0.00    -0.082 Cl
ATOM     26  C   UNL A   1      31.101  29.786  24.587  1.00  0.00     0.002 A 
ENDBRANCH  17  19
ENDBRANCH   9  13
ENDBRANCH   6   9
ENDBRANCH   4   5
ENDBRANCH   3   4
ENDBRANCH   2   3
ENDBRANCH   1   2
BRANCH   1  27
ATOM     27  C   UNL A   1      37.572  21.055  24.800  1.00  0.00     0.021 C 
BRANCH  27  28
ATOM     28  C   UNL A   1      38.688  21.175  25.819  1.00  0.00     0.116 C 
BRANCH  28  29
ATOM     29  N   UNL A   1      39.511  19.978  25.914  1.00  0.00    -0.352 N 
ATOM     30  C   UNL A   1      40.865  19.881  26.182  1.00  0.00     0.251 C 
ATOM     31  H   UNL A   1      39.042  19.124  25.769  1.00  0.00     0.163 HD
ATOM     32  O   UNL A   1      41.439  18.815  26.116  1.00  0.00    -0.269 OA
BRANCH  30  33
ATOM     33  C   UNL A   1      41.611  21.123  26.508  1.00  0.00     0.039 A 
ATOM     34  C   UNL A   1      42.032  21.949  25.463  1.00  0.00     0.014 A 
ATOM     35  C   UNL A   1      41.821  21.499  27.836  1.00  0.00     0.014 A 
ATOM     36  C   UNL A   1      42.584  23.199  25.756  1.00  0.00     0.010 A 
ATOM     37  C   UNL A   1      42.282  22.780  28.122  1.00  0.00     0.010 A 
ATOM     38  C   UNL A   1      42.666  23.644  27.086  1.00  0.00    -0.014 A 
BRANCH  38  39
ATOM     39  C   UNL A   1      43.118  25.020  27.413  1.00  0.00     0.031 A 
ATOM     40  C   UNL A   1      42.172  25.999  28.051  1.00  0.00     0.074 A 
ATOM     41  C   UNL A   1      44.352  25.420  27.044  1.00  0.00     0.049 A 
ATOM     42  N   UNL A   1      42.366  27.256  28.352  1.00  0.00    -0.248 NA
ATOM     43  C   UNL A   1      40.820  25.509  28.364  1.00  0.00     0.031 C 
ATOM     44  C   UNL A   1      45.330  24.596  26.333  1.00  0.00     0.029 A 
ATOM     45  N   UNL A   1      44.980  26.634  27.183  1.00  0.00    -0.354 N 
ATOM     46  C   UNL A   1      41.159  27.716  28.862  1.00  0.00     0.074 A 
ATOM     47  C   UNL A   1      40.223  26.614  28.787  1.00  0.00     0.031 C 
ATOM     48  C   UNL A   1      46.431  25.325  26.095  1.00  0.00     0.029 A 
ATOM     49  C   UNL A   1      46.226  26.678  26.603  1.00  0.00     0.049 A 
ATOM     50  H   UNL A   1      44.576  27.399  27.654  1.00  0.00     0.167 HD
ATOM     51  C   UNL A   1      40.860  28.933  29.376  1.00  0.00     0.034 A 
ATOM     52  C   UNL A   1      47.099  27.697  26.473  1.00  0.00     0.034 A 
ATOM     53  C   UNL A   1      41.798  30.018  29.467  1.00  0.00     0.049 A 
ATOM     54  C   UNL A   1      46.758  29.034  27.071  1.00  0.00     0.074 A 
ATOM     55  C   UNL A   1      41.621  31.261  30.050  1.00  0.00     0.029 A 
ATOM     56  N   UNL A   1      43.083  30.002  28.945  1.00  0.00    -0.354 N 
ATOM     57  N   UNL A   1      45.671  29.399  27.705  1.00  0.00    -0.248 NA
ATOM     58  C   UNL A   1      47.777  30.088  26.967  1.00  0.00     0.031 C 
ATOM     59  C   UNL A   1      42.787  32.008  29.848  1.00  0.00     0.029 A 
ATOM     60  C   UNL A   1      43.703  31.218  29.172  1.00  0.00     0.049 A 
ATOM     61  H   UNL A   1      43.493  29.237  28.480  1.00  0.00     0.167 HD
ATOM     62  C   UNL A   1      45.880  30.716  28.097  1.00  0.00     0.074 A 
ATOM     63  C   UNL A   1      47.211  31.076  27.650  1.00  0.00     0.031 C 
ATOM     64  C   UNL A   1      45.041  31.555  28.753  1.00  0.00     0.034 A 
BRANCH  51  65
ATOM     65  C   UNL A   1      39.467  29.134  29.917  1.00  0.00     0.023 A 
ATOM     66  C   UNL A   1      39.130  28.617  31.185  1.00  0.00     0.012 A 
ATOM     67  C   UNL A   1      38.501  29.856  29.189  1.00  0.00     0.148 A 
ATOM     68  C   UNL A   1      37.843  28.771  31.700  1.00  0.00     0.002 A 
ATOM     69  C   UNL A   1      37.235  30.049  29.730  1.00  0.00     0.091 A 
ATOM     70  F   UNL A   1      38.830  30.323  27.976  1.00  0.00    -0.205 F 
ATOM     71  C   UNL A   1      36.900  29.495  30.976  1.00  0.00     0.022 A 
BRANCH  69  72
ATOM     72  S   UNL A   1      35.975  31.035  28.914  1.00  0.00     0.127 S 
ATOM     73  O   UNL A   1      35.058  31.313  30.018  1.00  0.00    -0.237 OA
ATOM     74  O   UNL A   1      36.741  32.193  28.453  1.00  0.00    -0.237 OA
ATOM     75  O   UNL A   1      35.440  30.199  27.849  1.00  0.00    -0.744 OA
ENDBRANCH  69  72
ENDBRANCH  51  65
BRANCH  52  76
ATOM     76  C   UNL A   1      48.394  27.470  25.772  1.00  0.00     0.023 A 
ATOM     77  C   UNL A   1      49.525  27.066  26.507  1.00  0.00     0.012 A 
ATOM     78  C   UNL A   1      48.492  27.598  24.373  1.00  0.00     0.148 A 
ATOM     79  C   UNL A   1      50.738  26.818  25.863  1.00  0.00     0.002 A 
ATOM     80  C   UNL A   1      49.686  27.293  23.732  1.00  0.00     0.091 A 
ATOM     81  F   UNL A   1      47.405  27.993  23.695  1.00  0.00    -0.205 F 
ATOM     82  C   UNL A   1      50.815  26.920  24.476  1.00  0.00     0.022 A 
BRANCH  80  83
ATOM     83  S   UNL A   1      49.837  27.258  21.943  1.00  0.00     0.127 S 
ATOM     84  O   UNL A   1      51.228  26.847  21.768  1.00  0.00    -0.237 OA
ATOM     85  O   UNL A   1      48.844  26.247  21.578  1.00  0.00    -0.237 OA
ATOM     86  O   UNL A   1      49.516  28.605  21.491  1.00  0.00    -0.744 OA
ENDBRANCH  80  83
ENDBRANCH  52  76
BRANCH  64  87
ATOM     87  C   UNL A   1      45.537  32.947  29.052  1.00  0.00     0.023 A 
ATOM     88  C   UNL A   1      46.334  33.179  30.190  1.00  0.00     0.012 A 
ATOM     89  C   UNL A   1      45.276  34.009  28.164  1.00  0.00     0.148 A 
ATOM     90  C   UNL A   1      46.839  34.451  30.456  1.00  0.00     0.002 A 
ATOM     91  C   UNL A   1      45.824  35.262  28.406  1.00  0.00     0.091 A 
ATOM     92  F   UNL A   1      44.501  33.772  27.095  1.00  0.00    -0.205 F 
ATOM     93  C   UNL A   1      46.595  35.489  29.559  1.00  0.00     0.022 A 
BRANCH  91  94
ATOM     94  S   UNL A   1      45.645  36.635  27.262  1.00  0.00     0.127 S 
ATOM     95  O   UNL A   1      46.130  37.757  28.065  1.00  0.00    -0.237 OA
ATOM     96  O   UNL A   1      46.531  36.241  26.167  1.00  0.00    -0.237 OA
ATOM     97  O   UNL A   1      44.232  36.686  26.911  1.00  0.00    -0.744 OA
ENDBRANCH  91  94
ENDBRANCH  64  87
ENDBRANCH  38  39
ENDBRANCH  30  33
ENDBRANCH  28  29
ENDBRANCH  27  28
ENDBRANCH   1  27
TORSDOF 19
ENDMDL
MODEL 2
REMARK VINA RESULT:     -11.4      5.719     10.943
REMARK SMILES CC[C@@](C)(NC(=O)Nc1c(C)cccc1Cl)C(=O)NCCCCCCNC(=O)c1ccc(-c2c3nc(c(-c4cccc(S(=O)(=O)[O-])c4F)c4ccc([nH]4)c(-c4cccc(S(=O)(=O)[O-])c4F)c4nc(c(-c5cccc(S(=O)(=O)[O-])c5F)c5ccc2[nH]5)C=C4)C=C3)cc1
REMARK SMILES IDX 23 1 22 2 21 3 20 4 19 5 17 6 18 7 3 9 4 10 2 11 1 12 5 13
REMARK SMILES IDX 6 14 7 16 8 17 9 19 10 20 15 21 11 22 12 23 14 24 16 25
REMARK SMILES IDX 13 26 24 27 25 28 26 29 27 30 28 32 29 33 30 34 91 35 31 36
REMARK SMILES IDX 90 37 32 38 33 39 34 40 84 41 35 42 89 43 83 44 85 45 36 46
REMARK SMILES IDX 88 47 82 48 81 49 37 51 69 52 49 53 68 54 50 55 53 56 67 57
REMARK SMILES IDX 86 58 51 59 52 60 66 62 87 63 54 64 38 65 39 66 47 67 40 68
REMARK SMILES IDX 42 69 48 70 41 71 43 72 44 73 45 74 46 75 70 76 71 77 79 78
REMARK SMILES IDX 72 79 74 80 80 81 73 82 75 83 76 84 77 85 78 86 55 87 56 88
REMARK SMILES IDX 64 89 57 90 59 91 65 92 58 93 60 94 61 95 62 96 63 97
REMARK H PARENT 19 8 5 15 8 18 26 31 85 50 53 61
REMARK Flexibility Score: inf
ROOT
ATOM      1  C   UNL A   1      32.354  30.173  27.208  1.00  0.00     0.002 C 
ENDROOT
BRANCH   1   2
ATOM      2  C   UNL A   1      32.055  28.983  26.296  1.00  0.00     0.002 C 
BRANCH   2   3
ATOM      3  C   UNL A   1      31.351  27.740  26.863  1.00  0.00     0.021 C 
BRANCH   3   4
ATOM      4  C   UNL A   1      31.567  26.338  26.262  1.00  0.00     0.116 C 
BRANCH   4   5
ATOM      5  N   UNL A   1      30.731  25.945  25.136  1.00  0.00    -0.354 N 
ATOM      6  C   UNL A   1      30.986  25.661  23.793  1.00  0.00     0.245 C 
ATOM      7  O   UNL A   1      30.395  24.733  23.236  1.00  0.00    -0.272 OA
ATOM      8  H   UNL A   1      29.780  25.860  25.375  1.00  0.00     0.163 HD
BRANCH   6   9
ATOM      9  C   UNL A   1      32.087  26.408  23.041  1.00  0.00     0.117 C 
ATOM     10  C   UNL A   1      31.368  27.694  22.560  1.00  0.00     0.045 C 
BRANCH   9  11
ATOM     11  C   UNL A   1      33.418  26.848  23.719  1.00  0.00     0.035 C 
ATOM     12  C   UNL A   1      34.025  28.190  23.366  1.00  0.00     0.007 C 
ENDBRANCH   9  11
BRANCH   9  13
ATOM     13  N   UNL A   1      32.432  25.483  21.980  1.00  0.00    -0.324 N 
ATOM     14  C   UNL A   1      33.026  24.291  22.007  1.00  0.00     0.320 C 
ATOM     15  H   UNL A   1      32.183  25.791  21.079  1.00  0.00     0.166 HD
ATOM     16  O   UNL A   1      33.331  23.859  20.882  1.00  0.00    -0.248 OA
ATOM     17  N   UNL A   1      33.424  23.512  23.022  1.00  0.00    -0.306 N 
ATOM     18  H   UNL A   1      33.801  22.727  22.564  1.00  0.00     0.171 HD
BRANCH  17  19
ATOM     19  C   UNL A   1      33.603  23.193  24.416  1.00  0.00     0.064 A 
ATOM     20  C   UNL A   1      32.778  22.952  25.555  1.00  0.00    -0.026 A 
ATOM     21  C   UNL A   1      34.997  22.998  24.681  1.00  0.00     0.064 A 
ATOM     22  C   UNL A   1      31.453  22.212  25.664  1.00  0.00     0.046 C 
ATOM     23  C   UNL A   1      33.353  22.954  26.861  1.00  0.00     0.005 A 
ATOM     24  C   UNL A   1      35.539  22.830  25.960  1.00  0.00     0.023 A 
ATOM     25  Cl  UNL A   1      36.167  22.934  23.380  1.00  0.00    -0.082 Cl
ATOM     26  C   UNL A   1      34.717  22.879  27.063  1.00  0.00     0.002 A 
ENDBRANCH  17  19
ENDBRANCH   9  13
ENDBRANCH   6   9
ENDBRANCH   4   5
ENDBRANCH   3   4
ENDBRANCH   2   3
ENDBRANCH   1   2
BRANCH   1  27
ATOM     27  C   UNL A   1      31.622  31.472  26.934  1.00  0.00     0.021 C 
BRANCH  27  28
ATOM     28  C   UNL A   1      32.500  32.618  26.473  1.00  0.00     0.116 C 
BRANCH  28  29
ATOM     29  N   UNL A   1      32.305  33.838  27.243  1.00  0.00    -0.352 N 
ATOM     30  C   UNL A   1      33.040  34.306  28.318  1.00  0.00     0.251 C 
ATOM     31  H   UNL A   1      31.551  34.405  26.961  1.00  0.00     0.163 HD
ATOM     32  O   UNL A   1      32.686  35.289  28.933  1.00  0.00    -0.269 OA
BRANCH  30  33
ATOM     33  C   UNL A   1      34.249  33.550  28.731  1.00  0.00     0.039 A 
ATOM     34  C   UNL A   1      35.507  34.090  28.456  1.00  0.00     0.014 A 
ATOM     35  C   UNL A   1      34.132  32.359  29.451  1.00  0.00     0.014 A 
ATOM     36  C   UNL A   1      36.647  33.478  28.984  1.00  0.00     0.010 A 
ATOM     37  C   UNL A   1      35.257  31.808  30.053  1.00  0.00     0.010 A 
ATOM     38  C   UNL A   1      36.526  32.362  29.828  1.00  0.00    -0.014 A 
BRANCH  38  39
ATOM     39  C   UNL A   1      37.709  31.780  30.513  1.00  0.00     0.031 A 
ATOM     40  C   UNL A   1      38.514  30.698  29.851  1.00  0.00     0.074 A 
ATOM     41  C   UNL A   1      37.998  32.157  31.775  1.00  0.00     0.049 A 
ATOM     42  N   UNL A   1      39.537  30.030  30.315  1.00  0.00    -0.248 NA
ATOM     43  C   UNL A   1      38.097  30.291  28.498  1.00  0.00     0.031 C 
ATOM     44  C   UNL A   1      37.237  33.127  32.563  1.00  0.00     0.029 A 
ATOM     45  N   UNL A   1      38.990  31.741  32.630  1.00  0.00    -0.354 N 
ATOM     46  C   UNL A   1      39.868  29.108  29.330  1.00  0.00     0.074 A 
ATOM     47  C   UNL A   1      38.908  29.272  28.260  1.00  0.00     0.031 C 
ATOM     48  C   UNL A   1      37.784  33.230  33.783  1.00  0.00     0.029 A 
ATOM     49  C   UNL A   1      38.912  32.309  33.880  1.00  0.00     0.049 A 
ATOM     50  H   UNL A   1      39.690  31.098  32.371  1.00  0.00     0.167 HD
ATOM     51  C   UNL A   1      40.896  28.226  29.301  1.00  0.00     0.034 A 
ATOM     52  C   UNL A   1      39.651  32.098  34.988  1.00  0.00     0.034 A 
ATOM     53  C   UNL A   1      41.860  28.081  30.358  1.00  0.00     0.049 A 
ATOM     54  C   UNL A   1      40.802  31.132  34.928  1.00  0.00     0.074 A 
ATOM     55  C   UNL A   1      42.988  27.280  30.389  1.00  0.00     0.029 A 
ATOM     56  N   UNL A   1      41.802  28.734  31.580  1.00  0.00    -0.354 N 
ATOM     57  N   UNL A   1      41.205  30.393  33.923  1.00  0.00    -0.248 NA
ATOM     58  C   UNL A   1      41.621  30.997  36.141  1.00  0.00     0.031 C 
ATOM     59  C   UNL A   1      43.591  27.423  31.644  1.00  0.00     0.029 A 
ATOM     60  C   UNL A   1      42.860  28.341  32.380  1.00  0.00     0.049 A 
ATOM     61  H   UNL A   1      41.108  29.383  31.840  1.00  0.00     0.167 HD
ATOM     62  C   UNL A   1      42.336  29.722  34.372  1.00  0.00     0.074 A 
ATOM     63  C   UNL A   1      42.569  30.163  35.732  1.00  0.00     0.031 C 
ATOM     64  C   UNL A   1      43.102  28.812  33.721  1.00  0.00     0.034 A 
BRANCH  51  65
ATOM     65  C   UNL A   1      41.048  27.380  28.063  1.00  0.00     0.023 A 
ATOM     66  C   UNL A   1      41.631  27.937  26.905  1.00  0.00     0.012 A 
ATOM     67  C   UNL A   1      40.645  26.031  28.049  1.00  0.00     0.148 A 
ATOM     68  C   UNL A   1      41.765  27.182  25.740  1.00  0.00     0.002 A 
ATOM     69  C   UNL A   1      40.828  25.270  26.900  1.00  0.00     0.091 A 
ATOM     70  F   UNL A   1      40.075  25.521  29.150  1.00  0.00    -0.205 F 
ATOM     71  C   UNL A   1      41.371  25.847  25.742  1.00  0.00     0.022 A 
BRANCH  69  72
ATOM     72  S   UNL A   1      40.430  23.520  26.826  1.00  0.00     0.127 S 
ATOM     73  O   UNL A   1      39.008  23.554  26.488  1.00  0.00    -0.237 OA
ATOM     74  O   UNL A   1      41.302  23.051  25.749  1.00  0.00    -0.237 OA
ATOM     75  O   UNL A   1      40.750  22.981  28.141  1.00  0.00    -0.744 OA
ENDBRANCH  69  72
ENDBRANCH  51  65
BRANCH  52  76
ATOM     76  C   UNL A   1      39.335  32.849  36.234  1.00  0.00     0.023 A 
ATOM     77  C   UNL A   1      39.817  34.162  36.401  1.00  0.00     0.012 A 
ATOM     78  C   UNL A   1      38.513  32.287  37.230  1.00  0.00     0.148 A 
ATOM     79  C   UNL A   1      39.504  34.893  37.549  1.00  0.00     0.002 A 
ATOM     80  C   UNL A   1      38.158  33.040  38.342  1.00  0.00     0.091 A 
ATOM     81  F   UNL A   1      38.074  31.032  37.055  1.00  0.00    -0.205 F 
ATOM     82  C   UNL A   1      38.666  34.337  38.512  1.00  0.00     0.022 A 
BRANCH  80  83
ATOM     83  S   UNL A   1      36.972  32.460  39.560  1.00  0.00     0.127 S 
ATOM     84  O   UNL A   1      35.731  32.451  38.788  1.00  0.00    -0.237 OA
ATOM     85  O   UNL A   1      37.503  31.137  39.890  1.00  0.00    -0.237 OA
ATOM     86  O   UNL A   1      37.026  33.419  40.654  1.00  0.00    -0.744 OA
ENDBRANCH  80  83
ENDBRANCH  52  76
BRANCH  64  87
ATOM     87  C   UNL A   1      44.285  28.238  34.460  1.00  0.00     0.023 A 
ATOM     88  C   UNL A   1      45.536  28.882  34.389  1.00  0.00     0.012 A 
ATOM     89  C   UNL A   1      44.137  27.105  35.284  1.00  0.00     0.148 A 
ATOM     90  C   UNL A   1      46.629  28.391  35.103  1.00  0.00     0.002 A 
ATOM     91  C   UNL A   1      45.215  26.651  36.032  1.00  0.00     0.091 A 
ATOM     92  F   UNL A   1      42.942  26.497  35.324  1.00  0.00    -0.205 F 
ATOM     93  C   UNL A   1      46.466  27.284  35.934  1.00  0.00     0.022 A 
BRANCH  91  94
ATOM     94  S   UNL A   1      45.079  25.293  37.201  1.00  0.00     0.127 S 
ATOM     95  O   UNL A   1      44.834  24.158  36.311  1.00  0.00    -0.237 OA
ATOM     96  O   UNL A   1      46.397  25.298  37.834  1.00  0.00    -0.237 OA
ATOM     97  O   UNL A   1      43.977  25.635  38.090  1.00  0.00    -0.744 OA
ENDBRANCH  91  94
ENDBRANCH  64  87
ENDBRANCH  38  39
ENDBRANCH  30  33
ENDBRANCH  28  29
ENDBRANCH  27  28
ENDBRANCH   1  27
TORSDOF 19
ENDMDL
MODEL 3
REMARK VINA RESULT:     -11.3      1.431      1.922
REMARK SMILES CC[C@@](C)(NC(=O)Nc1c(C)cccc1Cl)C(=O)NCCCCCCNC(=O)c1ccc(-c2c3nc(c(-c4cccc(S(=O)(=O)[O-])c4F)c4ccc([nH]4)c(-c4cccc(S(=O)(=O)[O-])c4F)c4nc(c(-c5cccc(S(=O)(=O)[O-])c5F)c5ccc2[nH]5)C=C4)C=C3)cc1
REMARK SMILES IDX 23 1 22 2 21 3 20 4 19 5 17 6 18 7 3 9 4 10 2 11 1 12 5 13
REMARK SMILES IDX 6 14 7 16 8 17 9 19 10 20 15 21 11 22 12 23 14 24 16 25
REMARK SMILES IDX 13 26 24 27 25 28 26 29 27 30 28 32 29 33 30 34 91 35 31 36
REMARK SMILES IDX 90 37 32 38 33 39 34 40 84 41 35 42 89 43 83 44 85 45 36 46
REMARK SMILES IDX 88 47 82 48 81 49 37 51 69 52 49 53 68 54 50 55 53 56 67 57
REMARK SMILES IDX 86 58 51 59 52 60 66 62 87 63 54 64 38 65 39 66 47 67 40 68
REMARK SMILES IDX 42 69 48 70 41 71 43 72 44 73 45 74 46 75 70 76 71 77 79 78
REMARK SMILES IDX 72 79 74 80 80 81 73 82 75 83 76 84 77 85 78 86 55 87 56 88
REMARK SMILES IDX 64 89 57 90 59 91 65 92 58 93 60 94 61 95 62 96 63 97
REMARK H PARENT 19 8 5 15 8 18 26 31 85 50 53 61
REMARK Flexibility Score: inf
ROOT
ATOM      1  C   UNL A   1      37.293  20.371  24.334  1.00  0.00     0.002 C 
ENDROOT
BRANCH   1   2
ATOM      2  C   UNL A   1      36.133  20.941  25.150  1.00  0.00     0.002 C 
BRANCH   2   3
ATOM      3  C   UNL A   1      34.729  20.330  25.018  1.00  0.00     0.021 C 
BRANCH   3   4
ATOM      4  C   UNL A   1      33.506  21.181  24.627  1.00  0.00     0.116 C 
BRANCH   4   5
ATOM      5  N   UNL A   1      32.446  21.342  25.611  1.00  0.00    -0.354 N 
ATOM      6  C   UNL A   1      31.327  22.173  25.704  1.00  0.00     0.245 C 
ATOM      7  O   UNL A   1      30.263  21.728  26.139  1.00  0.00    -0.272 OA
ATOM      8  H   UNL A   1      32.538  20.733  26.379  1.00  0.00     0.163 HD
BRANCH   6   9
ATOM      9  C   UNL A   1      31.374  23.595  25.146  1.00  0.00     0.117 C 
ATOM     10  C   UNL A   1      32.748  24.116  25.640  1.00  0.00     0.045 C 
BRANCH   9  11
ATOM     11  C   UNL A   1      31.282  23.905  23.623  1.00  0.00     0.035 C 
ATOM     12  C   UNL A   1      32.537  24.274  22.860  1.00  0.00     0.007 C 
ENDBRANCH   9  11
BRANCH   9  13
ATOM     13  N   UNL A   1      30.233  24.223  25.781  1.00  0.00    -0.324 N 
ATOM     14  C   UNL A   1      29.878  25.503  25.891  1.00  0.00     0.320 C 
ATOM     15  H   UNL A   1      29.609  23.592  26.207  1.00  0.00     0.166 HD
ATOM     16  O   UNL A   1      28.926  25.692  26.668  1.00  0.00    -0.248 OA
ATOM     17  N   UNL A   1      30.404  26.625  25.383  1.00  0.00    -0.306 N 
ATOM     18  H   UNL A   1      29.805  27.326  25.725  1.00  0.00     0.171 HD
BRANCH  17  19
ATOM     19  C   UNL A   1      31.367  27.368  24.610  1.00  0.00     0.064 A 
ATOM     20  C   UNL A   1      31.503  27.839  23.270  1.00  0.00    -0.026 A 
ATOM     21  C   UNL A   1      32.428  27.804  25.468  1.00  0.00     0.064 A 
ATOM     22  C   UNL A   1      30.459  28.409  22.322  1.00  0.00     0.046 C 
ATOM     23  C   UNL A   1      32.772  28.301  22.806  1.00  0.00     0.005 A 
ATOM     24  C   UNL A   1      33.604  28.414  25.019  1.00  0.00     0.023 A 
ATOM     25  Cl  UNL A   1      32.323  27.616  27.206  1.00  0.00    -0.082 Cl
ATOM     26  C   UNL A   1      33.806  28.600  23.670  1.00  0.00     0.002 A 
ENDBRANCH  17  19
ENDBRANCH   9  13
ENDBRANCH   6   9
ENDBRANCH   4   5
ENDBRANCH   3   4
ENDBRANCH   2   3
ENDBRANCH   1   2
BRANCH   1  27
ATOM     27  C   UNL A   1      38.177  19.334  24.996  1.00  0.00     0.021 C 
BRANCH  27  28
ATOM     28  C   UNL A   1      39.139  19.879  26.033  1.00  0.00     0.116 C 
BRANCH  28  29
ATOM     29  N   UNL A   1      40.401  19.153  26.086  1.00  0.00    -0.352 N 
ATOM     30  C   UNL A   1      41.666  19.644  26.352  1.00  0.00     0.251 C 
ATOM     31  H   UNL A   1      40.345  18.186  25.910  1.00  0.00     0.163 HD
ATOM     32  O   UNL A   1      42.644  18.934  26.248  1.00  0.00    -0.269 OA
BRANCH  30  33
ATOM     33  C   UNL A   1      41.807  21.074  26.724  1.00  0.00     0.039 A 
ATOM     34  C   UNL A   1      42.192  21.396  28.026  1.00  0.00     0.014 A 
ATOM     35  C   UNL A   1      41.635  22.078  25.768  1.00  0.00     0.014 A 
ATOM     36  C   UNL A   1      42.493  22.723  28.345  1.00  0.00     0.010 A 
ATOM     37  C   UNL A   1      42.024  23.380  26.062  1.00  0.00     0.010 A 
ATOM     38  C   UNL A   1      42.459  23.717  27.352  1.00  0.00    -0.014 A 
BRANCH  38  39
ATOM     39  C   UNL A   1      42.908  25.104  27.633  1.00  0.00     0.031 A 
ATOM     40  C   UNL A   1      41.955  26.106  28.222  1.00  0.00     0.074 A 
ATOM     41  C   UNL A   1      44.146  25.490  27.264  1.00  0.00     0.049 A 
ATOM     42  N   UNL A   1      42.147  27.374  28.478  1.00  0.00    -0.248 NA
ATOM     43  C   UNL A   1      40.599  25.629  28.536  1.00  0.00     0.031 C 
ATOM     44  C   UNL A   1      45.133  24.639  26.596  1.00  0.00     0.029 A 
ATOM     45  N   UNL A   1      44.774  26.708  27.365  1.00  0.00    -0.354 N 
ATOM     46  C   UNL A   1      40.933  27.852  28.956  1.00  0.00     0.074 A 
ATOM     47  C   UNL A   1      39.998  26.749  28.911  1.00  0.00     0.031 C 
ATOM     48  C   UNL A   1      46.237  25.359  26.345  1.00  0.00     0.029 A 
ATOM     49  C   UNL A   1      46.027  26.730  26.799  1.00  0.00     0.049 A 
ATOM     50  H   UNL A   1      44.365  27.490  27.802  1.00  0.00     0.167 HD
ATOM     51  C   UNL A   1      40.629  29.088  29.421  1.00  0.00     0.034 A 
ATOM     52  C   UNL A   1      46.902  27.743  26.641  1.00  0.00     0.034 A 
ATOM     53  C   UNL A   1      41.567  30.176  29.483  1.00  0.00     0.049 A 
ATOM     54  C   UNL A   1      46.555  29.101  27.185  1.00  0.00     0.074 A 
ATOM     55  C   UNL A   1      41.384  31.439  30.017  1.00  0.00     0.029 A 
ATOM     56  N   UNL A   1      42.858  30.140  28.977  1.00  0.00    -0.354 N 
ATOM     57  N   UNL A   1      45.460  29.490  27.792  1.00  0.00    -0.248 NA
ATOM     58  C   UNL A   1      47.575  30.151  27.054  1.00  0.00     0.031 C 
ATOM     59  C   UNL A   1      42.553  32.178  29.801  1.00  0.00     0.029 A 
ATOM     60  C   UNL A   1      43.476  31.363  29.166  1.00  0.00     0.049 A 
ATOM     61  H   UNL A   1      43.273  29.358  28.546  1.00  0.00     0.167 HD
ATOM     62  C   UNL A   1      45.666  30.821  28.137  1.00  0.00     0.074 A 
ATOM     63  C   UNL A   1      47.002  31.164  27.693  1.00  0.00     0.031 C 
ATOM     64  C   UNL A   1      44.820  31.684  28.751  1.00  0.00     0.034 A 
BRANCH  51  65
ATOM     65  C   UNL A   1      39.230  29.309  29.937  1.00  0.00     0.023 A 
ATOM     66  C   UNL A   1      38.902  28.920  31.252  1.00  0.00     0.012 A 
ATOM     67  C   UNL A   1      38.249  29.926  29.137  1.00  0.00     0.148 A 
ATOM     68  C   UNL A   1      37.610  29.095  31.747  1.00  0.00     0.002 A 
ATOM     69  C   UNL A   1      36.977  30.143  29.654  1.00  0.00     0.091 A 
ATOM     70  F   UNL A   1      38.569  30.272  27.882  1.00  0.00    -0.205 F 
ATOM     71  C   UNL A   1      36.651  29.714  30.951  1.00  0.00     0.022 A 
BRANCH  69  72
ATOM     72  S   UNL A   1      35.695  31.007  28.739  1.00  0.00     0.127 S 
ATOM     73  O   UNL A   1      35.089  29.915  27.978  1.00  0.00    -0.237 OA
ATOM     74  O   UNL A   1      34.856  31.540  29.812  1.00  0.00    -0.237 OA
ATOM     75  O   UNL A   1      36.382  32.017  27.947  1.00  0.00    -0.744 OA
ENDBRANCH  69  72
ENDBRANCH  51  65
BRANCH  52  76
ATOM     76  C   UNL A   1      48.205  27.490  25.966  1.00  0.00     0.023 A 
ATOM     77  C   UNL A   1      49.316  27.072  26.723  1.00  0.00     0.012 A 
ATOM     78  C   UNL A   1      48.330  27.608  24.568  1.00  0.00     0.148 A 
ATOM     79  C   UNL A   1      50.536  26.799  26.102  1.00  0.00     0.002 A 
ATOM     80  C   UNL A   1      49.530  27.278  23.950  1.00  0.00     0.091 A 
ATOM     81  F   UNL A   1      47.263  28.017  23.868  1.00  0.00    -0.205 F 
ATOM     82  C   UNL A   1      50.640  26.890  24.716  1.00  0.00     0.022 A 
BRANCH  80  83
ATOM     83  S   UNL A   1      49.713  27.230  22.164  1.00  0.00     0.127 S 
ATOM     84  O   UNL A   1      49.451  28.620  21.798  1.00  0.00    -0.237 OA
ATOM     85  O   UNL A   1      51.105  26.804  22.016  1.00  0.00    -0.237 OA
ATOM     86  O   UNL A   1      48.735  26.259  21.692  1.00  0.00    -0.744 OA
ENDBRANCH  80  83
ENDBRANCH  52  76
BRANCH  64  87
ATOM     87  C   UNL A   1      45.313  33.086  29.004  1.00  0.00     0.023 A 
ATOM     88  C   UNL A   1      46.001  33.383  30.197  1.00  0.00     0.012 A 
ATOM     89  C   UNL A   1      45.160  34.089  28.026  1.00  0.00     0.148 A 
ATOM     90  C   UNL A   1      46.504  34.664  30.426  1.00  0.00     0.002 A 
ATOM     91  C   UNL A   1      45.709  35.347  28.237  1.00  0.00     0.091 A 
ATOM     92  F   UNL A   1      44.488  33.790  26.904  1.00  0.00    -0.205 F 
ATOM     93  C   UNL A   1      46.369  35.641  29.442  1.00  0.00     0.022 A 
BRANCH  91  94
ATOM     94  S   UNL A   1      45.669  36.641  26.992  1.00  0.00     0.127 S 
ATOM     95  O   UNL A   1      46.330  35.988  25.863  1.00  0.00    -0.237 OA
ATOM     96  O   UNL A   1      44.233  36.857  26.817  1.00  0.00    -0.237 OA
ATOM     97  O   UNL A   1      46.388  37.772  27.563  1.00  0.00    -0.744 OA
ENDBRANCH  91  94
ENDBRANCH  64  87
ENDBRANCH  38  39
ENDBRANCH  30  33
ENDBRANCH  28  29
ENDBRANCH  27  28
ENDBRANCH   1  27
TORSDOF 19
ENDMDL
