MODEL 1
REMARK VINA RESULT:     -10.9      0.000      0.000
REMARK SMILES Nc1ccc(O)c(C(=O)NCCCCCCNC(=O)c2ccc(-c3c4nc(c(-c5cccc(S(=O)(=O)[O-])c5F)c5ccc([nH]5)c(-c5cccc(S(=O)(=O)[O-])c5F)c5nc(c(-c6cccc(S(=O)(=O)[O-])c6F)c6ccc3[nH]6)C=C5)C=C4)cc2)c1
REMARK SMILES IDX 14 1 13 2 12 3 11 4 10 5 8 6 9 7 7 9 2 10 3 11 83 12 4 13
REMARK SMILES IDX 5 14 1 15 6 18 15 20 16 21 17 22 18 23 19 25 20 26 21 27
REMARK SMILES IDX 82 28 22 29 81 30 23 31 24 32 25 33 75 34 26 35 80 36 74 37
REMARK SMILES IDX 76 38 27 39 79 40 73 41 72 42 28 44 60 45 40 46 59 47 41 48
REMARK SMILES IDX 44 49 58 50 77 51 42 52 43 53 57 55 78 56 45 57 29 58 30 59
REMARK SMILES IDX 38 60 31 61 33 62 39 63 32 64 34 65 35 66 36 67 37 68 61 69
REMARK SMILES IDX 62 70 70 71 63 72 65 73 71 74 64 75 66 76 67 77 68 78 69 79
REMARK SMILES IDX 46 80 47 81 55 82 48 83 50 84 56 85 49 86 51 87 52 88 53 89
REMARK SMILES IDX 54 90
REMARK H PARENT 10 8 1 16 1 17 6 19 17 24 76 43 44 54
REMARK Flexibility Score: inf
ROOT
ATOM      1  C   UNL A   1      36.447  20.292  24.999  1.00  0.00     0.002 C 
ENDROOT
BRANCH   1   2
ATOM      2  C   UNL A   1      36.275  21.765  24.601  1.00  0.00     0.002 C 
BRANCH   2   3
ATOM      3  C   UNL A   1      36.068  22.730  25.779  1.00  0.00     0.021 C 
BRANCH   3   4
ATOM      4  C   UNL A   1      35.052  23.834  25.474  1.00  0.00     0.116 C 
BRANCH   4   5
ATOM      5  N   UNL A   1      33.863  23.641  26.283  1.00  0.00    -0.352 N 
ATOM      6  C   UNL A   1      32.782  22.807  26.203  1.00  0.00     0.255 C 
ATOM      7  O   UNL A   1      31.914  22.949  27.072  1.00  0.00    -0.269 OA
ATOM      8  H   UNL A   1      33.826  24.244  27.060  1.00  0.00     0.163 HD
BRANCH   6   9
ATOM      9  C   UNL A   1      32.604  21.704  25.213  1.00  0.00     0.083 A 
ATOM     10  C   UNL A   1      32.150  20.830  22.975  1.00  0.00     0.032 A 
ATOM     11  C   UNL A   1      32.444  19.542  23.417  1.00  0.00     0.029 A 
ATOM     12  C   UNL A   1      32.149  21.883  23.900  1.00  0.00     0.043 A 
ATOM     13  C   UNL A   1      32.811  19.318  24.741  1.00  0.00     0.049 A 
ATOM     14  C   UNL A   1      32.904  20.391  25.624  1.00  0.00     0.128 A 
BRANCH  10  15
ATOM     15  N   UNL A   1      31.728  21.042  21.670  1.00  0.00    -0.399 N 
ATOM     16  H   UNL A   1      30.843  21.435  21.495  1.00  0.00     0.156 HD
ATOM     17  H   UNL A   1      32.316  20.799  20.918  1.00  0.00     0.156 HD
ENDBRANCH  10  15
BRANCH  14  18
ATOM     18  O   UNL A   1      33.286  20.064  26.902  1.00  0.00    -0.507 OA
ATOM     19  H   UNL A   1      34.188  19.897  27.093  1.00  0.00     0.293 HD
ENDBRANCH  14  18
ENDBRANCH   6   9
ENDBRANCH   4   5
ENDBRANCH   3   4
ENDBRANCH   2   3
ENDBRANCH   1   2
BRANCH   1  20
ATOM     20  C   UNL A   1      37.852  19.726  24.776  1.00  0.00     0.021 C 
BRANCH  20  21
ATOM     21  C   UNL A   1      38.889  20.216  25.782  1.00  0.00     0.116 C 
BRANCH  21  22
ATOM     22  N   UNL A   1      39.932  19.225  25.997  1.00  0.00    -0.352 N 
ATOM     23  C   UNL A   1      41.281  19.412  26.172  1.00  0.00     0.251 C 
ATOM     24  H   UNL A   1      39.629  18.289  26.019  1.00  0.00     0.163 HD
ATOM     25  O   UNL A   1      42.047  18.458  26.095  1.00  0.00    -0.269 OA
BRANCH  23  26
ATOM     26  C   UNL A   1      41.803  20.767  26.448  1.00  0.00     0.039 A 
ATOM     27  C   UNL A   1      42.046  21.633  25.381  1.00  0.00     0.014 A 
ATOM     28  C   UNL A   1      42.063  21.175  27.760  1.00  0.00     0.014 A 
ATOM     29  C   UNL A   1      42.507  22.928  25.632  1.00  0.00     0.010 A 
ATOM     30  C   UNL A   1      42.450  22.487  28.013  1.00  0.00     0.010 A 
ATOM     31  C   UNL A   1      42.686  23.373  26.952  1.00  0.00    -0.014 A 
BRANCH  31  32
ATOM     32  C   UNL A   1      43.116  24.765  27.243  1.00  0.00     0.031 A 
ATOM     33  C   UNL A   1      42.164  25.730  27.899  1.00  0.00     0.074 A 
ATOM     34  C   UNL A   1      44.332  25.184  26.842  1.00  0.00     0.049 A 
ATOM     35  N   UNL A   1      42.338  26.994  28.182  1.00  0.00    -0.248 NA
ATOM     36  C   UNL A   1      40.832  25.215  28.261  1.00  0.00     0.031 C 
ATOM     37  C   UNL A   1      45.316  24.365  26.129  1.00  0.00     0.029 A 
ATOM     38  N   UNL A   1      44.940  26.409  26.951  1.00  0.00    -0.354 N 
ATOM     39  C   UNL A   1      41.133  27.435  28.716  1.00  0.00     0.074 A 
ATOM     40  C   UNL A   1      40.224  26.311  28.691  1.00  0.00     0.031 C 
ATOM     41  C   UNL A   1      46.403  25.108  25.869  1.00  0.00     0.029 A 
ATOM     42  C   UNL A   1      46.184  26.462  26.367  1.00  0.00     0.049 A 
ATOM     43  H   UNL A   1      44.524  27.178  27.404  1.00  0.00     0.167 HD
ATOM     44  C   UNL A   1      40.820  28.658  29.208  1.00  0.00     0.034 A 
ATOM     45  C   UNL A   1      47.048  27.489  26.238  1.00  0.00     0.034 A 
ATOM     46  C   UNL A   1      41.742  29.758  29.274  1.00  0.00     0.049 A 
ATOM     47  C   UNL A   1      46.687  28.825  26.828  1.00  0.00     0.074 A 
ATOM     48  C   UNL A   1      41.551  31.006  29.840  1.00  0.00     0.029 A 
ATOM     49  N   UNL A   1      43.024  29.750  28.747  1.00  0.00    -0.354 N 
ATOM     50  N   UNL A   1      45.602  29.175  27.476  1.00  0.00    -0.248 NA
ATOM     51  C   UNL A   1      47.683  29.899  26.702  1.00  0.00     0.031 C 
ATOM     52  C   UNL A   1      42.708  31.763  29.629  1.00  0.00     0.029 A 
ATOM     53  C   UNL A   1      43.632  30.975  28.963  1.00  0.00     0.049 A 
ATOM     54  H   UNL A   1      43.441  28.986  28.288  1.00  0.00     0.167 HD
ATOM     55  C   UNL A   1      45.802  30.493  27.870  1.00  0.00     0.074 A 
ATOM     56  C   UNL A   1      47.120  30.873  27.404  1.00  0.00     0.031 C 
ATOM     57  C   UNL A   1      44.965  31.320  28.544  1.00  0.00     0.034 A 
BRANCH  44  58
ATOM     58  C   UNL A   1      39.433  28.861  29.761  1.00  0.00     0.023 A 
ATOM     59  C   UNL A   1      39.141  28.456  31.079  1.00  0.00     0.012 A 
ATOM     60  C   UNL A   1      38.444  29.523  29.006  1.00  0.00     0.148 A 
ATOM     61  C   UNL A   1      37.877  28.675  31.626  1.00  0.00     0.002 A 
ATOM     62  C   UNL A   1      37.202  29.781  29.575  1.00  0.00     0.091 A 
ATOM     63  F   UNL A   1      38.735  29.884  27.749  1.00  0.00    -0.205 F 
ATOM     64  C   UNL A   1      36.914  29.347  30.879  1.00  0.00     0.022 A 
BRANCH  62  65
ATOM     65  S   UNL A   1      35.921  30.711  28.727  1.00  0.00     0.127 S 
ATOM     66  O   UNL A   1      35.310  29.678  27.892  1.00  0.00    -0.237 OA
ATOM     67  O   UNL A   1      35.088  31.168  29.840  1.00  0.00    -0.237 OA
ATOM     68  O   UNL A   1      36.606  31.773  28.002  1.00  0.00    -0.744 OA
ENDBRANCH  62  65
ENDBRANCH  44  58
BRANCH  45  69
ATOM     69  C   UNL A   1      48.365  27.281  25.573  1.00  0.00     0.023 A 
ATOM     70  C   UNL A   1      49.472  26.867  26.341  1.00  0.00     0.012 A 
ATOM     71  C   UNL A   1      48.529  27.480  24.188  1.00  0.00     0.148 A 
ATOM     72  C   UNL A   1      50.723  26.693  25.751  1.00  0.00     0.002 A 
ATOM     73  C   UNL A   1      49.765  27.250  23.597  1.00  0.00     0.091 A 
ATOM     74  F   UNL A   1      47.468  27.884  23.475  1.00  0.00    -0.205 F 
ATOM     75  C   UNL A   1      50.869  26.875  24.379  1.00  0.00     0.022 A 
BRANCH  73  76
ATOM     76  S   UNL A   1      50.009  27.333  21.819  1.00  0.00     0.127 S 
ATOM     77  O   UNL A   1      49.724  28.738  21.543  1.00  0.00    -0.237 OA
ATOM     78  O   UNL A   1      51.416  26.952  21.689  1.00  0.00    -0.237 OA
ATOM     79  O   UNL A   1      49.075  26.372  21.249  1.00  0.00    -0.744 OA
ENDBRANCH  73  76
ENDBRANCH  45  69
BRANCH  57  80
ATOM     80  C   UNL A   1      45.460  32.707  28.865  1.00  0.00     0.023 A 
ATOM     81  C   UNL A   1      46.193  32.938  30.045  1.00  0.00     0.012 A 
ATOM     82  C   UNL A   1      45.260  33.765  27.956  1.00  0.00     0.148 A 
ATOM     83  C   UNL A   1      46.690  34.208  30.332  1.00  0.00     0.002 A 
ATOM     84  C   UNL A   1      45.803  35.014  28.222  1.00  0.00     0.091 A 
ATOM     85  F   UNL A   1      44.544  33.528  26.847  1.00  0.00    -0.205 F 
ATOM     86  C   UNL A   1      46.506  35.242  29.417  1.00  0.00     0.022 A 
BRANCH  84  87
ATOM     87  S   UNL A   1      45.704  36.378  27.057  1.00  0.00     0.127 S 
ATOM     88  O   UNL A   1      46.491  37.407  27.734  1.00  0.00    -0.237 OA
ATOM     89  O   UNL A   1      46.335  35.812  25.864  1.00  0.00    -0.237 OA
ATOM     90  O   UNL A   1      44.285  36.674  26.906  1.00  0.00    -0.744 OA
ENDBRANCH  84  87
ENDBRANCH  57  80
ENDBRANCH  31  32
ENDBRANCH  23  26
ENDBRANCH  21  22
ENDBRANCH  20  21
ENDBRANCH   1  20
TORSDOF 18
ENDMDL
MODEL 2
REMARK VINA RESULT:     -10.7      7.066     12.120
REMARK SMILES Nc1ccc(O)c(C(=O)NCCCCCCNC(=O)c2ccc(-c3c4nc(c(-c5cccc(S(=O)(=O)[O-])c5F)c5ccc([nH]5)c(-c5cccc(S(=O)(=O)[O-])c5F)c5nc(c(-c6cccc(S(=O)(=O)[O-])c6F)c6ccc3[nH]6)C=C5)C=C4)cc2)c1
REMARK SMILES IDX 14 1 13 2 12 3 11 4 10 5 8 6 9 7 7 9 2 10 3 11 83 12 4 13
REMARK SMILES IDX 5 14 1 15 6 18 15 20 16 21 17 22 18 23 19 25 20 26 21 27
REMARK SMILES IDX 82 28 22 29 81 30 23 31 24 32 25 33 75 34 26 35 80 36 74 37
REMARK SMILES IDX 76 38 27 39 79 40 73 41 72 42 28 44 60 45 40 46 59 47 41 48
REMARK SMILES IDX 44 49 58 50 77 51 42 52 43 53 57 55 78 56 45 57 29 58 30 59
REMARK SMILES IDX 38 60 31 61 33 62 39 63 32 64 34 65 35 66 36 67 37 68 61 69
REMARK SMILES IDX 62 70 70 71 63 72 65 73 71 74 64 75 66 76 67 77 68 78 69 79
REMARK SMILES IDX 46 80 47 81 55 82 48 83 50 84 56 85 49 86 51 87 52 88 53 89
REMARK SMILES IDX 54 90
REMARK H PARENT 10 8 1 16 1 17 6 19 17 24 76 43 44 54
REMARK Flexibility Score: inf
ROOT
ATOM      1  C   UNL A   1      31.812  30.699  25.913  1.00  0.00     0.002 C 
ENDROOT
BRANCH   1   2
ATOM      2  C   UNL A   1      32.679  29.627  26.588  1.00  0.00     0.002 C 
BRANCH   2   3
ATOM      3  C   UNL A   1      33.669  28.915  25.651  1.00  0.00     0.021 C 
BRANCH   3   4
ATOM      4  C   UNL A   1      33.609  27.390  25.767  1.00  0.00     0.116 C 
BRANCH   4   5
ATOM      5  N   UNL A   1      33.764  26.794  24.453  1.00  0.00    -0.352 N 
ATOM      6  C   UNL A   1      32.935  26.623  23.380  1.00  0.00     0.255 C 
ATOM      7  O   UNL A   1      33.410  26.020  22.410  1.00  0.00    -0.269 OA
ATOM      8  H   UNL A   1      34.668  26.433  24.301  1.00  0.00     0.163 HD
BRANCH   6   9
ATOM      9  C   UNL A   1      31.549  27.164  23.256  1.00  0.00     0.083 A 
ATOM     10  C   UNL A   1      29.125  27.052  23.559  1.00  0.00     0.032 A 
ATOM     11  C   UNL A   1      29.006  28.362  23.099  1.00  0.00     0.029 A 
ATOM     12  C   UNL A   1      30.386  26.440  23.550  1.00  0.00     0.043 A 
ATOM     13  C   UNL A   1      30.135  29.078  22.713  1.00  0.00     0.049 A 
ATOM     14  C   UNL A   1      31.393  28.489  22.804  1.00  0.00     0.128 A 
BRANCH  10  15
ATOM     15  N   UNL A   1      27.992  26.321  23.888  1.00  0.00    -0.399 N 
ATOM     16  H   UNL A   1      27.252  26.752  24.372  1.00  0.00     0.156 HD
ATOM     17  H   UNL A   1      27.929  25.372  23.636  1.00  0.00     0.156 HD
ENDBRANCH  10  15
BRANCH  14  18
ATOM     18  O   UNL A   1      32.442  29.284  22.411  1.00  0.00    -0.507 OA
ATOM     19  H   UNL A   1      32.887  29.817  23.040  1.00  0.00     0.293 HD
ENDBRANCH  14  18
ENDBRANCH   6   9
ENDBRANCH   4   5
ENDBRANCH   3   4
ENDBRANCH   2   3
ENDBRANCH   1   2
BRANCH   1  20
ATOM     20  C   UNL A   1      31.553  31.945  26.763  1.00  0.00     0.021 C 
BRANCH  20  21
ATOM     21  C   UNL A   1      32.817  32.597  27.316  1.00  0.00     0.116 C 
BRANCH  21  22
ATOM     22  N   UNL A   1      32.601  34.002  27.624  1.00  0.00    -0.352 N 
ATOM     23  C   UNL A   1      33.142  34.762  28.631  1.00  0.00     0.251 C 
ATOM     24  H   UNL A   1      31.977  34.475  27.026  1.00  0.00     0.163 HD
ATOM     25  O   UNL A   1      32.666  35.860  28.895  1.00  0.00    -0.269 OA
BRANCH  23  26
ATOM     26  C   UNL A   1      34.297  34.246  29.397  1.00  0.00     0.039 A 
ATOM     27  C   UNL A   1      34.067  33.516  30.565  1.00  0.00     0.014 A 
ATOM     28  C   UNL A   1      35.604  34.496  28.968  1.00  0.00     0.014 A 
ATOM     29  C   UNL A   1      35.149  32.995  31.278  1.00  0.00     0.010 A 
ATOM     30  C   UNL A   1      36.675  33.914  29.636  1.00  0.00     0.010 A 
ATOM     31  C   UNL A   1      36.460  33.167  30.804  1.00  0.00    -0.014 A 
BRANCH  31  32
ATOM     32  C   UNL A   1      37.620  32.569  31.514  1.00  0.00     0.031 A 
ATOM     33  C   UNL A   1      38.364  31.409  30.905  1.00  0.00     0.074 A 
ATOM     34  C   UNL A   1      37.951  33.014  32.742  1.00  0.00     0.049 A 
ATOM     35  N   UNL A   1      39.362  30.722  31.397  1.00  0.00    -0.248 NA
ATOM     36  C   UNL A   1      37.910  30.941  29.585  1.00  0.00     0.031 C 
ATOM     37  C   UNL A   1      37.259  34.082  33.469  1.00  0.00     0.029 A 
ATOM     38  N   UNL A   1      38.936  32.610  33.607  1.00  0.00    -0.354 N 
ATOM     39  C   UNL A   1      39.630  29.723  30.470  1.00  0.00     0.074 A 
ATOM     40  C   UNL A   1      38.671  29.872  29.399  1.00  0.00     0.031 C 
ATOM     41  C   UNL A   1      37.843  34.249  34.667  1.00  0.00     0.029 A 
ATOM     42  C   UNL A   1      38.928  33.284  34.807  1.00  0.00     0.049 A 
ATOM     43  H   UNL A   1      39.586  31.903  33.391  1.00  0.00     0.167 HD
ATOM     44  C   UNL A   1      40.604  28.782  30.495  1.00  0.00     0.034 A 
ATOM     45  C   UNL A   1      39.700  33.133  35.900  1.00  0.00     0.034 A 
ATOM     46  C   UNL A   1      41.585  28.667  31.539  1.00  0.00     0.049 A 
ATOM     47  C   UNL A   1      40.798  32.104  35.883  1.00  0.00     0.074 A 
ATOM     48  C   UNL A   1      42.669  27.810  31.610  1.00  0.00     0.029 A 
ATOM     49  N   UNL A   1      41.596  29.422  32.701  1.00  0.00    -0.354 N 
ATOM     50  N   UNL A   1      41.138  31.276  34.925  1.00  0.00    -0.248 NA
ATOM     51  C   UNL A   1      41.643  32.014  37.082  1.00  0.00     0.031 C 
ATOM     52  C   UNL A   1      43.319  28.027  32.829  1.00  0.00     0.029 A 
ATOM     53  C   UNL A   1      42.660  29.043  33.501  1.00  0.00     0.049 A 
ATOM     54  H   UNL A   1      40.944  30.126  32.924  1.00  0.00     0.167 HD
ATOM     55  C   UNL A   1      42.259  30.597  35.388  1.00  0.00     0.074 A 
ATOM     56  C   UNL A   1      42.551  31.124  36.705  1.00  0.00     0.031 C 
ATOM     57  C   UNL A   1      42.974  29.615  34.785  1.00  0.00     0.034 A 
BRANCH  44  58
ATOM     58  C   UNL A   1      40.692  27.827  29.333  1.00  0.00     0.023 A 
ATOM     59  C   UNL A   1      39.840  26.705  29.285  1.00  0.00     0.012 A 
ATOM     60  C   UNL A   1      41.560  28.081  28.252  1.00  0.00     0.148 A 
ATOM     61  C   UNL A   1      39.873  25.833  28.198  1.00  0.00     0.002 A 
ATOM     62  C   UNL A   1      41.554  27.234  27.151  1.00  0.00     0.091 A 
ATOM     63  F   UNL A   1      42.376  29.142  28.325  1.00  0.00    -0.205 F 
ATOM     64  C   UNL A   1      40.720  26.104  27.127  1.00  0.00     0.022 A 
BRANCH  62  65
ATOM     65  S   UNL A   1      42.547  27.540  25.686  1.00  0.00     0.127 S 
ATOM     66  O   UNL A   1      42.149  28.905  25.341  1.00  0.00    -0.237 OA
ATOM     67  O   UNL A   1      43.909  27.415  26.207  1.00  0.00    -0.237 OA
ATOM     68  O   UNL A   1      42.167  26.519  24.720  1.00  0.00    -0.744 OA
ENDBRANCH  62  65
ENDBRANCH  44  58
BRANCH  45  69
ATOM     69  C   UNL A   1      39.504  34.018  37.084  1.00  0.00     0.023 A 
ATOM     70  C   UNL A   1      39.904  35.367  37.014  1.00  0.00     0.012 A 
ATOM     71  C   UNL A   1      38.918  33.537  38.271  1.00  0.00     0.148 A 
ATOM     72  C   UNL A   1      39.760  36.210  38.116  1.00  0.00     0.002 A 
ATOM     73  C   UNL A   1      38.725  34.397  39.345  1.00  0.00     0.091 A 
ATOM     74  F   UNL A   1      38.554  32.249  38.323  1.00  0.00    -0.205 F 
ATOM     75  C   UNL A   1      39.163  35.730  39.277  1.00  0.00     0.022 A 
BRANCH  73  76
ATOM     76  S   UNL A   1      37.846  33.897  40.830  1.00  0.00     0.127 S 
ATOM     77  O   UNL A   1      36.677  33.222  40.274  1.00  0.00    -0.237 OA
ATOM     78  O   UNL A   1      38.820  33.014  41.474  1.00  0.00    -0.237 OA
ATOM     79  O   UNL A   1      37.581  35.128  41.562  1.00  0.00    -0.744 OA
ENDBRANCH  73  76
ENDBRANCH  45  69
BRANCH  57  80
ATOM     80  C   UNL A   1      44.173  29.072  35.516  1.00  0.00     0.023 A 
ATOM     81  C   UNL A   1      45.431  29.690  35.365  1.00  0.00     0.012 A 
ATOM     82  C   UNL A   1      44.036  27.994  36.413  1.00  0.00     0.148 A 
ATOM     83  C   UNL A   1      46.539  29.221  36.068  1.00  0.00     0.002 A 
ATOM     84  C   UNL A   1      45.132  27.566  37.150  1.00  0.00     0.091 A 
ATOM     85  F   UNL A   1      42.835  27.409  36.529  1.00  0.00    -0.205 F 
ATOM     86  C   UNL A   1      46.388  28.168  36.968  1.00  0.00     0.022 A 
BRANCH  84  87
ATOM     87  S   UNL A   1      45.010  26.286  38.404  1.00  0.00     0.127 S 
ATOM     88  O   UNL A   1      46.398  26.172  38.849  1.00  0.00    -0.237 OA
ATOM     89  O   UNL A   1      44.104  26.893  39.379  1.00  0.00    -0.237 OA
ATOM     90  O   UNL A   1      44.473  25.112  37.729  1.00  0.00    -0.744 OA
ENDBRANCH  84  87
ENDBRANCH  57  80
ENDBRANCH  31  32
ENDBRANCH  23  26
ENDBRANCH  21  22
ENDBRANCH  20  21
ENDBRANCH   1  20
TORSDOF 18
ENDMDL
MODEL 3
REMARK VINA RESULT:     -10.6      5.698      8.829
REMARK SMILES Nc1ccc(O)c(C(=O)NCCCCCCNC(=O)c2ccc(-c3c4nc(c(-c5cccc(S(=O)(=O)[O-])c5F)c5ccc([nH]5)c(-c5cccc(S(=O)(=O)[O-])c5F)c5nc(c(-c6cccc(S(=O)(=O)[O-])c6F)c6ccc3[nH]6)C=C5)C=C4)cc2)c1
REMARK SMILES IDX 14 1 13 2 12 3 11 4 10 5 8 6 9 7 7 9 2 10 3 11 83 12 4 13
REMARK SMILES IDX 5 14 1 15 6 18 15 20 16 21 17 22 18 23 19 25 20 26 21 27
REMARK SMILES IDX 82 28 22 29 81 30 23 31 24 32 25 33 75 34 26 35 80 36 74 37
REMARK SMILES IDX 76 38 27 39 79 40 73 41 72 42 28 44 60 45 40 46 59 47 41 48
REMARK SMILES IDX 44 49 58 50 77 51 42 52 43 53 57 55 78 56 45 57 29 58 30 59
REMARK SMILES IDX 38 60 31 61 33 62 39 63 32 64 34 65 35 66 36 67 37 68 61 69
REMARK SMILES IDX 62 70 70 71 63 72 65 73 71 74 64 75 66 76 67 77 68 78 69 79
REMARK SMILES IDX 46 80 47 81 55 82 48 83 50 84 56 85 49 86 51 87 52 88 53 89
REMARK SMILES IDX 54 90
REMARK H PARENT 10 8 1 16 1 17 6 19 17 24 76 43 44 54
REMARK Flexibility Score: inf
ROOT
ATOM      1  C   UNL A   1      31.408  27.706  26.167  1.00  0.00     0.002 C 
ENDROOT
BRANCH   1   2
ATOM      2  C   UNL A   1      30.919  26.252  26.189  1.00  0.00     0.002 C 
BRANCH   2   3
ATOM      3  C   UNL A   1      31.493  25.362  25.075  1.00  0.00     0.021 C 
BRANCH   3   4
ATOM      4  C   UNL A   1      30.700  25.455  23.769  1.00  0.00     0.116 C 
BRANCH   4   5
ATOM      5  N   UNL A   1      29.289  25.622  24.065  1.00  0.00    -0.352 N 
ATOM      6  C   UNL A   1      28.395  26.643  23.899  1.00  0.00     0.255 C 
ATOM      7  O   UNL A   1      27.248  26.440  24.314  1.00  0.00    -0.269 OA
ATOM      8  H   UNL A   1      28.888  24.823  24.477  1.00  0.00     0.163 HD
BRANCH   6   9
ATOM      9  C   UNL A   1      28.667  27.933  23.199  1.00  0.00     0.083 A 
ATOM     10  C   UNL A   1      30.118  29.535  22.055  1.00  0.00     0.032 A 
ATOM     11  C   UNL A   1      29.012  30.330  21.763  1.00  0.00     0.029 A 
ATOM     12  C   UNL A   1      29.943  28.390  22.844  1.00  0.00     0.043 A 
ATOM     13  C   UNL A   1      27.740  29.949  22.182  1.00  0.00     0.049 A 
ATOM     14  C   UNL A   1      27.570  28.756  22.879  1.00  0.00     0.128 A 
BRANCH  10  15
ATOM     15  N   UNL A   1      31.391  29.946  21.687  1.00  0.00    -0.399 N 
ATOM     16  H   UNL A   1      31.770  30.772  22.065  1.00  0.00     0.156 HD
ATOM     17  H   UNL A   1      31.916  29.411  21.049  1.00  0.00     0.156 HD
ENDBRANCH  10  15
BRANCH  14  18
ATOM     18  O   UNL A   1      26.275  28.467  23.234  1.00  0.00    -0.507 OA
ATOM     19  H   UNL A   1      25.830  29.003  23.861  1.00  0.00     0.293 HD
ENDBRANCH  14  18
ENDBRANCH   6   9
ENDBRANCH   4   5
ENDBRANCH   3   4
ENDBRANCH   2   3
ENDBRANCH   1   2
BRANCH   1  20
ATOM     20  C   UNL A   1      32.463  28.047  27.221  1.00  0.00     0.021 C 
BRANCH  20  21
ATOM     21  C   UNL A   1      33.703  28.738  26.663  1.00  0.00     0.116 C 
BRANCH  21  22
ATOM     22  N   UNL A   1      33.693  30.164  26.949  1.00  0.00    -0.352 N 
ATOM     23  C   UNL A   1      34.545  30.895  27.739  1.00  0.00     0.251 C 
ATOM     24  H   UNL A   1      32.973  30.677  26.518  1.00  0.00     0.163 HD
ATOM     25  O   UNL A   1      34.249  32.039  28.067  1.00  0.00    -0.269 OA
BRANCH  23  26
ATOM     26  C   UNL A   1      35.818  30.295  28.194  1.00  0.00     0.039 A 
ATOM     27  C   UNL A   1      36.927  30.330  27.347  1.00  0.00     0.014 A 
ATOM     28  C   UNL A   1      35.909  29.686  29.449  1.00  0.00     0.014 A 
ATOM     29  C   UNL A   1      38.144  29.797  27.779  1.00  0.00     0.010 A 
ATOM     30  C   UNL A   1      37.138  29.223  29.907  1.00  0.00     0.010 A 
ATOM     31  C   UNL A   1      38.265  29.264  29.073  1.00  0.00    -0.014 A 
BRANCH  31  32
ATOM     32  C   UNL A   1      39.565  28.748  29.575  1.00  0.00     0.031 A 
ATOM     33  C   UNL A   1      40.280  29.458  30.693  1.00  0.00     0.074 A 
ATOM     34  C   UNL A   1      40.140  27.691  28.968  1.00  0.00     0.049 A 
ATOM     35  N   UNL A   1      41.444  29.192  31.226  1.00  0.00    -0.248 NA
ATOM     36  C   UNL A   1      39.616  30.639  31.270  1.00  0.00     0.031 C 
ATOM     37  C   UNL A   1      39.581  26.964  27.826  1.00  0.00     0.029 A 
ATOM     38  N   UNL A   1      41.333  27.058  29.210  1.00  0.00    -0.354 N 
ATOM     39  C   UNL A   1      41.669  30.187  32.169  1.00  0.00     0.074 A 
ATOM     40  C   UNL A   1      40.535  31.082  32.116  1.00  0.00     0.031 C 
ATOM     41  C   UNL A   1      40.427  25.984  27.469  1.00  0.00     0.029 A 
ATOM     42  C   UNL A   1      41.601  26.032  28.334  1.00  0.00     0.049 A 
ATOM     43  H   UNL A   1      41.941  27.316  29.940  1.00  0.00     0.167 HD
ATOM     44  C   UNL A   1      42.712  30.329  33.022  1.00  0.00     0.034 A 
ATOM     45  C   UNL A   1      42.676  25.226  28.233  1.00  0.00     0.034 A 
ATOM     46  C   UNL A   1      43.814  29.410  33.102  1.00  0.00     0.049 A 
ATOM     47  C   UNL A   1      43.803  25.383  29.218  1.00  0.00     0.074 A 
ATOM     48  C   UNL A   1      44.871  29.412  33.996  1.00  0.00     0.029 A 
ATOM     49  N   UNL A   1      44.011  28.332  32.254  1.00  0.00    -0.354 N 
ATOM     50  N   UNL A   1      43.918  26.233  30.210  1.00  0.00    -0.248 NA
ATOM     51  C   UNL A   1      44.930  24.448  29.094  1.00  0.00     0.031 C 
ATOM     52  C   UNL A   1      45.722  28.352  33.668  1.00  0.00     0.029 A 
ATOM     53  C   UNL A   1      45.178  27.669  32.594  1.00  0.00     0.049 A 
ATOM     54  H   UNL A   1      43.409  28.074  31.519  1.00  0.00     0.167 HD
ATOM     55  C   UNL A   1      45.108  25.909  30.852  1.00  0.00     0.074 A 
ATOM     56  C   UNL A   1      45.667  24.773  30.148  1.00  0.00     0.031 C 
ATOM     57  C   UNL A   1      45.693  26.505  31.920  1.00  0.00     0.034 A 
BRANCH  44  58
ATOM     58  C   UNL A   1      42.692  31.496  33.973  1.00  0.00     0.023 A 
ATOM     59  C   UNL A   1      43.187  32.747  33.555  1.00  0.00     0.012 A 
ATOM     60  C   UNL A   1      42.112  31.375  35.252  1.00  0.00     0.148 A 
ATOM     61  C   UNL A   1      43.137  33.852  34.404  1.00  0.00     0.002 A 
ATOM     62  C   UNL A   1      42.022  32.492  36.075  1.00  0.00     0.091 A 
ATOM     63  F   UNL A   1      41.664  30.173  35.639  1.00  0.00    -0.205 F 
ATOM     64  C   UNL A   1      42.544  33.727  35.658  1.00  0.00     0.022 A 
BRANCH  62  65
ATOM     65  S   UNL A   1      41.204  32.456  37.674  1.00  0.00     0.127 S 
ATOM     66  O   UNL A   1      41.226  33.870  38.047  1.00  0.00    -0.237 OA
ATOM     67  O   UNL A   1      39.881  31.936  37.329  1.00  0.00    -0.237 OA
ATOM     68  O   UNL A   1      42.003  31.577  38.517  1.00  0.00    -0.744 OA
ENDBRANCH  62  65
ENDBRANCH  44  58
BRANCH  45  69
ATOM     69  C   UNL A   1      42.716  24.156  27.195  1.00  0.00     0.023 A 
ATOM     70  C   UNL A   1      43.418  24.381  25.994  1.00  0.00     0.012 A 
ATOM     71  C   UNL A   1      42.075  22.917  27.393  1.00  0.00     0.148 A 
ATOM     72  C   UNL A   1      43.447  23.410  24.994  1.00  0.00     0.002 A 
ATOM     73  C   UNL A   1      42.156  21.932  26.416  1.00  0.00     0.091 A 
ATOM     74  F   UNL A   1      41.403  22.725  28.537  1.00  0.00    -0.205 F 
ATOM     75  C   UNL A   1      42.825  22.183  25.207  1.00  0.00     0.022 A 
BRANCH  73  76
ATOM     76  S   UNL A   1      41.497  20.279  26.662  1.00  0.00     0.127 S 
ATOM     77  O   UNL A   1      42.221  19.842  27.852  1.00  0.00    -0.237 OA
ATOM     78  O   UNL A   1      40.074  20.550  26.870  1.00  0.00    -0.237 OA
ATOM     79  O   UNL A   1      41.793  19.553  25.435  1.00  0.00    -0.744 OA
ENDBRANCH  73  76
ENDBRANCH  45  69
BRANCH  57  80
ATOM     80  C   UNL A   1      46.984  25.919  32.429  1.00  0.00     0.023 A 
ATOM     81  C   UNL A   1      46.969  25.011  33.507  1.00  0.00     0.012 A 
ATOM     82  C   UNL A   1      48.204  26.212  31.789  1.00  0.00     0.148 A 
ATOM     83  C   UNL A   1      48.153  24.432  33.960  1.00  0.00     0.002 A 
ATOM     84  C   UNL A   1      49.371  25.591  32.211  1.00  0.00     0.091 A 
ATOM     85  F   UNL A   1      48.199  27.092  30.777  1.00  0.00    -0.205 F 
ATOM     86  C   UNL A   1      49.350  24.711  33.306  1.00  0.00     0.022 A 
BRANCH  84  87
ATOM     87  S   UNL A   1      50.941  25.812  31.367  1.00  0.00     0.127 S 
ATOM     88  O   UNL A   1      51.671  24.613  31.776  1.00  0.00    -0.237 OA
ATOM     89  O   UNL A   1      50.537  25.830  29.961  1.00  0.00    -0.237 OA
ATOM     90  O   UNL A   1      51.486  27.072  31.855  1.00  0.00    -0.744 OA
ENDBRANCH  84  87
ENDBRANCH  57  80
ENDBRANCH  31  32
ENDBRANCH  23  26
ENDBRANCH  21  22
ENDBRANCH  20  21
ENDBRANCH   1  20
TORSDOF 18
ENDMDL
