MODEL 1
REMARK VINA RESULT:     -10.9      0.000      0.000
REMARK SMILES COc1cc([C@@H]2CC(=O)Nc3c(C(=O)NCCCCCCNC(=O)c4ccc(-c5c6nc(c(-c7cccc(S(=O)(=O)[O-])c7F)c7ccc([nH]7)c(-c7cccc(S(=O)(=O)[O-])c7F)c7nc(c(-c8cccc(S(=O)(=O)[O-])c8F)c8ccc5[nH]8)C=C7)C=C6)cc4)cn(-c4ccccc4)c32)cc(OC)c1OC
REMARK SMILES IDX 19 1 18 2 17 3 16 4 15 5 13 6 14 7 12 9 6 10 7 11 96 12 8 13
REMARK SMILES IDX 11 14 89 15 9 16 10 17 88 18 5 20 3 21 4 22 101 23 98 24
REMARK SMILES IDX 97 25 2 26 1 27 102 28 103 29 99 30 100 31 90 32 91 33 95 34
REMARK SMILES IDX 92 35 94 36 93 37 20 38 21 39 22 40 23 41 24 43 25 44 26 45
REMARK SMILES IDX 87 46 27 47 86 48 28 49 29 50 30 51 80 52 31 53 85 54 79 55
REMARK SMILES IDX 81 56 32 57 84 58 78 59 77 60 33 62 65 63 45 64 64 65 46 66
REMARK SMILES IDX 49 67 63 68 82 69 47 70 48 71 62 73 83 74 50 75 34 76 35 77
REMARK SMILES IDX 43 78 36 79 38 80 44 81 37 82 39 83 40 84 41 85 42 86 66 87
REMARK SMILES IDX 67 88 75 89 68 90 70 91 76 92 69 93 71 94 72 95 73 96 74 97
REMARK SMILES IDX 51 98 52 99 60 100 53 101 55 102 61 103 54 104 56 105 57 106
REMARK SMILES IDX 58 107 59 108
REMARK H PARENT 15 8 10 19 22 42 81 61 49 72
REMARK Flexibility Score: inf
ROOT
ATOM      1  C   UNL A   1      40.081  21.251  26.695  1.00  0.00     0.002 C 
ENDROOT
BRANCH   1   2
ATOM      2  C   UNL A   1      38.936  21.732  25.787  1.00  0.00     0.002 C 
BRANCH   2   3
ATOM      3  C   UNL A   1      38.360  23.100  26.161  1.00  0.00     0.021 C 
BRANCH   3   4
ATOM      4  C   UNL A   1      37.195  23.524  25.259  1.00  0.00     0.116 C 
BRANCH   4   5
ATOM      5  N   UNL A   1      35.989  22.859  25.666  1.00  0.00    -0.352 N 
ATOM      6  C   UNL A   1      34.679  23.242  25.683  1.00  0.00     0.254 C 
ATOM      7  O   UNL A   1      33.899  22.371  26.088  1.00  0.00    -0.269 OA
ATOM      8  H   UNL A   1      36.137  21.944  26.001  1.00  0.00     0.163 HD
BRANCH   6   9
ATOM      9  C   UNL A   1      34.173  24.533  25.194  1.00  0.00     0.081 A 
ATOM     10  C   UNL A   1      32.878  27.399  23.138  1.00  0.00     0.078 C 
ATOM     11  C   UNL A   1      33.452  26.981  21.776  1.00  0.00     0.115 C 
ATOM     12  C   UNL A   1      33.304  26.412  24.199  1.00  0.00     0.055 A 
ATOM     13  C   UNL A   1      33.479  25.483  21.572  1.00  0.00     0.225 C 
ATOM     14  C   UNL A   1      33.796  25.140  23.952  1.00  0.00     0.076 A 
ATOM     15  N   UNL A   1      33.489  26.680  25.535  1.00  0.00    -0.317 N 
ATOM     16  O   UNL A   1      33.288  24.948  20.481  1.00  0.00    -0.275 OA
ATOM     17  N   UNL A   1      33.841  24.714  22.647  1.00  0.00    -0.324 N 
ATOM     18  C   UNL A   1      34.029  25.566  26.120  1.00  0.00     0.107 A 
ATOM     19  H   UNL A   1      34.153  23.797  22.472  1.00  0.00     0.170 HD
BRANCH  10  20
ATOM     20  C   UNL A   1      31.371  27.615  23.016  1.00  0.00    -0.031 A 
ATOM     21  C   UNL A   1      29.100  26.989  23.684  1.00  0.00     0.164 A 
ATOM     22  C   UNL A   1      30.488  26.771  23.709  1.00  0.00     0.055 A 
ATOM     23  C   UNL A   1      28.554  28.093  23.007  1.00  0.00     0.203 A 
ATOM     24  C   UNL A   1      29.439  28.938  22.302  1.00  0.00     0.164 A 
ATOM     25  C   UNL A   1      30.823  28.684  22.302  1.00  0.00     0.055 A 
BRANCH  21  26
ATOM     26  O   UNL A   1      28.337  26.142  24.449  1.00  0.00    -0.493 OA
ATOM     27  C   UNL A   1      29.085  25.569  25.521  1.00  0.00     0.278 C 
ENDBRANCH  21  26
BRANCH  23  28
ATOM     28  O   UNL A   1      27.232  28.442  22.970  1.00  0.00    -0.490 OA
ATOM     29  C   UNL A   1      26.763  29.639  23.557  1.00  0.00     0.278 C 
ENDBRANCH  23  28
BRANCH  24  30
ATOM     30  O   UNL A   1      29.131  30.044  21.544  1.00  0.00    -0.493 OA
ATOM     31  C   UNL A   1      29.216  31.327  22.146  1.00  0.00     0.278 C 
ENDBRANCH  24  30
ENDBRANCH  10  20
BRANCH  15  32
ATOM     32  C   UNL A   1      33.290  27.911  26.189  1.00  0.00     0.045 A 
ATOM     33  C   UNL A   1      32.007  28.296  26.579  1.00  0.00     0.026 A 
ATOM     34  C   UNL A   1      34.379  28.771  26.359  1.00  0.00     0.026 A 
ATOM     35  C   UNL A   1      31.792  29.584  27.059  1.00  0.00     0.002 A 
ATOM     36  C   UNL A   1      34.155  30.062  26.831  1.00  0.00     0.002 A 
ATOM     37  C   UNL A   1      32.861  30.473  27.163  1.00  0.00     0.000 A 
ENDBRANCH  15  32
ENDBRANCH   6   9
ENDBRANCH   4   5
ENDBRANCH   3   4
ENDBRANCH   2   3
ENDBRANCH   1   2
BRANCH   1  38
ATOM     38  C   UNL A   1      41.069  20.262  26.058  1.00  0.00     0.021 C 
BRANCH  38  39
ATOM     39  C   UNL A   1      42.450  20.356  26.677  1.00  0.00     0.116 C 
BRANCH  39  40
ATOM     40  N   UNL A   1      43.500  20.203  25.661  1.00  0.00    -0.352 N 
ATOM     41  C   UNL A   1      44.205  21.185  24.990  1.00  0.00     0.251 C 
ATOM     42  H   UNL A   1      43.732  19.275  25.427  1.00  0.00     0.163 HD
ATOM     43  O   UNL A   1      44.822  20.939  23.971  1.00  0.00    -0.269 OA
BRANCH  41  44
ATOM     44  C   UNL A   1      44.197  22.539  25.566  1.00  0.00     0.039 A 
ATOM     45  C   UNL A   1      43.320  23.529  25.118  1.00  0.00     0.014 A 
ATOM     46  C   UNL A   1      45.068  22.769  26.623  1.00  0.00     0.014 A 
ATOM     47  C   UNL A   1      43.295  24.744  25.796  1.00  0.00     0.010 A 
ATOM     48  C   UNL A   1      44.872  23.855  27.421  1.00  0.00     0.010 A 
ATOM     49  C   UNL A   1      44.075  24.889  26.953  1.00  0.00    -0.014 A 
BRANCH  49  50
ATOM     50  C   UNL A   1      44.050  26.101  27.753  1.00  0.00     0.031 A 
ATOM     51  C   UNL A   1      45.217  26.996  27.555  1.00  0.00     0.074 A 
ATOM     52  C   UNL A   1      42.938  26.469  28.428  1.00  0.00     0.049 A 
ATOM     53  N   UNL A   1      46.151  27.260  28.406  1.00  0.00    -0.248 NA
ATOM     54  C   UNL A   1      45.465  27.537  26.209  1.00  0.00     0.031 C 
ATOM     55  C   UNL A   1      41.616  25.814  28.440  1.00  0.00     0.029 A 
ATOM     56  N   UNL A   1      42.701  27.608  29.125  1.00  0.00    -0.354 N 
ATOM     57  C   UNL A   1      46.962  28.207  27.786  1.00  0.00     0.074 A 
ATOM     58  C   UNL A   1      46.628  28.169  26.387  1.00  0.00     0.031 C 
ATOM     59  C   UNL A   1      40.680  26.692  28.858  1.00  0.00     0.029 A 
ATOM     60  C   UNL A   1      41.354  27.885  29.325  1.00  0.00     0.049 A 
ATOM     61  H   UNL A   1      43.423  28.190  29.459  1.00  0.00     0.167 HD
ATOM     62  C   UNL A   1      47.638  29.136  28.515  1.00  0.00     0.034 A 
ATOM     63  C   UNL A   1      40.828  29.038  29.800  1.00  0.00     0.034 A 
ATOM     64  C   UNL A   1      47.646  28.799  29.918  1.00  0.00     0.049 A 
ATOM     65  C   UNL A   1      41.907  29.724  30.544  1.00  0.00     0.074 A 
ATOM     66  C   UNL A   1      48.106  27.737  30.670  1.00  0.00     0.029 A 
ATOM     67  N   UNL A   1      46.734  29.457  30.709  1.00  0.00    -0.354 N 
ATOM     68  N   UNL A   1      42.459  29.226  31.616  1.00  0.00    -0.248 NA
ATOM     69  C   UNL A   1      42.700  30.713  29.833  1.00  0.00     0.031 C 
ATOM     70  C   UNL A   1      47.107  27.539  31.670  1.00  0.00     0.029 A 
ATOM     71  C   UNL A   1      46.133  28.528  31.516  1.00  0.00     0.049 A 
ATOM     72  H   UNL A   1      46.548  30.424  30.698  1.00  0.00     0.167 HD
ATOM     73  C   UNL A   1      43.817  29.470  31.450  1.00  0.00     0.074 A 
ATOM     74  C   UNL A   1      43.890  30.485  30.398  1.00  0.00     0.031 C 
ATOM     75  C   UNL A   1      44.757  28.617  31.961  1.00  0.00     0.034 A 
BRANCH  62  76
ATOM     76  C   UNL A   1      47.951  30.542  28.058  1.00  0.00     0.023 A 
ATOM     77  C   UNL A   1      46.853  31.389  27.785  1.00  0.00     0.012 A 
ATOM     78  C   UNL A   1      49.221  30.973  27.610  1.00  0.00     0.148 A 
ATOM     79  C   UNL A   1      47.003  32.572  27.053  1.00  0.00     0.002 A 
ATOM     80  C   UNL A   1      49.376  32.186  26.948  1.00  0.00     0.091 A 
ATOM     81  F   UNL A   1      50.273  30.156  27.695  1.00  0.00    -0.205 F 
ATOM     82  C   UNL A   1      48.266  32.974  26.638  1.00  0.00     0.022 A 
BRANCH  80  83
ATOM     83  S   UNL A   1      50.988  32.771  26.414  1.00  0.00     0.127 S 
ATOM     84  O   UNL A   1      51.856  32.220  27.451  1.00  0.00    -0.237 OA
ATOM     85  O   UNL A   1      51.114  32.141  25.099  1.00  0.00    -0.237 OA
ATOM     86  O   UNL A   1      50.881  34.224  26.371  1.00  0.00    -0.744 OA
ENDBRANCH  80  83
ENDBRANCH  62  76
BRANCH  63  87
ATOM     87  C   UNL A   1      39.574  29.707  29.386  1.00  0.00     0.023 A 
ATOM     88  C   UNL A   1      39.087  29.557  28.075  1.00  0.00     0.012 A 
ATOM     89  C   UNL A   1      38.719  30.283  30.355  1.00  0.00     0.148 A 
ATOM     90  C   UNL A   1      37.783  29.953  27.742  1.00  0.00     0.002 A 
ATOM     91  C   UNL A   1      37.429  30.681  30.020  1.00  0.00     0.091 A 
ATOM     92  F   UNL A   1      39.145  30.361  31.623  1.00  0.00    -0.205 F 
ATOM     93  C   UNL A   1      36.953  30.507  28.715  1.00  0.00     0.022 A 
BRANCH  91  94
ATOM     94  S   UNL A   1      36.297  31.392  31.225  1.00  0.00     0.127 S 
ATOM     95  O   UNL A   1      37.105  32.470  31.796  1.00  0.00    -0.237 OA
ATOM     96  O   UNL A   1      35.193  31.840  30.380  1.00  0.00    -0.237 OA
ATOM     97  O   UNL A   1      35.978  30.321  32.159  1.00  0.00    -0.744 OA
ENDBRANCH  91  94
ENDBRANCH  63  87
BRANCH  75  98
ATOM     98  C   UNL A   1      44.284  27.514  32.881  1.00  0.00     0.023 A 
ATOM     99  C   UNL A   1      44.079  26.191  32.431  1.00  0.00     0.012 A 
ATOM    100  C   UNL A   1      44.219  27.772  34.259  1.00  0.00     0.148 A 
ATOM    101  C   UNL A   1      43.797  25.157  33.329  1.00  0.00     0.002 A 
ATOM    102  C   UNL A   1      43.977  26.736  35.153  1.00  0.00     0.091 A 
ATOM    103  F   UNL A   1      44.433  29.029  34.675  1.00  0.00    -0.205 F 
ATOM    104  C   UNL A   1      43.757  25.427  34.693  1.00  0.00     0.022 A 
BRANCH 102 105
ATOM    105  S   UNL A   1      44.029  26.988  36.929  1.00  0.00     0.127 S 
ATOM    106  O   UNL A   1      45.213  27.832  37.083  1.00  0.00    -0.237 OA
ATOM    107  O   UNL A   1      42.758  27.666  37.185  1.00  0.00    -0.237 OA
ATOM    108  O   UNL A   1      44.129  25.661  37.523  1.00  0.00    -0.744 OA
ENDBRANCH 102 105
ENDBRANCH  75  98
ENDBRANCH  49  50
ENDBRANCH  41  44
ENDBRANCH  39  40
ENDBRANCH  38  39
ENDBRANCH   1  38
TORSDOF 21
ENDMDL
MODEL 2
REMARK VINA RESULT:     -10.8      3.565      9.099
REMARK SMILES COc1cc([C@@H]2CC(=O)Nc3c(C(=O)NCCCCCCNC(=O)c4ccc(-c5c6nc(c(-c7cccc(S(=O)(=O)[O-])c7F)c7ccc([nH]7)c(-c7cccc(S(=O)(=O)[O-])c7F)c7nc(c(-c8cccc(S(=O)(=O)[O-])c8F)c8ccc5[nH]8)C=C7)C=C6)cc4)cn(-c4ccccc4)c32)cc(OC)c1OC
REMARK SMILES IDX 19 1 18 2 17 3 16 4 15 5 13 6 14 7 12 9 6 10 7 11 96 12 8 13
REMARK SMILES IDX 11 14 89 15 9 16 10 17 88 18 5 20 3 21 4 22 101 23 98 24
REMARK SMILES IDX 97 25 2 26 1 27 102 28 103 29 99 30 100 31 90 32 91 33 95 34
REMARK SMILES IDX 92 35 94 36 93 37 20 38 21 39 22 40 23 41 24 43 25 44 26 45
REMARK SMILES IDX 87 46 27 47 86 48 28 49 29 50 30 51 80 52 31 53 85 54 79 55
REMARK SMILES IDX 81 56 32 57 84 58 78 59 77 60 33 62 65 63 45 64 64 65 46 66
REMARK SMILES IDX 49 67 63 68 82 69 47 70 48 71 62 73 83 74 50 75 34 76 35 77
REMARK SMILES IDX 43 78 36 79 38 80 44 81 37 82 39 83 40 84 41 85 42 86 66 87
REMARK SMILES IDX 67 88 75 89 68 90 70 91 76 92 69 93 71 94 72 95 73 96 74 97
REMARK SMILES IDX 51 98 52 99 60 100 53 101 55 102 61 103 54 104 56 105 57 106
REMARK SMILES IDX 58 107 59 108
REMARK H PARENT 15 8 10 19 22 42 81 61 49 72
REMARK Flexibility Score: inf
ROOT
ATOM      1  C   UNL A   1      35.607  24.153  24.382  1.00  0.00     0.002 C 
ENDROOT
BRANCH   1   2
ATOM      2  C   UNL A   1      34.207  24.788  24.325  1.00  0.00     0.002 C 
BRANCH   2   3
ATOM      3  C   UNL A   1      33.838  25.621  25.555  1.00  0.00     0.021 C 
BRANCH   3   4
ATOM      4  C   UNL A   1      33.848  27.129  25.278  1.00  0.00     0.116 C 
BRANCH   4   5
ATOM      5  N   UNL A   1      32.713  27.752  25.900  1.00  0.00    -0.352 N 
ATOM      6  C   UNL A   1      32.590  28.775  26.795  1.00  0.00     0.254 C 
ATOM      7  O   UNL A   1      31.423  29.057  27.090  1.00  0.00    -0.269 OA
ATOM      8  H   UNL A   1      31.850  27.361  25.627  1.00  0.00     0.163 HD
BRANCH   6   9
ATOM      9  C   UNL A   1      33.710  29.565  27.329  1.00  0.00     0.081 A 
ATOM     10  C   UNL A   1      35.957  32.262  28.669  1.00  0.00     0.078 C 
ATOM     11  C   UNL A   1      35.244  33.477  28.058  1.00  0.00     0.115 C 
ATOM     12  C   UNL A   1      35.267  30.991  28.233  1.00  0.00     0.055 A 
ATOM     13  C   UNL A   1      33.743  33.316  27.984  1.00  0.00     0.225 C 
ATOM     14  C   UNL A   1      33.990  30.920  27.701  1.00  0.00     0.076 A 
ATOM     15  N   UNL A   1      35.853  29.756  28.081  1.00  0.00    -0.317 N 
ATOM     16  O   UNL A   1      32.956  34.249  28.140  1.00  0.00    -0.275 OA
ATOM     17  N   UNL A   1      33.266  32.085  27.619  1.00  0.00    -0.324 N 
ATOM     18  C   UNL A   1      34.929  28.915  27.519  1.00  0.00     0.107 A 
ATOM     19  H   UNL A   1      32.344  32.031  27.278  1.00  0.00     0.170 HD
BRANCH  10  20
ATOM     20  C   UNL A   1      36.089  32.449  30.179  1.00  0.00    -0.031 A 
ATOM     21  C   UNL A   1      35.026  32.900  32.338  1.00  0.00     0.164 A 
ATOM     22  C   UNL A   1      34.961  32.798  30.938  1.00  0.00     0.055 A 
ATOM     23  C   UNL A   1      36.213  32.603  33.029  1.00  0.00     0.203 A 
ATOM     24  C   UNL A   1      37.353  32.260  32.267  1.00  0.00     0.164 A 
ATOM     25  C   UNL A   1      37.282  32.202  30.863  1.00  0.00     0.055 A 
BRANCH  21  26
ATOM     26  O   UNL A   1      33.849  33.184  32.984  1.00  0.00    -0.493 OA
ATOM     27  C   UNL A   1      33.527  34.573  32.924  1.00  0.00     0.278 C 
ENDBRANCH  21  26
BRANCH  23  28
ATOM     28  O   UNL A   1      36.378  32.603  34.387  1.00  0.00    -0.490 OA
ATOM     29  C   UNL A   1      36.445  33.805  35.127  1.00  0.00     0.278 C 
ENDBRANCH  23  28
BRANCH  24  30
ATOM     30  O   UNL A   1      38.619  31.970  32.719  1.00  0.00    -0.493 OA
ATOM     31  C   UNL A   1      39.680  31.911  31.778  1.00  0.00     0.278 C 
ENDBRANCH  24  30
ENDBRANCH  10  20
BRANCH  15  32
ATOM     32  C   UNL A   1      37.198  29.418  28.327  1.00  0.00     0.045 A 
ATOM     33  C   UNL A   1      38.152  29.574  27.322  1.00  0.00     0.026 A 
ATOM     34  C   UNL A   1      37.538  28.844  29.555  1.00  0.00     0.026 A 
ATOM     35  C   UNL A   1      39.436  29.072  27.509  1.00  0.00     0.002 A 
ATOM     36  C   UNL A   1      38.822  28.335  29.732  1.00  0.00     0.002 A 
ATOM     37  C   UNL A   1      39.764  28.433  28.704  1.00  0.00     0.000 A 
ENDBRANCH  15  32
ENDBRANCH   6   9
ENDBRANCH   4   5
ENDBRANCH   3   4
ENDBRANCH   2   3
ENDBRANCH   1   2
BRANCH   1  38
ATOM     38  C   UNL A   1      36.126  23.803  25.785  1.00  0.00     0.021 C 
BRANCH  38  39
ATOM     39  C   UNL A   1      37.639  23.714  25.829  1.00  0.00     0.116 C 
BRANCH  39  40
ATOM     40  N   UNL A   1      38.086  22.326  26.000  1.00  0.00    -0.352 N 
ATOM     41  C   UNL A   1      39.356  21.853  26.277  1.00  0.00     0.251 C 
ATOM     42  H   UNL A   1      37.387  21.640  25.904  1.00  0.00     0.163 HD
ATOM     43  O   UNL A   1      39.653  20.687  26.096  1.00  0.00    -0.269 OA
BRANCH  41  44
ATOM     44  C   UNL A   1      40.334  22.812  26.816  1.00  0.00     0.039 A 
ATOM     45  C   UNL A   1      39.972  23.806  27.727  1.00  0.00     0.014 A 
ATOM     46  C   UNL A   1      41.654  22.642  26.417  1.00  0.00     0.014 A 
ATOM     47  C   UNL A   1      40.978  24.594  28.277  1.00  0.00     0.010 A 
ATOM     48  C   UNL A   1      42.645  23.245  27.129  1.00  0.00     0.010 A 
ATOM     49  C   UNL A   1      42.314  24.296  27.972  1.00  0.00    -0.014 A 
BRANCH  49  50
ATOM     50  C   UNL A   1      43.422  25.028  28.561  1.00  0.00     0.031 A 
ATOM     51  C   UNL A   1      43.815  24.568  29.916  1.00  0.00     0.074 A 
ATOM     52  C   UNL A   1      44.163  25.885  27.823  1.00  0.00     0.049 A 
ATOM     53  N   UNL A   1      43.681  25.212  31.028  1.00  0.00    -0.248 NA
ATOM     54  C   UNL A   1      44.261  23.175  30.083  1.00  0.00     0.031 C 
ATOM     55  C   UNL A   1      44.056  26.180  26.382  1.00  0.00     0.029 A 
ATOM     56  N   UNL A   1      45.286  26.560  28.173  1.00  0.00    -0.354 N 
ATOM     57  C   UNL A   1      44.269  24.404  31.997  1.00  0.00     0.074 A 
ATOM     58  C   UNL A   1      44.401  23.098  31.408  1.00  0.00     0.031 C 
ATOM     59  C   UNL A   1      45.210  26.727  25.945  1.00  0.00     0.029 A 
ATOM     60  C   UNL A   1      46.046  27.001  27.095  1.00  0.00     0.049 A 
ATOM     61  H   UNL A   1      45.542  26.721  29.110  1.00  0.00     0.167 HD
ATOM     62  C   UNL A   1      44.853  24.946  33.102  1.00  0.00     0.034 A 
ATOM     63  C   UNL A   1      47.298  27.512  27.145  1.00  0.00     0.034 A 
ATOM     64  C   UNL A   1      44.497  26.336  33.255  1.00  0.00     0.049 A 
ATOM     65  C   UNL A   1      47.504  28.002  28.526  1.00  0.00     0.074 A 
ATOM     66  C   UNL A   1      43.318  27.035  33.418  1.00  0.00     0.029 A 
ATOM     67  N   UNL A   1      45.427  27.255  32.830  1.00  0.00    -0.354 N 
ATOM     68  N   UNL A   1      46.803  28.972  29.047  1.00  0.00    -0.248 NA
ATOM     69  C   UNL A   1      48.140  27.107  29.477  1.00  0.00     0.031 C 
ATOM     70  C   UNL A   1      43.483  28.216  32.634  1.00  0.00     0.029 A 
ATOM     71  C   UNL A   1      44.772  28.205  32.093  1.00  0.00     0.049 A 
ATOM     72  H   UNL A   1      46.392  27.234  33.023  1.00  0.00     0.167 HD
ATOM     73  C   UNL A   1      46.520  28.538  30.337  1.00  0.00     0.074 A 
ATOM     74  C   UNL A   1      47.463  27.444  30.580  1.00  0.00     0.031 C 
ATOM     75  C   UNL A   1      45.361  28.900  30.967  1.00  0.00     0.034 A 
BRANCH  62  76
ATOM     76  C   UNL A   1      46.049  24.371  33.824  1.00  0.00     0.023 A 
ATOM     77  C   UNL A   1      47.307  24.952  33.549  1.00  0.00     0.012 A 
ATOM     78  C   UNL A   1      46.048  23.137  34.514  1.00  0.00     0.148 A 
ATOM     79  C   UNL A   1      48.503  24.310  33.889  1.00  0.00     0.002 A 
ATOM     80  C   UNL A   1      47.238  22.538  34.915  1.00  0.00     0.091 A 
ATOM     81  F   UNL A   1      44.910  22.457  34.669  1.00  0.00    -0.205 F 
ATOM     82  C   UNL A   1      48.468  23.104  34.577  1.00  0.00     0.022 A 
BRANCH  80  83
ATOM     83  S   UNL A   1      47.255  20.994  35.833  1.00  0.00     0.127 S 
ATOM     84  O   UNL A   1      46.841  20.041  34.807  1.00  0.00    -0.237 OA
ATOM     85  O   UNL A   1      48.659  20.901  36.235  1.00  0.00    -0.237 OA
ATOM     86  O   UNL A   1      46.328  21.189  36.941  1.00  0.00    -0.744 OA
ENDBRANCH  80  83
ENDBRANCH  62  76
BRANCH  63  87
ATOM     87  C   UNL A   1      48.403  27.314  26.180  1.00  0.00     0.023 A 
ATOM     88  C   UNL A   1      49.509  26.513  26.519  1.00  0.00     0.012 A 
ATOM     89  C   UNL A   1      48.248  27.701  24.828  1.00  0.00     0.148 A 
ATOM     90  C   UNL A   1      50.423  26.097  25.541  1.00  0.00     0.002 A 
ATOM     91  C   UNL A   1      49.160  27.294  23.861  1.00  0.00     0.091 A 
ATOM     92  F   UNL A   1      47.158  28.399  24.481  1.00  0.00    -0.205 F 
ATOM     93  C   UNL A   1      50.245  26.481  24.212  1.00  0.00     0.022 A 
BRANCH  91  94
ATOM     94  S   UNL A   1      48.989  27.738  22.126  1.00  0.00     0.127 S 
ATOM     95  O   UNL A   1      49.300  26.473  21.461  1.00  0.00    -0.237 OA
ATOM     96  O   UNL A   1      47.586  28.138  22.050  1.00  0.00    -0.237 OA
ATOM     97  O   UNL A   1      49.957  28.799  21.883  1.00  0.00    -0.744 OA
ENDBRANCH  91  94
ENDBRANCH  63  87
BRANCH  75  98
ATOM     98  C   UNL A   1      44.492  29.944  30.303  1.00  0.00     0.023 A 
ATOM     99  C   UNL A   1      43.555  29.619  29.298  1.00  0.00     0.012 A 
ATOM    100  C   UNL A   1      44.491  31.247  30.826  1.00  0.00     0.148 A 
ATOM    101  C   UNL A   1      42.653  30.573  28.813  1.00  0.00     0.002 A 
ATOM    102  C   UNL A   1      43.568  32.181  30.372  1.00  0.00     0.091 A 
ATOM    103  F   UNL A   1      45.373  31.538  31.793  1.00  0.00    -0.205 F 
ATOM    104  C   UNL A   1      42.653  31.852  29.359  1.00  0.00     0.022 A 
BRANCH 102 105
ATOM    105  S   UNL A   1      43.431  33.810  31.110  1.00  0.00     0.127 S 
ATOM    106  O   UNL A   1      44.700  34.427  30.727  1.00  0.00    -0.237 OA
ATOM    107  O   UNL A   1      42.255  34.361  30.436  1.00  0.00    -0.237 OA
ATOM    108  O   UNL A   1      43.252  33.592  32.540  1.00  0.00    -0.744 OA
ENDBRANCH 102 105
ENDBRANCH  75  98
ENDBRANCH  49  50
ENDBRANCH  41  44
ENDBRANCH  39  40
ENDBRANCH  38  39
ENDBRANCH   1  38
TORSDOF 21
ENDMDL
MODEL 3
REMARK VINA RESULT:     -10.6      4.919     10.797
REMARK SMILES COc1cc([C@@H]2CC(=O)Nc3c(C(=O)NCCCCCCNC(=O)c4ccc(-c5c6nc(c(-c7cccc(S(=O)(=O)[O-])c7F)c7ccc([nH]7)c(-c7cccc(S(=O)(=O)[O-])c7F)c7nc(c(-c8cccc(S(=O)(=O)[O-])c8F)c8ccc5[nH]8)C=C7)C=C6)cc4)cn(-c4ccccc4)c32)cc(OC)c1OC
REMARK SMILES IDX 19 1 18 2 17 3 16 4 15 5 13 6 14 7 12 9 6 10 7 11 96 12 8 13
REMARK SMILES IDX 11 14 89 15 9 16 10 17 88 18 5 20 3 21 4 22 101 23 98 24
REMARK SMILES IDX 97 25 2 26 1 27 102 28 103 29 99 30 100 31 90 32 91 33 95 34
REMARK SMILES IDX 92 35 94 36 93 37 20 38 21 39 22 40 23 41 24 43 25 44 26 45
REMARK SMILES IDX 87 46 27 47 86 48 28 49 29 50 30 51 80 52 31 53 85 54 79 55
REMARK SMILES IDX 81 56 32 57 84 58 78 59 77 60 33 62 65 63 45 64 64 65 46 66
REMARK SMILES IDX 49 67 63 68 82 69 47 70 48 71 62 73 83 74 50 75 34 76 35 77
REMARK SMILES IDX 43 78 36 79 38 80 44 81 37 82 39 83 40 84 41 85 42 86 66 87
REMARK SMILES IDX 67 88 75 89 68 90 70 91 76 92 69 93 71 94 72 95 73 96 74 97
REMARK SMILES IDX 51 98 52 99 60 100 53 101 55 102 61 103 54 104 56 105 57 106
REMARK SMILES IDX 58 107 59 108
REMARK H PARENT 15 8 10 19 22 42 81 61 49 72
REMARK Flexibility Score: inf
ROOT
ATOM      1  C   UNL A   1      44.306  24.048  24.765  1.00  0.00     0.002 C 
ENDROOT
BRANCH   1   2
ATOM      2  C   UNL A   1      43.657  25.351  25.265  1.00  0.00     0.002 C 
BRANCH   2   3
ATOM      3  C   UNL A   1      44.221  25.872  26.589  1.00  0.00     0.021 C 
BRANCH   3   4
ATOM      4  C   UNL A   1      45.084  24.837  27.319  1.00  0.00     0.116 C 
BRANCH   4   5
ATOM      5  N   UNL A   1      45.078  25.097  28.732  1.00  0.00    -0.352 N 
ATOM      6  C   UNL A   1      45.874  25.857  29.539  1.00  0.00     0.254 C 
ATOM      7  O   UNL A   1      45.539  25.858  30.730  1.00  0.00    -0.269 OA
ATOM      8  H   UNL A   1      44.355  24.634  29.214  1.00  0.00     0.163 HD
BRANCH   6   9
ATOM      9  C   UNL A   1      46.993  26.691  29.075  1.00  0.00     0.081 A 
ATOM     10  C   UNL A   1      49.261  29.049  27.228  1.00  0.00     0.078 C 
ATOM     11  C   UNL A   1      48.611  28.952  25.840  1.00  0.00     0.115 C 
ATOM     12  C   UNL A   1      48.552  28.127  28.192  1.00  0.00     0.055 A 
ATOM     13  C   UNL A   1      47.110  28.780  25.893  1.00  0.00     0.225 C 
ATOM     14  C   UNL A   1      47.297  27.576  27.991  1.00  0.00     0.076 A 
ATOM     15  N   UNL A   1      49.107  27.514  29.290  1.00  0.00    -0.317 N 
ATOM     16  O   UNL A   1      46.346  29.271  25.064  1.00  0.00    -0.275 OA
ATOM     17  N   UNL A   1      46.612  27.944  26.858  1.00  0.00    -0.324 N 
ATOM     18  C   UNL A   1      48.183  26.640  29.800  1.00  0.00     0.107 A 
ATOM     19  H   UNL A   1      45.704  27.585  26.732  1.00  0.00     0.170 HD
BRANCH  10  20
ATOM     20  C   UNL A   1      49.335  30.513  27.659  1.00  0.00    -0.031 A 
ATOM     21  C   UNL A   1      50.113  32.792  27.221  1.00  0.00     0.164 A 
ATOM     22  C   UNL A   1      50.087  31.425  26.901  1.00  0.00     0.055 A 
ATOM     23  C   UNL A   1      49.343  33.302  28.281  1.00  0.00     0.203 A 
ATOM     24  C   UNL A   1      48.593  32.385  29.051  1.00  0.00     0.164 A 
ATOM     25  C   UNL A   1      48.609  31.012  28.743  1.00  0.00     0.055 A 
BRANCH  21  26
ATOM     26  O   UNL A   1      50.828  33.602  26.374  1.00  0.00    -0.493 OA
ATOM     27  C   UNL A   1      52.224  33.589  26.672  1.00  0.00     0.278 C 
ENDBRANCH  21  26
BRANCH  23  28
ATOM     28  O   UNL A   1      49.237  34.617  28.642  1.00  0.00    -0.490 OA
ATOM     29  C   UNL A   1      50.181  35.231  29.496  1.00  0.00     0.278 C 
ENDBRANCH  23  28
BRANCH  24  30
ATOM     30  O   UNL A   1      47.804  32.645  30.148  1.00  0.00    -0.493 OA
ATOM     31  C   UNL A   1      48.313  32.344  31.438  1.00  0.00     0.278 C 
ENDBRANCH  24  30
ENDBRANCH  10  20
BRANCH  15  32
ATOM     32  C   UNL A   1      50.430  27.641  29.757  1.00  0.00     0.045 A 
ATOM     33  C   UNL A   1      51.407  26.735  29.343  1.00  0.00     0.026 A 
ATOM     34  C   UNL A   1      50.722  28.628  30.703  1.00  0.00     0.026 A 
ATOM     35  C   UNL A   1      52.662  26.756  29.944  1.00  0.00     0.002 A 
ATOM     36  C   UNL A   1      51.977  28.637  31.307  1.00  0.00     0.002 A 
ATOM     37  C   UNL A   1      52.939  27.691  30.941  1.00  0.00     0.000 A 
ENDBRANCH  15  32
ENDBRANCH   6   9
ENDBRANCH   4   5
ENDBRANCH   3   4
ENDBRANCH   2   3
ENDBRANCH   1   2
BRANCH   1  38
ATOM     38  C   UNL A   1      43.351  22.860  24.566  1.00  0.00     0.021 C 
BRANCH  38  39
ATOM     39  C   UNL A   1      42.959  22.216  25.882  1.00  0.00     0.116 C 
BRANCH  39  40
ATOM     40  N   UNL A   1      41.539  21.841  25.889  1.00  0.00    -0.352 N 
ATOM     41  C   UNL A   1      40.482  22.469  26.521  1.00  0.00     0.251 C 
ATOM     42  H   UNL A   1      41.310  21.035  25.374  1.00  0.00     0.163 HD
ATOM     43  O   UNL A   1      39.421  21.900  26.699  1.00  0.00    -0.269 OA
BRANCH  41  44
ATOM     44  C   UNL A   1      40.681  23.859  26.958  1.00  0.00     0.039 A 
ATOM     45  C   UNL A   1      40.042  24.932  26.332  1.00  0.00     0.014 A 
ATOM     46  C   UNL A   1      41.495  24.052  28.067  1.00  0.00     0.014 A 
ATOM     47  C   UNL A   1      40.192  26.201  26.881  1.00  0.00     0.010 A 
ATOM     48  C   UNL A   1      41.444  25.239  28.731  1.00  0.00     0.010 A 
ATOM     49  C   UNL A   1      40.893  26.337  28.088  1.00  0.00    -0.014 A 
BRANCH  49  50
ATOM     50  C   UNL A   1      41.033  27.618  28.759  1.00  0.00     0.031 A 
ATOM     51  C   UNL A   1      42.045  28.522  28.160  1.00  0.00     0.074 A 
ATOM     52  C   UNL A   1      40.142  28.016  29.695  1.00  0.00     0.049 A 
ATOM     53  N   UNL A   1      43.168  28.891  28.680  1.00  0.00    -0.248 NA
ATOM     54  C   UNL A   1      41.869  28.941  26.759  1.00  0.00     0.031 C 
ATOM     55  C   UNL A   1      38.916  27.329  30.143  1.00  0.00     0.029 A 
ATOM     56  N   UNL A   1      40.054  29.209  30.335  1.00  0.00    -0.354 N 
ATOM     57  C   UNL A   1      43.716  29.797  27.776  1.00  0.00     0.074 A 
ATOM     58  C   UNL A   1      42.999  29.619  26.541  1.00  0.00     0.031 C 
ATOM     59  C   UNL A   1      38.092  28.216  30.740  1.00  0.00     0.029 A 
ATOM     60  C   UNL A   1      38.807  29.466  30.893  1.00  0.00     0.049 A 
ATOM     61  H   UNL A   1      40.808  29.839  30.397  1.00  0.00     0.167 HD
ATOM     62  C   UNL A   1      44.521  30.810  28.200  1.00  0.00     0.034 A 
ATOM     63  C   UNL A   1      38.377  30.644  31.404  1.00  0.00     0.034 A 
ATOM     64  C   UNL A   1      44.948  30.606  29.563  1.00  0.00     0.049 A 
ATOM     65  C   UNL A   1      39.586  31.427  31.744  1.00  0.00     0.074 A 
ATOM     66  C   UNL A   1      45.659  29.632  30.233  1.00  0.00     0.029 A 
ATOM     67  N   UNL A   1      44.266  31.310  30.527  1.00  0.00    -0.354 N 
ATOM     68  N   UNL A   1      40.447  31.047  32.648  1.00  0.00    -0.248 NA
ATOM     69  C   UNL A   1      40.088  32.366  30.756  1.00  0.00     0.031 C 
ATOM     70  C   UNL A   1      45.000  29.501  31.492  1.00  0.00     0.029 A 
ATOM     71  C   UNL A   1      43.971  30.444  31.547  1.00  0.00     0.049 A 
ATOM     72  H   UNL A   1      44.033  32.265  30.491  1.00  0.00     0.167 HD
ATOM     73  C   UNL A   1      41.686  31.311  32.077  1.00  0.00     0.074 A 
ATOM     74  C   UNL A   1      41.401  32.225  30.969  1.00  0.00     0.031 C 
ATOM     75  C   UNL A   1      42.777  30.537  32.362  1.00  0.00     0.034 A 
BRANCH  62  76
ATOM     76  C   UNL A   1      44.614  32.174  27.557  1.00  0.00     0.023 A 
ATOM     77  C   UNL A   1      45.736  32.423  26.734  1.00  0.00     0.012 A 
ATOM     78  C   UNL A   1      43.840  33.293  27.941  1.00  0.00     0.148 A 
ATOM     79  C   UNL A   1      46.101  33.721  26.362  1.00  0.00     0.002 A 
ATOM     80  C   UNL A   1      44.164  34.574  27.508  1.00  0.00     0.091 A 
ATOM     81  F   UNL A   1      42.863  33.154  28.841  1.00  0.00    -0.205 F 
ATOM     82  C   UNL A   1      45.311  34.797  26.745  1.00  0.00     0.022 A 
BRANCH  80  83
ATOM     83  S   UNL A   1      43.164  36.001  27.947  1.00  0.00     0.127 S 
ATOM     84  O   UNL A   1      43.900  37.082  27.298  1.00  0.00    -0.237 OA
ATOM     85  O   UNL A   1      41.880  35.666  27.330  1.00  0.00    -0.237 OA
ATOM     86  O   UNL A   1      43.138  36.025  29.404  1.00  0.00    -0.744 OA
ENDBRANCH  80  83
ENDBRANCH  62  76
BRANCH  63  87
ATOM     87  C   UNL A   1      37.024  31.236  31.317  1.00  0.00     0.023 A 
ATOM     88  C   UNL A   1      36.362  31.672  32.479  1.00  0.00     0.012 A 
ATOM     89  C   UNL A   1      36.488  31.611  30.062  1.00  0.00     0.148 A 
ATOM     90  C   UNL A   1      35.212  32.471  32.395  1.00  0.00     0.002 A 
ATOM     91  C   UNL A   1      35.343  32.396  29.982  1.00  0.00     0.091 A 
ATOM     92  F   UNL A   1      37.153  31.265  28.951  1.00  0.00    -0.205 F 
ATOM     93  C   UNL A   1      34.707  32.838  31.149  1.00  0.00     0.022 A 
BRANCH  91  94
ATOM     94  S   UNL A   1      34.642  32.921  28.410  1.00  0.00     0.127 S 
ATOM     95  O   UNL A   1      34.106  31.664  27.887  1.00  0.00    -0.237 OA
ATOM     96  O   UNL A   1      33.631  33.887  28.833  1.00  0.00    -0.237 OA
ATOM     97  O   UNL A   1      35.749  33.469  27.637  1.00  0.00    -0.744 OA
ENDBRANCH  91  94
ENDBRANCH  63  87
BRANCH  75  98
ATOM     98  C   UNL A   1      42.646  29.512  33.467  1.00  0.00     0.023 A 
ATOM     99  C   UNL A   1      41.951  28.296  33.291  1.00  0.00     0.012 A 
ATOM    100  C   UNL A   1      43.390  29.696  34.643  1.00  0.00     0.148 A 
ATOM    101  C   UNL A   1      41.979  27.297  34.270  1.00  0.00     0.002 A 
ATOM    102  C   UNL A   1      43.449  28.687  35.597  1.00  0.00     0.091 A 
ATOM    103  F   UNL A   1      44.061  30.848  34.790  1.00  0.00    -0.205 F 
ATOM    104  C   UNL A   1      42.738  27.489  35.420  1.00  0.00     0.022 A 
BRANCH 102 105
ATOM    105  S   UNL A   1      44.500  28.816  37.045  1.00  0.00     0.127 S 
ATOM    106  O   UNL A   1      43.818  29.848  37.826  1.00  0.00    -0.237 OA
ATOM    107  O   UNL A   1      44.421  27.469  37.610  1.00  0.00    -0.237 OA
ATOM    108  O   UNL A   1      45.823  29.181  36.553  1.00  0.00    -0.744 OA
ENDBRANCH 102 105
ENDBRANCH  75  98
ENDBRANCH  49  50
ENDBRANCH  41  44
ENDBRANCH  39  40
ENDBRANCH  38  39
ENDBRANCH   1  38
TORSDOF 21
ENDMDL
