MODEL 1
REMARK VINA RESULT:     -11.2      0.000      0.000
REMARK SMILES CCNS(=O)(=O)c1ccc(CC(=O)NCCCCCCNC(=O)c2ccc(-c3c4nc(c(-c5cccc(S(=O)(=O)[O-])c5F)c5ccc([nH]5)c(-c5cccc(S(=O)(=O)[O-])c5F)c5nc(c(-c6cccc(S(=O)(=O)[O-])c6F)c6ccc3[nH]6)C=C5)C=C4)cc2)cc1
REMARK SMILES IDX 17 1 16 2 15 3 14 4 12 5 13 6 11 8 10 9 7 10 8 11 88 12 9 13
REMARK SMILES IDX 87 14 4 15 5 16 6 17 3 18 2 20 1 21 18 22 19 23 20 24 21 25
REMARK SMILES IDX 22 26 23 28 24 29 25 30 86 31 26 32 85 33 27 34 28 35 29 36
REMARK SMILES IDX 79 37 30 38 84 39 78 40 80 41 31 42 83 43 77 44 76 45 32 47
REMARK SMILES IDX 64 48 44 49 63 50 45 51 48 52 62 53 81 54 46 55 47 56 61 58
REMARK SMILES IDX 82 59 49 60 33 61 34 62 42 63 35 64 37 65 43 66 36 67 38 68
REMARK SMILES IDX 39 69 40 70 41 71 65 72 66 73 74 74 67 75 69 76 75 77 68 78
REMARK SMILES IDX 70 79 71 80 72 81 73 82 50 83 51 84 59 85 52 86 54 87 60 88
REMARK SMILES IDX 53 89 55 90 56 91 57 92 58 93
REMARK H PARENT 14 7 3 19 21 27 80 46 48 57
REMARK Flexibility Score: inf
ROOT
ATOM      1  C   UNL A   1      31.178  30.125  24.821  1.00  0.00     0.002 C 
ENDROOT
BRANCH   1   2
ATOM      2  C   UNL A   1      31.416  28.698  24.308  1.00  0.00     0.021 C 
BRANCH   2   3
ATOM      3  C   UNL A   1      31.405  28.564  22.783  1.00  0.00     0.116 C 
BRANCH   3   4
ATOM      4  N   UNL A   1      32.572  27.846  22.304  1.00  0.00    -0.356 N 
ATOM      5  C   UNL A   1      32.744  26.506  22.111  1.00  0.00     0.224 C 
ATOM      6  O   UNL A   1      33.861  26.096  21.784  1.00  0.00    -0.275 OA
ATOM      7  H   UNL A   1      33.353  28.406  22.089  1.00  0.00     0.163 HD
BRANCH   5   8
ATOM      8  C   UNL A   1      31.565  25.556  22.244  1.00  0.00     0.135 C 
BRANCH   8   9
ATOM      9  C   UNL A   1      31.876  24.253  22.942  1.00  0.00    -0.039 A 
ATOM     10  C   UNL A   1      32.494  21.915  24.350  1.00  0.00     0.082 A 
ATOM     11  C   UNL A   1      33.292  22.311  23.272  1.00  0.00     0.022 A 
ATOM     12  C   UNL A   1      31.358  22.645  24.695  1.00  0.00     0.022 A 
ATOM     13  C   UNL A   1      32.976  23.471  22.563  1.00  0.00     0.005 A 
ATOM     14  C   UNL A   1      31.051  23.809  23.989  1.00  0.00     0.005 A 
BRANCH  10  15
ATOM     15  S   UNL A   1      33.012  20.494  25.275  1.00  0.00     0.240 S 
ATOM     16  O   UNL A   1      34.356  20.167  24.854  1.00  0.00    -0.207 OA
ATOM     17  O   UNL A   1      31.929  19.536  25.199  1.00  0.00    -0.207 OA
BRANCH  15  18
ATOM     18  N   UNL A   1      33.066  20.994  26.880  1.00  0.00    -0.211 NA
ATOM     19  H   UNL A   1      32.293  21.645  27.020  1.00  0.00     0.141 HD
BRANCH  18  20
ATOM     20  C   UNL A   1      34.284  21.657  27.364  1.00  0.00     0.095 C 
ATOM     21  C   UNL A   1      34.268  23.105  26.904  1.00  0.00     0.022 C 
ENDBRANCH  18  20
ENDBRANCH  15  18
ENDBRANCH  10  15
ENDBRANCH   8   9
ENDBRANCH   5   8
ENDBRANCH   3   4
ENDBRANCH   2   3
ENDBRANCH   1   2
BRANCH   1  22
ATOM     22  C   UNL A   1      31.708  30.415  26.230  1.00  0.00     0.002 C 
BRANCH  22  23
ATOM     23  C   UNL A   1      31.510  31.850  26.725  1.00  0.00     0.021 C 
BRANCH  23  24
ATOM     24  C   UNL A   1      32.763  32.524  27.280  1.00  0.00     0.116 C 
BRANCH  24  25
ATOM     25  N   UNL A   1      32.540  33.924  27.607  1.00  0.00    -0.352 N 
ATOM     26  C   UNL A   1      33.142  34.704  28.565  1.00  0.00     0.251 C 
ATOM     27  H   UNL A   1      31.858  34.379  27.063  1.00  0.00     0.163 HD
ATOM     28  O   UNL A   1      32.700  35.824  28.805  1.00  0.00    -0.269 OA
BRANCH  26  29
ATOM     29  C   UNL A   1      34.306  34.191  29.322  1.00  0.00     0.039 A 
ATOM     30  C   UNL A   1      34.080  33.409  30.459  1.00  0.00     0.014 A 
ATOM     31  C   UNL A   1      35.614  34.492  28.927  1.00  0.00     0.014 A 
ATOM     32  C   UNL A   1      35.163  32.879  31.165  1.00  0.00     0.010 A 
ATOM     33  C   UNL A   1      36.690  33.916  29.599  1.00  0.00     0.010 A 
ATOM     34  C   UNL A   1      36.478  33.105  30.724  1.00  0.00    -0.014 A 
BRANCH  34  35
ATOM     35  C   UNL A   1      37.640  32.483  31.410  1.00  0.00     0.031 A 
ATOM     36  C   UNL A   1      38.369  31.328  30.778  1.00  0.00     0.074 A 
ATOM     37  C   UNL A   1      37.976  32.893  32.649  1.00  0.00     0.049 A 
ATOM     38  N   UNL A   1      39.359  30.619  31.258  1.00  0.00    -0.248 NA
ATOM     39  C   UNL A   1      37.911  30.896  29.449  1.00  0.00     0.031 C 
ATOM     40  C   UNL A   1      37.292  33.945  33.404  1.00  0.00     0.029 A 
ATOM     41  N   UNL A   1      38.955  32.453  33.503  1.00  0.00    -0.354 N 
ATOM     42  C   UNL A   1      39.616  29.637  30.310  1.00  0.00     0.074 A 
ATOM     43  C   UNL A   1      38.662  29.824  29.239  1.00  0.00     0.031 C 
ATOM     44  C   UNL A   1      37.869  34.065  34.611  1.00  0.00     0.029 A 
ATOM     45  C   UNL A   1      38.948  33.088  34.724  1.00  0.00     0.049 A 
ATOM     46  H   UNL A   1      39.602  31.750  33.266  1.00  0.00     0.167 HD
ATOM     47  C   UNL A   1      40.578  28.683  30.316  1.00  0.00     0.034 A 
ATOM     48  C   UNL A   1      39.721  32.903  35.813  1.00  0.00     0.034 A 
ATOM     49  C   UNL A   1      41.563  28.535  31.352  1.00  0.00     0.049 A 
ATOM     50  C   UNL A   1      40.825  31.883  35.767  1.00  0.00     0.074 A 
ATOM     51  C   UNL A   1      42.641  27.667  31.397  1.00  0.00     0.029 A 
ATOM     52  N   UNL A   1      41.594  29.272  32.525  1.00  0.00    -0.354 N 
ATOM     53  N   UNL A   1      41.162  31.079  34.787  1.00  0.00    -0.248 NA
ATOM     54  C   UNL A   1      41.680  31.770  36.956  1.00  0.00     0.031 C 
ATOM     55  C   UNL A   1      43.319  27.874  32.604  1.00  0.00     0.029 A 
ATOM     56  C   UNL A   1      42.668  28.876  33.305  1.00  0.00     0.049 A 
ATOM     57  H   UNL A   1      40.947  29.972  32.769  1.00  0.00     0.167 HD
ATOM     58  C   UNL A   1      42.284  30.388  35.230  1.00  0.00     0.074 A 
ATOM     59  C   UNL A   1      42.583  30.884  36.557  1.00  0.00     0.031 C 
ATOM     60  C   UNL A   1      42.991  29.418  34.600  1.00  0.00     0.034 A 
BRANCH  47  61
ATOM     61  C   UNL A   1      40.656  27.763  29.126  1.00  0.00     0.023 A 
ATOM     62  C   UNL A   1      39.747  26.691  29.023  1.00  0.00     0.012 A 
ATOM     63  C   UNL A   1      41.578  27.991  28.086  1.00  0.00     0.148 A 
ATOM     64  C   UNL A   1      39.773  25.841  27.919  1.00  0.00     0.002 A 
ATOM     65  C   UNL A   1      41.573  27.161  26.970  1.00  0.00     0.091 A 
ATOM     66  F   UNL A   1      42.452  28.999  28.213  1.00  0.00    -0.205 F 
ATOM     67  C   UNL A   1      40.678  26.081  26.889  1.00  0.00     0.022 A 
BRANCH  65  68
ATOM     68  S   UNL A   1      42.654  27.437  25.561  1.00  0.00     0.127 S 
ATOM     69  O   UNL A   1      42.025  28.595  24.930  1.00  0.00    -0.237 OA
ATOM     70  O   UNL A   1      43.940  27.715  26.203  1.00  0.00    -0.237 OA
ATOM     71  O   UNL A   1      42.621  26.203  24.788  1.00  0.00    -0.744 OA
ENDBRANCH  65  68
ENDBRANCH  47  61
BRANCH  48  72
ATOM     72  C   UNL A   1      39.525  33.767  37.011  1.00  0.00     0.023 A 
ATOM     73  C   UNL A   1      39.905  35.122  36.951  1.00  0.00     0.012 A 
ATOM     74  C   UNL A   1      38.925  33.273  38.185  1.00  0.00     0.148 A 
ATOM     75  C   UNL A   1      39.714  35.963  38.048  1.00  0.00     0.002 A 
ATOM     76  C   UNL A   1      38.689  34.129  39.255  1.00  0.00     0.091 A 
ATOM     77  F   UNL A   1      38.585  31.976  38.229  1.00  0.00    -0.205 F 
ATOM     78  C   UNL A   1      39.095  35.470  39.194  1.00  0.00     0.022 A 
BRANCH  76  79
ATOM     79  S   UNL A   1      37.776  33.606  40.712  1.00  0.00     0.127 S 
ATOM     80  O   UNL A   1      37.681  34.851  41.470  1.00  0.00    -0.237 OA
ATOM     81  O   UNL A   1      36.516  33.136  40.136  1.00  0.00    -0.237 OA
ATOM     82  O   UNL A   1      38.583  32.552  41.316  1.00  0.00    -0.744 OA
ENDBRANCH  76  79
ENDBRANCH  48  72
BRANCH  60  83
ATOM     83  C   UNL A   1      44.173  28.832  35.325  1.00  0.00     0.023 A 
ATOM     84  C   UNL A   1      45.439  29.432  35.185  1.00  0.00     0.012 A 
ATOM     85  C   UNL A   1      44.016  27.743  36.205  1.00  0.00     0.148 A 
ATOM     86  C   UNL A   1      46.538  28.942  35.890  1.00  0.00     0.002 A 
ATOM     87  C   UNL A   1      45.106  27.286  36.937  1.00  0.00     0.091 A 
ATOM     88  F   UNL A   1      42.807  27.171  36.308  1.00  0.00    -0.205 F 
ATOM     89  C   UNL A   1      46.370  27.878  36.774  1.00  0.00     0.022 A 
BRANCH  87  90
ATOM     90  S   UNL A   1      44.956  25.979  38.161  1.00  0.00     0.127 S 
ATOM     91  O   UNL A   1      46.352  25.756  38.532  1.00  0.00    -0.237 OA
ATOM     92  O   UNL A   1      44.143  26.613  39.199  1.00  0.00    -0.237 OA
ATOM     93  O   UNL A   1      44.300  24.872  37.477  1.00  0.00    -0.744 OA
ENDBRANCH  87  90
ENDBRANCH  60  83
ENDBRANCH  34  35
ENDBRANCH  26  29
ENDBRANCH  24  25
ENDBRANCH  23  24
ENDBRANCH  22  23
ENDBRANCH   1  22
TORSDOF 20
ENDMDL
MODEL 2
REMARK VINA RESULT:     -11.1      2.312      8.167
REMARK SMILES CCNS(=O)(=O)c1ccc(CC(=O)NCCCCCCNC(=O)c2ccc(-c3c4nc(c(-c5cccc(S(=O)(=O)[O-])c5F)c5ccc([nH]5)c(-c5cccc(S(=O)(=O)[O-])c5F)c5nc(c(-c6cccc(S(=O)(=O)[O-])c6F)c6ccc3[nH]6)C=C5)C=C4)cc2)cc1
REMARK SMILES IDX 17 1 16 2 15 3 14 4 12 5 13 6 11 8 10 9 7 10 8 11 88 12 9 13
REMARK SMILES IDX 87 14 4 15 5 16 6 17 3 18 2 20 1 21 18 22 19 23 20 24 21 25
REMARK SMILES IDX 22 26 23 28 24 29 25 30 86 31 26 32 85 33 27 34 28 35 29 36
REMARK SMILES IDX 79 37 30 38 84 39 78 40 80 41 31 42 83 43 77 44 76 45 32 47
REMARK SMILES IDX 64 48 44 49 63 50 45 51 48 52 62 53 81 54 46 55 47 56 61 58
REMARK SMILES IDX 82 59 49 60 33 61 34 62 42 63 35 64 37 65 43 66 36 67 38 68
REMARK SMILES IDX 39 69 40 70 41 71 65 72 66 73 74 74 67 75 69 76 75 77 68 78
REMARK SMILES IDX 70 79 71 80 72 81 73 82 50 83 51 84 59 85 52 86 54 87 60 88
REMARK SMILES IDX 53 89 55 90 56 91 57 92 58 93
REMARK H PARENT 14 7 3 19 21 27 80 46 48 57
REMARK Flexibility Score: inf
ROOT
ATOM      1  C   UNL A   1      30.796  28.959  23.981  1.00  0.00     0.002 C 
ENDROOT
BRANCH   1   2
ATOM      2  C   UNL A   1      31.438  28.625  22.627  1.00  0.00     0.021 C 
BRANCH   2   3
ATOM      3  C   UNL A   1      32.858  28.062  22.721  1.00  0.00     0.116 C 
BRANCH   3   4
ATOM      4  N   UNL A   1      33.151  27.173  21.610  1.00  0.00    -0.356 N 
ATOM      5  C   UNL A   1      32.721  25.896  21.389  1.00  0.00     0.224 C 
ATOM      6  O   UNL A   1      33.174  25.283  20.419  1.00  0.00    -0.275 OA
ATOM      7  H   UNL A   1      33.746  27.543  20.919  1.00  0.00     0.163 HD
BRANCH   5   8
ATOM      8  C   UNL A   1      31.668  25.275  22.291  1.00  0.00     0.135 C 
BRANCH   8   9
ATOM      9  C   UNL A   1      32.200  24.282  23.297  1.00  0.00    -0.039 A 
ATOM     10  C   UNL A   1      33.188  22.546  25.257  1.00  0.00     0.082 A 
ATOM     11  C   UNL A   1      34.015  22.951  24.204  1.00  0.00     0.022 A 
ATOM     12  C   UNL A   1      31.856  22.954  25.308  1.00  0.00     0.022 A 
ATOM     13  C   UNL A   1      33.518  23.808  23.221  1.00  0.00     0.005 A 
ATOM     14  C   UNL A   1      31.366  23.817  24.327  1.00  0.00     0.005 A 
BRANCH  10  15
ATOM     15  S   UNL A   1      33.911  21.546  26.530  1.00  0.00     0.240 S 
ATOM     16  O   UNL A   1      33.564  22.142  27.801  1.00  0.00    -0.207 OA
ATOM     17  O   UNL A   1      35.286  21.314  26.140  1.00  0.00    -0.207 OA
BRANCH  15  18
ATOM     18  N   UNL A   1      33.148  20.052  26.419  1.00  0.00    -0.211 NA
ATOM     19  H   UNL A   1      33.783  19.358  26.813  1.00  0.00     0.141 HD
BRANCH  18  20
ATOM     20  C   UNL A   1      32.747  19.569  25.092  1.00  0.00     0.095 C 
ATOM     21  C   UNL A   1      33.850  18.681  24.541  1.00  0.00     0.022 C 
ENDBRANCH  18  20
ENDBRANCH  15  18
ENDBRANCH  10  15
ENDBRANCH   8   9
ENDBRANCH   5   8
ENDBRANCH   3   4
ENDBRANCH   2   3
ENDBRANCH   1   2
BRANCH   1  22
ATOM     22  C   UNL A   1      31.180  28.029  25.138  1.00  0.00     0.002 C 
BRANCH  22  23
ATOM     23  C   UNL A   1      31.775  28.720  26.368  1.00  0.00     0.021 C 
BRANCH  23  24
ATOM     24  C   UNL A   1      33.014  29.572  26.099  1.00  0.00     0.116 C 
BRANCH  24  25
ATOM     25  N   UNL A   1      32.821  30.964  26.478  1.00  0.00    -0.352 N 
ATOM     26  C   UNL A   1      33.546  31.739  27.350  1.00  0.00     0.251 C 
ATOM     27  H   UNL A   1      32.061  31.416  26.045  1.00  0.00     0.163 HD
ATOM     28  O   UNL A   1      33.129  32.849  27.671  1.00  0.00    -0.269 OA
BRANCH  26  29
ATOM     29  C   UNL A   1      34.814  31.234  27.921  1.00  0.00     0.039 A 
ATOM     30  C   UNL A   1      35.857  32.136  28.155  1.00  0.00     0.014 A 
ATOM     31  C   UNL A   1      34.987  29.876  28.208  1.00  0.00     0.014 A 
ATOM     32  C   UNL A   1      37.049  31.689  28.732  1.00  0.00     0.010 A 
ATOM     33  C   UNL A   1      36.153  29.442  28.835  1.00  0.00     0.010 A 
ATOM     34  C   UNL A   1      37.196  30.342  29.103  1.00  0.00    -0.014 A 
BRANCH  34  35
ATOM     35  C   UNL A   1      38.421  29.861  29.793  1.00  0.00     0.031 A 
ATOM     36  C   UNL A   1      38.791  30.394  31.150  1.00  0.00     0.074 A 
ATOM     37  C   UNL A   1      39.255  29.018  29.153  1.00  0.00     0.049 A 
ATOM     38  N   UNL A   1      39.852  30.142  31.872  1.00  0.00    -0.248 NA
ATOM     39  C   UNL A   1      37.862  31.356  31.765  1.00  0.00     0.031 C 
ATOM     40  C   UNL A   1      39.052  28.495  27.799  1.00  0.00     0.029 A 
ATOM     41  N   UNL A   1      40.455  28.477  29.541  1.00  0.00    -0.354 N 
ATOM     42  C   UNL A   1      39.739  30.940  33.004  1.00  0.00     0.074 A 
ATOM     43  C   UNL A   1      38.519  31.703  32.863  1.00  0.00     0.031 C 
ATOM     44  C   UNL A   1      40.094  27.716  27.469  1.00  0.00     0.029 A 
ATOM     45  C   UNL A   1      41.048  27.697  28.574  1.00  0.00     0.049 A 
ATOM     46  H   UNL A   1      40.855  28.633  30.427  1.00  0.00     0.167 HD
ATOM     47  C   UNL A   1      40.561  31.008  34.079  1.00  0.00     0.034 A 
ATOM     48  C   UNL A   1      42.226  27.043  28.577  1.00  0.00     0.034 A 
ATOM     49  C   UNL A   1      41.742  30.205  34.246  1.00  0.00     0.049 A 
ATOM     50  C   UNL A   1      43.086  27.083  29.810  1.00  0.00     0.074 A 
ATOM     51  C   UNL A   1      42.581  30.128  35.345  1.00  0.00     0.029 A 
ATOM     52  N   UNL A   1      42.252  29.340  33.292  1.00  0.00    -0.354 N 
ATOM     53  N   UNL A   1      42.874  27.708  30.942  1.00  0.00    -0.248 NA
ATOM     54  C   UNL A   1      44.328  26.296  29.783  1.00  0.00     0.031 C 
ATOM     55  C   UNL A   1      43.605  29.220  35.050  1.00  0.00     0.029 A 
ATOM     56  C   UNL A   1      43.398  28.728  33.772  1.00  0.00     0.049 A 
ATOM     57  H   UNL A   1      41.859  29.184  32.403  1.00  0.00     0.167 HD
ATOM     58  C   UNL A   1      43.937  27.369  31.772  1.00  0.00     0.074 A 
ATOM     59  C   UNL A   1      44.780  26.464  31.019  1.00  0.00     0.031 C 
ATOM     60  C   UNL A   1      44.198  27.783  33.035  1.00  0.00     0.034 A 
BRANCH  47  61
ATOM     61  C   UNL A   1      40.173  31.939  35.196  1.00  0.00     0.023 A 
ATOM     62  C   UNL A   1      40.765  33.216  35.267  1.00  0.00     0.012 A 
ATOM     63  C   UNL A   1      39.184  31.582  36.135  1.00  0.00     0.148 A 
ATOM     64  C   UNL A   1      40.403  34.113  36.271  1.00  0.00     0.002 A 
ATOM     65  C   UNL A   1      38.802  32.497  37.111  1.00  0.00     0.091 A 
ATOM     66  F   UNL A   1      38.650  30.355  36.068  1.00  0.00    -0.205 F 
ATOM     67  C   UNL A   1      39.415  33.758  37.185  1.00  0.00     0.022 A 
BRANCH  65  68
ATOM     68  S   UNL A   1      37.487  32.155  38.286  1.00  0.00     0.127 S 
ATOM     69  O   UNL A   1      38.085  32.609  39.539  1.00  0.00    -0.237 OA
ATOM     70  O   UNL A   1      36.397  32.996  37.790  1.00  0.00    -0.237 OA
ATOM     71  O   UNL A   1      37.233  30.724  38.192  1.00  0.00    -0.744 OA
ENDBRANCH  65  68
ENDBRANCH  47  61
BRANCH  48  72
ATOM     72  C   UNL A   1      42.617  26.225  27.395  1.00  0.00     0.023 A 
ATOM     73  C   UNL A   1      43.421  26.804  26.394  1.00  0.00     0.012 A 
ATOM     74  C   UNL A   1      42.241  24.873  27.278  1.00  0.00     0.148 A 
ATOM     75  C   UNL A   1      43.822  26.058  25.285  1.00  0.00     0.002 A 
ATOM     76  C   UNL A   1      42.689  24.121  26.198  1.00  0.00     0.091 A 
ATOM     77  F   UNL A   1      41.462  24.344  28.232  1.00  0.00    -0.205 F 
ATOM     78  C   UNL A   1      43.468  24.715  25.193  1.00  0.00     0.022 A 
BRANCH  76  79
ATOM     79  S   UNL A   1      42.390  22.353  26.076  1.00  0.00     0.127 S 
ATOM     80  O   UNL A   1      43.077  22.017  24.832  1.00  0.00    -0.237 OA
ATOM     81  O   UNL A   1      43.028  21.847  27.291  1.00  0.00    -0.237 OA
ATOM     82  O   UNL A   1      40.939  22.207  26.061  1.00  0.00    -0.744 OA
ENDBRANCH  76  79
ENDBRANCH  48  72
BRANCH  60  83
ATOM     83  C   UNL A   1      45.439  27.253  33.702  1.00  0.00     0.023 A 
ATOM     84  C   UNL A   1      46.642  27.979  33.607  1.00  0.00     0.012 A 
ATOM     85  C   UNL A   1      45.396  26.084  34.487  1.00  0.00     0.148 A 
ATOM     86  C   UNL A   1      47.791  27.537  34.262  1.00  0.00     0.002 A 
ATOM     87  C   UNL A   1      46.534  25.672  35.172  1.00  0.00     0.091 A 
ATOM     88  F   UNL A   1      44.247  25.394  34.547  1.00  0.00    -0.205 F 
ATOM     89  C   UNL A   1      47.734  26.392  35.054  1.00  0.00     0.022 A 
BRANCH  87  90
ATOM     90  S   UNL A   1      46.522  24.259  36.282  1.00  0.00     0.127 S 
ATOM     91  O   UNL A   1      45.840  24.806  37.454  1.00  0.00    -0.237 OA
ATOM     92  O   UNL A   1      45.745  23.274  35.529  1.00  0.00    -0.237 OA
ATOM     93  O   UNL A   1      47.920  23.899  36.477  1.00  0.00    -0.744 OA
ENDBRANCH  87  90
ENDBRANCH  60  83
ENDBRANCH  34  35
ENDBRANCH  26  29
ENDBRANCH  24  25
ENDBRANCH  23  24
ENDBRANCH  22  23
ENDBRANCH   1  22
TORSDOF 20
ENDMDL
MODEL 3
REMARK VINA RESULT:     -10.9      3.591      8.442
REMARK SMILES CCNS(=O)(=O)c1ccc(CC(=O)NCCCCCCNC(=O)c2ccc(-c3c4nc(c(-c5cccc(S(=O)(=O)[O-])c5F)c5ccc([nH]5)c(-c5cccc(S(=O)(=O)[O-])c5F)c5nc(c(-c6cccc(S(=O)(=O)[O-])c6F)c6ccc3[nH]6)C=C5)C=C4)cc2)cc1
REMARK SMILES IDX 17 1 16 2 15 3 14 4 12 5 13 6 11 8 10 9 7 10 8 11 88 12 9 13
REMARK SMILES IDX 87 14 4 15 5 16 6 17 3 18 2 20 1 21 18 22 19 23 20 24 21 25
REMARK SMILES IDX 22 26 23 28 24 29 25 30 86 31 26 32 85 33 27 34 28 35 29 36
REMARK SMILES IDX 79 37 30 38 84 39 78 40 80 41 31 42 83 43 77 44 76 45 32 47
REMARK SMILES IDX 64 48 44 49 63 50 45 51 48 52 62 53 81 54 46 55 47 56 61 58
REMARK SMILES IDX 82 59 49 60 33 61 34 62 42 63 35 64 37 65 43 66 36 67 38 68
REMARK SMILES IDX 39 69 40 70 41 71 65 72 66 73 74 74 67 75 69 76 75 77 68 78
REMARK SMILES IDX 70 79 71 80 72 81 73 82 50 83 51 84 59 85 52 86 54 87 60 88
REMARK SMILES IDX 53 89 55 90 56 91 57 92 58 93
REMARK H PARENT 14 7 3 19 21 27 80 46 48 57
REMARK Flexibility Score: inf
ROOT
ATOM      1  C   UNL A   1      30.983  27.893  24.836  1.00  0.00     0.002 C 
ENDROOT
BRANCH   1   2
ATOM      2  C   UNL A   1      31.787  28.335  23.605  1.00  0.00     0.021 C 
BRANCH   2   3
ATOM      3  C   UNL A   1      33.121  27.607  23.425  1.00  0.00     0.116 C 
BRANCH   3   4
ATOM      4  N   UNL A   1      33.296  27.146  22.060  1.00  0.00    -0.356 N 
ATOM      5  C   UNL A   1      32.835  26.005  21.468  1.00  0.00     0.224 C 
ATOM      6  O   UNL A   1      33.184  25.761  20.310  1.00  0.00    -0.275 OA
ATOM      7  H   UNL A   1      33.823  27.739  21.478  1.00  0.00     0.163 HD
BRANCH   5   8
ATOM      8  C   UNL A   1      31.870  25.094  22.208  1.00  0.00     0.135 C 
BRANCH   8   9
ATOM      9  C   UNL A   1      32.504  23.874  22.835  1.00  0.00    -0.039 A 
ATOM     10  C   UNL A   1      33.612  21.647  24.116  1.00  0.00     0.082 A 
ATOM     11  C   UNL A   1      34.423  22.740  23.793  1.00  0.00     0.022 A 
ATOM     12  C   UNL A   1      32.266  21.633  23.755  1.00  0.00     0.022 A 
ATOM     13  C   UNL A   1      33.872  23.845  23.143  1.00  0.00     0.005 A 
ATOM     14  C   UNL A   1      31.717  22.744  23.113  1.00  0.00     0.005 A 
BRANCH  10  15
ATOM     15  S   UNL A   1      34.349  20.323  25.037  1.00  0.00     0.240 S 
ATOM     16  O   UNL A   1      35.746  20.647  25.221  1.00  0.00    -0.207 OA
ATOM     17  O   UNL A   1      33.923  19.094  24.402  1.00  0.00    -0.207 OA
BRANCH  15  18
ATOM     18  N   UNL A   1      33.597  20.344  26.540  1.00  0.00    -0.211 NA
ATOM     19  H   UNL A   1      32.775  19.743  26.476  1.00  0.00     0.141 HD
BRANCH  18  20
ATOM     20  C   UNL A   1      33.150  21.635  27.079  1.00  0.00     0.095 C 
ATOM     21  C   UNL A   1      34.340  22.340  27.709  1.00  0.00     0.022 C 
ENDBRANCH  18  20
ENDBRANCH  15  18
ENDBRANCH  10  15
ENDBRANCH   8   9
ENDBRANCH   5   8
ENDBRANCH   3   4
ENDBRANCH   2   3
ENDBRANCH   1   2
BRANCH   1  22
ATOM     22  C   UNL A   1      31.744  27.019  25.840  1.00  0.00     0.002 C 
BRANCH  22  23
ATOM     23  C   UNL A   1      32.298  27.755  27.063  1.00  0.00     0.021 C 
BRANCH  23  24
ATOM     24  C   UNL A   1      33.665  28.408  26.865  1.00  0.00     0.116 C 
BRANCH  24  25
ATOM     25  N   UNL A   1      33.595  29.861  26.912  1.00  0.00    -0.352 N 
ATOM     26  C   UNL A   1      34.442  30.756  27.521  1.00  0.00     0.251 C 
ATOM     27  H   UNL A   1      32.831  30.261  26.438  1.00  0.00     0.163 HD
ATOM     28  O   UNL A   1      34.127  31.940  27.595  1.00  0.00    -0.269 OA
BRANCH  26  29
ATOM     29  C   UNL A   1      35.720  30.294  28.107  1.00  0.00     0.039 A 
ATOM     30  C   UNL A   1      35.731  29.840  29.431  1.00  0.00     0.014 A 
ATOM     31  C   UNL A   1      36.906  30.322  27.368  1.00  0.00     0.014 A 
ATOM     32  C   UNL A   1      36.918  29.361  29.992  1.00  0.00     0.010 A 
ATOM     33  C   UNL A   1      38.075  29.790  27.909  1.00  0.00     0.010 A 
ATOM     34  C   UNL A   1      38.094  29.305  29.226  1.00  0.00    -0.014 A 
BRANCH  34  35
ATOM     35  C   UNL A   1      39.346  28.722  29.774  1.00  0.00     0.031 A 
ATOM     36  C   UNL A   1      40.012  29.338  30.974  1.00  0.00     0.074 A 
ATOM     37  C   UNL A   1      39.938  27.697  29.129  1.00  0.00     0.049 A 
ATOM     38  N   UNL A   1      41.140  29.008  31.548  1.00  0.00    -0.248 NA
ATOM     39  C   UNL A   1      39.338  30.491  31.593  1.00  0.00     0.031 C 
ATOM     40  C   UNL A   1      39.437  27.067  27.905  1.00  0.00     0.029 A 
ATOM     41  N   UNL A   1      41.106  27.027  29.393  1.00  0.00    -0.354 N 
ATOM     42  C   UNL A   1      41.331  29.932  32.568  1.00  0.00     0.074 A 
ATOM     43  C   UNL A   1      40.216  30.852  32.519  1.00  0.00     0.031 C 
ATOM     44  C   UNL A   1      40.295  26.108  27.522  1.00  0.00     0.029 A 
ATOM     45  C   UNL A   1      41.415  26.066  28.458  1.00  0.00     0.049 A 
ATOM     46  H   UNL A   1      41.671  27.216  30.178  1.00  0.00     0.167 HD
ATOM     47  C   UNL A   1      42.329  29.992  33.483  1.00  0.00     0.034 A 
ATOM     48  C   UNL A   1      42.479  25.245  28.364  1.00  0.00     0.034 A 
ATOM     49  C   UNL A   1      43.405  29.042  33.569  1.00  0.00     0.049 A 
ATOM     50  C   UNL A   1      43.538  25.288  29.431  1.00  0.00     0.074 A 
ATOM     51  C   UNL A   1      44.405  28.959  34.523  1.00  0.00     0.029 A 
ATOM     52  N   UNL A   1      43.624  28.011  32.670  1.00  0.00    -0.354 N 
ATOM     53  N   UNL A   1      43.609  26.058  30.489  1.00  0.00    -0.248 NA
ATOM     54  C   UNL A   1      44.642  24.324  29.315  1.00  0.00     0.031 C 
ATOM     55  C   UNL A   1      45.234  27.880  34.195  1.00  0.00     0.029 A 
ATOM     56  C   UNL A   1      44.745  27.288  33.042  1.00  0.00     0.049 A 
ATOM     57  H   UNL A   1      43.066  27.821  31.882  1.00  0.00     0.167 HD
ATOM     58  C   UNL A   1      44.746  25.654  31.180  1.00  0.00     0.074 A 
ATOM     59  C   UNL A   1      45.320  24.555  30.433  1.00  0.00     0.031 C 
ATOM     60  C   UNL A   1      45.275  26.159  32.321  1.00  0.00     0.034 A 
BRANCH  47  61
ATOM     61  C   UNL A   1      42.266  31.088  34.513  1.00  0.00     0.023 A 
ATOM     62  C   UNL A   1      41.660  30.828  35.759  1.00  0.00     0.012 A 
ATOM     63  C   UNL A   1      42.853  32.346  34.279  1.00  0.00     0.148 A 
ATOM     64  C   UNL A   1      41.614  31.812  36.746  1.00  0.00     0.002 A 
ATOM     65  C   UNL A   1      42.836  33.310  35.281  1.00  0.00     0.091 A 
ATOM     66  F   UNL A   1      43.402  32.584  33.079  1.00  0.00    -0.205 F 
ATOM     67  C   UNL A   1      42.210  33.048  36.511  1.00  0.00     0.022 A 
BRANCH  65  68
ATOM     68  S   UNL A   1      43.642  34.905  35.096  1.00  0.00     0.127 S 
ATOM     69  O   UNL A   1      42.867  35.503  34.011  1.00  0.00    -0.237 OA
ATOM     70  O   UNL A   1      43.429  35.518  36.408  1.00  0.00    -0.237 OA
ATOM     71  O   UNL A   1      45.035  34.612  34.788  1.00  0.00    -0.744 OA
ENDBRANCH  65  68
ENDBRANCH  47  61
BRANCH  48  72
ATOM     72  C   UNL A   1      42.548  24.253  27.254  1.00  0.00     0.023 A 
ATOM     73  C   UNL A   1      43.333  24.543  26.121  1.00  0.00     0.012 A 
ATOM     74  C   UNL A   1      41.886  23.013  27.332  1.00  0.00     0.148 A 
ATOM     75  C   UNL A   1      43.437  23.626  25.074  1.00  0.00     0.002 A 
ATOM     76  C   UNL A   1      42.036  22.083  26.311  1.00  0.00     0.091 A 
ATOM     77  F   UNL A   1      41.130  22.762  28.411  1.00  0.00    -0.205 F 
ATOM     78  C   UNL A   1      42.799  22.392  25.174  1.00  0.00     0.022 A 
BRANCH  76  79
ATOM     79  S   UNL A   1      41.360  20.421  26.425  1.00  0.00     0.127 S 
ATOM     80  O   UNL A   1      39.945  20.653  26.151  1.00  0.00    -0.237 OA
ATOM     81  O   UNL A   1      42.086  19.718  25.367  1.00  0.00    -0.237 OA
ATOM     82  O   UNL A   1      41.683  19.965  27.772  1.00  0.00    -0.744 OA
ENDBRANCH  76  79
ENDBRANCH  48  72
BRANCH  60  83
ATOM     83  C   UNL A   1      46.532  25.523  32.850  1.00  0.00     0.023 A 
ATOM     84  C   UNL A   1      47.784  26.055  32.489  1.00  0.00     0.012 A 
ATOM     85  C   UNL A   1      46.472  24.454  33.767  1.00  0.00     0.148 A 
ATOM     86  C   UNL A   1      48.961  25.519  33.010  1.00  0.00     0.002 A 
ATOM     87  C   UNL A   1      47.646  23.951  34.315  1.00  0.00     0.091 A 
ATOM     88  F   UNL A   1      45.272  23.946  34.081  1.00  0.00    -0.205 F 
ATOM     89  C   UNL A   1      48.892  24.476  33.932  1.00  0.00     0.022 A 
BRANCH  87  90
ATOM     90  S   UNL A   1      47.641  22.669  35.574  1.00  0.00     0.127 S 
ATOM     91  O   UNL A   1      48.707  21.786  35.105  1.00  0.00    -0.237 OA
ATOM     92  O   UNL A   1      47.960  23.420  36.789  1.00  0.00    -0.237 OA
ATOM     93  O   UNL A   1      46.298  22.102  35.554  1.00  0.00    -0.744 OA
ENDBRANCH  87  90
ENDBRANCH  60  83
ENDBRANCH  34  35
ENDBRANCH  26  29
ENDBRANCH  24  25
ENDBRANCH  23  24
ENDBRANCH  22  23
ENDBRANCH   1  22
TORSDOF 20
ENDMDL
