MODEL 1
REMARK VINA RESULT:      -9.6      0.000      0.000
REMARK SMILES O=C1[NH+]=C(S)N(c2cccc(Br)c2)C(=O)/C1=C/c1ccc(-c2ccc(C(=O)NCCCCCCNC(=O)c3ccc(-c4c5nc(c(-c6cccc(S(=O)(=O)[O-])c6F)c6ccc([nH]6)c(-c6cccc(S(=O)(=O)[O-])c6F)c6nc(c(-c7cccc(S(=O)(=O)[O-])c7F)c7ccc4[nH]7)C=C6)C=C5)cc3)cc2)o1
REMARK SMILES IDX 31 1 30 2 29 3 28 4 26 5 27 6 25 8 22 9 23 10 102 11 24 12
REMARK SMILES IDX 101 13 21 14 18 15 19 16 103 17 20 18 17 19 1 20 2 21 3 22
REMARK SMILES IDX 16 23 4 24 14 26 6 27 15 28 5 29 7 31 8 32 13 33 9 34 11 35
REMARK SMILES IDX 10 36 12 37 32 38 33 39 34 40 35 41 36 42 37 44 38 45 39 46
REMARK SMILES IDX 100 47 40 48 99 49 41 50 42 51 43 52 93 53 44 54 98 55 92 56
REMARK SMILES IDX 94 57 45 58 97 59 91 60 90 61 46 63 78 64 58 65 77 66 59 67
REMARK SMILES IDX 62 68 76 69 95 70 60 71 61 72 75 74 96 75 63 76 47 77 48 78
REMARK SMILES IDX 56 79 49 80 51 81 57 82 50 83 52 84 53 85 54 86 55 87 79 88
REMARK SMILES IDX 80 89 88 90 81 91 83 92 89 93 82 94 84 95 85 96 86 97 87 98
REMARK SMILES IDX 64 99 65 100 73 101 66 102 68 103 74 104 67 105 69 106
REMARK SMILES IDX 70 107 71 108 72 109
REMARK H PARENT 28 7 3 25 5 30 35 43 94 62 62 73
REMARK Flexibility Score: inf
ROOT
ATOM      1  C   UNL A   1      36.485  33.299  33.190  1.00  0.00     0.002 C 
ENDROOT
BRANCH   1   2
ATOM      2  C   UNL A   1      38.008  33.401  33.346  1.00  0.00     0.021 C 
BRANCH   2   3
ATOM      3  C   UNL A   1      38.609  34.543  32.523  1.00  0.00     0.116 C 
BRANCH   3   4
ATOM      4  N   UNL A   1      38.091  34.491  31.167  1.00  0.00    -0.352 N 
ATOM      5  C   UNL A   1      38.710  34.474  29.942  1.00  0.00     0.251 C 
ATOM      6  O   UNL A   1      37.998  34.454  28.938  1.00  0.00    -0.269 OA
ATOM      7  H   UNL A   1      37.109  34.464  31.116  1.00  0.00     0.163 HD
BRANCH   5   8
ATOM      8  C   UNL A   1      40.189  34.399  29.788  1.00  0.00     0.039 A 
ATOM      9  C   UNL A   1      42.928  34.222  29.185  1.00  0.00     0.017 A 
ATOM     10  C   UNL A   1      42.156  35.240  28.621  1.00  0.00     0.013 A 
ATOM     11  C   UNL A   1      42.348  33.355  30.113  1.00  0.00     0.013 A 
ATOM     12  C   UNL A   1      40.790  35.319  28.912  1.00  0.00     0.014 A 
ATOM     13  C   UNL A   1      41.000  33.475  30.447  1.00  0.00     0.014 A 
BRANCH   9  14
ATOM     14  C   UNL A   1      44.306  34.013  28.808  1.00  0.00     0.134 A 
ATOM     15  C   UNL A   1      46.085  32.741  28.515  1.00  0.00     0.128 A 
ATOM     16  C   UNL A   1      46.367  33.992  27.979  1.00  0.00     0.051 A 
ATOM     17  O   UNL A   1      44.807  32.768  29.016  1.00  0.00    -0.457 OA
ATOM     18  C   UNL A   1      45.234  34.808  28.181  1.00  0.00     0.051 A 
BRANCH  15  19
ATOM     19  C   UNL A   1      46.892  31.580  28.532  1.00  0.00     0.071 C 
ATOM     20  O   UNL A   1      45.419  31.675  26.012  1.00  0.00    -0.241 OA
ATOM     21  C   UNL A   1      46.000  30.666  26.377  1.00  0.00     0.347 C 
ATOM     22  N   UNL A   1      45.923  29.521  25.645  1.00  0.00    -0.200 N 
ATOM     23  C   UNL A   1      46.829  30.604  27.606  1.00  0.00     0.158 C 
ATOM     24  C   UNL A   1      46.651  28.499  25.898  1.00  0.00     0.323 C 
ATOM     25  H   UNL A   1      45.285  29.478  24.895  1.00  0.00     0.316 HD
ATOM     26  C   UNL A   1      47.688  29.421  27.854  1.00  0.00     0.354 C 
ATOM     27  N   UNL A   1      47.566  28.392  26.929  1.00  0.00    -0.151 N 
ATOM     28  O   UNL A   1      48.457  29.397  28.815  1.00  0.00    -0.240 OA
BRANCH  24  29
ATOM     29  S   UNL A   1      46.334  27.130  24.846  1.00  0.00    -0.055 SA
ATOM     30  H   UNL A   1      47.355  26.996  23.957  1.00  0.00     0.116 HD
ENDBRANCH  24  29
BRANCH  27  31
ATOM     31  C   UNL A   1      48.400  27.245  27.108  1.00  0.00     0.138 A 
ATOM     32  C   UNL A   1      48.016  26.226  27.993  1.00  0.00     0.052 A 
ATOM     33  C   UNL A   1      49.618  27.135  26.425  1.00  0.00     0.068 A 
ATOM     34  C   UNL A   1      48.817  25.095  28.160  1.00  0.00     0.006 A 
ATOM     35  C   UNL A   1      50.418  26.007  26.606  1.00  0.00     0.022 A 
ATOM     36  C   UNL A   1      50.018  24.982  27.461  1.00  0.00     0.016 A 
ATOM     37  Br  UNL A   1      52.062  25.871  25.683  1.00  0.00    -0.051 Br
ENDBRANCH  27  31
ENDBRANCH  15  19
ENDBRANCH   9  14
ENDBRANCH   5   8
ENDBRANCH   3   4
ENDBRANCH   2   3
ENDBRANCH   1   2
BRANCH   1  38
ATOM     38  C   UNL A   1      36.021  32.226  32.198  1.00  0.00     0.002 C 
BRANCH  38  39
ATOM     39  C   UNL A   1      34.757  32.589  31.414  1.00  0.00     0.021 C 
BRANCH  39  40
ATOM     40  C   UNL A   1      35.033  33.095  30.003  1.00  0.00     0.116 C 
BRANCH  40  41
ATOM     41  N   UNL A   1      34.294  32.326  29.011  1.00  0.00    -0.352 N 
ATOM     42  C   UNL A   1      34.714  31.256  28.262  1.00  0.00     0.251 C 
ATOM     43  H   UNL A   1      33.366  32.615  28.855  1.00  0.00     0.163 HD
ATOM     44  O   UNL A   1      34.063  30.888  27.288  1.00  0.00    -0.269 OA
BRANCH  42  45
ATOM     45  C   UNL A   1      35.960  30.558  28.636  1.00  0.00     0.039 A 
ATOM     46  C   UNL A   1      37.156  30.917  28.012  1.00  0.00     0.014 A 
ATOM     47  C   UNL A   1      35.940  29.556  29.610  1.00  0.00     0.014 A 
ATOM     48  C   UNL A   1      38.347  30.306  28.410  1.00  0.00     0.010 A 
ATOM     49  C   UNL A   1      37.136  29.010  30.062  1.00  0.00     0.010 A 
ATOM     50  C   UNL A   1      38.351  29.374  29.462  1.00  0.00    -0.014 A 
BRANCH  50  51
ATOM     51  C   UNL A   1      39.616  28.777  29.960  1.00  0.00     0.031 A 
ATOM     52  C   UNL A   1      40.313  29.368  31.154  1.00  0.00     0.074 A 
ATOM     53  C   UNL A   1      40.179  27.756  29.285  1.00  0.00     0.049 A 
ATOM     54  N   UNL A   1      41.451  29.024  31.698  1.00  0.00    -0.248 NA
ATOM     55  C   UNL A   1      39.660  30.515  31.809  1.00  0.00     0.031 C 
ATOM     56  C   UNL A   1      39.635  27.141  28.072  1.00  0.00     0.029 A 
ATOM     57  N   UNL A   1      41.347  27.071  29.507  1.00  0.00    -0.354 N 
ATOM     58  C   UNL A   1      41.666  29.926  32.733  1.00  0.00     0.074 A 
ATOM     59  C   UNL A   1      40.561  30.859  32.717  1.00  0.00     0.031 C 
ATOM     60  C   UNL A   1      40.461  26.164  27.665  1.00  0.00     0.029 A 
ATOM     61  C   UNL A   1      41.612  26.110  28.560  1.00  0.00     0.049 A 
ATOM     62  H   UNL A   1      41.940  27.250  30.272  1.00  0.00     0.167 HD
ATOM     63  C   UNL A   1      42.678  29.960  33.633  1.00  0.00     0.034 A 
ATOM     64  C   UNL A   1      42.669  25.286  28.420  1.00  0.00     0.034 A 
ATOM     65  C   UNL A   1      43.762  29.016  33.659  1.00  0.00     0.049 A 
ATOM     66  C   UNL A   1      43.777  25.342  29.435  1.00  0.00     0.074 A 
ATOM     67  C   UNL A   1      44.793  28.916  34.575  1.00  0.00     0.029 A 
ATOM     68  N   UNL A   1      43.966  28.018  32.718  1.00  0.00    -0.354 N 
ATOM     69  N   UNL A   1      43.888  26.105  30.495  1.00  0.00    -0.248 NA
ATOM     70  C   UNL A   1      44.891  24.400  29.254  1.00  0.00     0.031 C 
ATOM     71  C   UNL A   1      45.644  27.884  34.165  1.00  0.00     0.029 A 
ATOM     72  C   UNL A   1      45.116  27.310  33.020  1.00  0.00     0.049 A 
ATOM     73  H   UNL A   1      43.377  27.839  31.949  1.00  0.00     0.167 HD
ATOM     74  C   UNL A   1      45.061  25.709  31.129  1.00  0.00     0.074 A 
ATOM     75  C   UNL A   1      45.614  24.625  30.343  1.00  0.00     0.031 C 
ATOM     76  C   UNL A   1      45.632  26.203  32.255  1.00  0.00     0.034 A 
BRANCH  63  77
ATOM     77  C   UNL A   1      42.641  31.039  34.687  1.00  0.00     0.023 A 
ATOM     78  C   UNL A   1      42.090  30.761  35.954  1.00  0.00     0.012 A 
ATOM     79  C   UNL A   1      43.195  32.310  34.439  1.00  0.00     0.148 A 
ATOM     80  C   UNL A   1      42.050  31.743  36.944  1.00  0.00     0.002 A 
ATOM     81  C   UNL A   1      43.198  33.267  35.447  1.00  0.00     0.091 A 
ATOM     82  F   UNL A   1      43.697  32.564  33.222  1.00  0.00    -0.205 F 
ATOM     83  C   UNL A   1      42.613  32.991  36.694  1.00  0.00     0.022 A 
BRANCH  81  84
ATOM     84  S   UNL A   1      43.971  34.877  35.253  1.00  0.00     0.127 S 
ATOM     85  O   UNL A   1      43.481  35.282  33.936  1.00  0.00    -0.237 OA
ATOM     86  O   UNL A   1      43.403  35.627  36.373  1.00  0.00    -0.237 OA
ATOM     87  O   UNL A   1      45.406  34.647  35.340  1.00  0.00    -0.744 OA
ENDBRANCH  81  84
ENDBRANCH  63  77
BRANCH  64  88
ATOM     88  C   UNL A   1      42.707  24.303  27.299  1.00  0.00     0.023 A 
ATOM     89  C   UNL A   1      43.372  24.641  26.104  1.00  0.00     0.012 A 
ATOM     90  C   UNL A   1      42.105  23.035  27.416  1.00  0.00     0.148 A 
ATOM     91  C   UNL A   1      43.404  23.750  25.031  1.00  0.00     0.002 A 
ATOM     92  C   UNL A   1      42.189  22.131  26.365  1.00  0.00     0.091 A 
ATOM     93  F   UNL A   1      41.472  22.737  28.559  1.00  0.00    -0.205 F 
ATOM     94  C   UNL A   1      42.820  22.492  25.164  1.00  0.00     0.022 A 
BRANCH  92  95
ATOM     95  S   UNL A   1      41.579  20.446  26.491  1.00  0.00     0.127 S 
ATOM     96  O   UNL A   1      40.133  20.652  26.515  1.00  0.00    -0.237 OA
ATOM     97  O   UNL A   1      42.098  19.847  25.261  1.00  0.00    -0.237 OA
ATOM     98  O   UNL A   1      42.158  19.905  27.714  1.00  0.00    -0.744 OA
ENDBRANCH  92  95
ENDBRANCH  64  88
BRANCH  76  99
ATOM     99  C   UNL A   1      46.901  25.551  32.741  1.00  0.00     0.023 A 
ATOM    100  C   UNL A   1      48.149  25.971  32.241  1.00  0.00     0.012 A 
ATOM    101  C   UNL A   1      46.854  24.570  33.752  1.00  0.00     0.148 A 
ATOM    102  C   UNL A   1      49.329  25.400  32.715  1.00  0.00     0.002 A 
ATOM    103  C   UNL A   1      48.036  24.046  34.258  1.00  0.00     0.091 A 
ATOM    104  F   UNL A   1      45.655  24.172  34.202  1.00  0.00    -0.205 F 
ATOM    105  C   UNL A   1      49.274  24.448  33.731  1.00  0.00     0.022 A 
BRANCH 103 106
ATOM    106  S   UNL A   1      48.069  22.891  35.634  1.00  0.00     0.127 S 
ATOM    107  O   UNL A   1      47.370  21.737  35.070  1.00  0.00    -0.237 OA
ATOM    108  O   UNL A   1      49.505  22.696  35.836  1.00  0.00    -0.237 OA
ATOM    109  O   UNL A   1      47.386  23.555  36.736  1.00  0.00    -0.744 OA
ENDBRANCH 103 106
ENDBRANCH  76  99
ENDBRANCH  50  51
ENDBRANCH  42  45
ENDBRANCH  40  41
ENDBRANCH  39  40
ENDBRANCH  38  39
ENDBRANCH   1  38
TORSDOF 20
ENDMDL
MODEL 2
REMARK VINA RESULT:      -9.6      1.692      2.443
REMARK SMILES O=C1[NH+]=C(S)N(c2cccc(Br)c2)C(=O)/C1=C/c1ccc(-c2ccc(C(=O)NCCCCCCNC(=O)c3ccc(-c4c5nc(c(-c6cccc(S(=O)(=O)[O-])c6F)c6ccc([nH]6)c(-c6cccc(S(=O)(=O)[O-])c6F)c6nc(c(-c7cccc(S(=O)(=O)[O-])c7F)c7ccc4[nH]7)C=C6)C=C5)cc3)cc2)o1
REMARK SMILES IDX 31 1 30 2 29 3 28 4 26 5 27 6 25 8 22 9 23 10 102 11 24 12
REMARK SMILES IDX 101 13 21 14 18 15 19 16 103 17 20 18 17 19 1 20 2 21 3 22
REMARK SMILES IDX 16 23 4 24 14 26 6 27 15 28 5 29 7 31 8 32 13 33 9 34 11 35
REMARK SMILES IDX 10 36 12 37 32 38 33 39 34 40 35 41 36 42 37 44 38 45 39 46
REMARK SMILES IDX 100 47 40 48 99 49 41 50 42 51 43 52 93 53 44 54 98 55 92 56
REMARK SMILES IDX 94 57 45 58 97 59 91 60 90 61 46 63 78 64 58 65 77 66 59 67
REMARK SMILES IDX 62 68 76 69 95 70 60 71 61 72 75 74 96 75 63 76 47 77 48 78
REMARK SMILES IDX 56 79 49 80 51 81 57 82 50 83 52 84 53 85 54 86 55 87 79 88
REMARK SMILES IDX 80 89 88 90 81 91 83 92 89 93 82 94 84 95 85 96 86 97 87 98
REMARK SMILES IDX 64 99 65 100 73 101 66 102 68 103 74 104 67 105 69 106
REMARK SMILES IDX 70 107 71 108 72 109
REMARK H PARENT 28 7 3 25 5 30 35 43 94 62 62 73
REMARK Flexibility Score: inf
ROOT
ATOM      1  C   UNL A   1      37.120  32.593  34.312  1.00  0.00     0.002 C 
ENDROOT
BRANCH   1   2
ATOM      2  C   UNL A   1      37.485  32.555  35.802  1.00  0.00     0.021 C 
BRANCH   2   3
ATOM      3  C   UNL A   1      38.935  32.968  36.064  1.00  0.00     0.116 C 
BRANCH   3   4
ATOM      4  N   UNL A   1      39.039  34.417  36.051  1.00  0.00    -0.352 N 
ATOM      5  C   UNL A   1      39.677  35.289  35.206  1.00  0.00     0.251 C 
ATOM      6  O   UNL A   1      39.613  36.491  35.464  1.00  0.00    -0.269 OA
ATOM      7  H   UNL A   1      38.562  34.857  36.790  1.00  0.00     0.163 HD
BRANCH   5   8
ATOM      8  C   UNL A   1      40.367  34.848  33.963  1.00  0.00     0.039 A 
ATOM      9  C   UNL A   1      41.844  34.279  31.641  1.00  0.00     0.017 A 
ATOM     10  C   UNL A   1      42.499  34.413  32.867  1.00  0.00     0.013 A 
ATOM     11  C   UNL A   1      40.450  34.343  31.597  1.00  0.00     0.013 A 
ATOM     12  C   UNL A   1      41.764  34.708  34.020  1.00  0.00     0.014 A 
ATOM     13  C   UNL A   1      39.716  34.578  32.759  1.00  0.00     0.014 A 
BRANCH   9  14
ATOM     14  C   UNL A   1      42.569  34.115  30.403  1.00  0.00     0.134 A 
ATOM     15  C   UNL A   1      43.418  32.888  28.778  1.00  0.00     0.128 A 
ATOM     16  C   UNL A   1      43.544  34.222  28.410  1.00  0.00     0.051 A 
ATOM     17  O   UNL A   1      42.808  32.839  30.007  1.00  0.00    -0.457 OA
ATOM     18  C   UNL A   1      43.014  35.006  29.456  1.00  0.00     0.051 A 
BRANCH  15  19
ATOM     19  C   UNL A   1      43.777  31.728  28.052  1.00  0.00     0.071 C 
ATOM     20  O   UNL A   1      45.968  32.443  29.847  1.00  0.00    -0.241 OA
ATOM     21  C   UNL A   1      46.114  31.631  28.949  1.00  0.00     0.347 C 
ATOM     22  N   UNL A   1      47.335  31.076  28.711  1.00  0.00    -0.200 N 
ATOM     23  C   UNL A   1      45.007  31.178  28.072  1.00  0.00     0.158 C 
ATOM     24  C   UNL A   1      47.494  30.099  27.898  1.00  0.00     0.323 C 
ATOM     25  H   UNL A   1      48.122  31.438  29.180  1.00  0.00     0.316 HD
ATOM     26  C   UNL A   1      45.212  30.022  27.166  1.00  0.00     0.354 C 
ATOM     27  N   UNL A   1      46.500  29.503  27.145  1.00  0.00    -0.151 N 
ATOM     28  O   UNL A   1      44.275  29.570  26.507  1.00  0.00    -0.240 OA
BRANCH  24  29
ATOM     29  S   UNL A   1      49.166  29.592  27.726  1.00  0.00    -0.055 SA
ATOM     30  H   UNL A   1      49.573  29.801  26.445  1.00  0.00     0.116 HD
ENDBRANCH  24  29
BRANCH  27  31
ATOM     31  C   UNL A   1      46.738  28.367  26.311  1.00  0.00     0.138 A 
ATOM     32  C   UNL A   1      46.993  28.538  24.941  1.00  0.00     0.052 A 
ATOM     33  C   UNL A   1      46.693  27.072  26.842  1.00  0.00     0.068 A 
ATOM     34  C   UNL A   1      47.242  27.434  24.125  1.00  0.00     0.006 A 
ATOM     35  C   UNL A   1      46.933  25.973  26.017  1.00  0.00     0.022 A 
ATOM     36  C   UNL A   1      47.217  26.148  24.665  1.00  0.00     0.016 A 
ATOM     37  Br  UNL A   1      46.867  24.228  26.744  1.00  0.00    -0.051 Br
ENDBRANCH  27  31
ENDBRANCH  15  19
ENDBRANCH   9  14
ENDBRANCH   5   8
ENDBRANCH   3   4
ENDBRANCH   2   3
ENDBRANCH   1   2
BRANCH   1  38
ATOM     38  C   UNL A   1      36.331  33.835  33.885  1.00  0.00     0.002 C 
BRANCH  38  39
ATOM     39  C   UNL A   1      35.779  33.779  32.458  1.00  0.00     0.021 C 
BRANCH  39  40
ATOM     40  C   UNL A   1      34.713  32.709  32.253  1.00  0.00     0.116 C 
BRANCH  40  41
ATOM     41  N   UNL A   1      34.307  32.626  30.857  1.00  0.00    -0.352 N 
ATOM     42  C   UNL A   1      35.032  32.205  29.771  1.00  0.00     0.251 C 
ATOM     43  H   UNL A   1      33.384  32.912  30.666  1.00  0.00     0.163 HD
ATOM     44  O   UNL A   1      34.637  32.442  28.633  1.00  0.00    -0.269 OA
BRANCH  42  45
ATOM     45  C   UNL A   1      36.296  31.473  29.987  1.00  0.00     0.039 A 
ATOM     46  C   UNL A   1      37.502  32.069  29.616  1.00  0.00     0.014 A 
ATOM     47  C   UNL A   1      36.282  30.201  30.566  1.00  0.00     0.014 A 
ATOM     48  C   UNL A   1      38.704  31.409  29.880  1.00  0.00     0.010 A 
ATOM     49  C   UNL A   1      37.480  29.583  30.902  1.00  0.00     0.010 A 
ATOM     50  C   UNL A   1      38.704  30.177  30.556  1.00  0.00    -0.014 A 
BRANCH  50  51
ATOM     51  C   UNL A   1      39.972  29.499  30.924  1.00  0.00     0.031 A 
ATOM     52  C   UNL A   1      40.739  29.937  32.142  1.00  0.00     0.074 A 
ATOM     53  C   UNL A   1      40.474  28.545  30.115  1.00  0.00     0.049 A 
ATOM     54  N   UNL A   1      41.890  29.507  32.589  1.00  0.00    -0.248 NA
ATOM     55  C   UNL A   1      40.150  31.020  32.948  1.00  0.00     0.031 C 
ATOM     56  C   UNL A   1      39.858  28.081  28.870  1.00  0.00     0.029 A 
ATOM     57  N   UNL A   1      41.631  27.813  30.205  1.00  0.00    -0.354 N 
ATOM     58  C   UNL A   1      42.178  30.284  33.705  1.00  0.00     0.074 A 
ATOM     59  C   UNL A   1      41.101  31.239  33.844  1.00  0.00     0.031 C 
ATOM     60  C   UNL A   1      40.636  27.136  28.319  1.00  0.00     0.029 A 
ATOM     61  C   UNL A   1      41.824  26.955  29.146  1.00  0.00     0.049 A 
ATOM     62  H   UNL A   1      42.263  27.891  30.956  1.00  0.00     0.167 HD
ATOM     63  C   UNL A   1      43.231  30.194  34.553  1.00  0.00     0.034 A 
ATOM     64  C   UNL A   1      42.849  26.128  28.866  1.00  0.00     0.034 A 
ATOM     65  C   UNL A   1      44.286  29.227  34.423  1.00  0.00     0.049 A 
ATOM     66  C   UNL A   1      44.004  26.044  29.828  1.00  0.00     0.074 A 
ATOM     67  C   UNL A   1      45.355  29.002  35.273  1.00  0.00     0.029 A 
ATOM     68  N   UNL A   1      44.418  28.335  33.371  1.00  0.00    -0.354 N 
ATOM     69  N   UNL A   1      44.185  26.682  30.957  1.00  0.00    -0.248 NA
ATOM     70  C   UNL A   1      45.080  25.102  29.491  1.00  0.00     0.031 C 
ATOM     71  C   UNL A   1      46.155  28.001  34.711  1.00  0.00     0.029 A 
ATOM     72  C   UNL A   1      45.560  27.571  33.537  1.00  0.00     0.049 A 
ATOM     73  H   UNL A   1      43.791  28.257  32.615  1.00  0.00     0.167 HD
ATOM     74  C   UNL A   1      45.372  26.191  31.487  1.00  0.00     0.074 A 
ATOM     75  C   UNL A   1      45.858  25.187  30.562  1.00  0.00     0.031 C 
ATOM     76  C   UNL A   1      46.008  26.543  32.632  1.00  0.00     0.034 A 
BRANCH  63  77
ATOM     77  C   UNL A   1      43.273  31.150  35.719  1.00  0.00     0.023 A 
ATOM     78  C   UNL A   1      42.536  30.864  36.887  1.00  0.00     0.012 A 
ATOM     79  C   UNL A   1      44.078  32.305  35.678  1.00  0.00     0.148 A 
ATOM     80  C   UNL A   1      42.565  31.731  37.978  1.00  0.00     0.002 A 
ATOM     81  C   UNL A   1      44.141  33.139  36.787  1.00  0.00     0.091 A 
ATOM     82  F   UNL A   1      44.756  32.573  34.553  1.00  0.00    -0.205 F 
ATOM     83  C   UNL A   1      43.375  32.862  37.932  1.00  0.00     0.022 A 
BRANCH  81  84
ATOM     84  S   UNL A   1      45.217  34.576  36.861  1.00  0.00     0.127 S 
ATOM     85  O   UNL A   1      46.465  34.036  36.319  1.00  0.00    -0.237 OA
ATOM     86  O   UNL A   1      44.529  35.520  35.981  1.00  0.00    -0.237 OA
ATOM     87  O   UNL A   1      45.266  34.972  38.261  1.00  0.00    -0.744 OA
ENDBRANCH  81  84
ENDBRANCH  63  77
BRANCH  64  88
ATOM     88  C   UNL A   1      42.808  25.274  27.644  1.00  0.00     0.023 A 
ATOM     89  C   UNL A   1      43.336  25.769  26.435  1.00  0.00     0.012 A 
ATOM     90  C   UNL A   1      42.266  23.974  27.676  1.00  0.00     0.148 A 
ATOM     91  C   UNL A   1      43.291  25.001  25.272  1.00  0.00     0.002 A 
ATOM     92  C   UNL A   1      42.275  23.193  26.527  1.00  0.00     0.091 A 
ATOM     93  F   UNL A   1      41.763  23.525  28.834  1.00  0.00    -0.205 F 
ATOM     94  C   UNL A   1      42.768  23.711  25.319  1.00  0.00     0.022 A 
BRANCH  92  95
ATOM     95  S   UNL A   1      41.740  21.479  26.523  1.00  0.00     0.127 S 
ATOM     96  O   UNL A   1      40.303  21.613  26.299  1.00  0.00    -0.237 OA
ATOM     97  O   UNL A   1      42.493  20.933  25.393  1.00  0.00    -0.237 OA
ATOM     98  O   UNL A   1      42.128  20.939  27.820  1.00  0.00    -0.744 OA
ENDBRANCH  92  95
ENDBRANCH  64  88
BRANCH  76  99
ATOM     99  C   UNL A   1      47.278  25.811  32.982  1.00  0.00     0.023 A 
ATOM    100  C   UNL A   1      48.519  26.277  32.504  1.00  0.00     0.012 A 
ATOM    101  C   UNL A   1      47.243  24.700  33.849  1.00  0.00     0.148 A 
ATOM    102  C   UNL A   1      49.702  25.628  32.856  1.00  0.00     0.002 A 
ATOM    103  C   UNL A   1      48.429  24.093  34.240  1.00  0.00     0.091 A 
ATOM    104  F   UNL A   1      46.051  24.263  34.279  1.00  0.00    -0.205 F 
ATOM    105  C   UNL A   1      49.659  24.545  33.733  1.00  0.00     0.022 A 
BRANCH 103 106
ATOM    106  S   UNL A   1      48.482  22.760  35.441  1.00  0.00     0.127 S 
ATOM    107  O   UNL A   1      49.914  22.476  35.509  1.00  0.00    -0.237 OA
ATOM    108  O   UNL A   1      47.929  23.400  36.635  1.00  0.00    -0.237 OA
ATOM    109  O   UNL A   1      47.661  21.688  34.893  1.00  0.00    -0.744 OA
ENDBRANCH 103 106
ENDBRANCH  76  99
ENDBRANCH  50  51
ENDBRANCH  42  45
ENDBRANCH  40  41
ENDBRANCH  39  40
ENDBRANCH  38  39
ENDBRANCH   1  38
TORSDOF 20
ENDMDL
MODEL 3
REMARK VINA RESULT:      -8.8      3.918     10.750
REMARK SMILES O=C1[NH+]=C(S)N(c2cccc(Br)c2)C(=O)/C1=C/c1ccc(-c2ccc(C(=O)NCCCCCCNC(=O)c3ccc(-c4c5nc(c(-c6cccc(S(=O)(=O)[O-])c6F)c6ccc([nH]6)c(-c6cccc(S(=O)(=O)[O-])c6F)c6nc(c(-c7cccc(S(=O)(=O)[O-])c7F)c7ccc4[nH]7)C=C6)C=C5)cc3)cc2)o1
REMARK SMILES IDX 31 1 30 2 29 3 28 4 26 5 27 6 25 8 22 9 23 10 102 11 24 12
REMARK SMILES IDX 101 13 21 14 18 15 19 16 103 17 20 18 17 19 1 20 2 21 3 22
REMARK SMILES IDX 16 23 4 24 14 26 6 27 15 28 5 29 7 31 8 32 13 33 9 34 11 35
REMARK SMILES IDX 10 36 12 37 32 38 33 39 34 40 35 41 36 42 37 44 38 45 39 46
REMARK SMILES IDX 100 47 40 48 99 49 41 50 42 51 43 52 93 53 44 54 98 55 92 56
REMARK SMILES IDX 94 57 45 58 97 59 91 60 90 61 46 63 78 64 58 65 77 66 59 67
REMARK SMILES IDX 62 68 76 69 95 70 60 71 61 72 75 74 96 75 63 76 47 77 48 78
REMARK SMILES IDX 56 79 49 80 51 81 57 82 50 83 52 84 53 85 54 86 55 87 79 88
REMARK SMILES IDX 80 89 88 90 81 91 83 92 89 93 82 94 84 95 85 96 86 97 87 98
REMARK SMILES IDX 64 99 65 100 73 101 66 102 68 103 74 104 67 105 69 106
REMARK SMILES IDX 70 107 71 108 72 109
REMARK H PARENT 28 7 3 25 5 30 35 43 94 62 62 73
REMARK Flexibility Score: inf
ROOT
ATOM      1  C   UNL A   1      45.135  21.726  25.934  1.00  0.00     0.002 C 
ENDROOT
BRANCH   1   2
ATOM      2  C   UNL A   1      43.674  21.381  25.617  1.00  0.00     0.021 C 
BRANCH   2   3
ATOM      3  C   UNL A   1      42.759  21.516  26.837  1.00  0.00     0.116 C 
BRANCH   3   4
ATOM      4  N   UNL A   1      41.374  21.359  26.428  1.00  0.00    -0.352 N 
ATOM      5  C   UNL A   1      40.288  22.194  26.503  1.00  0.00     0.251 C 
ATOM      6  O   UNL A   1      39.208  21.772  26.091  1.00  0.00    -0.269 OA
ATOM      7  H   UNL A   1      41.176  20.486  26.019  1.00  0.00     0.163 HD
BRANCH   5   8
ATOM      8  C   UNL A   1      40.385  23.600  26.984  1.00  0.00     0.039 A 
ATOM      9  C   UNL A   1      40.313  26.312  27.712  1.00  0.00     0.017 A 
ATOM     10  C   UNL A   1      39.217  25.491  27.982  1.00  0.00     0.013 A 
ATOM     11  C   UNL A   1      41.469  25.757  27.160  1.00  0.00     0.013 A 
ATOM     12  C   UNL A   1      39.249  24.143  27.608  1.00  0.00     0.014 A 
ATOM     13  C   UNL A   1      41.519  24.400  26.844  1.00  0.00     0.014 A 
BRANCH   9  14
ATOM     14  C   UNL A   1      40.275  27.736  27.949  1.00  0.00     0.134 A 
ATOM     15  C   UNL A   1      39.493  29.534  28.962  1.00  0.00     0.128 A 
ATOM     16  C   UNL A   1      40.599  29.918  28.214  1.00  0.00     0.051 A 
ATOM     17  O   UNL A   1      39.310  28.183  28.793  1.00  0.00    -0.457 OA
ATOM     18  C   UNL A   1      41.089  28.771  27.555  1.00  0.00     0.051 A 
BRANCH  15  19
ATOM     19  C   UNL A   1      38.680  30.318  29.813  1.00  0.00     0.071 C 
ATOM     20  O   UNL A   1      37.191  29.706  27.377  1.00  0.00    -0.241 OA
ATOM     21  C   UNL A   1      36.810  30.557  28.163  1.00  0.00     0.347 C 
ATOM     22  N   UNL A   1      35.704  31.302  27.893  1.00  0.00    -0.200 N 
ATOM     23  C   UNL A   1      37.491  30.837  29.451  1.00  0.00     0.158 C 
ATOM     24  C   UNL A   1      35.175  32.079  28.763  1.00  0.00     0.323 C 
ATOM     25  H   UNL A   1      35.296  31.242  26.998  1.00  0.00     0.316 HD
ATOM     26  C   UNL A   1      36.836  31.714  30.453  1.00  0.00     0.354 C 
ATOM     27  N   UNL A   1      35.644  32.296  30.045  1.00  0.00    -0.151 N 
ATOM     28  O   UNL A   1      37.338  31.875  31.565  1.00  0.00    -0.240 OA
BRANCH  24  29
ATOM     29  S   UNL A   1      33.786  32.969  28.161  1.00  0.00    -0.055 SA
ATOM     30  H   UNL A   1      34.074  34.297  28.139  1.00  0.00     0.116 HD
ENDBRANCH  24  29
BRANCH  27  31
ATOM     31  C   UNL A   1      34.959  33.124  30.989  1.00  0.00     0.138 A 
ATOM     32  C   UNL A   1      34.690  32.645  32.280  1.00  0.00     0.052 A 
ATOM     33  C   UNL A   1      34.526  34.406  30.630  1.00  0.00     0.068 A 
ATOM     34  C   UNL A   1      34.037  33.454  33.212  1.00  0.00     0.006 A 
ATOM     35  C   UNL A   1      33.864  35.204  31.564  1.00  0.00     0.022 A 
ATOM     36  C   UNL A   1      33.627  34.738  32.855  1.00  0.00     0.016 A 
ATOM     37  Br  UNL A   1      33.281  36.932  31.068  1.00  0.00    -0.051 Br
ENDBRANCH  27  31
ENDBRANCH  15  19
ENDBRANCH   9  14
ENDBRANCH   5   8
ENDBRANCH   3   4
ENDBRANCH   2   3
ENDBRANCH   1   2
BRANCH   1  38
ATOM     38  C   UNL A   1      45.370  23.190  26.321  1.00  0.00     0.002 C 
BRANCH  38  39
ATOM     39  C   UNL A   1      45.861  24.080  25.176  1.00  0.00     0.021 C 
BRANCH  39  40
ATOM     40  C   UNL A   1      47.148  24.833  25.490  1.00  0.00     0.116 C 
BRANCH  40  41
ATOM     41  N   UNL A   1      47.450  25.819  24.462  1.00  0.00    -0.352 N 
ATOM     42  C   UNL A   1      47.002  27.110  24.346  1.00  0.00     0.251 C 
ATOM     43  H   UNL A   1      48.061  25.516  23.751  1.00  0.00     0.163 HD
ATOM     44  O   UNL A   1      47.138  27.721  23.290  1.00  0.00    -0.269 OA
BRANCH  42  45
ATOM     45  C   UNL A   1      46.347  27.753  25.503  1.00  0.00     0.039 A 
ATOM     46  C   UNL A   1      44.966  27.626  25.662  1.00  0.00     0.014 A 
ATOM     47  C   UNL A   1      47.105  28.471  26.431  1.00  0.00     0.014 A 
ATOM     48  C   UNL A   1      44.351  28.176  26.789  1.00  0.00     0.010 A 
ATOM     49  C   UNL A   1      46.505  28.944  27.592  1.00  0.00     0.010 A 
ATOM     50  C   UNL A   1      45.121  28.809  27.780  1.00  0.00    -0.014 A 
BRANCH  50  51
ATOM     51  C   UNL A   1      44.502  29.322  29.027  1.00  0.00     0.031 A 
ATOM     52  C   UNL A   1      44.054  30.756  29.116  1.00  0.00     0.074 A 
ATOM     53  C   UNL A   1      44.420  28.520  30.107  1.00  0.00     0.049 A 
ATOM     54  N   UNL A   1      43.548  31.399  30.135  1.00  0.00    -0.248 NA
ATOM     55  C   UNL A   1      44.222  31.583  27.909  1.00  0.00     0.031 C 
ATOM     56  C   UNL A   1      44.883  27.132  30.167  1.00  0.00     0.029 A 
ATOM     57  N   UNL A   1      43.942  28.764  31.370  1.00  0.00    -0.354 N 
ATOM     58  C   UNL A   1      43.367  32.709  29.705  1.00  0.00     0.074 A 
ATOM     59  C   UNL A   1      43.856  32.779  28.346  1.00  0.00     0.031 C 
ATOM     60  C   UNL A   1      44.655  26.645  31.397  1.00  0.00     0.029 A 
ATOM     61  C   UNL A   1      44.071  27.694  32.225  1.00  0.00     0.049 A 
ATOM     62  H   UNL A   1      43.543  29.623  31.639  1.00  0.00     0.167 HD
ATOM     63  C   UNL A   1      42.821  33.753  30.373  1.00  0.00     0.034 A 
ATOM     64  C   UNL A   1      43.766  27.576  33.532  1.00  0.00     0.034 A 
ATOM     65  C   UNL A   1      42.315  33.671  31.716  1.00  0.00     0.049 A 
ATOM     66  C   UNL A   1      43.156  28.750  34.248  1.00  0.00     0.074 A 
ATOM     67  C   UNL A   1      41.671  34.650  32.453  1.00  0.00     0.029 A 
ATOM     68  N   UNL A   1      42.409  32.554  32.532  1.00  0.00    -0.354 N 
ATOM     69  N   UNL A   1      42.855  29.937  33.780  1.00  0.00    -0.248 NA
ATOM     70  C   UNL A   1      42.812  28.558  35.664  1.00  0.00     0.031 C 
ATOM     71  C   UNL A   1      41.414  34.136  33.729  1.00  0.00     0.029 A 
ATOM     72  C   UNL A   1      41.854  32.823  33.770  1.00  0.00     0.049 A 
ATOM     73  H   UNL A   1      42.811  31.695  32.267  1.00  0.00     0.167 HD
ATOM     74  C   UNL A   1      42.252  30.619  34.831  1.00  0.00     0.074 A 
ATOM     75  C   UNL A   1      42.212  29.704  35.953  1.00  0.00     0.031 C 
ATOM     76  C   UNL A   1      41.779  31.890  34.865  1.00  0.00     0.034 A 
BRANCH  63  77
ATOM     77  C   UNL A   1      42.711  35.069  29.644  1.00  0.00     0.023 A 
ATOM     78  C   UNL A   1      41.642  35.289  28.751  1.00  0.00     0.012 A 
ATOM     79  C   UNL A   1      43.637  36.104  29.878  1.00  0.00     0.148 A 
ATOM     80  C   UNL A   1      41.520  36.500  28.071  1.00  0.00     0.002 A 
ATOM     81  C   UNL A   1      43.481  37.326  29.235  1.00  0.00     0.091 A 
ATOM     82  F   UNL A   1      44.659  35.872  30.715  1.00  0.00    -0.205 F 
ATOM     83  C   UNL A   1      42.432  37.521  28.321  1.00  0.00     0.022 A 
BRANCH  81  84
ATOM     84  S   UNL A   1      44.552  38.732  29.551  1.00  0.00     0.127 S 
ATOM     85  O   UNL A   1      45.831  38.249  29.030  1.00  0.00    -0.237 OA
ATOM     86  O   UNL A   1      43.925  39.782  28.748  1.00  0.00    -0.237 OA
ATOM     87  O   UNL A   1      44.510  38.957  30.988  1.00  0.00    -0.744 OA
ENDBRANCH  81  84
ENDBRANCH  63  77
BRANCH  64  88
ATOM     88  C   UNL A   1      43.987  26.281  34.237  1.00  0.00     0.023 A 
ATOM     89  C   UNL A   1      42.923  25.365  34.352  1.00  0.00     0.012 A 
ATOM     90  C   UNL A   1      45.243  25.947  34.779  1.00  0.00     0.148 A 
ATOM     91  C   UNL A   1      43.095  24.156  35.026  1.00  0.00     0.002 A 
ATOM     92  C   UNL A   1      45.423  24.717  35.398  1.00  0.00     0.091 A 
ATOM     93  F   UNL A   1      46.240  26.835  34.664  1.00  0.00    -0.205 F 
ATOM     94  C   UNL A   1      44.347  23.828  35.542  1.00  0.00     0.022 A 
BRANCH  92  95
ATOM     95  S   UNL A   1      47.028  24.156  35.980  1.00  0.00     0.127 S 
ATOM     96  O   UNL A   1      46.662  23.361  37.149  1.00  0.00    -0.237 OA
ATOM     97  O   UNL A   1      47.509  23.384  34.834  1.00  0.00    -0.237 OA
ATOM     98  O   UNL A   1      47.794  25.364  36.255  1.00  0.00    -0.744 OA
ENDBRANCH  92  95
ENDBRANCH  64  88
BRANCH  76  99
ATOM     99  C   UNL A   1      41.133  32.362  36.142  1.00  0.00     0.023 A 
ATOM    100  C   UNL A   1      41.869  33.132  37.065  1.00  0.00     0.012 A 
ATOM    101  C   UNL A   1      39.770  32.103  36.388  1.00  0.00     0.148 A 
ATOM    102  C   UNL A   1      41.267  33.606  38.230  1.00  0.00     0.002 A 
ATOM    103  C   UNL A   1      39.163  32.625  37.523  1.00  0.00     0.091 A 
ATOM    104  F   UNL A   1      39.092  31.355  35.506  1.00  0.00    -0.205 F 
ATOM    105  C   UNL A   1      39.913  33.364  38.453  1.00  0.00     0.022 A 
BRANCH 103 106
ATOM    106  S   UNL A   1      37.404  32.452  37.843  1.00  0.00     0.127 S 
ATOM    107  O   UNL A   1      37.260  31.000  37.935  1.00  0.00    -0.237 OA
ATOM    108  O   UNL A   1      37.252  33.163  39.113  1.00  0.00    -0.237 OA
ATOM    109  O   UNL A   1      36.724  33.074  36.715  1.00  0.00    -0.744 OA
ENDBRANCH 103 106
ENDBRANCH  76  99
ENDBRANCH  50  51
ENDBRANCH  42  45
ENDBRANCH  40  41
ENDBRANCH  39  40
ENDBRANCH  38  39
ENDBRANCH   1  38
TORSDOF 20
ENDMDL
