MODEL 1
REMARK VINA RESULT:      -9.2      0.000      0.000
REMARK SMILES CC1(C)[C@@H](C(=O)NCCCCCCNC(=O)c2ccc(-c3c4nc(c(-c5cccc(S(=O)(=O)[O-])c5F)c5ccc([nH]5)c(-c5cccc(S(=O)(=O)[O-])c5F)c5nc(c(-c6cccc(S(=O)(=O)[O-])c6F)c6ccc3[nH]6)C=C5)C=C4)cc2)[C@@H]1C(=O)Nc1ccc(N2CCCCS2(=O)=O)cc1
REMARK SMILES IDX 10 1 9 2 8 3 7 4 5 5 6 6 4 8 1 9 2 10 3 11 80 12 81 13 82 14
REMARK SMILES IDX 83 15 84 17 85 18 97 19 86 20 96 21 87 22 88 23 89 24 93 25
REMARK SMILES IDX 90 26 92 27 94 28 95 29 91 30 11 31 12 32 13 33 14 34 15 35
REMARK SMILES IDX 16 37 17 38 18 39 79 40 19 41 78 42 20 43 21 44 22 45 72 46
REMARK SMILES IDX 23 47 77 48 71 49 73 50 24 51 76 52 70 53 69 54 25 56 57 57
REMARK SMILES IDX 37 58 56 59 38 60 41 61 55 62 74 63 39 64 40 65 54 67 75 68
REMARK SMILES IDX 42 69 26 70 27 71 35 72 28 73 30 74 36 75 29 76 31 77 32 78
REMARK SMILES IDX 33 79 34 80 58 81 59 82 67 83 60 84 62 85 68 86 61 87 63 88
REMARK SMILES IDX 64 89 65 90 66 91 43 92 44 93 52 94 45 95 47 96 53 97 46 98
REMARK SMILES IDX 48 99 49 100 50 101 51 102
REMARK H PARENT 7 7 83 16 14 36 73 55 41 66
REMARK Flexibility Score: inf
ROOT
ATOM      1  C   UNL A   1      38.059  31.766  36.681  1.00  0.00     0.002 C 
ENDROOT
BRANCH   1   2
ATOM      2  C   UNL A   1      39.041  31.530  35.540  1.00  0.00     0.021 C 
BRANCH   2   3
ATOM      3  C   UNL A   1      38.421  31.410  34.144  1.00  0.00     0.116 C 
BRANCH   3   4
ATOM      4  N   UNL A   1      37.709  30.156  33.914  1.00  0.00    -0.356 N 
ATOM      5  C   UNL A   1      37.704  29.210  32.917  1.00  0.00     0.224 C 
ATOM      6  O   UNL A   1      37.022  28.203  33.102  1.00  0.00    -0.275 OA
ATOM      7  H   UNL A   1      37.088  29.936  34.646  1.00  0.00     0.163 HD
BRANCH   5   8
ATOM      8  C   UNL A   1      38.376  29.353  31.589  1.00  0.00     0.098 C 
ATOM      9  C   UNL A   1      40.196  27.694  32.322  1.00  0.00     0.013 C 
ATOM     10  C   UNL A   1      39.614  28.554  31.226  1.00  0.00    -0.011 C 
ATOM     11  C   UNL A   1      39.668  27.902  29.864  1.00  0.00     0.013 C 
ATOM     12  C   UNL A   1      39.669  30.088  31.316  1.00  0.00     0.098 C 
BRANCH  12  13
ATOM     13  C   UNL A   1      39.916  30.919  30.079  1.00  0.00     0.228 C 
ATOM     14  O   UNL A   1      40.952  30.699  29.454  1.00  0.00    -0.274 OA
ATOM     15  N   UNL A   1      39.025  31.858  29.572  1.00  0.00    -0.326 N 
ATOM     16  H   UNL A   1      39.254  32.185  28.672  1.00  0.00     0.169 HD
BRANCH  15  17
ATOM     17  C   UNL A   1      37.858  32.425  30.112  1.00  0.00     0.041 A 
ATOM     18  C   UNL A   1      36.600  31.862  29.906  1.00  0.00     0.028 A 
ATOM     19  C   UNL A   1      37.919  33.569  30.872  1.00  0.00     0.028 A 
ATOM     20  C   UNL A   1      35.470  32.393  30.567  1.00  0.00     0.029 A 
ATOM     21  C   UNL A   1      36.840  34.042  31.612  1.00  0.00     0.029 A 
ATOM     22  C   UNL A   1      35.595  33.488  31.429  1.00  0.00     0.052 A 
BRANCH  22  23
ATOM     23  N   UNL A   1      34.475  33.997  32.158  1.00  0.00    -0.270 N 
ATOM     24  C   UNL A   1      34.455  33.839  33.626  1.00  0.00     0.135 C 
ATOM     25  S   UNL A   1      33.583  35.284  31.494  1.00  0.00     0.235 S 
ATOM     26  C   UNL A   1      34.862  35.124  34.354  1.00  0.00     0.024 C 
ATOM     27  C   UNL A   1      34.102  36.657  32.518  1.00  0.00     0.160 C 
ATOM     28  O   UNL A   1      34.022  35.559  30.139  1.00  0.00    -0.206 OA
ATOM     29  O   UNL A   1      32.189  35.046  31.796  1.00  0.00    -0.206 OA
ATOM     30  C   UNL A   1      33.977  36.314  33.992  1.00  0.00     0.020 C 
ENDBRANCH  22  23
ENDBRANCH  15  17
ENDBRANCH  12  13
ENDBRANCH   5   8
ENDBRANCH   3   4
ENDBRANCH   2   3
ENDBRANCH   1   2
BRANCH   1  31
ATOM     31  C   UNL A   1      37.782  33.244  36.938  1.00  0.00     0.002 C 
BRANCH  31  32
ATOM     32  C   UNL A   1      38.552  33.836  38.125  1.00  0.00     0.021 C 
BRANCH  32  33
ATOM     33  C   UNL A   1      39.919  34.414  37.765  1.00  0.00     0.116 C 
BRANCH  33  34
ATOM     34  N   UNL A   1      39.776  35.689  37.083  1.00  0.00    -0.352 N 
ATOM     35  C   UNL A   1      40.401  36.103  35.934  1.00  0.00     0.251 C 
ATOM     36  H   UNL A   1      39.157  36.333  37.494  1.00  0.00     0.163 HD
ATOM     37  O   UNL A   1      40.458  37.296  35.652  1.00  0.00    -0.269 OA
BRANCH  35  38
ATOM     38  C   UNL A   1      41.004  35.089  35.046  1.00  0.00     0.039 A 
ATOM     39  C   UNL A   1      42.311  34.662  35.281  1.00  0.00     0.014 A 
ATOM     40  C   UNL A   1      40.263  34.560  33.983  1.00  0.00     0.014 A 
ATOM     41  C   UNL A   1      42.868  33.680  34.461  1.00  0.00     0.010 A 
ATOM     42  C   UNL A   1      40.793  33.525  33.220  1.00  0.00     0.010 A 
ATOM     43  C   UNL A   1      42.108  33.090  33.435  1.00  0.00    -0.014 A 
BRANCH  43  44
ATOM     44  C   UNL A   1      42.684  32.027  32.573  1.00  0.00     0.031 A 
ATOM     45  C   UNL A   1      42.840  30.626  33.101  1.00  0.00     0.074 A 
ATOM     46  C   UNL A   1      43.120  32.336  31.336  1.00  0.00     0.049 A 
ATOM     47  N   UNL A   1      43.330  29.571  32.504  1.00  0.00    -0.248 NA
ATOM     48  C   UNL A   1      42.410  30.381  34.489  1.00  0.00     0.031 C 
ATOM     49  C   UNL A   1      43.095  33.674  30.741  1.00  0.00     0.029 A 
ATOM     50  N   UNL A   1      43.687  31.551  30.364  1.00  0.00    -0.354 N 
ATOM     51  C   UNL A   1      43.301  28.551  33.448  1.00  0.00     0.074 A 
ATOM     52  C   UNL A   1      42.779  29.121  34.670  1.00  0.00     0.031 C 
ATOM     53  C   UNL A   1      43.614  33.614  29.503  1.00  0.00     0.029 A 
ATOM     54  C   UNL A   1      44.037  32.244  29.229  1.00  0.00     0.049 A 
ATOM     55  H   UNL A   1      43.830  30.582  30.469  1.00  0.00     0.167 HD
ATOM     56  C   UNL A   1      43.651  27.251  33.305  1.00  0.00     0.034 A 
ATOM     57  C   UNL A   1      44.640  31.827  28.099  1.00  0.00     0.034 A 
ATOM     58  C   UNL A   1      44.140  26.681  32.078  1.00  0.00     0.049 A 
ATOM     59  C   UNL A   1      44.989  30.370  27.956  1.00  0.00     0.074 A 
ATOM     60  C   UNL A   1      44.443  25.359  31.806  1.00  0.00     0.029 A 
ATOM     61  N   UNL A   1      44.414  27.402  30.926  1.00  0.00    -0.354 N 
ATOM     62  N   UNL A   1      44.808  29.389  28.806  1.00  0.00    -0.248 NA
ATOM     63  C   UNL A   1      45.590  29.955  26.680  1.00  0.00     0.031 C 
ATOM     64  C   UNL A   1      44.937  25.286  30.500  1.00  0.00     0.029 A 
ATOM     65  C   UNL A   1      44.896  26.554  29.943  1.00  0.00     0.049 A 
ATOM     66  H   UNL A   1      44.285  28.372  30.823  1.00  0.00     0.167 HD
ATOM     67  C   UNL A   1      45.232  28.236  28.155  1.00  0.00     0.074 A 
ATOM     68  C   UNL A   1      45.660  28.639  26.831  1.00  0.00     0.031 C 
ATOM     69  C   UNL A   1      45.274  26.961  28.614  1.00  0.00     0.034 A 
BRANCH  56  70
ATOM     70  C   UNL A   1      43.481  26.341  34.496  1.00  0.00     0.023 A 
ATOM     71  C   UNL A   1      42.239  25.714  34.728  1.00  0.00     0.012 A 
ATOM     72  C   UNL A   1      44.567  26.056  35.346  1.00  0.00     0.148 A 
ATOM     73  C   UNL A   1      42.071  24.848  35.807  1.00  0.00     0.002 A 
ATOM     74  C   UNL A   1      44.406  25.152  36.390  1.00  0.00     0.091 A 
ATOM     75  F   UNL A   1      45.735  26.675  35.121  1.00  0.00    -0.205 F 
ATOM     76  C   UNL A   1      43.156  24.558  36.630  1.00  0.00     0.022 A 
BRANCH  74  77
ATOM     77  S   UNL A   1      45.762  24.645  37.453  1.00  0.00     0.127 S 
ATOM     78  O   UNL A   1      45.054  23.921  38.508  1.00  0.00    -0.237 OA
ATOM     79  O   UNL A   1      46.552  23.799  36.557  1.00  0.00    -0.237 OA
ATOM     80  O   UNL A   1      46.424  25.870  37.875  1.00  0.00    -0.744 OA
ENDBRANCH  74  77
ENDBRANCH  56  70
BRANCH  57  81
ATOM     81  C   UNL A   1      44.907  32.789  26.994  1.00  0.00     0.023 A 
ATOM     82  C   UNL A   1      43.946  32.971  25.980  1.00  0.00     0.012 A 
ATOM     83  C   UNL A   1      46.103  33.532  26.947  1.00  0.00     0.148 A 
ATOM     84  C   UNL A   1      44.187  33.844  24.920  1.00  0.00     0.002 A 
ATOM     85  C   UNL A   1      46.311  34.444  25.920  1.00  0.00     0.091 A 
ATOM     86  F   UNL A   1      47.007  33.340  27.917  1.00  0.00    -0.205 F 
ATOM     87  C   UNL A   1      45.365  34.587  24.893  1.00  0.00     0.022 A 
BRANCH  85  88
ATOM     88  S   UNL A   1      47.735  35.537  25.877  1.00  0.00     0.127 S 
ATOM     89  O   UNL A   1      47.145  36.779  25.385  1.00  0.00    -0.237 OA
ATOM     90  O   UNL A   1      48.138  35.561  27.284  1.00  0.00    -0.237 OA
ATOM     91  O   UNL A   1      48.696  34.898  24.988  1.00  0.00    -0.744 OA
ENDBRANCH  85  88
ENDBRANCH  57  81
BRANCH  69  92
ATOM     92  C   UNL A   1      45.749  25.892  27.664  1.00  0.00     0.023 A 
ATOM     93  C   UNL A   1      47.114  25.546  27.609  1.00  0.00     0.012 A 
ATOM     94  C   UNL A   1      44.825  25.186  26.866  1.00  0.00     0.148 A 
ATOM     95  C   UNL A   1      47.557  24.546  26.745  1.00  0.00     0.002 A 
ATOM     96  C   UNL A   1      45.265  24.154  26.050  1.00  0.00     0.091 A 
ATOM     97  F   UNL A   1      43.532  25.541  26.920  1.00  0.00    -0.205 F 
ATOM     98  C   UNL A   1      46.633  23.842  25.975  1.00  0.00     0.022 A 
BRANCH  96  99
ATOM     99  S   UNL A   1      44.138  23.128  25.102  1.00  0.00     0.127 S 
ATOM    100  O   UNL A   1      43.049  24.063  24.820  1.00  0.00    -0.237 OA
ATOM    101  O   UNL A   1      44.949  22.768  23.939  1.00  0.00    -0.237 OA
ATOM    102  O   UNL A   1      43.789  22.008  25.966  1.00  0.00    -0.744 OA
ENDBRANCH  96  99
ENDBRANCH  69  92
ENDBRANCH  43  44
ENDBRANCH  35  38
ENDBRANCH  33  34
ENDBRANCH  32  33
ENDBRANCH  31  32
ENDBRANCH   1  31
TORSDOF 19
ENDMDL
MODEL 2
REMARK VINA RESULT:      -9.2      4.230      9.235
REMARK SMILES CC1(C)[C@@H](C(=O)NCCCCCCNC(=O)c2ccc(-c3c4nc(c(-c5cccc(S(=O)(=O)[O-])c5F)c5ccc([nH]5)c(-c5cccc(S(=O)(=O)[O-])c5F)c5nc(c(-c6cccc(S(=O)(=O)[O-])c6F)c6ccc3[nH]6)C=C5)C=C4)cc2)[C@@H]1C(=O)Nc1ccc(N2CCCCS2(=O)=O)cc1
REMARK SMILES IDX 10 1 9 2 8 3 7 4 5 5 6 6 4 8 1 9 2 10 3 11 80 12 81 13 82 14
REMARK SMILES IDX 83 15 84 17 85 18 97 19 86 20 96 21 87 22 88 23 89 24 93 25
REMARK SMILES IDX 90 26 92 27 94 28 95 29 91 30 11 31 12 32 13 33 14 34 15 35
REMARK SMILES IDX 16 37 17 38 18 39 79 40 19 41 78 42 20 43 21 44 22 45 72 46
REMARK SMILES IDX 23 47 77 48 71 49 73 50 24 51 76 52 70 53 69 54 25 56 57 57
REMARK SMILES IDX 37 58 56 59 38 60 41 61 55 62 74 63 39 64 40 65 54 67 75 68
REMARK SMILES IDX 42 69 26 70 27 71 35 72 28 73 30 74 36 75 29 76 31 77 32 78
REMARK SMILES IDX 33 79 34 80 58 81 59 82 67 83 60 84 62 85 68 86 61 87 63 88
REMARK SMILES IDX 64 89 65 90 66 91 43 92 44 93 52 94 45 95 47 96 53 97 46 98
REMARK SMILES IDX 48 99 49 100 50 101 51 102
REMARK H PARENT 7 7 83 16 14 36 73 55 41 66
REMARK Flexibility Score: inf
ROOT
ATOM      1  C   UNL A   1      37.854  33.425  29.628  1.00  0.00     0.002 C 
ENDROOT
BRANCH   1   2
ATOM      2  C   UNL A   1      38.786  34.416  30.316  1.00  0.00     0.021 C 
BRANCH   2   3
ATOM      3  C   UNL A   1      39.969  34.908  29.476  1.00  0.00     0.116 C 
BRANCH   3   4
ATOM      4  N   UNL A   1      41.173  34.094  29.610  1.00  0.00    -0.356 N 
ATOM      5  C   UNL A   1      42.515  34.304  29.400  1.00  0.00     0.224 C 
ATOM      6  O   UNL A   1      43.280  33.390  29.709  1.00  0.00    -0.275 OA
ATOM      7  H   UNL A   1      40.978  33.182  29.923  1.00  0.00     0.163 HD
BRANCH   5   8
ATOM      8  C   UNL A   1      43.108  35.505  28.736  1.00  0.00     0.098 C 
ATOM      9  C   UNL A   1      43.789  36.447  31.028  1.00  0.00     0.013 C 
ATOM     10  C   UNL A   1      43.817  36.590  29.525  1.00  0.00    -0.011 C 
ATOM     11  C   UNL A   1      45.136  37.106  29.000  1.00  0.00     0.013 C 
ATOM     12  C   UNL A   1      42.533  36.903  28.739  1.00  0.00     0.098 C 
BRANCH  12  13
ATOM     13  C   UNL A   1      42.571  37.828  27.546  1.00  0.00     0.228 C 
ATOM     14  O   UNL A   1      42.713  37.310  26.440  1.00  0.00    -0.274 OA
ATOM     15  N   UNL A   1      42.391  39.205  27.613  1.00  0.00    -0.326 N 
ATOM     16  H   UNL A   1      42.270  39.638  26.736  1.00  0.00     0.169 HD
BRANCH  15  17
ATOM     17  C   UNL A   1      42.348  40.090  28.704  1.00  0.00     0.041 A 
ATOM     18  C   UNL A   1      41.146  40.576  29.214  1.00  0.00     0.028 A 
ATOM     19  C   UNL A   1      43.507  40.510  29.313  1.00  0.00     0.028 A 
ATOM     20  C   UNL A   1      41.143  41.364  30.386  1.00  0.00     0.029 A 
ATOM     21  C   UNL A   1      43.518  41.196  30.524  1.00  0.00     0.029 A 
ATOM     22  C   UNL A   1      42.338  41.670  31.046  1.00  0.00     0.052 A 
BRANCH  22  23
ATOM     23  N   UNL A   1      42.348  42.411  32.270  1.00  0.00    -0.270 N 
ATOM     24  C   UNL A   1      42.442  41.670  33.544  1.00  0.00     0.135 C 
ATOM     25  S   UNL A   1      42.910  44.016  32.251  1.00  0.00     0.235 S 
ATOM     26  C   UNL A   1      43.861  41.683  34.120  1.00  0.00     0.024 C 
ATOM     27  C   UNL A   1      44.507  43.854  33.041  1.00  0.00     0.160 C 
ATOM     28  O   UNL A   1      43.139  44.457  30.888  1.00  0.00    -0.206 OA
ATOM     29  O   UNL A   1      42.076  44.777  33.154  1.00  0.00    -0.206 OA
ATOM     30  C   UNL A   1      44.392  43.095  34.351  1.00  0.00     0.020 C 
ENDBRANCH  22  23
ENDBRANCH  15  17
ENDBRANCH  12  13
ENDBRANCH   5   8
ENDBRANCH   3   4
ENDBRANCH   2   3
ENDBRANCH   1   2
BRANCH   1  31
ATOM     31  C   UNL A   1      36.657  33.032  30.488  1.00  0.00     0.002 C 
BRANCH  31  32
ATOM     32  C   UNL A   1      35.295  33.394  29.883  1.00  0.00     0.021 C 
BRANCH  32  33
ATOM     33  C   UNL A   1      35.238  33.307  28.360  1.00  0.00     0.116 C 
BRANCH  33  34
ATOM     34  N   UNL A   1      34.293  32.287  27.937  1.00  0.00    -0.352 N 
ATOM     35  C   UNL A   1      34.547  30.967  27.663  1.00  0.00     0.251 C 
ATOM     36  H   UNL A   1      33.359  32.578  27.835  1.00  0.00     0.163 HD
ATOM     37  O   UNL A   1      33.753  30.305  27.003  1.00  0.00    -0.269 OA
BRANCH  35  38
ATOM     38  C   UNL A   1      35.792  30.360  28.175  1.00  0.00     0.039 A 
ATOM     39  C   UNL A   1      36.955  30.432  27.408  1.00  0.00     0.014 A 
ATOM     40  C   UNL A   1      35.801  29.725  29.421  1.00  0.00     0.014 A 
ATOM     41  C   UNL A   1      38.139  29.887  27.907  1.00  0.00     0.010 A 
ATOM     42  C   UNL A   1      36.998  29.255  29.949  1.00  0.00     0.010 A 
ATOM     43  C   UNL A   1      38.175  29.310  29.189  1.00  0.00    -0.014 A 
BRANCH  43  44
ATOM     44  C   UNL A   1      39.435  28.750  29.738  1.00  0.00     0.031 A 
ATOM     45  C   UNL A   1      40.085  29.382  30.941  1.00  0.00     0.074 A 
ATOM     46  C   UNL A   1      40.026  27.707  29.121  1.00  0.00     0.049 A 
ATOM     47  N   UNL A   1      41.188  29.043  31.555  1.00  0.00    -0.248 NA
ATOM     48  C   UNL A   1      39.420  30.565  31.516  1.00  0.00     0.031 C 
ATOM     49  C   UNL A   1      39.536  27.058  27.903  1.00  0.00     0.029 A 
ATOM     50  N   UNL A   1      41.177  27.024  29.421  1.00  0.00    -0.354 N 
ATOM     51  C   UNL A   1      41.369  29.985  32.560  1.00  0.00     0.074 A 
ATOM     52  C   UNL A   1      40.282  30.932  32.454  1.00  0.00     0.031 C 
ATOM     53  C   UNL A   1      40.375  26.064  27.567  1.00  0.00     0.029 A 
ATOM     54  C   UNL A   1      41.477  26.026  28.523  1.00  0.00     0.049 A 
ATOM     55  H   UNL A   1      41.736  27.227  30.207  1.00  0.00     0.167 HD
ATOM     56  C   UNL A   1      42.337  30.042  33.506  1.00  0.00     0.034 A 
ATOM     57  C   UNL A   1      42.526  25.184  28.468  1.00  0.00     0.034 A 
ATOM     58  C   UNL A   1      43.399  29.080  33.628  1.00  0.00     0.049 A 
ATOM     59  C   UNL A   1      43.570  25.250  29.550  1.00  0.00     0.074 A 
ATOM     60  C   UNL A   1      44.379  29.001  34.600  1.00  0.00     0.029 A 
ATOM     61  N   UNL A   1      43.629  28.040  32.740  1.00  0.00    -0.354 N 
ATOM     62  N   UNL A   1      43.638  26.050  30.586  1.00  0.00    -0.248 NA
ATOM     63  C   UNL A   1      44.662  24.268  29.478  1.00  0.00     0.031 C 
ATOM     64  C   UNL A   1      45.226  27.935  34.279  1.00  0.00     0.029 A 
ATOM     65  C   UNL A   1      44.745  27.321  33.135  1.00  0.00     0.049 A 
ATOM     66  H   UNL A   1      43.080  27.842  31.948  1.00  0.00     0.167 HD
ATOM     67  C   UNL A   1      44.752  25.645  31.310  1.00  0.00     0.074 A 
ATOM     68  C   UNL A   1      45.318  24.512  30.605  1.00  0.00     0.031 C 
ATOM     69  C   UNL A   1      45.269  26.167  32.450  1.00  0.00     0.034 A 
BRANCH  56  70
ATOM     70  C   UNL A   1      42.272  31.163  34.512  1.00  0.00     0.023 A 
ATOM     71  C   UNL A   1      41.817  30.905  35.822  1.00  0.00     0.012 A 
ATOM     72  C   UNL A   1      42.722  32.456  34.180  1.00  0.00     0.148 A 
ATOM     73  C   UNL A   1      41.777  31.923  36.774  1.00  0.00     0.002 A 
ATOM     74  C   UNL A   1      42.727  33.453  35.149  1.00  0.00     0.091 A 
ATOM     75  F   UNL A   1      43.134  32.688  32.926  1.00  0.00    -0.205 F 
ATOM     76  C   UNL A   1      42.242  33.193  36.441  1.00  0.00     0.022 A 
BRANCH  74  77
ATOM     77  S   UNL A   1      43.386  35.097  34.848  1.00  0.00     0.127 S 
ATOM     78  O   UNL A   1      42.362  35.669  33.975  1.00  0.00    -0.237 OA
ATOM     79  O   UNL A   1      43.423  35.663  36.196  1.00  0.00    -0.237 OA
ATOM     80  O   UNL A   1      44.690  34.903  34.232  1.00  0.00    -0.744 OA
ENDBRANCH  74  77
ENDBRANCH  56  70
BRANCH  57  81
ATOM     81  C   UNL A   1      42.617  24.171  27.379  1.00  0.00     0.023 A 
ATOM     82  C   UNL A   1      43.276  24.496  26.177  1.00  0.00     0.012 A 
ATOM     83  C   UNL A   1      42.065  22.884  27.533  1.00  0.00     0.148 A 
ATOM     84  C   UNL A   1      43.346  23.574  25.133  1.00  0.00     0.002 A 
ATOM     85  C   UNL A   1      42.191  21.951  26.512  1.00  0.00     0.091 A 
ATOM     86  F   UNL A   1      41.437  22.597  28.682  1.00  0.00    -0.205 F 
ATOM     87  C   UNL A   1      42.813  22.299  25.303  1.00  0.00     0.022 A 
BRANCH  85  88
ATOM     88  S   UNL A   1      41.652  20.247  26.693  1.00  0.00     0.127 S 
ATOM     89  O   UNL A   1      41.732  19.760  25.319  1.00  0.00    -0.237 OA
ATOM     90  O   UNL A   1      42.666  19.706  27.600  1.00  0.00    -0.237 OA
ATOM     91  O   UNL A   1      40.313  20.316  27.263  1.00  0.00    -0.744 OA
ENDBRANCH  85  88
ENDBRANCH  57  81
BRANCH  69  92
ATOM     92  C   UNL A   1      46.477  25.491  33.044  1.00  0.00     0.023 A 
ATOM     93  C   UNL A   1      47.769  25.811  32.580  1.00  0.00     0.012 A 
ATOM     94  C   UNL A   1      46.332  24.579  34.108  1.00  0.00     0.148 A 
ATOM     95  C   UNL A   1      48.893  25.201  33.138  1.00  0.00     0.002 A 
ATOM     96  C   UNL A   1      47.458  24.018  34.696  1.00  0.00     0.091 A 
ATOM     97  F   UNL A   1      45.093  24.275  34.525  1.00  0.00    -0.205 F 
ATOM     98  C   UNL A   1      48.739  24.315  34.202  1.00  0.00     0.022 A 
BRANCH  96  99
ATOM     99  S   UNL A   1      47.362  22.949  36.135  1.00  0.00     0.127 S 
ATOM    100  O   UNL A   1      46.989  21.670  35.531  1.00  0.00    -0.237 OA
ATOM    101  O   UNL A   1      48.729  23.002  36.653  1.00  0.00    -0.237 OA
ATOM    102  O   UNL A   1      46.360  23.540  37.010  1.00  0.00    -0.744 OA
ENDBRANCH  96  99
ENDBRANCH  69  92
ENDBRANCH  43  44
ENDBRANCH  35  38
ENDBRANCH  33  34
ENDBRANCH  32  33
ENDBRANCH  31  32
ENDBRANCH   1  31
TORSDOF 19
ENDMDL
MODEL 3
REMARK VINA RESULT:      -9.0      3.146     11.244
REMARK SMILES CC1(C)[C@@H](C(=O)NCCCCCCNC(=O)c2ccc(-c3c4nc(c(-c5cccc(S(=O)(=O)[O-])c5F)c5ccc([nH]5)c(-c5cccc(S(=O)(=O)[O-])c5F)c5nc(c(-c6cccc(S(=O)(=O)[O-])c6F)c6ccc3[nH]6)C=C5)C=C4)cc2)[C@@H]1C(=O)Nc1ccc(N2CCCCS2(=O)=O)cc1
REMARK SMILES IDX 10 1 9 2 8 3 7 4 5 5 6 6 4 8 1 9 2 10 3 11 80 12 81 13 82 14
REMARK SMILES IDX 83 15 84 17 85 18 97 19 86 20 96 21 87 22 88 23 89 24 93 25
REMARK SMILES IDX 90 26 92 27 94 28 95 29 91 30 11 31 12 32 13 33 14 34 15 35
REMARK SMILES IDX 16 37 17 38 18 39 79 40 19 41 78 42 20 43 21 44 22 45 72 46
REMARK SMILES IDX 23 47 77 48 71 49 73 50 24 51 76 52 70 53 69 54 25 56 57 57
REMARK SMILES IDX 37 58 56 59 38 60 41 61 55 62 74 63 39 64 40 65 54 67 75 68
REMARK SMILES IDX 42 69 26 70 27 71 35 72 28 73 30 74 36 75 29 76 31 77 32 78
REMARK SMILES IDX 33 79 34 80 58 81 59 82 67 83 60 84 62 85 68 86 61 87 63 88
REMARK SMILES IDX 64 89 65 90 66 91 43 92 44 93 52 94 45 95 47 96 53 97 46 98
REMARK SMILES IDX 48 99 49 100 50 101 51 102
REMARK H PARENT 7 7 83 16 14 36 73 55 41 66
REMARK Flexibility Score: inf
ROOT
ATOM      1  C   UNL A   1      43.304  22.233  25.597  1.00  0.00     0.002 C 
ENDROOT
BRANCH   1   2
ATOM      2  C   UNL A   1      42.424  21.920  26.802  1.00  0.00     0.021 C 
BRANCH   2   3
ATOM      3  C   UNL A   1      41.197  21.048  26.519  1.00  0.00     0.116 C 
BRANCH   3   4
ATOM      4  N   UNL A   1      39.941  21.790  26.455  1.00  0.00    -0.356 N 
ATOM      5  C   UNL A   1      39.602  23.120  26.390  1.00  0.00     0.224 C 
ATOM      6  O   UNL A   1      38.408  23.388  26.255  1.00  0.00    -0.275 OA
ATOM      7  H   UNL A   1      39.154  21.199  26.458  1.00  0.00     0.163 HD
BRANCH   5   8
ATOM      8  C   UNL A   1      40.548  24.263  26.572  1.00  0.00     0.098 C 
ATOM      9  C   UNL A   1      39.357  24.914  28.754  1.00  0.00     0.013 C 
ATOM     10  C   UNL A   1      40.494  25.164  27.791  1.00  0.00    -0.011 C 
ATOM     11  C   UNL A   1      41.792  25.511  28.480  1.00  0.00     0.013 C 
ATOM     12  C   UNL A   1      40.226  25.729  26.386  1.00  0.00     0.098 C 
BRANCH  12  13
ATOM     13  C   UNL A   1      41.178  26.724  25.767  1.00  0.00     0.228 C 
ATOM     14  O   UNL A   1      41.929  26.309  24.887  1.00  0.00    -0.274 OA
ATOM     15  N   UNL A   1      41.210  28.079  26.078  1.00  0.00    -0.326 N 
ATOM     16  H   UNL A   1      41.762  28.619  25.467  1.00  0.00     0.169 HD
BRANCH  15  17
ATOM     17  C   UNL A   1      40.599  28.816  27.107  1.00  0.00     0.041 A 
ATOM     18  C   UNL A   1      39.274  29.240  27.024  1.00  0.00     0.028 A 
ATOM     19  C   UNL A   1      41.296  29.147  28.244  1.00  0.00     0.028 A 
ATOM     20  C   UNL A   1      38.663  29.871  28.130  1.00  0.00     0.029 A 
ATOM     21  C   UNL A   1      40.685  29.671  29.379  1.00  0.00     0.029 A 
ATOM     22  C   UNL A   1      39.374  30.082  29.316  1.00  0.00     0.052 A 
BRANCH  22  23
ATOM     23  N   UNL A   1      38.753  30.658  30.468  1.00  0.00    -0.270 N 
ATOM     24  C   UNL A   1      38.388  32.089  30.434  1.00  0.00     0.135 C 
ATOM     25  S   UNL A   1      37.872  29.648  31.516  1.00  0.00     0.235 S 
ATOM     26  C   UNL A   1      36.897  32.302  30.156  1.00  0.00     0.024 C 
ATOM     27  C   UNL A   1      36.185  30.100  31.129  1.00  0.00     0.160 C 
ATOM     28  O   UNL A   1      38.049  28.257  31.144  1.00  0.00    -0.206 OA
ATOM     29  O   UNL A   1      38.123  30.100  32.866  1.00  0.00    -0.206 OA
ATOM     30  C   UNL A   1      36.001  31.607  31.178  1.00  0.00     0.020 C 
ENDBRANCH  22  23
ENDBRANCH  15  17
ENDBRANCH  12  13
ENDBRANCH   5   8
ENDBRANCH   3   4
ENDBRANCH   2   3
ENDBRANCH   1   2
BRANCH   1  31
ATOM     31  C   UNL A   1      44.740  22.580  25.978  1.00  0.00     0.002 C 
BRANCH  31  32
ATOM     32  C   UNL A   1      45.451  23.510  24.987  1.00  0.00     0.021 C 
BRANCH  32  33
ATOM     33  C   UNL A   1      46.775  24.078  25.493  1.00  0.00     0.116 C 
BRANCH  33  34
ATOM     34  N   UNL A   1      47.265  25.117  24.603  1.00  0.00    -0.352 N 
ATOM     35  C   UNL A   1      46.967  26.455  24.628  1.00  0.00     0.251 C 
ATOM     36  H   UNL A   1      47.885  24.825  23.897  1.00  0.00     0.163 HD
ATOM     37  O   UNL A   1      47.168  27.156  23.642  1.00  0.00    -0.269 OA
BRANCH  35  38
ATOM     38  C   UNL A   1      46.399  27.036  25.863  1.00  0.00     0.039 A 
ATOM     39  C   UNL A   1      47.253  27.611  26.804  1.00  0.00     0.014 A 
ATOM     40  C   UNL A   1      45.017  27.010  26.077  1.00  0.00     0.014 A 
ATOM     41  C   UNL A   1      46.713  28.188  27.954  1.00  0.00     0.010 A 
ATOM     42  C   UNL A   1      44.478  27.657  27.184  1.00  0.00     0.010 A 
ATOM     43  C   UNL A   1      45.321  28.232  28.146  1.00  0.00    -0.014 A 
BRANCH  43  44
ATOM     44  C   UNL A   1      44.736  28.865  29.354  1.00  0.00     0.031 A 
ATOM     45  C   UNL A   1      44.337  30.317  29.331  1.00  0.00     0.074 A 
ATOM     46  C   UNL A   1      44.616  28.150  30.490  1.00  0.00     0.049 A 
ATOM     47  N   UNL A   1      43.823  31.046  30.287  1.00  0.00    -0.248 NA
ATOM     48  C   UNL A   1      44.566  31.055  28.076  1.00  0.00     0.031 C 
ATOM     49  C   UNL A   1      45.040  26.758  30.661  1.00  0.00     0.029 A 
ATOM     50  N   UNL A   1      44.124  28.500  31.722  1.00  0.00    -0.354 N 
ATOM     51  C   UNL A   1      43.700  32.328  29.766  1.00  0.00     0.074 A 
ATOM     52  C   UNL A   1      44.227  32.289  28.420  1.00  0.00     0.031 C 
ATOM     53  C   UNL A   1      44.779  26.371  31.920  1.00  0.00     0.029 A 
ATOM     54  C   UNL A   1      44.202  27.492  32.654  1.00  0.00     0.049 A 
ATOM     55  H   UNL A   1      43.748  29.389  31.920  1.00  0.00     0.167 HD
ATOM     56  C   UNL A   1      43.172  33.433  30.343  1.00  0.00     0.034 A 
ATOM     57  C   UNL A   1      43.857  27.476  33.957  1.00  0.00     0.034 A 
ATOM     58  C   UNL A   1      42.620  33.459  31.672  1.00  0.00     0.049 A 
ATOM     59  C   UNL A   1      43.244  28.708  34.563  1.00  0.00     0.074 A 
ATOM     60  C   UNL A   1      41.986  34.505  32.317  1.00  0.00     0.029 A 
ATOM     61  N   UNL A   1      42.652  32.397  32.562  1.00  0.00    -0.354 N 
ATOM     62  N   UNL A   1      42.991  29.867  34.004  1.00  0.00    -0.248 NA
ATOM     63  C   UNL A   1      42.830  28.619  35.971  1.00  0.00     0.031 C 
ATOM     64  C   UNL A   1      41.669  34.088  33.614  1.00  0.00     0.029 A 
ATOM     65  C   UNL A   1      42.060  32.767  33.758  1.00  0.00     0.049 A 
ATOM     66  H   UNL A   1      43.038  31.512  32.372  1.00  0.00     0.167 HD
ATOM     67  C   UNL A   1      42.353  30.629  34.976  1.00  0.00     0.074 A 
ATOM     68  C   UNL A   1      42.239  29.792  36.153  1.00  0.00     0.031 C 
ATOM     69  C   UNL A   1      41.911  31.908  34.905  1.00  0.00     0.034 A 
BRANCH  56  70
ATOM     70  C   UNL A   1      43.129  34.701  29.528  1.00  0.00     0.023 A 
ATOM     71  C   UNL A   1      41.986  35.000  28.758  1.00  0.00     0.012 A 
ATOM     72  C   UNL A   1      44.190  35.625  29.576  1.00  0.00     0.148 A 
ATOM     73  C   UNL A   1      41.915  36.181  28.019  1.00  0.00     0.002 A 
ATOM     74  C   UNL A   1      44.091  36.824  28.878  1.00  0.00     0.091 A 
ATOM     75  F   UNL A   1      45.276  35.316  30.298  1.00  0.00    -0.205 F 
ATOM     76  C   UNL A   1      42.962  37.097  28.089  1.00  0.00     0.022 A 
BRANCH  74  77
ATOM     77  S   UNL A   1      45.344  38.107  28.970  1.00  0.00     0.127 S 
ATOM     78  O   UNL A   1      44.888  39.040  27.941  1.00  0.00    -0.237 OA
ATOM     79  O   UNL A   1      45.187  38.589  30.343  1.00  0.00    -0.237 OA
ATOM     80  O   UNL A   1      46.615  37.452  28.698  1.00  0.00    -0.744 OA
ENDBRANCH  74  77
ENDBRANCH  56  70
BRANCH  57  81
ATOM     81  C   UNL A   1      44.037  26.235  34.763  1.00  0.00     0.023 A 
ATOM     82  C   UNL A   1      43.030  25.250  34.760  1.00  0.00     0.012 A 
ATOM     83  C   UNL A   1      45.204  26.023  35.522  1.00  0.00     0.148 A 
ATOM     84  C   UNL A   1      43.164  24.095  35.531  1.00  0.00     0.002 A 
ATOM     85  C   UNL A   1      45.357  24.843  36.240  1.00  0.00     0.091 A 
ATOM     86  F   UNL A   1      46.147  26.975  35.517  1.00  0.00    -0.205 F 
ATOM     87  C   UNL A   1      44.330  23.887  36.264  1.00  0.00     0.022 A 
BRANCH  85  88
ATOM     88  S   UNL A   1      46.876  24.432  37.104  1.00  0.00     0.127 S 
ATOM     89  O   UNL A   1      46.563  23.115  37.652  1.00  0.00    -0.237 OA
ATOM     90  O   UNL A   1      47.851  24.431  36.013  1.00  0.00    -0.237 OA
ATOM     91  O   UNL A   1      47.073  25.493  38.083  1.00  0.00    -0.744 OA
ENDBRANCH  85  88
ENDBRANCH  57  81
BRANCH  69  92
ATOM     92  C   UNL A   1      41.211  32.473  36.114  1.00  0.00     0.023 A 
ATOM     93  C   UNL A   1      41.872  33.393  36.953  1.00  0.00     0.012 A 
ATOM     94  C   UNL A   1      39.869  32.135  36.383  1.00  0.00     0.148 A 
ATOM     95  C   UNL A   1      41.223  33.932  38.063  1.00  0.00     0.002 A 
ATOM     96  C   UNL A   1      39.212  32.718  37.458  1.00  0.00     0.091 A 
ATOM     97  F   UNL A   1      39.262  31.245  35.584  1.00  0.00    -0.205 F 
ATOM     98  C   UNL A   1      39.892  33.605  38.309  1.00  0.00     0.022 A 
BRANCH  96  99
ATOM     99  S   UNL A   1      37.470  32.436  37.790  1.00  0.00     0.127 S 
ATOM    100  O   UNL A   1      36.839  33.074  36.636  1.00  0.00    -0.237 OA
ATOM    101  O   UNL A   1      37.389  30.975  37.800  1.00  0.00    -0.237 OA
ATOM    102  O   UNL A   1      37.199  33.064  39.076  1.00  0.00    -0.744 OA
ENDBRANCH  96  99
ENDBRANCH  69  92
ENDBRANCH  43  44
ENDBRANCH  35  38
ENDBRANCH  33  34
ENDBRANCH  32  33
ENDBRANCH  31  32
ENDBRANCH   1  31
TORSDOF 19
ENDMDL
