MODEL 1
REMARK VINA RESULT:     -11.1      0.000      0.000
REMARK SMILES CCOC(=O)c1nc(Nc2cccc(C(=O)NCCCCCCNC(=O)c3ccc(-c4c5nc(c(-c6cccc(S(=O)(=O)[O-])c6F)c6ccc([nH]6)c(-c6cccc(S(=O)(=O)[O-])c6F)c6nc(c(-c7cccc(S(=O)(=O)[O-])c7F)c7ccc4[nH]7)C=C6)C=C5)cc3)c2)c2ccccc2n1
REMARK SMILES IDX 19 1 18 2 17 3 15 4 16 5 14 7 10 8 11 9 90 10 12 11 13 12
REMARK SMILES IDX 9 13 8 15 6 16 7 17 97 18 96 19 91 20 95 21 92 22 94 23
REMARK SMILES IDX 93 24 4 25 5 26 3 27 2 28 1 29 20 30 21 31 22 32 23 33 24 34
REMARK SMILES IDX 25 35 26 37 27 38 28 39 89 40 29 41 88 42 30 43 31 44 32 45
REMARK SMILES IDX 82 46 33 47 87 48 81 49 83 50 34 51 86 52 80 53 79 54 35 56
REMARK SMILES IDX 67 57 47 58 66 59 48 60 51 61 65 62 84 63 49 64 50 65 64 67
REMARK SMILES IDX 85 68 52 69 36 70 37 71 45 72 38 73 40 74 46 75 39 76 41 77
REMARK SMILES IDX 42 78 43 79 44 80 68 81 69 82 77 83 70 84 72 85 78 86 71 87
REMARK SMILES IDX 73 88 74 89 75 90 76 91 53 92 54 93 62 94 55 95 57 96 63 97
REMARK SMILES IDX 56 98 58 99 59 100 60 101 61 102
REMARK H PARENT 17 6 9 14 24 36 83 55 51 66
REMARK Flexibility Score: inf
ROOT
ATOM      1  C   UNL A   1      36.624  23.006  25.369  1.00  0.00     0.021 C 
ENDROOT
BRANCH   1   2
ATOM      2  C   UNL A   1      35.258  22.537  25.851  1.00  0.00     0.116 C 
BRANCH   2   3
ATOM      3  N   UNL A   1      34.689  21.448  25.074  1.00  0.00    -0.352 N 
ATOM      4  C   UNL A   1      33.425  21.294  24.542  1.00  0.00     0.251 C 
ATOM      5  O   UNL A   1      33.152  20.249  23.953  1.00  0.00    -0.269 OA
ATOM      6  H   UNL A   1      35.305  20.700  24.900  1.00  0.00     0.163 HD
BRANCH   4   7
ATOM      7  C   UNL A   1      32.368  22.329  24.721  1.00  0.00     0.041 A 
ATOM      8  C   UNL A   1      31.297  24.419  24.038  1.00  0.00     0.040 A 
ATOM      9  C   UNL A   1      30.557  24.401  25.224  1.00  0.00     0.026 A 
ATOM     10  C   UNL A   1      32.139  23.329  23.775  1.00  0.00     0.040 A 
ATOM     11  C   UNL A   1      30.673  23.333  26.121  1.00  0.00     0.003 A 
ATOM     12  C   UNL A   1      31.590  22.307  25.881  1.00  0.00     0.014 A 
BRANCH   8  13
ATOM     13  N   UNL A   1      31.207  25.509  23.149  1.00  0.00    -0.340 N 
ATOM     14  H   UNL A   1      31.313  25.299  22.194  1.00  0.00     0.168 HD
BRANCH  13  15
ATOM     15  C   UNL A   1      30.983  26.864  23.468  1.00  0.00     0.142 A 
ATOM     16  C   UNL A   1      29.713  28.743  23.153  1.00  0.00     0.241 A 
ATOM     17  N   UNL A   1      29.904  27.439  22.916  1.00  0.00    -0.204 NA
ATOM     18  N   UNL A   1      30.492  29.522  23.915  1.00  0.00    -0.222 NA
ATOM     19  C   UNL A   1      31.545  28.935  24.490  1.00  0.00     0.077 A 
ATOM     20  C   UNL A   1      31.874  27.583  24.287  1.00  0.00     0.043 A 
ATOM     21  C   UNL A   1      32.354  29.702  25.319  1.00  0.00     0.029 A 
ATOM     22  C   UNL A   1      33.049  27.057  24.889  1.00  0.00     0.014 A 
ATOM     23  C   UNL A   1      33.490  29.174  25.938  1.00  0.00     0.002 A 
ATOM     24  C   UNL A   1      33.846  27.852  25.712  1.00  0.00     0.001 A 
BRANCH  16  25
ATOM     25  C   UNL A   1      28.522  29.343  22.479  1.00  0.00     0.376 C 
ATOM     26  O   UNL A   1      27.367  29.148  22.812  1.00  0.00    -0.242 OA
BRANCH  25  27
ATOM     27  O   UNL A   1      28.928  30.049  21.385  1.00  0.00    -0.460 OA
BRANCH  27  28
ATOM     28  C   UNL A   1      28.161  31.226  21.100  1.00  0.00     0.230 C 
ATOM     29  C   UNL A   1      28.507  32.356  22.056  1.00  0.00     0.049 C 
ENDBRANCH  27  28
ENDBRANCH  25  27
ENDBRANCH  16  25
ENDBRANCH  13  15
ENDBRANCH   8  13
ENDBRANCH   4   7
ENDBRANCH   2   3
ENDBRANCH   1   2
BRANCH   1  30
ATOM     30  C   UNL A   1      37.364  23.991  26.273  1.00  0.00     0.002 C 
BRANCH  30  31
ATOM     31  C   UNL A   1      38.852  23.718  26.505  1.00  0.00     0.002 C 
BRANCH  31  32
ATOM     32  C   UNL A   1      39.337  22.289  26.245  1.00  0.00     0.021 C 
BRANCH  32  33
ATOM     33  C   UNL A   1      40.722  21.940  26.783  1.00  0.00     0.116 C 
BRANCH  33  34
ATOM     34  N   UNL A   1      41.733  21.882  25.744  1.00  0.00    -0.352 N 
ATOM     35  C   UNL A   1      42.608  22.845  25.309  1.00  0.00     0.251 C 
ATOM     36  H   UNL A   1      41.801  21.017  25.277  1.00  0.00     0.163 HD
ATOM     37  O   UNL A   1      43.291  22.630  24.310  1.00  0.00    -0.269 OA
BRANCH  35  38
ATOM     38  C   UNL A   1      42.733  24.141  26.019  1.00  0.00     0.039 A 
ATOM     39  C   UNL A   1      42.436  25.314  25.319  1.00  0.00     0.014 A 
ATOM     40  C   UNL A   1      43.187  24.218  27.339  1.00  0.00     0.014 A 
ATOM     41  C   UNL A   1      42.567  26.555  25.946  1.00  0.00     0.010 A 
ATOM     42  C   UNL A   1      43.243  25.452  27.988  1.00  0.00     0.010 A 
ATOM     43  C   UNL A   1      42.958  26.636  27.292  1.00  0.00    -0.014 A 
BRANCH  43  44
ATOM     44  C   UNL A   1      43.099  27.955  27.964  1.00  0.00     0.031 A 
ATOM     45  C   UNL A   1      44.450  28.605  28.099  1.00  0.00     0.074 A 
ATOM     46  C   UNL A   1      42.015  28.550  28.498  1.00  0.00     0.049 A 
ATOM     47  N   UNL A   1      44.762  29.756  28.637  1.00  0.00    -0.248 NA
ATOM     48  C   UNL A   1      45.607  27.852  27.589  1.00  0.00     0.031 C 
ATOM     49  C   UNL A   1      40.665  27.983  28.520  1.00  0.00     0.029 A 
ATOM     50  N   UNL A   1      41.881  29.754  29.142  1.00  0.00    -0.354 N 
ATOM     51  C   UNL A   1      46.146  29.855  28.554  1.00  0.00     0.074 A 
ATOM     52  C   UNL A   1      46.618  28.624  27.959  1.00  0.00     0.031 C 
ATOM     53  C   UNL A   1      39.839  28.842  29.139  1.00  0.00     0.029 A 
ATOM     54  C   UNL A   1      40.599  30.011  29.571  1.00  0.00     0.049 A 
ATOM     55  H   UNL A   1      42.631  30.376  29.283  1.00  0.00     0.167 HD
ATOM     56  C   UNL A   1      46.952  30.887  28.903  1.00  0.00     0.034 A 
ATOM     57  C   UNL A   1      40.093  31.070  30.233  1.00  0.00     0.034 A 
ATOM     58  C   UNL A   1      46.477  32.126  29.462  1.00  0.00     0.049 A 
ATOM     59  C   UNL A   1      40.989  32.235  30.547  1.00  0.00     0.074 A 
ATOM     60  C   UNL A   1      47.201  33.260  29.786  1.00  0.00     0.029 A 
ATOM     61  N   UNL A   1      45.155  32.391  29.785  1.00  0.00    -0.354 N 
ATOM     62  N   UNL A   1      42.273  32.374  30.318  1.00  0.00    -0.248 NA
ATOM     63  C   UNL A   1      40.358  33.412  31.162  1.00  0.00     0.031 C 
ATOM     64  C   UNL A   1      46.317  34.205  30.319  1.00  0.00     0.029 A 
ATOM     65  C   UNL A   1      45.038  33.671  30.301  1.00  0.00     0.049 A 
ATOM     66  H   UNL A   1      44.407  31.762  29.663  1.00  0.00     0.167 HD
ATOM     67  C   UNL A   1      42.597  33.662  30.727  1.00  0.00     0.074 A 
ATOM     68  C   UNL A   1      41.368  34.270  31.195  1.00  0.00     0.031 C 
ATOM     69  C   UNL A   1      43.803  34.282  30.722  1.00  0.00     0.034 A 
BRANCH  56  70
ATOM     70  C   UNL A   1      48.428  30.735  28.634  1.00  0.00     0.023 A 
ATOM     71  C   UNL A   1      49.211  29.932  29.490  1.00  0.00     0.012 A 
ATOM     72  C   UNL A   1      49.038  31.359  27.528  1.00  0.00     0.148 A 
ATOM     73  C   UNL A   1      50.582  29.792  29.281  1.00  0.00     0.002 A 
ATOM     74  C   UNL A   1      50.398  31.175  27.298  1.00  0.00     0.091 A 
ATOM     75  F   UNL A   1      48.287  32.136  26.734  1.00  0.00    -0.205 F 
ATOM     76  C   UNL A   1      51.173  30.406  28.181  1.00  0.00     0.022 A 
BRANCH  74  77
ATOM     77  S   UNL A   1      51.235  31.859  25.863  1.00  0.00     0.127 S 
ATOM     78  O   UNL A   1      52.520  32.260  26.434  1.00  0.00    -0.237 OA
ATOM     79  O   UNL A   1      51.299  30.708  24.963  1.00  0.00    -0.237 OA
ATOM     80  O   UNL A   1      50.390  32.948  25.390  1.00  0.00    -0.744 OA
ENDBRANCH  74  77
ENDBRANCH  56  70
BRANCH  57  81
ATOM     81  C   UNL A   1      38.641  31.098  30.566  1.00  0.00     0.023 A 
ATOM     82  C   UNL A   1      38.193  30.512  31.768  1.00  0.00     0.012 A 
ATOM     83  C   UNL A   1      37.716  31.748  29.729  1.00  0.00     0.148 A 
ATOM     84  C   UNL A   1      36.842  30.552  32.114  1.00  0.00     0.002 A 
ATOM     85  C   UNL A   1      36.382  31.832  30.108  1.00  0.00     0.091 A 
ATOM     86  F   UNL A   1      38.165  32.291  28.590  1.00  0.00    -0.205 F 
ATOM     87  C   UNL A   1      35.938  31.222  31.290  1.00  0.00     0.022 A 
BRANCH  85  88
ATOM     88  S   UNL A   1      35.178  32.789  29.179  1.00  0.00     0.127 S 
ATOM     89  O   UNL A   1      33.984  32.653  30.009  1.00  0.00    -0.237 OA
ATOM     90  O   UNL A   1      35.785  34.120  29.185  1.00  0.00    -0.237 OA
ATOM     91  O   UNL A   1      35.107  32.166  27.865  1.00  0.00    -0.744 OA
ENDBRANCH  85  88
ENDBRANCH  57  81
BRANCH  69  92
ATOM     92  C   UNL A   1      43.853  35.709  31.206  1.00  0.00     0.023 A 
ATOM     93  C   UNL A   1      44.033  35.982  32.577  1.00  0.00     0.012 A 
ATOM     94  C   UNL A   1      43.774  36.779  30.294  1.00  0.00     0.148 A 
ATOM     95  C   UNL A   1      44.089  37.299  33.035  1.00  0.00     0.002 A 
ATOM     96  C   UNL A   1      43.881  38.087  30.752  1.00  0.00     0.091 A 
ATOM     97  F   UNL A   1      43.581  36.503  28.995  1.00  0.00    -0.205 F 
ATOM     98  C   UNL A   1      44.024  38.349  32.123  1.00  0.00     0.022 A 
BRANCH  96  99
ATOM     99  S   UNL A   1      43.904  39.492  29.632  1.00  0.00     0.127 S 
ATOM    100  O   UNL A   1      42.637  39.329  28.922  1.00  0.00    -0.237 OA
ATOM    101  O   UNL A   1      43.945  40.627  30.555  1.00  0.00    -0.237 OA
ATOM    102  O   UNL A   1      45.106  39.334  28.824  1.00  0.00    -0.744 OA
ENDBRANCH  96  99
ENDBRANCH  69  92
ENDBRANCH  43  44
ENDBRANCH  35  38
ENDBRANCH  33  34
ENDBRANCH  32  33
ENDBRANCH  31  32
ENDBRANCH  30  31
ENDBRANCH   1  30
TORSDOF 21
ENDMDL
MODEL 2
REMARK VINA RESULT:     -10.7      2.085      3.113
REMARK SMILES CCOC(=O)c1nc(Nc2cccc(C(=O)NCCCCCCNC(=O)c3ccc(-c4c5nc(c(-c6cccc(S(=O)(=O)[O-])c6F)c6ccc([nH]6)c(-c6cccc(S(=O)(=O)[O-])c6F)c6nc(c(-c7cccc(S(=O)(=O)[O-])c7F)c7ccc4[nH]7)C=C6)C=C5)cc3)c2)c2ccccc2n1
REMARK SMILES IDX 19 1 18 2 17 3 15 4 16 5 14 7 10 8 11 9 90 10 12 11 13 12
REMARK SMILES IDX 9 13 8 15 6 16 7 17 97 18 96 19 91 20 95 21 92 22 94 23
REMARK SMILES IDX 93 24 4 25 5 26 3 27 2 28 1 29 20 30 21 31 22 32 23 33 24 34
REMARK SMILES IDX 25 35 26 37 27 38 28 39 89 40 29 41 88 42 30 43 31 44 32 45
REMARK SMILES IDX 82 46 33 47 87 48 81 49 83 50 34 51 86 52 80 53 79 54 35 56
REMARK SMILES IDX 67 57 47 58 66 59 48 60 51 61 65 62 84 63 49 64 50 65 64 67
REMARK SMILES IDX 85 68 52 69 36 70 37 71 45 72 38 73 40 74 46 75 39 76 41 77
REMARK SMILES IDX 42 78 43 79 44 80 68 81 69 82 77 83 70 84 72 85 78 86 71 87
REMARK SMILES IDX 73 88 74 89 75 90 76 91 53 92 54 93 62 94 55 95 57 96 63 97
REMARK SMILES IDX 56 98 58 99 59 100 60 101 61 102
REMARK H PARENT 17 6 9 14 24 36 83 55 51 66
REMARK Flexibility Score: inf
ROOT
ATOM      1  C   UNL A   1      36.749  22.663  24.775  1.00  0.00     0.021 C 
ENDROOT
BRANCH   1   2
ATOM      2  C   UNL A   1      35.293  22.560  25.212  1.00  0.00     0.116 C 
BRANCH   2   3
ATOM      3  N   UNL A   1      34.486  21.661  24.402  1.00  0.00    -0.352 N 
ATOM      4  C   UNL A   1      33.116  21.576  24.256  1.00  0.00     0.251 C 
ATOM      5  O   UNL A   1      32.649  20.691  23.540  1.00  0.00    -0.269 OA
ATOM      6  H   UNL A   1      34.999  21.010  23.872  1.00  0.00     0.163 HD
BRANCH   4   7
ATOM      7  C   UNL A   1      32.192  22.484  24.992  1.00  0.00     0.041 A 
ATOM      8  C   UNL A   1      30.555  24.300  25.009  1.00  0.00     0.040 A 
ATOM      9  C   UNL A   1      30.667  24.359  26.401  1.00  0.00     0.026 A 
ATOM     10  C   UNL A   1      31.270  23.300  24.335  1.00  0.00     0.040 A 
ATOM     11  C   UNL A   1      31.484  23.455  27.089  1.00  0.00     0.003 A 
ATOM     12  C   UNL A   1      32.259  22.530  26.387  1.00  0.00     0.014 A 
BRANCH   8  13
ATOM     13  N   UNL A   1      29.760  25.231  24.310  1.00  0.00    -0.340 N 
ATOM     14  H   UNL A   1      28.805  25.009  24.227  1.00  0.00     0.168 HD
BRANCH  13  15
ATOM     15  C   UNL A   1      30.172  26.441  23.716  1.00  0.00     0.142 A 
ATOM     16  C   UNL A   1      31.904  27.750  22.989  1.00  0.00     0.241 A 
ATOM     17  N   UNL A   1      31.487  26.581  23.490  1.00  0.00    -0.204 NA
ATOM     18  N   UNL A   1      31.122  28.789  22.670  1.00  0.00    -0.222 NA
ATOM     19  C   UNL A   1      29.809  28.631  22.865  1.00  0.00     0.077 A 
ATOM     20  C   UNL A   1      29.252  27.464  23.419  1.00  0.00     0.043 A 
ATOM     21  C   UNL A   1      28.961  29.671  22.507  1.00  0.00     0.029 A 
ATOM     22  C   UNL A   1      27.851  27.407  23.650  1.00  0.00     0.014 A 
ATOM     23  C   UNL A   1      27.580  29.599  22.703  1.00  0.00     0.002 A 
ATOM     24  C   UNL A   1      27.024  28.470  23.288  1.00  0.00     0.001 A 
BRANCH  16  25
ATOM     25  C   UNL A   1      33.382  27.868  22.798  1.00  0.00     0.376 C 
ATOM     26  O   UNL A   1      34.107  28.602  23.445  1.00  0.00    -0.242 OA
BRANCH  25  27
ATOM     27  O   UNL A   1      33.763  27.109  21.730  1.00  0.00    -0.460 OA
BRANCH  27  28
ATOM     28  C   UNL A   1      33.215  25.785  21.698  1.00  0.00     0.230 C 
ATOM     29  C   UNL A   1      34.081  24.810  22.479  1.00  0.00     0.049 C 
ENDBRANCH  27  28
ENDBRANCH  25  27
ENDBRANCH  16  25
ENDBRANCH  13  15
ENDBRANCH   8  13
ENDBRANCH   4   7
ENDBRANCH   2   3
ENDBRANCH   1   2
BRANCH   1  30
ATOM     30  C   UNL A   1      37.700  23.370  25.739  1.00  0.00     0.002 C 
BRANCH  30  31
ATOM     31  C   UNL A   1      38.886  22.550  26.252  1.00  0.00     0.002 C 
BRANCH  31  32
ATOM     32  C   UNL A   1      39.072  21.157  25.643  1.00  0.00     0.021 C 
BRANCH  32  33
ATOM     33  C   UNL A   1      39.692  20.102  26.555  1.00  0.00     0.116 C 
BRANCH  33  34
ATOM     34  N   UNL A   1      40.944  19.577  26.040  1.00  0.00    -0.352 N 
ATOM     35  C   UNL A   1      42.159  20.193  25.881  1.00  0.00     0.251 C 
ATOM     36  H   UNL A   1      40.916  18.633  25.762  1.00  0.00     0.163 HD
ATOM     37  O   UNL A   1      43.059  19.601  25.289  1.00  0.00    -0.269 OA
BRANCH  35  38
ATOM     38  C   UNL A   1      42.397  21.561  26.400  1.00  0.00     0.039 A 
ATOM     39  C   UNL A   1      42.541  22.605  25.482  1.00  0.00     0.014 A 
ATOM     40  C   UNL A   1      42.532  21.818  27.768  1.00  0.00     0.014 A 
ATOM     41  C   UNL A   1      42.793  23.904  25.933  1.00  0.00     0.010 A 
ATOM     42  C   UNL A   1      42.705  23.126  28.220  1.00  0.00     0.010 A 
ATOM     43  C   UNL A   1      42.863  24.180  27.307  1.00  0.00    -0.014 A 
BRANCH  43  44
ATOM     44  C   UNL A   1      43.130  25.560  27.792  1.00  0.00     0.031 A 
ATOM     45  C   UNL A   1      44.534  26.101  27.825  1.00  0.00     0.074 A 
ATOM     46  C   UNL A   1      42.112  26.315  28.249  1.00  0.00     0.049 A 
ATOM     47  N   UNL A   1      44.954  27.283  28.198  1.00  0.00    -0.248 NA
ATOM     48  C   UNL A   1      45.612  25.188  27.413  1.00  0.00     0.031 C 
ATOM     49  C   UNL A   1      40.719  25.877  28.359  1.00  0.00     0.029 A 
ATOM     50  N   UNL A   1      42.095  27.602  28.723  1.00  0.00    -0.354 N 
ATOM     51  C   UNL A   1      46.340  27.248  28.091  1.00  0.00     0.074 A 
ATOM     52  C   UNL A   1      46.693  25.911  27.666  1.00  0.00     0.031 C 
ATOM     53  C   UNL A   1      39.983  26.881  28.862  1.00  0.00     0.029 A 
ATOM     54  C   UNL A   1      40.849  28.026  29.124  1.00  0.00     0.049 A 
ATOM     55  H   UNL A   1      42.898  28.169  28.772  1.00  0.00     0.167 HD
ATOM     56  C   UNL A   1      47.238  28.243  28.289  1.00  0.00     0.034 A 
ATOM     57  C   UNL A   1      40.449  29.205  29.640  1.00  0.00     0.034 A 
ATOM     58  C   UNL A   1      46.883  29.583  28.678  1.00  0.00     0.049 A 
ATOM     59  C   UNL A   1      41.448  30.318  29.784  1.00  0.00     0.074 A 
ATOM     60  C   UNL A   1      47.707  30.682  28.838  1.00  0.00     0.029 A 
ATOM     61  N   UNL A   1      45.595  30.004  28.972  1.00  0.00    -0.354 N 
ATOM     62  N   UNL A   1      42.734  30.312  29.527  1.00  0.00    -0.248 NA
ATOM     63  C   UNL A   1      40.933  31.619  30.238  1.00  0.00     0.031 C 
ATOM     64  C   UNL A   1      46.919  31.765  29.244  1.00  0.00     0.029 A 
ATOM     65  C   UNL A   1      45.599  31.347  29.309  1.00  0.00     0.049 A 
ATOM     66  H   UNL A   1      44.794  29.433  28.944  1.00  0.00     0.167 HD
ATOM     67  C   UNL A   1      43.175  31.610  29.753  1.00  0.00     0.074 A 
ATOM     68  C   UNL A   1      42.012  32.381  30.145  1.00  0.00     0.031 C 
ATOM     69  C   UNL A   1      44.430  32.116  29.654  1.00  0.00     0.034 A 
BRANCH  56  70
ATOM     70  C   UNL A   1      48.690  27.927  28.030  1.00  0.00     0.023 A 
ATOM     71  C   UNL A   1      49.499  27.464  29.089  1.00  0.00     0.012 A 
ATOM     72  C   UNL A   1      49.250  28.061  26.745  1.00  0.00     0.148 A 
ATOM     73  C   UNL A   1      50.851  27.187  28.887  1.00  0.00     0.002 A 
ATOM     74  C   UNL A   1      50.587  27.736  26.540  1.00  0.00     0.091 A 
ATOM     75  F   UNL A   1      48.476  28.521  25.752  1.00  0.00    -0.205 F 
ATOM     76  C   UNL A   1      51.392  27.314  27.611  1.00  0.00     0.022 A 
BRANCH  74  77
ATOM     77  S   UNL A   1      51.356  27.791  24.917  1.00  0.00     0.127 S 
ATOM     78  O   UNL A   1      52.722  27.369  25.222  1.00  0.00    -0.237 OA
ATOM     79  O   UNL A   1      50.568  26.812  24.167  1.00  0.00    -0.237 OA
ATOM     80  O   UNL A   1      51.210  29.164  24.453  1.00  0.00    -0.744 OA
ENDBRANCH  74  77
ENDBRANCH  56  70
BRANCH  57  81
ATOM     81  C   UNL A   1      39.012  29.405  29.978  1.00  0.00     0.023 A 
ATOM     82  C   UNL A   1      38.549  29.074  31.269  1.00  0.00     0.012 A 
ATOM     83  C   UNL A   1      38.119  29.971  29.050  1.00  0.00     0.148 A 
ATOM     84  C   UNL A   1      37.214  29.280  31.617  1.00  0.00     0.002 A 
ATOM     85  C   UNL A   1      36.805  30.224  29.423  1.00  0.00     0.091 A 
ATOM     86  F   UNL A   1      38.580  30.270  27.828  1.00  0.00    -0.205 F 
ATOM     87  C   UNL A   1      36.344  29.866  30.697  1.00  0.00     0.022 A 
BRANCH  85  88
ATOM     88  S   UNL A   1      35.654  31.097  28.353  1.00  0.00     0.127 S 
ATOM     89  O   UNL A   1      35.355  30.083  27.346  1.00  0.00    -0.237 OA
ATOM     90  O   UNL A   1      34.557  31.395  29.274  1.00  0.00    -0.237 OA
ATOM     91  O   UNL A   1      36.372  32.271  27.874  1.00  0.00    -0.744 OA
ENDBRANCH  85  88
ENDBRANCH  57  81
BRANCH  69  92
ATOM     92  C   UNL A   1      44.612  33.585  29.938  1.00  0.00     0.023 A 
ATOM     93  C   UNL A   1      45.011  34.011  31.221  1.00  0.00     0.012 A 
ATOM     94  C   UNL A   1      44.437  34.540  28.918  1.00  0.00     0.148 A 
ATOM     95  C   UNL A   1      45.191  35.368  31.493  1.00  0.00     0.002 A 
ATOM     96  C   UNL A   1      44.667  35.885  29.184  1.00  0.00     0.091 A 
ATOM     97  F   UNL A   1      44.036  34.121  27.708  1.00  0.00    -0.205 F 
ATOM     98  C   UNL A   1      45.029  36.301  30.474  1.00  0.00     0.022 A 
BRANCH  96  99
ATOM     99  S   UNL A   1      44.575  37.140  27.902  1.00  0.00     0.127 S 
ATOM    100  O   UNL A   1      43.725  38.149  28.531  1.00  0.00    -0.237 OA
ATOM    101  O   UNL A   1      45.976  37.533  27.748  1.00  0.00    -0.237 OA
ATOM    102  O   UNL A   1      44.008  36.475  26.736  1.00  0.00    -0.744 OA
ENDBRANCH  96  99
ENDBRANCH  69  92
ENDBRANCH  43  44
ENDBRANCH  35  38
ENDBRANCH  33  34
ENDBRANCH  32  33
ENDBRANCH  31  32
ENDBRANCH  30  31
ENDBRANCH   1  30
TORSDOF 21
ENDMDL
MODEL 3
REMARK VINA RESULT:     -10.7      1.673      2.001
REMARK SMILES CCOC(=O)c1nc(Nc2cccc(C(=O)NCCCCCCNC(=O)c3ccc(-c4c5nc(c(-c6cccc(S(=O)(=O)[O-])c6F)c6ccc([nH]6)c(-c6cccc(S(=O)(=O)[O-])c6F)c6nc(c(-c7cccc(S(=O)(=O)[O-])c7F)c7ccc4[nH]7)C=C6)C=C5)cc3)c2)c2ccccc2n1
REMARK SMILES IDX 19 1 18 2 17 3 15 4 16 5 14 7 10 8 11 9 90 10 12 11 13 12
REMARK SMILES IDX 9 13 8 15 6 16 7 17 97 18 96 19 91 20 95 21 92 22 94 23
REMARK SMILES IDX 93 24 4 25 5 26 3 27 2 28 1 29 20 30 21 31 22 32 23 33 24 34
REMARK SMILES IDX 25 35 26 37 27 38 28 39 89 40 29 41 88 42 30 43 31 44 32 45
REMARK SMILES IDX 82 46 33 47 87 48 81 49 83 50 34 51 86 52 80 53 79 54 35 56
REMARK SMILES IDX 67 57 47 58 66 59 48 60 51 61 65 62 84 63 49 64 50 65 64 67
REMARK SMILES IDX 85 68 52 69 36 70 37 71 45 72 38 73 40 74 46 75 39 76 41 77
REMARK SMILES IDX 42 78 43 79 44 80 68 81 69 82 77 83 70 84 72 85 78 86 71 87
REMARK SMILES IDX 73 88 74 89 75 90 76 91 53 92 54 93 62 94 55 95 57 96 63 97
REMARK SMILES IDX 56 98 58 99 59 100 60 101 61 102
REMARK H PARENT 17 6 9 14 24 36 83 55 51 66
REMARK Flexibility Score: inf
ROOT
ATOM      1  C   UNL A   1      36.649  23.161  25.163  1.00  0.00     0.021 C 
ENDROOT
BRANCH   1   2
ATOM      2  C   UNL A   1      35.142  23.061  25.368  1.00  0.00     0.116 C 
BRANCH   2   3
ATOM      3  N   UNL A   1      34.521  21.925  24.704  1.00  0.00    -0.352 N 
ATOM      4  C   UNL A   1      33.194  21.668  24.427  1.00  0.00     0.251 C 
ATOM      5  O   UNL A   1      32.895  20.602  23.891  1.00  0.00    -0.269 OA
ATOM      6  H   UNL A   1      35.149  21.229  24.404  1.00  0.00     0.163 HD
BRANCH   4   7
ATOM      7  C   UNL A   1      32.113  22.616  24.820  1.00  0.00     0.041 A 
ATOM      8  C   UNL A   1      30.738  24.586  24.363  1.00  0.00     0.040 A 
ATOM      9  C   UNL A   1      30.278  24.543  25.683  1.00  0.00     0.026 A 
ATOM     10  C   UNL A   1      31.596  23.563  23.935  1.00  0.00     0.040 A 
ATOM     11  C   UNL A   1      30.681  23.518  26.546  1.00  0.00     0.003 A 
ATOM     12  C   UNL A   1      31.611  22.565  26.123  1.00  0.00     0.014 A 
BRANCH   8  13
ATOM     13  N   UNL A   1      30.361  25.636  23.502  1.00  0.00    -0.340 N 
ATOM     14  H   UNL A   1      29.985  25.369  22.633  1.00  0.00     0.168 HD
BRANCH  13  15
ATOM     15  C   UNL A   1      30.458  27.022  23.741  1.00  0.00     0.142 A 
ATOM     16  C   UNL A   1      29.571  29.108  23.424  1.00  0.00     0.241 A 
ATOM     17  N   UNL A   1      29.461  27.784  23.266  1.00  0.00    -0.204 NA
ATOM     18  N   UNL A   1      30.579  29.743  24.036  1.00  0.00    -0.222 NA
ATOM     19  C   UNL A   1      31.552  28.977  24.537  1.00  0.00     0.077 A 
ATOM     20  C   UNL A   1      31.570  27.577  24.403  1.00  0.00     0.043 A 
ATOM     21  C   UNL A   1      32.594  29.596  25.214  1.00  0.00     0.029 A 
ATOM     22  C   UNL A   1      32.676  26.845  24.912  1.00  0.00     0.014 A 
ATOM     23  C   UNL A   1      33.665  28.872  25.744  1.00  0.00     0.002 A 
ATOM     24  C   UNL A   1      33.713  27.495  25.582  1.00  0.00     0.001 A 
BRANCH  16  25
ATOM     25  C   UNL A   1      28.454  29.912  22.839  1.00  0.00     0.376 C 
ATOM     26  O   UNL A   1      27.298  29.870  23.219  1.00  0.00    -0.242 OA
BRANCH  25  27
ATOM     27  O   UNL A   1      28.915  30.610  21.761  1.00  0.00    -0.460 OA
BRANCH  27  28
ATOM     28  C   UNL A   1      28.781  32.034  21.855  1.00  0.00     0.230 C 
ATOM     29  C   UNL A   1      27.790  32.565  20.832  1.00  0.00     0.049 C 
ENDBRANCH  27  28
ENDBRANCH  25  27
ENDBRANCH  16  25
ENDBRANCH  13  15
ENDBRANCH   8  13
ENDBRANCH   4   7
ENDBRANCH   2   3
ENDBRANCH   1   2
BRANCH   1  30
ATOM     30  C   UNL A   1      37.395  24.139  26.068  1.00  0.00     0.002 C 
BRANCH  30  31
ATOM     31  C   UNL A   1      38.816  23.744  26.476  1.00  0.00     0.002 C 
BRANCH  31  32
ATOM     32  C   UNL A   1      39.163  22.254  26.401  1.00  0.00     0.021 C 
BRANCH  32  33
ATOM     33  C   UNL A   1      40.489  21.839  27.030  1.00  0.00     0.116 C 
BRANCH  33  34
ATOM     34  N   UNL A   1      41.554  21.691  26.055  1.00  0.00    -0.352 N 
ATOM     35  C   UNL A   1      42.488  22.598  25.624  1.00  0.00     0.251 C 
ATOM     36  H   UNL A   1      41.616  20.801  25.638  1.00  0.00     0.163 HD
ATOM     37  O   UNL A   1      43.217  22.307  24.678  1.00  0.00    -0.269 OA
BRANCH  35  38
ATOM     38  C   UNL A   1      42.621  23.925  26.272  1.00  0.00     0.039 A 
ATOM     39  C   UNL A   1      42.386  25.068  25.503  1.00  0.00     0.014 A 
ATOM     40  C   UNL A   1      43.024  24.057  27.605  1.00  0.00     0.014 A 
ATOM     41  C   UNL A   1      42.528  26.336  26.073  1.00  0.00     0.010 A 
ATOM     42  C   UNL A   1      43.089  25.321  28.194  1.00  0.00     0.010 A 
ATOM     43  C   UNL A   1      42.867  26.475  27.428  1.00  0.00    -0.014 A 
BRANCH  43  44
ATOM     44  C   UNL A   1      43.018  27.822  28.039  1.00  0.00     0.031 A 
ATOM     45  C   UNL A   1      44.373  28.472  28.134  1.00  0.00     0.074 A 
ATOM     46  C   UNL A   1      41.941  28.446  28.554  1.00  0.00     0.049 A 
ATOM     47  N   UNL A   1      44.694  29.645  28.617  1.00  0.00    -0.248 NA
ATOM     48  C   UNL A   1      45.523  27.691  27.649  1.00  0.00     0.031 C 
ATOM     49  C   UNL A   1      40.589  27.886  28.612  1.00  0.00     0.029 A 
ATOM     50  N   UNL A   1      41.818  29.678  29.144  1.00  0.00    -0.354 N 
ATOM     51  C   UNL A   1      46.078  29.733  28.519  1.00  0.00     0.074 A 
ATOM     52  C   UNL A   1      46.540  28.475  27.977  1.00  0.00     0.031 C 
ATOM     53  C   UNL A   1      39.772  28.776  29.197  1.00  0.00     0.029 A 
ATOM     54  C   UNL A   1      40.540  29.960  29.571  1.00  0.00     0.049 A 
ATOM     55  H   UNL A   1      42.571  30.303  29.251  1.00  0.00     0.167 HD
ATOM     56  C   UNL A   1      46.890  30.777  28.815  1.00  0.00     0.034 A 
ATOM     57  C   UNL A   1      40.043  31.049  30.188  1.00  0.00     0.034 A 
ATOM     58  C   UNL A   1      46.425  32.041  29.321  1.00  0.00     0.049 A 
ATOM     59  C   UNL A   1      40.946  32.224  30.442  1.00  0.00     0.074 A 
ATOM     60  C   UNL A   1      47.156  33.186  29.588  1.00  0.00     0.029 A 
ATOM     61  N   UNL A   1      45.107  32.327  29.642  1.00  0.00    -0.354 N 
ATOM     62  N   UNL A   1      42.229  32.346  30.197  1.00  0.00    -0.248 NA
ATOM     63  C   UNL A   1      40.325  33.430  31.008  1.00  0.00     0.031 C 
ATOM     64  C   UNL A   1      46.280  34.158  30.085  1.00  0.00     0.029 A 
ATOM     65  C   UNL A   1      45.000  33.629  30.100  1.00  0.00     0.049 A 
ATOM     66  H   UNL A   1      44.355  31.696  29.555  1.00  0.00     0.167 HD
ATOM     67  C   UNL A   1      42.561  33.650  30.545  1.00  0.00     0.074 A 
ATOM     68  C   UNL A   1      41.338  34.284  30.995  1.00  0.00     0.031 C 
ATOM     69  C   UNL A   1      43.770  34.264  30.503  1.00  0.00     0.034 A 
BRANCH  56  70
ATOM     70  C   UNL A   1      48.364  30.606  28.541  1.00  0.00     0.023 A 
ATOM     71  C   UNL A   1      48.879  30.952  27.274  1.00  0.00     0.012 A 
ATOM     72  C   UNL A   1      49.242  30.130  29.534  1.00  0.00     0.148 A 
ATOM     73  C   UNL A   1      50.232  30.781  26.983  1.00  0.00     0.002 A 
ATOM     74  C   UNL A   1      50.599  30.009  29.252  1.00  0.00     0.091 A 
ATOM     75  F   UNL A   1      48.737  29.785  30.727  1.00  0.00    -0.205 F 
ATOM     76  C   UNL A   1      51.093  30.319  27.974  1.00  0.00     0.022 A 
BRANCH  74  77
ATOM     77  S   UNL A   1      51.800  29.498  30.486  1.00  0.00     0.127 S 
ATOM     78  O   UNL A   1      53.052  29.589  29.737  1.00  0.00    -0.237 OA
ATOM     79  O   UNL A   1      51.633  30.517  31.522  1.00  0.00    -0.237 OA
ATOM     80  O   UNL A   1      51.407  28.155  30.893  1.00  0.00    -0.744 OA
ENDBRANCH  74  77
ENDBRANCH  56  70
BRANCH  57  81
ATOM     81  C   UNL A   1      38.594  31.099  30.531  1.00  0.00     0.023 A 
ATOM     82  C   UNL A   1      38.142  30.502  31.726  1.00  0.00     0.012 A 
ATOM     83  C   UNL A   1      37.677  31.780  29.710  1.00  0.00     0.148 A 
ATOM     84  C   UNL A   1      36.794  30.561  32.081  1.00  0.00     0.002 A 
ATOM     85  C   UNL A   1      36.346  31.882  30.099  1.00  0.00     0.091 A 
ATOM     86  F   UNL A   1      38.129  32.333  28.577  1.00  0.00    -0.205 F 
ATOM     87  C   UNL A   1      35.898  31.261  31.273  1.00  0.00     0.022 A 
BRANCH  85  88
ATOM     88  S   UNL A   1      35.155  32.876  29.193  1.00  0.00     0.127 S 
ATOM     89  O   UNL A   1      34.944  32.070  27.994  1.00  0.00    -0.237 OA
ATOM     90  O   UNL A   1      34.024  32.908  30.122  1.00  0.00    -0.237 OA
ATOM     91  O   UNL A   1      35.795  34.167  28.981  1.00  0.00    -0.744 OA
ENDBRANCH  85  88
ENDBRANCH  57  81
BRANCH  69  92
ATOM     92  C   UNL A   1      43.830  35.711  30.922  1.00  0.00     0.023 A 
ATOM     93  C   UNL A   1      43.846  36.728  29.946  1.00  0.00     0.012 A 
ATOM     94  C   UNL A   1      43.818  36.064  32.285  1.00  0.00     0.148 A 
ATOM     95  C   UNL A   1      43.893  38.071  30.322  1.00  0.00     0.002 A 
ATOM     96  C   UNL A   1      43.814  37.405  32.652  1.00  0.00     0.091 A 
ATOM     97  F   UNL A   1      43.825  35.084  33.202  1.00  0.00    -0.205 F 
ATOM     98  C   UNL A   1      43.866  38.408  31.672  1.00  0.00     0.022 A 
BRANCH  96  99
ATOM     99  S   UNL A   1      43.682  37.925  34.367  1.00  0.00     0.127 S 
ATOM    100  O   UNL A   1      42.411  37.324  34.765  1.00  0.00    -0.237 OA
ATOM    101  O   UNL A   1      44.864  37.308  34.971  1.00  0.00    -0.237 OA
ATOM    102  O   UNL A   1      43.713  39.381  34.342  1.00  0.00    -0.744 OA
ENDBRANCH  96  99
ENDBRANCH  69  92
ENDBRANCH  43  44
ENDBRANCH  35  38
ENDBRANCH  33  34
ENDBRANCH  32  33
ENDBRANCH  31  32
ENDBRANCH  30  31
ENDBRANCH   1  30
TORSDOF 21
ENDMDL
