MODEL 1
REMARK VINA RESULT:      -9.9      0.000      0.000
REMARK SMILES O=C(NCCCCCCNC(=O)c1ccc(-c2c3nc(c(-c4cccc(S(=O)(=O)[O-])c4F)c4ccc([nH]4)c(-c4cccc(S(=O)(=O)[O-])c4F)c4nc(c(-c5cccc(S(=O)(=O)[O-])c5F)c5ccc2[nH]5)C=C4)C=C3)cc1)c1ccc(/C=C/c2ccc3cccc(O)c3n2)cc1
REMARK SMILES IDX 6 1 5 2 4 3 3 4 1 5 2 6 76 8 77 9 94 10 78 11 93 12 79 13
REMARK SMILES IDX 80 14 81 15 82 16 83 17 92 18 84 19 91 20 85 21 89 22 86 23
REMARK SMILES IDX 88 24 87 25 90 26 7 28 8 29 9 30 10 31 11 32 12 34 13 35
REMARK SMILES IDX 14 36 75 37 15 38 74 39 16 40 17 41 18 42 68 43 19 44 73 45
REMARK SMILES IDX 67 46 69 47 20 48 72 49 66 50 65 51 21 53 53 54 33 55 52 56
REMARK SMILES IDX 34 57 37 58 51 59 70 60 35 61 36 62 50 64 71 65 38 66 22 67
REMARK SMILES IDX 23 68 31 69 24 70 26 71 32 72 25 73 27 74 28 75 29 76 30 77
REMARK SMILES IDX 54 78 55 79 63 80 56 81 58 82 64 83 57 84 59 85 60 86 61 87
REMARK SMILES IDX 62 88 39 89 40 90 48 91 41 92 43 93 49 94 42 95 44 96 45 97
REMARK SMILES IDX 46 98 47 99
REMARK H PARENT 3 7 90 27 10 33 69 52 37 63
REMARK Flexibility Score: inf
ROOT
ATOM      1  C   UNL A   1      33.321  36.468  29.760  1.00  0.00     0.002 C 
ENDROOT
BRANCH   1   2
ATOM      2  C   UNL A   1      32.875  36.261  31.214  1.00  0.00     0.021 C 
BRANCH   2   3
ATOM      3  C   UNL A   1      33.988  36.338  32.263  1.00  0.00     0.116 C 
BRANCH   3   4
ATOM      4  N   UNL A   1      33.919  35.226  33.193  1.00  0.00    -0.352 N 
ATOM      5  O   UNL A   1      34.493  33.257  34.106  1.00  0.00    -0.269 OA
ATOM      6  C   UNL A   1      34.831  34.241  33.451  1.00  0.00     0.251 C 
ATOM      7  H   UNL A   1      33.088  35.173  33.718  1.00  0.00     0.163 HD
BRANCH   6   8
ATOM      8  C   UNL A   1      36.218  34.326  32.949  1.00  0.00     0.039 A 
ATOM      9  C   UNL A   1      37.290  34.702  33.768  1.00  0.00     0.014 A 
ATOM     10  C   UNL A   1      36.456  33.894  31.646  1.00  0.00     0.014 A 
ATOM     11  C   UNL A   1      38.606  34.649  33.278  1.00  0.00     0.009 A 
ATOM     12  C   UNL A   1      37.763  33.842  31.167  1.00  0.00     0.009 A 
ATOM     13  C   UNL A   1      38.857  34.204  31.977  1.00  0.00    -0.026 A 
BRANCH  13  14
ATOM     14  C   UNL A   1      40.179  34.168  31.337  1.00  0.00     0.010 C 
ATOM     15  C   UNL A   1      40.608  33.581  30.200  1.00  0.00     0.029 C 
BRANCH  15  16
ATOM     16  C   UNL A   1      42.074  33.315  30.189  1.00  0.00     0.064 A 
ATOM     17  C   UNL A   1      42.767  34.338  29.547  1.00  0.00     0.029 A 
ATOM     18  N   UNL A   1      42.449  32.012  30.106  1.00  0.00    -0.245 NA
ATOM     19  C   UNL A   1      43.556  33.980  28.464  1.00  0.00     0.013 A 
ATOM     20  C   UNL A   1      43.309  31.681  29.113  1.00  0.00     0.113 A 
ATOM     21  C   UNL A   1      43.763  32.627  28.177  1.00  0.00     0.004 A 
ATOM     22  C   UNL A   1      43.729  30.363  28.934  1.00  0.00     0.141 A 
ATOM     23  C   UNL A   1      44.384  32.208  26.988  1.00  0.00     0.010 A 
ATOM     24  C   UNL A   1      44.409  29.941  27.793  1.00  0.00     0.048 A 
ATOM     25  C   UNL A   1      44.679  30.861  26.785  1.00  0.00     0.005 A 
BRANCH  22  26
ATOM     26  O   UNL A   1      43.473  29.429  29.910  1.00  0.00    -0.506 OA
ATOM     27  H   UNL A   1      43.688  29.614  30.803  1.00  0.00     0.293 HD
ENDBRANCH  22  26
ENDBRANCH  15  16
ENDBRANCH  13  14
ENDBRANCH   6   8
ENDBRANCH   3   4
ENDBRANCH   2   3
ENDBRANCH   1   2
BRANCH   1  28
ATOM     28  C   UNL A   1      33.214  35.241  28.849  1.00  0.00     0.002 C 
BRANCH  28  29
ATOM     29  C   UNL A   1      33.919  33.983  29.357  1.00  0.00     0.021 C 
BRANCH  29  30
ATOM     30  C   UNL A   1      34.686  33.196  28.299  1.00  0.00     0.116 C 
BRANCH  30  31
ATOM     31  N   UNL A   1      33.951  32.034  27.825  1.00  0.00    -0.352 N 
ATOM     32  C   UNL A   1      34.359  30.725  27.730  1.00  0.00     0.251 C 
ATOM     33  H   UNL A   1      33.028  32.210  27.530  1.00  0.00     0.163 HD
ATOM     34  O   UNL A   1      33.656  29.904  27.151  1.00  0.00    -0.269 OA
BRANCH  32  35
ATOM     35  C   UNL A   1      35.657  30.312  28.309  1.00  0.00     0.039 A 
ATOM     36  C   UNL A   1      35.678  29.752  29.590  1.00  0.00     0.014 A 
ATOM     37  C   UNL A   1      36.849  30.475  27.597  1.00  0.00     0.014 A 
ATOM     38  C   UNL A   1      36.886  29.300  30.129  1.00  0.00     0.010 A 
ATOM     39  C   UNL A   1      38.037  29.956  28.105  1.00  0.00     0.010 A 
ATOM     40  C   UNL A   1      38.071  29.369  29.378  1.00  0.00    -0.014 A 
BRANCH  40  41
ATOM     41  C   UNL A   1      39.348  28.818  29.901  1.00  0.00     0.031 A 
ATOM     42  C   UNL A   1      40.006  29.433  31.107  1.00  0.00     0.074 A 
ATOM     43  C   UNL A   1      39.962  27.817  29.240  1.00  0.00     0.049 A 
ATOM     44  N   UNL A   1      41.147  29.128  31.669  1.00  0.00    -0.248 NA
ATOM     45  C   UNL A   1      39.304  30.556  31.749  1.00  0.00     0.031 C 
ATOM     46  C   UNL A   1      39.471  27.191  28.011  1.00  0.00     0.029 A 
ATOM     47  N   UNL A   1      41.148  27.171  29.490  1.00  0.00    -0.354 N 
ATOM     48  C   UNL A   1      41.314  30.035  32.709  1.00  0.00     0.074 A 
ATOM     49  C   UNL A   1      40.178  30.929  32.672  1.00  0.00     0.031 C 
ATOM     50  C   UNL A   1      40.347  26.255  27.612  1.00  0.00     0.029 A 
ATOM     51  C   UNL A   1      41.477  26.236  28.537  1.00  0.00     0.049 A 
ATOM     52  H   UNL A   1      41.708  27.359  30.277  1.00  0.00     0.167 HD
ATOM     53  C   UNL A   1      42.304  30.100  33.631  1.00  0.00     0.034 A 
ATOM     54  C   UNL A   1      42.570  25.459  28.410  1.00  0.00     0.034 A 
ATOM     55  C   UNL A   1      43.419  29.192  33.683  1.00  0.00     0.049 A 
ATOM     56  C   UNL A   1      43.642  25.525  29.464  1.00  0.00     0.074 A 
ATOM     57  C   UNL A   1      44.434  29.127  34.621  1.00  0.00     0.029 A 
ATOM     58  N   UNL A   1      43.673  28.197  32.752  1.00  0.00    -0.354 N 
ATOM     59  N   UNL A   1      43.706  26.288  30.528  1.00  0.00    -0.248 NA
ATOM     60  C   UNL A   1      44.774  24.598  29.321  1.00  0.00     0.031 C 
ATOM     61  C   UNL A   1      45.316  28.109  34.241  1.00  0.00     0.029 A 
ATOM     62  C   UNL A   1      44.832  27.517  33.086  1.00  0.00     0.049 A 
ATOM     63  H   UNL A   1      43.110  28.000  31.967  1.00  0.00     0.167 HD
ATOM     64  C   UNL A   1      44.864  25.912  31.199  1.00  0.00     0.074 A 
ATOM     65  C   UNL A   1      45.459  24.838  30.432  1.00  0.00     0.031 C 
ATOM     66  C   UNL A   1      45.393  26.420  32.340  1.00  0.00     0.034 A 
BRANCH  53  67
ATOM     67  C   UNL A   1      42.197  31.165  34.694  1.00  0.00     0.023 A 
ATOM     68  C   UNL A   1      41.669  30.832  35.959  1.00  0.00     0.012 A 
ATOM     69  C   UNL A   1      42.650  32.477  34.461  1.00  0.00     0.148 A 
ATOM     70  C   UNL A   1      41.553  31.797  36.960  1.00  0.00     0.002 A 
ATOM     71  C   UNL A   1      42.576  33.422  35.478  1.00  0.00     0.091 A 
ATOM     72  F   UNL A   1      43.132  32.782  33.248  1.00  0.00    -0.205 F 
ATOM     73  C   UNL A   1      42.015  33.088  36.722  1.00  0.00     0.022 A 
BRANCH  71  74
ATOM     74  S   UNL A   1      43.219  35.090  35.301  1.00  0.00     0.127 S 
ATOM     75  O   UNL A   1      42.673  35.479  34.000  1.00  0.00    -0.237 OA
ATOM     76  O   UNL A   1      42.616  35.776  36.444  1.00  0.00    -0.237 OA
ATOM     77  O   UNL A   1      44.669  34.970  35.359  1.00  0.00    -0.744 OA
ENDBRANCH  71  74
ENDBRANCH  53  67
BRANCH  54  78
ATOM     78  C   UNL A   1      42.676  24.514  27.263  1.00  0.00     0.023 A 
ATOM     79  C   UNL A   1      43.391  24.894  26.110  1.00  0.00     0.012 A 
ATOM     80  C   UNL A   1      42.110  23.227  27.326  1.00  0.00     0.148 A 
ATOM     81  C   UNL A   1      43.513  24.021  25.030  1.00  0.00     0.002 A 
ATOM     82  C   UNL A   1      42.285  22.340  26.271  1.00  0.00     0.091 A 
ATOM     83  F   UNL A   1      41.426  22.888  28.429  1.00  0.00    -0.205 F 
ATOM     84  C   UNL A   1      42.971  22.741  25.114  1.00  0.00     0.022 A 
BRANCH  82  85
ATOM     85  S   UNL A   1      41.741  20.630  26.348  1.00  0.00     0.127 S 
ATOM     86  O   UNL A   1      42.517  20.019  25.272  1.00  0.00    -0.237 OA
ATOM     87  O   UNL A   1      42.150  20.245  27.699  1.00  0.00    -0.237 OA
ATOM     88  O   UNL A   1      40.298  20.665  26.146  1.00  0.00    -0.744 OA
ENDBRANCH  82  85
ENDBRANCH  54  78
BRANCH  66  89
ATOM     89  C   UNL A   1      46.665  25.800  32.857  1.00  0.00     0.023 A 
ATOM     90  C   UNL A   1      46.613  24.826  33.873  1.00  0.00     0.012 A 
ATOM     91  C   UNL A   1      47.909  26.133  32.284  1.00  0.00     0.148 A 
ATOM     92  C   UNL A   1      47.781  24.218  34.334  1.00  0.00     0.002 A 
ATOM     93  C   UNL A   1      49.062  25.487  32.711  1.00  0.00     0.091 A 
ATOM     94  F   UNL A   1      47.941  27.077  31.330  1.00  0.00    -0.205 F 
ATOM     95  C   UNL A   1      49.002  24.539  33.746  1.00  0.00     0.022 A 
BRANCH  93  96
ATOM     96  S   UNL A   1      50.664  25.764  31.947  1.00  0.00     0.127 S 
ATOM     97  O   UNL A   1      50.827  27.207  32.112  1.00  0.00    -0.237 OA
ATOM     98  O   UNL A   1      51.549  24.949  32.780  1.00  0.00    -0.237 OA
ATOM     99  O   UNL A   1      50.537  25.304  30.571  1.00  0.00    -0.744 OA
ENDBRANCH  93  96
ENDBRANCH  66  89
ENDBRANCH  40  41
ENDBRANCH  32  35
ENDBRANCH  30  31
ENDBRANCH  29  30
ENDBRANCH  28  29
ENDBRANCH   1  28
TORSDOF 19
ENDMDL
MODEL 2
REMARK VINA RESULT:      -9.7      4.570      8.098
REMARK SMILES O=C(NCCCCCCNC(=O)c1ccc(-c2c3nc(c(-c4cccc(S(=O)(=O)[O-])c4F)c4ccc([nH]4)c(-c4cccc(S(=O)(=O)[O-])c4F)c4nc(c(-c5cccc(S(=O)(=O)[O-])c5F)c5ccc2[nH]5)C=C4)C=C3)cc1)c1ccc(/C=C/c2ccc3cccc(O)c3n2)cc1
REMARK SMILES IDX 6 1 5 2 4 3 3 4 1 5 2 6 76 8 77 9 94 10 78 11 93 12 79 13
REMARK SMILES IDX 80 14 81 15 82 16 83 17 92 18 84 19 91 20 85 21 89 22 86 23
REMARK SMILES IDX 88 24 87 25 90 26 7 28 8 29 9 30 10 31 11 32 12 34 13 35
REMARK SMILES IDX 14 36 75 37 15 38 74 39 16 40 17 41 18 42 68 43 19 44 73 45
REMARK SMILES IDX 67 46 69 47 20 48 72 49 66 50 65 51 21 53 53 54 33 55 52 56
REMARK SMILES IDX 34 57 37 58 51 59 70 60 35 61 36 62 50 64 71 65 38 66 22 67
REMARK SMILES IDX 23 68 31 69 24 70 26 71 32 72 25 73 27 74 28 75 29 76 30 77
REMARK SMILES IDX 54 78 55 79 63 80 56 81 58 82 64 83 57 84 59 85 60 86 61 87
REMARK SMILES IDX 62 88 39 89 40 90 48 91 41 92 43 93 49 94 42 95 44 96 45 97
REMARK SMILES IDX 46 98 47 99
REMARK H PARENT 3 7 90 27 10 33 69 52 37 63
REMARK Flexibility Score: inf
ROOT
ATOM      1  C   UNL A   1      35.123  33.444  27.849  1.00  0.00     0.002 C 
ENDROOT
BRANCH   1   2
ATOM      2  C   UNL A   1      35.800  32.136  28.280  1.00  0.00     0.021 C 
BRANCH   2   3
ATOM      3  C   UNL A   1      34.999  30.859  28.011  1.00  0.00     0.116 C 
BRANCH   3   4
ATOM      4  N   UNL A   1      33.583  31.140  27.869  1.00  0.00    -0.352 N 
ATOM      5  O   UNL A   1      31.567  31.153  26.880  1.00  0.00    -0.269 OA
ATOM      6  C   UNL A   1      32.668  30.619  26.998  1.00  0.00     0.251 C 
ATOM      7  H   UNL A   1      33.226  31.810  28.496  1.00  0.00     0.163 HD
BRANCH   6   8
ATOM      8  C   UNL A   1      32.978  29.427  26.181  1.00  0.00     0.039 A 
ATOM      9  C   UNL A   1      33.525  28.261  26.734  1.00  0.00     0.014 A 
ATOM     10  C   UNL A   1      32.588  29.446  24.844  1.00  0.00     0.014 A 
ATOM     11  C   UNL A   1      33.686  27.112  25.941  1.00  0.00     0.009 A 
ATOM     12  C   UNL A   1      32.750  28.302  24.064  1.00  0.00     0.009 A 
ATOM     13  C   UNL A   1      33.286  27.116  24.602  1.00  0.00    -0.026 A 
BRANCH  13  14
ATOM     14  C   UNL A   1      33.465  26.000  23.663  1.00  0.00     0.010 C 
ATOM     15  C   UNL A   1      32.572  25.214  23.025  1.00  0.00     0.029 C 
BRANCH  15  16
ATOM     16  C   UNL A   1      33.132  23.895  22.618  1.00  0.00     0.064 A 
ATOM     17  C   UNL A   1      32.287  22.853  22.988  1.00  0.00     0.029 A 
ATOM     18  N   UNL A   1      34.486  23.783  22.638  1.00  0.00    -0.245 NA
ATOM     19  C   UNL A   1      32.823  21.869  23.807  1.00  0.00     0.013 A 
ATOM     20  C   UNL A   1      35.008  22.755  23.348  1.00  0.00     0.113 A 
ATOM     21  C   UNL A   1      34.196  21.864  24.073  1.00  0.00     0.004 A 
ATOM     22  C   UNL A   1      36.387  22.576  23.448  1.00  0.00     0.141 A 
ATOM     23  C   UNL A   1      34.759  21.019  25.044  1.00  0.00     0.010 A 
ATOM     24  C   UNL A   1      36.965  21.690  24.357  1.00  0.00     0.048 A 
ATOM     25  C   UNL A   1      36.142  20.955  25.205  1.00  0.00     0.005 A 
BRANCH  22  26
ATOM     26  O   UNL A   1      37.227  23.290  22.628  1.00  0.00    -0.506 OA
ATOM     27  H   UNL A   1      38.076  22.954  22.418  1.00  0.00     0.293 HD
ENDBRANCH  22  26
ENDBRANCH  15  16
ENDBRANCH  13  14
ENDBRANCH   6   8
ENDBRANCH   3   4
ENDBRANCH   2   3
ENDBRANCH   1   2
BRANCH   1  28
ATOM     28  C   UNL A   1      34.894  34.474  28.959  1.00  0.00     0.002 C 
BRANCH  28  29
ATOM     29  C   UNL A   1      33.491  35.079  29.013  1.00  0.00     0.021 C 
BRANCH  29  30
ATOM     30  C   UNL A   1      33.386  36.411  29.750  1.00  0.00     0.116 C 
BRANCH  30  31
ATOM     31  N   UNL A   1      32.466  36.355  30.876  1.00  0.00    -0.352 N 
ATOM     32  C   UNL A   1      32.550  35.616  32.031  1.00  0.00     0.251 C 
ATOM     33  H   UNL A   1      31.669  36.929  30.798  1.00  0.00     0.163 HD
ATOM     34  O   UNL A   1      31.595  35.571  32.800  1.00  0.00    -0.269 OA
BRANCH  32  35
ATOM     35  C   UNL A   1      33.784  34.858  32.336  1.00  0.00     0.039 A 
ATOM     36  C   UNL A   1      34.994  35.551  32.435  1.00  0.00     0.014 A 
ATOM     37  C   UNL A   1      33.753  33.474  32.523  1.00  0.00     0.014 A 
ATOM     38  C   UNL A   1      36.160  34.863  32.782  1.00  0.00     0.010 A 
ATOM     39  C   UNL A   1      34.899  32.804  32.942  1.00  0.00     0.010 A 
ATOM     40  C   UNL A   1      36.117  33.489  33.071  1.00  0.00    -0.014 A 
BRANCH  40  41
ATOM     41  C   UNL A   1      37.329  32.756  33.522  1.00  0.00     0.031 A 
ATOM     42  C   UNL A   1      38.096  33.223  34.729  1.00  0.00     0.074 A 
ATOM     43  C   UNL A   1      37.789  31.719  32.795  1.00  0.00     0.049 A 
ATOM     44  N   UNL A   1      39.205  32.750  35.235  1.00  0.00    -0.248 NA
ATOM     45  C   UNL A   1      37.563  34.393  35.446  1.00  0.00     0.031 C 
ATOM     46  C   UNL A   1      37.185  31.221  31.557  1.00  0.00     0.029 A 
ATOM     47  N   UNL A   1      38.890  30.917  32.972  1.00  0.00    -0.354 N 
ATOM     48  C   UNL A   1      39.518  33.576  36.308  1.00  0.00     0.074 A 
ATOM     49  C   UNL A   1      38.505  34.607  36.353  1.00  0.00     0.031 C 
ATOM     50  C   UNL A   1      37.923  30.204  31.085  1.00  0.00     0.029 A 
ATOM     51  C   UNL A   1      39.068  29.996  31.967  1.00  0.00     0.049 A 
ATOM     52  H   UNL A   1      39.494  30.995  33.745  1.00  0.00     0.167 HD
ATOM     53  C   UNL A   1      40.536  33.470  37.196  1.00  0.00     0.034 A 
ATOM     54  C   UNL A   1      40.049  29.094  31.766  1.00  0.00     0.034 A 
ATOM     55  C   UNL A   1      41.527  32.427  37.167  1.00  0.00     0.049 A 
ATOM     56  C   UNL A   1      41.152  28.973  32.781  1.00  0.00     0.074 A 
ATOM     57  C   UNL A   1      42.553  32.188  38.064  1.00  0.00     0.029 A 
ATOM     58  N   UNL A   1      41.623  31.455  36.183  1.00  0.00    -0.354 N 
ATOM     59  N   UNL A   1      41.345  29.669  33.876  1.00  0.00    -0.248 NA
ATOM     60  C   UNL A   1      42.151  27.919  32.557  1.00  0.00     0.031 C 
ATOM     61  C   UNL A   1      43.286  31.087  37.607  1.00  0.00     0.029 A 
ATOM     62  C   UNL A   1      42.695  30.619  36.444  1.00  0.00     0.049 A 
ATOM     63  H   UNL A   1      41.016  31.370  35.411  1.00  0.00     0.167 HD
ATOM     64  C   UNL A   1      42.465  29.117  34.487  1.00  0.00     0.074 A 
ATOM     65  C   UNL A   1      42.895  28.015  33.651  1.00  0.00     0.031 C 
ATOM     66  C   UNL A   1      43.088  29.497  35.630  1.00  0.00     0.034 A 
BRANCH  53  67
ATOM     67  C   UNL A   1      40.597  34.487  38.309  1.00  0.00     0.023 A 
ATOM     68  C   UNL A   1      41.396  35.639  38.152  1.00  0.00     0.012 A 
ATOM     69  C   UNL A   1      39.840  34.329  39.485  1.00  0.00     0.148 A 
ATOM     70  C   UNL A   1      41.476  36.594  39.165  1.00  0.00     0.002 A 
ATOM     71  C   UNL A   1      39.886  35.308  40.471  1.00  0.00     0.091 A 
ATOM     72  F   UNL A   1      39.101  33.220  39.626  1.00  0.00    -0.205 F 
ATOM     73  C   UNL A   1      40.714  36.433  40.319  1.00  0.00     0.022 A 
BRANCH  71  74
ATOM     74  S   UNL A   1      38.882  35.235  41.958  1.00  0.00     0.127 S 
ATOM     75  O   UNL A   1      39.275  33.942  42.515  1.00  0.00    -0.237 OA
ATOM     76  O   UNL A   1      39.360  36.394  42.710  1.00  0.00    -0.237 OA
ATOM     77  O   UNL A   1      37.498  35.329  41.512  1.00  0.00    -0.744 OA
ENDBRANCH  71  74
ENDBRANCH  53  67
BRANCH  54  78
ATOM     78  C   UNL A   1      39.999  28.202  30.574  1.00  0.00     0.023 A 
ATOM     79  C   UNL A   1      39.092  27.125  30.545  1.00  0.00     0.012 A 
ATOM     80  C   UNL A   1      40.816  28.442  29.452  1.00  0.00     0.148 A 
ATOM     81  C   UNL A   1      39.020  26.286  29.433  1.00  0.00     0.002 A 
ATOM     82  C   UNL A   1      40.698  27.638  28.325  1.00  0.00     0.091 A 
ATOM     83  F   UNL A   1      41.679  29.467  29.503  1.00  0.00    -0.205 F 
ATOM     84  C   UNL A   1      39.813  26.548  28.320  1.00  0.00     0.022 A 
BRANCH  82  85
ATOM     85  S   UNL A   1      41.579  27.983  26.798  1.00  0.00     0.127 S 
ATOM     86  O   UNL A   1      42.969  27.970  27.244  1.00  0.00    -0.237 OA
ATOM     87  O   UNL A   1      41.188  26.848  25.962  1.00  0.00    -0.237 OA
ATOM     88  O   UNL A   1      41.076  29.270  26.334  1.00  0.00    -0.744 OA
ENDBRANCH  82  85
ENDBRANCH  54  78
BRANCH  66  89
ATOM     89  C   UNL A   1      44.287  28.698  36.072  1.00  0.00     0.023 A 
ATOM     90  C   UNL A   1      45.584  29.121  35.722  1.00  0.00     0.012 A 
ATOM     91  C   UNL A   1      44.129  27.566  36.896  1.00  0.00     0.148 A 
ATOM     92  C   UNL A   1      46.703  28.411  36.157  1.00  0.00     0.002 A 
ATOM     93  C   UNL A   1      45.249  26.893  37.368  1.00  0.00     0.091 A 
ATOM     94  F   UNL A   1      42.885  27.168  37.203  1.00  0.00    -0.205 F 
ATOM     95  C   UNL A   1      46.537  27.306  36.989  1.00  0.00     0.022 A 
BRANCH  93  96
ATOM     96  S   UNL A   1      45.136  25.520  38.521  1.00  0.00     0.127 S 
ATOM     97  O   UNL A   1      44.304  24.576  37.778  1.00  0.00    -0.237 OA
ATOM     98  O   UNL A   1      46.537  25.119  38.662  1.00  0.00    -0.237 OA
ATOM     99  O   UNL A   1      44.538  26.061  39.733  1.00  0.00    -0.744 OA
ENDBRANCH  93  96
ENDBRANCH  66  89
ENDBRANCH  40  41
ENDBRANCH  32  35
ENDBRANCH  30  31
ENDBRANCH  29  30
ENDBRANCH  28  29
ENDBRANCH   1  28
TORSDOF 19
ENDMDL
MODEL 3
REMARK VINA RESULT:      -9.7      1.801      2.263
REMARK SMILES O=C(NCCCCCCNC(=O)c1ccc(-c2c3nc(c(-c4cccc(S(=O)(=O)[O-])c4F)c4ccc([nH]4)c(-c4cccc(S(=O)(=O)[O-])c4F)c4nc(c(-c5cccc(S(=O)(=O)[O-])c5F)c5ccc2[nH]5)C=C4)C=C3)cc1)c1ccc(/C=C/c2ccc3cccc(O)c3n2)cc1
REMARK SMILES IDX 6 1 5 2 4 3 3 4 1 5 2 6 76 8 77 9 94 10 78 11 93 12 79 13
REMARK SMILES IDX 80 14 81 15 82 16 83 17 92 18 84 19 91 20 85 21 89 22 86 23
REMARK SMILES IDX 88 24 87 25 90 26 7 28 8 29 9 30 10 31 11 32 12 34 13 35
REMARK SMILES IDX 14 36 75 37 15 38 74 39 16 40 17 41 18 42 68 43 19 44 73 45
REMARK SMILES IDX 67 46 69 47 20 48 72 49 66 50 65 51 21 53 53 54 33 55 52 56
REMARK SMILES IDX 34 57 37 58 51 59 70 60 35 61 36 62 50 64 71 65 38 66 22 67
REMARK SMILES IDX 23 68 31 69 24 70 26 71 32 72 25 73 27 74 28 75 29 76 30 77
REMARK SMILES IDX 54 78 55 79 63 80 56 81 58 82 64 83 57 84 59 85 60 86 61 87
REMARK SMILES IDX 62 88 39 89 40 90 48 91 41 92 43 93 49 94 42 95 44 96 45 97
REMARK SMILES IDX 46 98 47 99
REMARK H PARENT 3 7 90 27 10 33 69 52 37 63
REMARK Flexibility Score: inf
ROOT
ATOM      1  C   UNL A   1      33.019  35.910  30.197  1.00  0.00     0.002 C 
ENDROOT
BRANCH   1   2
ATOM      2  C   UNL A   1      33.235  35.544  31.671  1.00  0.00     0.021 C 
BRANCH   2   3
ATOM      3  C   UNL A   1      34.026  34.257  31.923  1.00  0.00     0.116 C 
BRANCH   3   4
ATOM      4  N   UNL A   1      34.610  34.244  33.252  1.00  0.00    -0.352 N 
ATOM      5  O   UNL A   1      36.162  33.844  34.824  1.00  0.00    -0.269 OA
ATOM      6  C   UNL A   1      35.906  34.047  33.639  1.00  0.00     0.251 C 
ATOM      7  H   UNL A   1      33.974  34.401  33.987  1.00  0.00     0.163 HD
BRANCH   6   8
ATOM      8  C   UNL A   1      37.011  34.062  32.659  1.00  0.00     0.039 A 
ATOM      9  C   UNL A   1      36.804  33.834  31.292  1.00  0.00     0.014 A 
ATOM     10  C   UNL A   1      38.270  34.441  33.117  1.00  0.00     0.014 A 
ATOM     11  C   UNL A   1      37.865  33.981  30.382  1.00  0.00     0.009 A 
ATOM     12  C   UNL A   1      39.318  34.586  32.210  1.00  0.00     0.009 A 
ATOM     13  C   UNL A   1      39.129  34.374  30.830  1.00  0.00    -0.026 A 
BRANCH  13  14
ATOM     14  C   UNL A   1      40.325  34.496  29.985  1.00  0.00     0.010 C 
ATOM     15  C   UNL A   1      41.607  34.126  30.188  1.00  0.00     0.029 C 
BRANCH  15  16
ATOM     16  C   UNL A   1      42.581  34.896  29.365  1.00  0.00     0.064 A 
ATOM     17  C   UNL A   1      41.947  35.906  28.647  1.00  0.00     0.029 A 
ATOM     18  N   UNL A   1      43.637  34.199  28.871  1.00  0.00    -0.245 NA
ATOM     19  C   UNL A   1      42.096  35.886  27.267  1.00  0.00     0.013 A 
ATOM     20  C   UNL A   1      43.850  34.267  27.535  1.00  0.00     0.113 A 
ATOM     21  C   UNL A   1      42.995  34.989  26.683  1.00  0.00     0.004 A 
ATOM     22  C   UNL A   1      44.893  33.562  26.935  1.00  0.00     0.141 A 
ATOM     23  C   UNL A   1      43.043  34.788  25.293  1.00  0.00     0.010 A 
ATOM     24  C   UNL A   1      44.997  33.410  25.553  1.00  0.00     0.048 A 
ATOM     25  C   UNL A   1      44.026  33.974  24.732  1.00  0.00     0.005 A 
BRANCH  22  26
ATOM     26  O   UNL A   1      45.865  32.989  27.718  1.00  0.00    -0.506 OA
ATOM     27  H   UNL A   1      46.145  32.110  27.551  1.00  0.00     0.293 HD
ENDBRANCH  22  26
ENDBRANCH  15  16
ENDBRANCH  13  14
ENDBRANCH   6   8
ENDBRANCH   3   4
ENDBRANCH   2   3
ENDBRANCH   1   2
BRANCH   1  28
ATOM     28  C   UNL A   1      34.012  35.296  29.206  1.00  0.00     0.002 C 
BRANCH  28  29
ATOM     29  C   UNL A   1      33.493  34.094  28.415  1.00  0.00     0.021 C 
BRANCH  29  30
ATOM     30  C   UNL A   1      34.405  32.872  28.416  1.00  0.00     0.116 C 
BRANCH  30  31
ATOM     31  N   UNL A   1      33.789  31.714  27.787  1.00  0.00    -0.352 N 
ATOM     32  C   UNL A   1      34.325  30.475  27.532  1.00  0.00     0.251 C 
ATOM     33  H   UNL A   1      32.854  31.837  27.504  1.00  0.00     0.163 HD
ATOM     34  O   UNL A   1      33.707  29.671  26.843  1.00  0.00    -0.269 OA
BRANCH  32  35
ATOM     35  C   UNL A   1      35.656  30.120  28.072  1.00  0.00     0.039 A 
ATOM     36  C   UNL A   1      35.746  29.624  29.376  1.00  0.00     0.014 A 
ATOM     37  C   UNL A   1      36.811  30.273  27.300  1.00  0.00     0.014 A 
ATOM     38  C   UNL A   1      36.986  29.226  29.882  1.00  0.00     0.010 A 
ATOM     39  C   UNL A   1      38.033  29.806  27.779  1.00  0.00     0.010 A 
ATOM     40  C   UNL A   1      38.136  29.283  29.077  1.00  0.00    -0.014 A 
BRANCH  40  41
ATOM     41  C   UNL A   1      39.447  28.787  29.568  1.00  0.00     0.031 A 
ATOM     42  C   UNL A   1      40.179  29.520  30.660  1.00  0.00     0.074 A 
ATOM     43  C   UNL A   1      40.022  27.722  28.974  1.00  0.00     0.049 A 
ATOM     44  N   UNL A   1      41.356  29.273  31.174  1.00  0.00    -0.248 NA
ATOM     45  C   UNL A   1      39.515  30.704  31.229  1.00  0.00     0.031 C 
ATOM     46  C   UNL A   1      39.455  26.975  27.850  1.00  0.00     0.029 A 
ATOM     47  N   UNL A   1      41.225  27.103  29.210  1.00  0.00    -0.354 N 
ATOM     48  C   UNL A   1      41.586  30.281  32.103  1.00  0.00     0.074 A 
ATOM     49  C   UNL A   1      40.445  31.168  32.050  1.00  0.00     0.031 C 
ATOM     50  C   UNL A   1      40.309  26.003  27.492  1.00  0.00     0.029 A 
ATOM     51  C   UNL A   1      41.496  26.076  28.338  1.00  0.00     0.049 A 
ATOM     52  H   UNL A   1      41.835  27.371  29.935  1.00  0.00     0.167 HD
ATOM     53  C   UNL A   1      42.633  30.438  32.947  1.00  0.00     0.034 A 
ATOM     54  C   UNL A   1      42.583  25.289  28.220  1.00  0.00     0.034 A 
ATOM     55  C   UNL A   1      43.754  29.538  33.018  1.00  0.00     0.049 A 
ATOM     56  C   UNL A   1      43.722  25.461  29.188  1.00  0.00     0.074 A 
ATOM     57  C   UNL A   1      44.828  29.568  33.890  1.00  0.00     0.029 A 
ATOM     58  N   UNL A   1      43.952  28.453  32.179  1.00  0.00    -0.354 N 
ATOM     59  N   UNL A   1      43.850  26.328  30.163  1.00  0.00    -0.248 NA
ATOM     60  C   UNL A   1      44.846  24.523  29.067  1.00  0.00     0.031 C 
ATOM     61  C   UNL A   1      45.689  28.516  33.559  1.00  0.00     0.029 A 
ATOM     62  C   UNL A   1      45.134  27.810  32.504  1.00  0.00     0.049 A 
ATOM     63  H   UNL A   1      43.340  28.179  31.456  1.00  0.00     0.167 HD
ATOM     64  C   UNL A   1      45.051  26.021  30.792  1.00  0.00     0.074 A 
ATOM     65  C   UNL A   1      45.601  24.873  30.100  1.00  0.00     0.031 C 
ATOM     66  C   UNL A   1      45.651  26.641  31.838  1.00  0.00     0.034 A 
BRANCH  53  67
ATOM     67  C   UNL A   1      42.589  31.606  33.901  1.00  0.00     0.023 A 
ATOM     68  C   UNL A   1      43.050  32.869  33.473  1.00  0.00     0.012 A 
ATOM     69  C   UNL A   1      42.059  31.470  35.198  1.00  0.00     0.148 A 
ATOM     70  C   UNL A   1      43.026  33.966  34.333  1.00  0.00     0.002 A 
ATOM     71  C   UNL A   1      41.993  32.579  36.035  1.00  0.00     0.091 A 
ATOM     72  F   UNL A   1      41.642  30.260  35.595  1.00  0.00    -0.205 F 
ATOM     73  C   UNL A   1      42.489  33.823  35.610  1.00  0.00     0.022 A 
BRANCH  71  74
ATOM     74  S   UNL A   1      41.245  32.519  37.666  1.00  0.00     0.127 S 
ATOM     75  O   UNL A   1      42.072  31.513  38.332  1.00  0.00    -0.237 OA
ATOM     76  O   UNL A   1      41.443  33.886  38.147  1.00  0.00    -0.237 OA
ATOM     77  O   UNL A   1      39.853  32.144  37.456  1.00  0.00    -0.744 OA
ENDBRANCH  71  74
ENDBRANCH  53  67
BRANCH  54  78
ATOM     78  C   UNL A   1      42.620  24.232  27.169  1.00  0.00     0.023 A 
ATOM     79  C   UNL A   1      43.299  24.473  25.960  1.00  0.00     0.012 A 
ATOM     80  C   UNL A   1      42.020  22.975  27.382  1.00  0.00     0.148 A 
ATOM     81  C   UNL A   1      43.357  23.493  24.969  1.00  0.00     0.002 A 
ATOM     82  C   UNL A   1      42.131  21.984  26.416  1.00  0.00     0.091 A 
ATOM     83  F   UNL A   1      41.370  22.769  28.536  1.00  0.00    -0.205 F 
ATOM     84  C   UNL A   1      42.783  22.245  25.200  1.00  0.00     0.022 A 
BRANCH  82  85
ATOM     85  S   UNL A   1      41.543  20.308  26.683  1.00  0.00     0.127 S 
ATOM     86  O   UNL A   1      41.926  19.652  25.435  1.00  0.00    -0.237 OA
ATOM     87  O   UNL A   1      42.318  19.901  27.856  1.00  0.00    -0.237 OA
ATOM     88  O   UNL A   1      40.111  20.424  26.922  1.00  0.00    -0.744 OA
ENDBRANCH  82  85
ENDBRANCH  54  78
BRANCH  66  89
ATOM     89  C   UNL A   1      46.958  26.076  32.331  1.00  0.00     0.023 A 
ATOM     90  C   UNL A   1      48.175  26.558  31.809  1.00  0.00     0.012 A 
ATOM     91  C   UNL A   1      46.981  25.118  33.364  1.00  0.00     0.148 A 
ATOM     92  C   UNL A   1      49.392  26.071  32.284  1.00  0.00     0.002 A 
ATOM     93  C   UNL A   1      48.197  24.674  33.868  1.00  0.00     0.091 A 
ATOM     94  F   UNL A   1      45.811  24.659  33.835  1.00  0.00    -0.205 F 
ATOM     95  C   UNL A   1      49.404  25.139  33.320  1.00  0.00     0.022 A 
BRANCH  93  96
ATOM     96  S   UNL A   1      48.311  23.551  35.265  1.00  0.00     0.127 S 
ATOM     97  O   UNL A   1      47.689  22.343  34.727  1.00  0.00    -0.237 OA
ATOM     98  O   UNL A   1      49.757  23.455  35.468  1.00  0.00    -0.237 OA
ATOM     99  O   UNL A   1      47.590  24.192  36.356  1.00  0.00    -0.744 OA
ENDBRANCH  93  96
ENDBRANCH  66  89
ENDBRANCH  40  41
ENDBRANCH  32  35
ENDBRANCH  30  31
ENDBRANCH  29  30
ENDBRANCH  28  29
ENDBRANCH   1  28
TORSDOF 19
ENDMDL
