MODEL 1
REMARK VINA RESULT:     -11.7      0.000      0.000
REMARK SMILES C[C@@H](C(=O)NCCCCCCNC(=O)c1ccc(-c2c3nc(c(-c4cccc(S(=O)(=O)[O-])c4F)c4ccc([nH]4)c(-c4cccc(S(=O)(=O)[O-])c4F)c4nc(c(-c5cccc(S(=O)(=O)[O-])c5F)c5ccc2[nH]5)C=C4)C=C3)cc1)n1ccc(C(=O)N2CC[NH+](Cc3cccc(F)c3)CC2)n1
REMARK SMILES IDX 8 1 7 2 6 3 5 4 3 5 4 6 2 8 1 9 78 10 79 11 98 12 80 13
REMARK SMILES IDX 81 14 82 15 83 16 84 17 85 18 97 19 86 20 96 21 87 22 88 24
REMARK SMILES IDX 89 25 90 26 95 27 91 28 93 29 92 30 94 31 9 32 10 33 11 34
REMARK SMILES IDX 12 35 13 36 14 38 15 39 16 40 77 41 17 42 76 43 18 44 19 45
REMARK SMILES IDX 20 46 70 47 21 48 75 49 69 50 71 51 22 52 74 53 68 54 67 55
REMARK SMILES IDX 23 57 55 58 35 59 54 60 36 61 39 62 53 63 72 64 37 65 38 66
REMARK SMILES IDX 52 68 73 69 40 70 24 71 25 72 33 73 26 74 28 75 34 76 27 77
REMARK SMILES IDX 29 78 30 79 31 80 32 81 56 82 57 83 65 84 58 85 60 86 66 87
REMARK SMILES IDX 59 88 61 89 62 90 63 91 64 92 41 93 42 94 50 95 43 96 45 97
REMARK SMILES IDX 51 98 44 99 46 100 47 101 48 102 49 103
REMARK H PARENT 5 7 87 23 12 37 71 56 39 67
REMARK Flexibility Score: inf
ROOT
ATOM      1  C   UNL A   1      35.036  30.438  28.324  1.00  0.00     0.002 C 
ENDROOT
BRANCH   1   2
ATOM      2  C   UNL A   1      35.016  29.314  27.280  1.00  0.00     0.021 C 
BRANCH   2   3
ATOM      3  C   UNL A   1      33.708  29.210  26.493  1.00  0.00     0.116 C 
BRANCH   3   4
ATOM      4  N   UNL A   1      33.978  29.110  25.071  1.00  0.00    -0.354 N 
ATOM      5  C   UNL A   1      33.111  29.102  24.015  1.00  0.00     0.244 C 
ATOM      6  O   UNL A   1      33.580  28.814  22.912  1.00  0.00    -0.273 OA
ATOM      7  H   UNL A   1      34.930  29.038  24.831  1.00  0.00     0.163 HD
BRANCH   5   8
ATOM      8  C   UNL A   1      31.644  29.459  24.241  1.00  0.00     0.193 C 
ATOM      9  C   UNL A   1      31.412  30.333  25.471  1.00  0.00     0.044 C 
BRANCH   8  10
ATOM     10  N   UNL A   1      30.820  28.252  24.306  1.00  0.00    -0.260 N 
ATOM     11  C   UNL A   1      29.926  27.796  23.379  1.00  0.00     0.110 A 
ATOM     12  N   UNL A   1      31.023  27.384  25.315  1.00  0.00    -0.167 NA
ATOM     13  C   UNL A   1      29.532  26.555  23.811  1.00  0.00     0.056 A 
ATOM     14  C   UNL A   1      30.230  26.335  25.028  1.00  0.00     0.150 A 
BRANCH  14  15
ATOM     15  C   UNL A   1      30.217  25.102  25.830  1.00  0.00     0.274 C 
ATOM     16  O   UNL A   1      29.475  25.010  26.813  1.00  0.00    -0.267 OA
ATOM     17  N   UNL A   1      31.044  24.038  25.440  1.00  0.00    -0.326 N 
ATOM     18  C   UNL A   1      30.804  22.765  26.102  1.00  0.00     0.181 C 
ATOM     19  C   UNL A   1      32.389  24.272  24.902  1.00  0.00     0.181 C 
ATOM     20  C   UNL A   1      31.534  21.567  25.474  1.00  0.00     0.284 C 
ATOM     21  C   UNL A   1      33.077  23.020  24.325  1.00  0.00     0.284 C 
ATOM     22  N   UNL A   1      32.933  21.784  25.101  1.00  0.00    -0.328 N 
ATOM     23  H   UNL A   1      33.184  21.022  24.472  1.00  0.00     0.348 HD
BRANCH  22  24
ATOM     24  C   UNL A   1      33.936  21.538  26.137  1.00  0.00     0.299 C 
BRANCH  24  25
ATOM     25  C   UNL A   1      35.393  21.677  25.762  1.00  0.00     0.009 A 
ATOM     26  C   UNL A   1      36.088  22.873  26.005  1.00  0.00     0.010 A 
ATOM     27  C   UNL A   1      36.086  20.609  25.175  1.00  0.00     0.048 A 
ATOM     28  C   UNL A   1      37.457  22.974  25.739  1.00  0.00     0.004 A 
ATOM     29  C   UNL A   1      37.451  20.714  24.926  1.00  0.00     0.123 A 
ATOM     30  C   UNL A   1      38.144  21.882  25.214  1.00  0.00     0.039 A 
ATOM     31  F   UNL A   1      38.110  19.664  24.417  1.00  0.00    -0.207 F 
ENDBRANCH  24  25
ENDBRANCH  22  24
ENDBRANCH  14  15
ENDBRANCH   8  10
ENDBRANCH   5   8
ENDBRANCH   3   4
ENDBRANCH   2   3
ENDBRANCH   1   2
BRANCH   1  32
ATOM     32  C   UNL A   1      34.986  31.857  27.752  1.00  0.00     0.002 C 
BRANCH  32  33
ATOM     33  C   UNL A   1      33.680  32.615  28.005  1.00  0.00     0.021 C 
BRANCH  33  34
ATOM     34  C   UNL A   1      33.781  34.132  27.875  1.00  0.00     0.116 C 
BRANCH  34  35
ATOM     35  N   UNL A   1      33.193  34.823  29.010  1.00  0.00    -0.352 N 
ATOM     36  C   UNL A   1      33.505  34.717  30.342  1.00  0.00     0.251 C 
ATOM     37  H   UNL A   1      32.469  35.455  28.794  1.00  0.00     0.163 HD
ATOM     38  O   UNL A   1      32.786  35.254  31.183  1.00  0.00    -0.269 OA
BRANCH  36  39
ATOM     39  C   UNL A   1      34.691  33.943  30.770  1.00  0.00     0.039 A 
ATOM     40  C   UNL A   1      35.960  34.388  30.388  1.00  0.00     0.014 A 
ATOM     41  C   UNL A   1      34.555  32.773  31.523  1.00  0.00     0.014 A 
ATOM     42  C   UNL A   1      37.095  33.682  30.796  1.00  0.00     0.010 A 
ATOM     43  C   UNL A   1      35.690  32.104  31.978  1.00  0.00     0.010 A 
ATOM     44  C   UNL A   1      36.970  32.545  31.609  1.00  0.00    -0.014 A 
BRANCH  44  45
ATOM     45  C   UNL A   1      38.166  31.797  32.075  1.00  0.00     0.031 A 
ATOM     46  C   UNL A   1      38.829  32.164  33.374  1.00  0.00     0.074 A 
ATOM     47  C   UNL A   1      38.702  30.842  31.290  1.00  0.00     0.049 A 
ATOM     48  N   UNL A   1      39.897  31.651  33.927  1.00  0.00    -0.248 NA
ATOM     49  C   UNL A   1      38.230  33.271  34.140  1.00  0.00     0.031 C 
ATOM     50  C   UNL A   1      38.199  30.449  29.972  1.00  0.00     0.029 A 
ATOM     51  N   UNL A   1      39.802  30.045  31.477  1.00  0.00    -0.354 N 
ATOM     52  C   UNL A   1      40.121  32.392  35.081  1.00  0.00     0.074 A 
ATOM     53  C   UNL A   1      39.095  33.411  35.134  1.00  0.00     0.031 C 
ATOM     54  C   UNL A   1      38.983  29.481  29.473  1.00  0.00     0.029 A 
ATOM     55  C   UNL A   1      40.053  29.194  30.426  1.00  0.00     0.049 A 
ATOM     56  H   UNL A   1      40.359  30.077  32.288  1.00  0.00     0.167 HD
ATOM     57  C   UNL A   1      41.074  32.222  36.029  1.00  0.00     0.034 A 
ATOM     58  C   UNL A   1      41.028  28.281  30.254  1.00  0.00     0.034 A 
ATOM     59  C   UNL A   1      42.052  31.168  36.008  1.00  0.00     0.049 A 
ATOM     60  C   UNL A   1      42.033  28.065  31.353  1.00  0.00     0.074 A 
ATOM     61  C   UNL A   1      42.992  30.847  36.971  1.00  0.00     0.029 A 
ATOM     62  N   UNL A   1      42.213  30.262  34.973  1.00  0.00    -0.354 N 
ATOM     63  N   UNL A   1      42.123  28.663  32.517  1.00  0.00    -0.248 NA
ATOM     64  C   UNL A   1      43.048  27.024  31.133  1.00  0.00     0.031 C 
ATOM     65  C   UNL A   1      43.725  29.746  36.514  1.00  0.00     0.029 A 
ATOM     66  C   UNL A   1      43.239  29.381  35.270  1.00  0.00     0.049 A 
ATOM     67  H   UNL A   1      41.677  30.246  34.147  1.00  0.00     0.167 HD
ATOM     68  C   UNL A   1      43.176  28.046  33.183  1.00  0.00     0.074 A 
ATOM     69  C   UNL A   1      43.683  27.016  32.298  1.00  0.00     0.031 C 
ATOM     70  C   UNL A   1      43.689  28.319  34.407  1.00  0.00     0.034 A 
BRANCH  57  71
ATOM     71  C   UNL A   1      41.056  33.157  37.208  1.00  0.00     0.023 A 
ATOM     72  C   UNL A   1      40.170  32.904  38.275  1.00  0.00     0.012 A 
ATOM     73  C   UNL A   1      41.938  34.252  37.288  1.00  0.00     0.148 A 
ATOM     74  C   UNL A   1      40.137  33.744  39.387  1.00  0.00     0.002 A 
ATOM     75  C   UNL A   1      41.926  35.064  38.418  1.00  0.00     0.091 A 
ATOM     76  F   UNL A   1      42.755  34.495  36.253  1.00  0.00    -0.205 F 
ATOM     77  C   UNL A   1      41.021  34.817  39.463  1.00  0.00     0.022 A 
BRANCH  75  78
ATOM     78  S   UNL A   1      43.078  36.426  38.629  1.00  0.00     0.127 S 
ATOM     79  O   UNL A   1      42.781  37.249  37.458  1.00  0.00    -0.237 OA
ATOM     80  O   UNL A   1      42.650  37.004  39.904  1.00  0.00    -0.237 OA
ATOM     81  O   UNL A   1      44.402  35.820  38.659  1.00  0.00    -0.744 OA
ENDBRANCH  75  78
ENDBRANCH  57  71
BRANCH  58  82
ATOM     82  C   UNL A   1      41.036  27.426  29.033  1.00  0.00     0.023 A 
ATOM     83  C   UNL A   1      40.084  26.395  28.917  1.00  0.00     0.012 A 
ATOM     84  C   UNL A   1      41.940  27.649  27.977  1.00  0.00     0.148 A 
ATOM     85  C   UNL A   1      40.049  25.583  27.783  1.00  0.00     0.002 A 
ATOM     86  C   UNL A   1      41.867  26.869  26.828  1.00  0.00     0.091 A 
ATOM     87  F   UNL A   1      42.849  28.626  28.113  1.00  0.00    -0.205 F 
ATOM     88  C   UNL A   1      40.931  25.827  26.735  1.00  0.00     0.022 A 
BRANCH  86  89
ATOM     89  S   UNL A   1      42.879  27.203  25.382  1.00  0.00     0.127 S 
ATOM     90  O   UNL A   1      44.186  27.462  25.984  1.00  0.00    -0.237 OA
ATOM     91  O   UNL A   1      42.780  25.944  24.641  1.00  0.00    -0.237 OA
ATOM     92  O   UNL A   1      42.245  28.334  24.720  1.00  0.00    -0.744 OA
ENDBRANCH  86  89
ENDBRANCH  58  82
BRANCH  70  93
ATOM     93  C   UNL A   1      44.842  27.477  34.884  1.00  0.00     0.023 A 
ATOM     94  C   UNL A   1      46.159  27.944  34.712  1.00  0.00     0.012 A 
ATOM     95  C   UNL A   1      44.619  26.266  35.569  1.00  0.00     0.148 A 
ATOM     96  C   UNL A   1      47.240  27.204  35.191  1.00  0.00     0.002 A 
ATOM     97  C   UNL A   1      45.699  25.556  36.079  1.00  0.00     0.091 A 
ATOM     98  F   UNL A   1      43.359  25.825  35.701  1.00  0.00    -0.205 F 
ATOM     99  C   UNL A   1      47.010  26.018  35.885  1.00  0.00     0.022 A 
BRANCH  97 100
ATOM    100  S   UNL A   1      45.478  24.066  37.061  1.00  0.00     0.127 S 
ATOM    101  O   UNL A   1      46.852  23.752  37.443  1.00  0.00    -0.237 OA
ATOM    102  O   UNL A   1      44.632  24.535  38.161  1.00  0.00    -0.237 OA
ATOM    103  O   UNL A   1      44.830  23.107  36.176  1.00  0.00    -0.744 OA
ENDBRANCH  97 100
ENDBRANCH  70  93
ENDBRANCH  44  45
ENDBRANCH  36  39
ENDBRANCH  34  35
ENDBRANCH  33  34
ENDBRANCH  32  33
ENDBRANCH   1  32
TORSDOF 20
ENDMDL
MODEL 2
REMARK VINA RESULT:     -11.4      5.469     11.275
REMARK SMILES C[C@@H](C(=O)NCCCCCCNC(=O)c1ccc(-c2c3nc(c(-c4cccc(S(=O)(=O)[O-])c4F)c4ccc([nH]4)c(-c4cccc(S(=O)(=O)[O-])c4F)c4nc(c(-c5cccc(S(=O)(=O)[O-])c5F)c5ccc2[nH]5)C=C4)C=C3)cc1)n1ccc(C(=O)N2CC[NH+](Cc3cccc(F)c3)CC2)n1
REMARK SMILES IDX 8 1 7 2 6 3 5 4 3 5 4 6 2 8 1 9 78 10 79 11 98 12 80 13
REMARK SMILES IDX 81 14 82 15 83 16 84 17 85 18 97 19 86 20 96 21 87 22 88 24
REMARK SMILES IDX 89 25 90 26 95 27 91 28 93 29 92 30 94 31 9 32 10 33 11 34
REMARK SMILES IDX 12 35 13 36 14 38 15 39 16 40 77 41 17 42 76 43 18 44 19 45
REMARK SMILES IDX 20 46 70 47 21 48 75 49 69 50 71 51 22 52 74 53 68 54 67 55
REMARK SMILES IDX 23 57 55 58 35 59 54 60 36 61 39 62 53 63 72 64 37 65 38 66
REMARK SMILES IDX 52 68 73 69 40 70 24 71 25 72 33 73 26 74 28 75 34 76 27 77
REMARK SMILES IDX 29 78 30 79 31 80 32 81 56 82 57 83 65 84 58 85 60 86 66 87
REMARK SMILES IDX 59 88 61 89 62 90 63 91 64 92 41 93 42 94 50 95 43 96 45 97
REMARK SMILES IDX 51 98 44 99 46 100 47 101 48 102 49 103
REMARK H PARENT 5 7 87 23 12 37 71 56 39 67
REMARK Flexibility Score: inf
ROOT
ATOM      1  C   UNL A   1      38.567  23.602  26.435  1.00  0.00     0.002 C 
ENDROOT
BRANCH   1   2
ATOM      2  C   UNL A   1      37.447  23.040  25.549  1.00  0.00     0.021 C 
BRANCH   2   3
ATOM      3  C   UNL A   1      36.199  23.922  25.479  1.00  0.00     0.116 C 
BRANCH   3   4
ATOM      4  N   UNL A   1      35.180  23.432  26.387  1.00  0.00    -0.354 N 
ATOM      5  C   UNL A   1      33.858  23.173  26.159  1.00  0.00     0.244 C 
ATOM      6  O   UNL A   1      33.157  22.945  27.147  1.00  0.00    -0.273 OA
ATOM      7  H   UNL A   1      35.487  23.259  27.306  1.00  0.00     0.163 HD
BRANCH   5   8
ATOM      8  C   UNL A   1      33.328  23.159  24.728  1.00  0.00     0.193 C 
ATOM      9  C   UNL A   1      34.032  22.148  23.827  1.00  0.00     0.044 C 
BRANCH   8  10
ATOM     10  N   UNL A   1      33.384  24.498  24.140  1.00  0.00    -0.260 N 
ATOM     11  C   UNL A   1      33.792  24.845  22.883  1.00  0.00     0.110 A 
ATOM     12  N   UNL A   1      32.861  25.529  24.829  1.00  0.00    -0.167 NA
ATOM     13  C   UNL A   1      33.510  26.181  22.749  1.00  0.00     0.056 A 
ATOM     14  C   UNL A   1      32.938  26.577  23.987  1.00  0.00     0.150 A 
BRANCH  14  15
ATOM     15  C   UNL A   1      32.380  27.899  24.307  1.00  0.00     0.274 C 
ATOM     16  O   UNL A   1      31.564  28.428  23.545  1.00  0.00    -0.267 OA
ATOM     17  N   UNL A   1      32.777  28.526  25.497  1.00  0.00    -0.326 N 
ATOM     18  C   UNL A   1      32.008  29.697  25.892  1.00  0.00     0.181 C 
ATOM     19  C   UNL A   1      34.157  28.433  25.988  1.00  0.00     0.181 C 
ATOM     20  C   UNL A   1      32.288  30.199  27.317  1.00  0.00     0.284 C 
ATOM     21  C   UNL A   1      34.373  28.992  27.407  1.00  0.00     0.284 C 
ATOM     22  N   UNL A   1      33.696  30.254  27.718  1.00  0.00    -0.328 N 
ATOM     23  H   UNL A   1      33.701  30.337  28.735  1.00  0.00     0.348 HD
BRANCH  22  24
ATOM     24  C   UNL A   1      34.422  31.485  27.405  1.00  0.00     0.299 C 
BRANCH  24  25
ATOM     25  C   UNL A   1      34.448  32.578  28.448  1.00  0.00     0.009 A 
ATOM     26  C   UNL A   1      34.297  33.926  28.081  1.00  0.00     0.010 A 
ATOM     27  C   UNL A   1      34.608  32.269  29.805  1.00  0.00     0.048 A 
ATOM     28  C   UNL A   1      34.233  34.929  29.052  1.00  0.00     0.004 A 
ATOM     29  C   UNL A   1      34.529  33.272  30.765  1.00  0.00     0.123 A 
ATOM     30  C   UNL A   1      34.331  34.598  30.401  1.00  0.00     0.039 A 
ATOM     31  F   UNL A   1      34.628  32.953  32.063  1.00  0.00    -0.207 F 
ENDBRANCH  24  25
ENDBRANCH  22  24
ENDBRANCH  14  15
ENDBRANCH   8  10
ENDBRANCH   5   8
ENDBRANCH   3   4
ENDBRANCH   2   3
ENDBRANCH   1   2
BRANCH   1  32
ATOM     32  C   UNL A   1      39.653  22.597  26.827  1.00  0.00     0.002 C 
BRANCH  32  33
ATOM     33  C   UNL A   1      39.640  21.285  26.038  1.00  0.00     0.021 C 
BRANCH  33  34
ATOM     34  C   UNL A   1      40.163  20.071  26.799  1.00  0.00     0.116 C 
BRANCH  34  35
ATOM     35  N   UNL A   1      41.255  19.411  26.102  1.00  0.00    -0.352 N 
ATOM     36  C   UNL A   1      42.450  19.935  25.676  1.00  0.00     0.251 C 
ATOM     37  H   UNL A   1      41.118  18.456  25.908  1.00  0.00     0.163 HD
ATOM     38  O   UNL A   1      43.184  19.267  24.950  1.00  0.00    -0.269 OA
BRANCH  36  39
ATOM     39  C   UNL A   1      42.845  21.304  26.071  1.00  0.00     0.039 A 
ATOM     40  C   UNL A   1      42.922  22.296  25.088  1.00  0.00     0.014 A 
ATOM     41  C   UNL A   1      43.163  21.608  27.398  1.00  0.00     0.014 A 
ATOM     42  C   UNL A   1      43.276  23.599  25.443  1.00  0.00     0.010 A 
ATOM     43  C   UNL A   1      43.458  22.921  27.760  1.00  0.00     0.010 A 
ATOM     44  C   UNL A   1      43.529  23.927  26.785  1.00  0.00    -0.014 A 
BRANCH  44  45
ATOM     45  C   UNL A   1      43.881  25.313  27.184  1.00  0.00     0.031 A 
ATOM     46  C   UNL A   1      45.314  25.770  27.148  1.00  0.00     0.074 A 
ATOM     47  C   UNL A   1      42.923  26.135  27.656  1.00  0.00     0.049 A 
ATOM     48  N   UNL A   1      45.818  26.928  27.488  1.00  0.00    -0.248 NA
ATOM     49  C   UNL A   1      46.316  24.790  26.694  1.00  0.00     0.031 C 
ATOM     50  C   UNL A   1      41.511  25.783  27.815  1.00  0.00     0.029 A 
ATOM     51  N   UNL A   1      42.997  27.427  28.109  1.00  0.00    -0.354 N 
ATOM     52  C   UNL A   1      47.193  26.805  27.329  1.00  0.00     0.074 A 
ATOM     53  C   UNL A   1      47.448  25.451  26.889  1.00  0.00     0.031 C 
ATOM     54  C   UNL A   1      40.850  26.836  28.322  1.00  0.00     0.029 A 
ATOM     55  C   UNL A   1      41.792  27.932  28.539  1.00  0.00     0.049 A 
ATOM     56  H   UNL A   1      43.834  27.946  28.123  1.00  0.00     0.167 HD
ATOM     57  C   UNL A   1      48.155  27.743  27.501  1.00  0.00     0.034 A 
ATOM     58  C   UNL A   1      41.480  29.142  29.041  1.00  0.00     0.034 A 
ATOM     59  C   UNL A   1      47.894  29.107  27.875  1.00  0.00     0.049 A 
ATOM     60  C   UNL A   1      42.557  30.187  29.158  1.00  0.00     0.074 A 
ATOM     61  C   UNL A   1      48.787  30.158  27.975  1.00  0.00     0.029 A 
ATOM     62  N   UNL A   1      46.646  29.608  28.208  1.00  0.00    -0.354 N 
ATOM     63  N   UNL A   1      43.826  30.103  28.837  1.00  0.00    -0.248 NA
ATOM     64  C   UNL A   1      42.153  31.505  29.669  1.00  0.00     0.031 C 
ATOM     65  C   UNL A   1      48.077  31.297  28.372  1.00  0.00     0.029 A 
ATOM     66  C   UNL A   1      46.743  30.954  28.515  1.00  0.00     0.049 A 
ATOM     67  H   UNL A   1      45.812  29.084  28.223  1.00  0.00     0.167 HD
ATOM     68  C   UNL A   1      44.362  31.364  29.070  1.00  0.00     0.074 A 
ATOM     69  C   UNL A   1      43.276  32.199  29.543  1.00  0.00     0.031 C 
ATOM     70  C   UNL A   1      45.641  31.788  28.922  1.00  0.00     0.034 A 
BRANCH  57  71
ATOM     71  C   UNL A   1      49.577  27.341  27.214  1.00  0.00     0.023 A 
ATOM     72  C   UNL A   1      50.343  26.739  28.233  1.00  0.00     0.012 A 
ATOM     73  C   UNL A   1      50.143  27.515  25.936  1.00  0.00     0.148 A 
ATOM     74  C   UNL A   1      51.658  26.346  27.996  1.00  0.00     0.002 A 
ATOM     75  C   UNL A   1      51.444  27.084  25.696  1.00  0.00     0.091 A 
ATOM     76  F   UNL A   1      49.412  28.115  24.986  1.00  0.00    -0.205 F 
ATOM     77  C   UNL A   1      52.206  26.509  26.726  1.00  0.00     0.022 A 
BRANCH  75  78
ATOM     78  S   UNL A   1      52.203  27.193  24.071  1.00  0.00     0.127 S 
ATOM     79  O   UNL A   1      52.663  28.581  24.051  1.00  0.00    -0.237 OA
ATOM     80  O   UNL A   1      53.273  26.198  24.158  1.00  0.00    -0.237 OA
ATOM     81  O   UNL A   1      51.150  26.860  23.122  1.00  0.00    -0.744 OA
ENDBRANCH  75  78
ENDBRANCH  57  71
BRANCH  58  82
ATOM     82  C   UNL A   1      40.063  29.464  29.372  1.00  0.00     0.023 A 
ATOM     83  C   UNL A   1      39.159  29.719  28.323  1.00  0.00     0.012 A 
ATOM     84  C   UNL A   1      39.597  29.480  30.701  1.00  0.00     0.148 A 
ATOM     85  C   UNL A   1      37.821  30.009  28.591  1.00  0.00     0.002 A 
ATOM     86  C   UNL A   1      38.252  29.719  30.958  1.00  0.00     0.091 A 
ATOM     87  F   UNL A   1      40.477  29.250  31.687  1.00  0.00    -0.205 F 
ATOM     88  C   UNL A   1      37.365  29.998  29.906  1.00  0.00     0.022 A 
BRANCH  86  89
ATOM     89  S   UNL A   1      37.559  29.594  32.611  1.00  0.00     0.127 S 
ATOM     90  O   UNL A   1      38.488  30.412  33.388  1.00  0.00    -0.237 OA
ATOM     91  O   UNL A   1      36.228  30.177  32.431  1.00  0.00    -0.237 OA
ATOM     92  O   UNL A   1      37.548  28.172  32.919  1.00  0.00    -0.744 OA
ENDBRANCH  86  89
ENDBRANCH  58  82
BRANCH  70  93
ATOM     93  C   UNL A   1      45.941  33.227  29.247  1.00  0.00     0.023 A 
ATOM     94  C   UNL A   1      46.448  33.559  30.519  1.00  0.00     0.012 A 
ATOM     95  C   UNL A   1      45.796  34.234  28.274  1.00  0.00     0.148 A 
ATOM     96  C   UNL A   1      46.780  34.879  30.825  1.00  0.00     0.002 A 
ATOM     97  C   UNL A   1      46.169  35.539  28.573  1.00  0.00     0.091 A 
ATOM     98  F   UNL A   1      45.289  33.903  27.077  1.00  0.00    -0.205 F 
ATOM     99  C   UNL A   1      46.653  35.866  29.850  1.00  0.00     0.022 A 
BRANCH  97 100
ATOM    100  S   UNL A   1      46.118  36.848  27.342  1.00  0.00     0.127 S 
ATOM    101  O   UNL A   1      46.637  37.987  28.094  1.00  0.00    -0.237 OA
ATOM    102  O   UNL A   1      47.020  36.341  26.305  1.00  0.00    -0.237 OA
ATOM    103  O   UNL A   1      44.725  36.942  26.928  1.00  0.00    -0.744 OA
ENDBRANCH  97 100
ENDBRANCH  70  93
ENDBRANCH  44  45
ENDBRANCH  36  39
ENDBRANCH  34  35
ENDBRANCH  33  34
ENDBRANCH  32  33
ENDBRANCH   1  32
TORSDOF 20
ENDMDL
MODEL 3
REMARK VINA RESULT:     -11.4      5.917     11.066
REMARK SMILES C[C@@H](C(=O)NCCCCCCNC(=O)c1ccc(-c2c3nc(c(-c4cccc(S(=O)(=O)[O-])c4F)c4ccc([nH]4)c(-c4cccc(S(=O)(=O)[O-])c4F)c4nc(c(-c5cccc(S(=O)(=O)[O-])c5F)c5ccc2[nH]5)C=C4)C=C3)cc1)n1ccc(C(=O)N2CC[NH+](Cc3cccc(F)c3)CC2)n1
REMARK SMILES IDX 8 1 7 2 6 3 5 4 3 5 4 6 2 8 1 9 78 10 79 11 98 12 80 13
REMARK SMILES IDX 81 14 82 15 83 16 84 17 85 18 97 19 86 20 96 21 87 22 88 24
REMARK SMILES IDX 89 25 90 26 95 27 91 28 93 29 92 30 94 31 9 32 10 33 11 34
REMARK SMILES IDX 12 35 13 36 14 38 15 39 16 40 77 41 17 42 76 43 18 44 19 45
REMARK SMILES IDX 20 46 70 47 21 48 75 49 69 50 71 51 22 52 74 53 68 54 67 55
REMARK SMILES IDX 23 57 55 58 35 59 54 60 36 61 39 62 53 63 72 64 37 65 38 66
REMARK SMILES IDX 52 68 73 69 40 70 24 71 25 72 33 73 26 74 28 75 34 76 27 77
REMARK SMILES IDX 29 78 30 79 31 80 32 81 56 82 57 83 65 84 58 85 60 86 66 87
REMARK SMILES IDX 59 88 61 89 62 90 63 91 64 92 41 93 42 94 50 95 43 96 45 97
REMARK SMILES IDX 51 98 44 99 46 100 47 101 48 102 49 103
REMARK H PARENT 5 7 87 23 12 37 71 56 39 67
REMARK Flexibility Score: inf
ROOT
ATOM      1  C   UNL A   1      37.751  21.916  25.327  1.00  0.00     0.002 C 
ENDROOT
BRANCH   1   2
ATOM      2  C   UNL A   1      36.999  23.044  24.609  1.00  0.00     0.021 C 
BRANCH   2   3
ATOM      3  C   UNL A   1      35.518  23.148  24.981  1.00  0.00     0.116 C 
BRANCH   3   4
ATOM      4  N   UNL A   1      35.287  22.595  26.301  1.00  0.00    -0.354 N 
ATOM      5  C   UNL A   1      34.274  21.794  26.748  1.00  0.00     0.244 C 
ATOM      6  O   UNL A   1      34.202  21.617  27.966  1.00  0.00    -0.273 OA
ATOM      7  H   UNL A   1      35.962  22.833  26.978  1.00  0.00     0.163 HD
BRANCH   5   8
ATOM      8  C   UNL A   1      33.316  21.158  25.745  1.00  0.00     0.193 C 
ATOM      9  C   UNL A   1      33.990  20.155  24.813  1.00  0.00     0.044 C 
BRANCH   8  10
ATOM     10  N   UNL A   1      32.615  22.185  24.974  1.00  0.00    -0.260 N 
ATOM     11  C   UNL A   1      32.113  22.086  23.707  1.00  0.00     0.110 A 
ATOM     12  N   UNL A   1      32.282  23.338  25.584  1.00  0.00    -0.167 NA
ATOM     13  C   UNL A   1      31.407  23.242  23.487  1.00  0.00     0.056 A 
ATOM     14  C   UNL A   1      31.543  24.004  24.677  1.00  0.00     0.150 A 
BRANCH  14  15
ATOM     15  C   UNL A   1      30.886  25.287  24.972  1.00  0.00     0.274 C 
ATOM     16  O   UNL A   1      29.921  25.326  25.742  1.00  0.00    -0.267 OA
ATOM     17  N   UNL A   1      31.392  26.453  24.379  1.00  0.00    -0.326 N 
ATOM     18  C   UNL A   1      30.879  27.710  24.900  1.00  0.00     0.181 C 
ATOM     19  C   UNL A   1      31.897  26.454  23.001  1.00  0.00     0.181 C 
ATOM     20  C   UNL A   1      31.638  28.960  24.425  1.00  0.00     0.284 C 
ATOM     21  C   UNL A   1      32.611  27.752  22.579  1.00  0.00     0.284 C 
ATOM     22  N   UNL A   1      31.981  29.006  23.002  1.00  0.00    -0.328 N 
ATOM     23  H   UNL A   1      32.692  29.731  22.902  1.00  0.00     0.348 HD
BRANCH  22  24
ATOM     24  C   UNL A   1      30.977  29.573  22.101  1.00  0.00     0.299 C 
BRANCH  24  25
ATOM     25  C   UNL A   1      29.645  29.979  22.688  1.00  0.00     0.009 A 
ATOM     26  C   UNL A   1      29.440  31.280  23.177  1.00  0.00     0.010 A 
ATOM     27  C   UNL A   1      28.581  29.068  22.744  1.00  0.00     0.048 A 
ATOM     28  C   UNL A   1      28.183  31.682  23.639  1.00  0.00     0.004 A 
ATOM     29  C   UNL A   1      27.331  29.481  23.194  1.00  0.00     0.123 A 
ATOM     30  C   UNL A   1      27.120  30.782  23.630  1.00  0.00     0.039 A 
ATOM     31  F   UNL A   1      26.310  28.613  23.189  1.00  0.00    -0.207 F 
ENDBRANCH  24  25
ENDBRANCH  22  24
ENDBRANCH  14  15
ENDBRANCH   8  10
ENDBRANCH   5   8
ENDBRANCH   3   4
ENDBRANCH   2   3
ENDBRANCH   1   2
BRANCH   1  32
ATOM     32  C   UNL A   1      37.580  20.525  24.711  1.00  0.00     0.002 C 
BRANCH  32  33
ATOM     33  C   UNL A   1      38.575  19.470  25.202  1.00  0.00     0.021 C 
BRANCH  33  34
ATOM     34  C   UNL A   1      39.639  19.987  26.164  1.00  0.00     0.116 C 
BRANCH  34  35
ATOM     35  N   UNL A   1      40.866  19.211  26.099  1.00  0.00    -0.352 N 
ATOM     36  C   UNL A   1      42.167  19.642  26.176  1.00  0.00     0.251 C 
ATOM     37  H   UNL A   1      40.748  18.240  25.982  1.00  0.00     0.163 HD
ATOM     38  O   UNL A   1      43.084  18.861  25.931  1.00  0.00    -0.269 OA
BRANCH  36  39
ATOM     39  C   UNL A   1      42.465  21.046  26.534  1.00  0.00     0.039 A 
ATOM     40  C   UNL A   1      42.610  21.988  25.512  1.00  0.00     0.014 A 
ATOM     41  C   UNL A   1      42.625  21.430  27.869  1.00  0.00     0.014 A 
ATOM     42  C   UNL A   1      42.874  23.322  25.829  1.00  0.00     0.010 A 
ATOM     43  C   UNL A   1      42.830  22.771  28.186  1.00  0.00     0.010 A 
ATOM     44  C   UNL A   1      42.968  23.728  27.170  1.00  0.00    -0.014 A 
BRANCH  44  45
ATOM     45  C   UNL A   1      43.222  25.147  27.527  1.00  0.00     0.031 A 
ATOM     46  C   UNL A   1      44.607  25.722  27.406  1.00  0.00     0.074 A 
ATOM     47  C   UNL A   1      42.224  25.896  28.035  1.00  0.00     0.049 A 
ATOM     48  N   UNL A   1      45.029  26.924  27.700  1.00  0.00    -0.248 NA
ATOM     49  C   UNL A   1      45.663  24.819  26.915  1.00  0.00     0.031 C 
ATOM     50  C   UNL A   1      40.857  25.431  28.276  1.00  0.00     0.029 A 
ATOM     51  N   UNL A   1      42.212  27.200  28.462  1.00  0.00    -0.354 N 
ATOM     52  C   UNL A   1      46.399  26.913  27.469  1.00  0.00     0.074 A 
ATOM     53  C   UNL A   1      46.744  25.576  27.038  1.00  0.00     0.031 C 
ATOM     54  C   UNL A   1      40.137  26.436  28.801  1.00  0.00     0.029 A 
ATOM     55  C   UNL A   1      40.992  27.610  28.948  1.00  0.00     0.049 A 
ATOM     56  H   UNL A   1      43.001  27.786  28.423  1.00  0.00     0.167 HD
ATOM     57  C   UNL A   1      47.286  27.932  27.574  1.00  0.00     0.034 A 
ATOM     58  C   UNL A   1      40.606  28.801  29.446  1.00  0.00     0.034 A 
ATOM     59  C   UNL A   1      46.931  29.276  27.938  1.00  0.00     0.049 A 
ATOM     60  C   UNL A   1      41.596  29.934  29.488  1.00  0.00     0.074 A 
ATOM     61  C   UNL A   1      47.736  30.401  27.972  1.00  0.00     0.029 A 
ATOM     62  N   UNL A   1      45.664  29.678  28.329  1.00  0.00    -0.354 N 
ATOM     63  N   UNL A   1      42.849  29.950  29.101  1.00  0.00    -0.248 NA
ATOM     64  C   UNL A   1      41.109  31.224  29.998  1.00  0.00     0.031 C 
ATOM     65  C   UNL A   1      46.954  31.485  28.388  1.00  0.00     0.029 A 
ATOM     66  C   UNL A   1      45.663  31.035  28.608  1.00  0.00     0.049 A 
ATOM     67  H   UNL A   1      44.880  29.088  28.398  1.00  0.00     0.167 HD
ATOM     68  C   UNL A   1      43.288  31.256  29.283  1.00  0.00     0.074 A 
ATOM     69  C   UNL A   1      42.162  32.007  29.800  1.00  0.00     0.031 C 
ATOM     70  C   UNL A   1      44.517  31.781  29.060  1.00  0.00     0.034 A 
BRANCH  57  71
ATOM     71  C   UNL A   1      48.720  27.644  27.217  1.00  0.00     0.023 A 
ATOM     72  C   UNL A   1      49.596  27.166  28.213  1.00  0.00     0.012 A 
ATOM     73  C   UNL A   1      49.193  27.802  25.900  1.00  0.00     0.148 A 
ATOM     74  C   UNL A   1      50.926  26.879  27.913  1.00  0.00     0.002 A 
ATOM     75  C   UNL A   1      50.512  27.477  25.599  1.00  0.00     0.091 A 
ATOM     76  F   UNL A   1      48.356  28.285  24.971  1.00  0.00    -0.205 F 
ATOM     77  C   UNL A   1      51.381  27.025  26.605  1.00  0.00     0.022 A 
BRANCH  75  78
ATOM     78  S   UNL A   1      51.162  27.570  23.927  1.00  0.00     0.127 S 
ATOM     79  O   UNL A   1      52.446  26.883  24.070  1.00  0.00    -0.237 OA
ATOM     80  O   UNL A   1      50.159  26.830  23.159  1.00  0.00    -0.237 OA
ATOM     81  O   UNL A   1      51.234  28.989  23.611  1.00  0.00    -0.744 OA
ENDBRANCH  75  78
ENDBRANCH  57  71
BRANCH  58  82
ATOM     82  C   UNL A   1      39.187  29.010  29.848  1.00  0.00     0.023 A 
ATOM     83  C   UNL A   1      38.793  28.677  31.158  1.00  0.00     0.012 A 
ATOM     84  C   UNL A   1      38.241  29.568  28.966  1.00  0.00     0.148 A 
ATOM     85  C   UNL A   1      37.476  28.872  31.577  1.00  0.00     0.002 A 
ATOM     86  C   UNL A   1      36.944  29.807  29.406  1.00  0.00     0.091 A 
ATOM     87  F   UNL A   1      38.632  29.863  27.718  1.00  0.00    -0.205 F 
ATOM     88  C   UNL A   1      36.556  29.447  30.706  1.00  0.00     0.022 A 
BRANCH  86  89
ATOM     89  S   UNL A   1      35.734  30.662  28.389  1.00  0.00     0.127 S 
ATOM     90  O   UNL A   1      35.163  29.563  27.614  1.00  0.00    -0.237 OA
ATOM     91  O   UNL A   1      34.839  31.236  29.395  1.00  0.00    -0.237 OA
ATOM     92  O   UNL A   1      36.492  31.650  27.636  1.00  0.00    -0.744 OA
ENDBRANCH  86  89
ENDBRANCH  58  82
BRANCH  70  93
ATOM     93  C   UNL A   1      44.711  33.247  29.344  1.00  0.00     0.023 A 
ATOM     94  C   UNL A   1      45.152  33.654  30.619  1.00  0.00     0.012 A 
ATOM     95  C   UNL A   1      44.533  34.210  28.333  1.00  0.00     0.148 A 
ATOM     96  C   UNL A   1      45.387  35.001  30.890  1.00  0.00     0.002 A 
ATOM     97  C   UNL A   1      44.809  35.547  28.599  1.00  0.00     0.091 A 
ATOM     98  F   UNL A   1      44.089  33.808  27.133  1.00  0.00    -0.205 F 
ATOM     99  C   UNL A   1      45.227  35.946  29.878  1.00  0.00     0.022 A 
BRANCH  97 100
ATOM    100  S   UNL A   1      44.713  36.809  27.323  1.00  0.00     0.127 S 
ATOM    101  O   UNL A   1      45.766  36.384  26.403  1.00  0.00    -0.237 OA
ATOM    102  O   UNL A   1      43.352  36.639  26.811  1.00  0.00    -0.237 OA
ATOM    103  O   UNL A   1      44.941  38.075  28.006  1.00  0.00    -0.744 OA
ENDBRANCH  97 100
ENDBRANCH  70  93
ENDBRANCH  44  45
ENDBRANCH  36  39
ENDBRANCH  34  35
ENDBRANCH  33  34
ENDBRANCH  32  33
ENDBRANCH   1  32
TORSDOF 20
ENDMDL
