MODEL 1
REMARK VINA RESULT:     -11.4      0.000      0.000
REMARK SMILES Cc1cccc(O[C@H](C)C(=O)N2CCC[C@@H](C(=O)NCCCCCCNC(=O)c3ccc(-c4c5nc(c(-c6cccc(S(=O)(=O)[O-])c6F)c6ccc([nH]6)c(-c6cccc(S(=O)(=O)[O-])c6F)c6nc(c(-c7cccc(S(=O)(=O)[O-])c7F)c7ccc4[nH]7)C=C6)C=C5)cc3)C2)c1
REMARK SMILES IDX 22 1 21 2 20 3 19 4 17 5 18 6 16 8 12 9 13 10 92 11 14 12
REMARK SMILES IDX 15 13 10 14 11 15 8 16 9 17 7 18 6 19 1 20 2 21 3 22 93 23
REMARK SMILES IDX 4 24 5 25 23 26 24 27 25 28 26 29 27 30 28 32 29 33 30 34
REMARK SMILES IDX 91 35 31 36 90 37 32 38 33 39 34 40 84 41 35 42 89 43 83 44
REMARK SMILES IDX 85 45 36 46 88 47 82 48 81 49 37 51 69 52 49 53 68 54 50 55
REMARK SMILES IDX 53 56 67 57 86 58 51 59 52 60 66 62 87 63 54 64 38 65 39 66
REMARK SMILES IDX 47 67 40 68 42 69 48 70 41 71 43 72 44 73 45 74 46 75 70 76
REMARK SMILES IDX 71 77 79 78 72 79 74 80 80 81 73 82 75 83 76 84 77 85 78 86
REMARK SMILES IDX 55 87 56 88 64 89 57 90 59 91 65 92 58 93 60 94 61 95 62 96
REMARK SMILES IDX 63 97
REMARK H PARENT 19 7 26 31 85 50 53 61
REMARK Flexibility Score: inf
ROOT
ATOM      1  C   UNL A   1      34.784  29.717  27.339  1.00  0.00     0.002 C 
ENDROOT
BRANCH   1   2
ATOM      2  C   UNL A   1      33.748  29.623  26.214  1.00  0.00     0.021 C 
BRANCH   2   3
ATOM      3  C   UNL A   1      32.297  29.472  26.662  1.00  0.00     0.116 C 
BRANCH   3   4
ATOM      4  N   UNL A   1      31.389  29.940  25.636  1.00  0.00    -0.356 N 
ATOM      5  C   UNL A   1      30.840  29.306  24.571  1.00  0.00     0.224 C 
ATOM      6  O   UNL A   1      30.186  30.003  23.786  1.00  0.00    -0.275 OA
ATOM      7  H   UNL A   1      31.127  30.885  25.726  1.00  0.00     0.163 HD
BRANCH   5   8
ATOM      8  C   UNL A   1      30.918  27.801  24.357  1.00  0.00     0.098 C 
ATOM      9  N   UNL A   1      32.148  25.811  23.585  1.00  0.00    -0.339 N 
ATOM     10  C   UNL A   1      31.657  25.018  24.715  1.00  0.00     0.119 C 
ATOM     11  C   UNL A   1      32.255  27.251  23.838  1.00  0.00     0.133 C 
ATOM     12  C   UNL A   1      30.329  25.538  25.257  1.00  0.00     0.022 C 
ATOM     13  C   UNL A   1      30.416  27.027  25.582  1.00  0.00     0.017 C 
BRANCH   9  14
ATOM     14  C   UNL A   1      32.476  25.132  22.423  1.00  0.00     0.263 C 
ATOM     15  O   UNL A   1      31.928  25.456  21.357  1.00  0.00    -0.271 OA
BRANCH  14  16
ATOM     16  C   UNL A   1      33.454  23.922  22.399  1.00  0.00     0.259 C 
ATOM     17  C   UNL A   1      33.268  22.868  21.315  1.00  0.00     0.064 C 
BRANCH  16  18
ATOM     18  O   UNL A   1      34.781  24.161  22.862  1.00  0.00    -0.481 OA
BRANCH  18  19
ATOM     19  C   UNL A   1      35.436  23.346  23.726  1.00  0.00     0.120 A 
ATOM     20  C   UNL A   1      34.461  21.710  27.043  1.00  0.00     0.044 C 
ATOM     21  C   UNL A   1      35.236  22.097  25.817  1.00  0.00    -0.047 A 
ATOM     22  C   UNL A   1      36.459  21.485  25.546  1.00  0.00     0.003 A 
ATOM     23  C   UNL A   1      34.743  23.042  24.908  1.00  0.00     0.049 A 
ATOM     24  C   UNL A   1      37.115  21.727  24.343  1.00  0.00     0.004 A 
ATOM     25  C   UNL A   1      36.603  22.653  23.434  1.00  0.00     0.046 A 
ENDBRANCH  18  19
ENDBRANCH  16  18
ENDBRANCH  14  16
ENDBRANCH   9  14
ENDBRANCH   5   8
ENDBRANCH   3   4
ENDBRANCH   2   3
ENDBRANCH   1   2
BRANCH   1  26
ATOM     26  C   UNL A   1      35.080  31.123  27.875  1.00  0.00     0.002 C 
BRANCH  26  27
ATOM     27  C   UNL A   1      33.862  32.021  28.088  1.00  0.00     0.021 C 
BRANCH  27  28
ATOM     28  C   UNL A   1      34.152  33.518  28.018  1.00  0.00     0.116 C 
BRANCH  28  29
ATOM     29  N   UNL A   1      33.418  34.282  29.014  1.00  0.00    -0.352 N 
ATOM     30  C   UNL A   1      33.642  34.448  30.366  1.00  0.00     0.251 C 
ATOM     31  H   UNL A   1      32.630  34.760  28.666  1.00  0.00     0.163 HD
ATOM     32  O   UNL A   1      32.780  35.017  31.034  1.00  0.00    -0.269 OA
BRANCH  30  33
ATOM     33  C   UNL A   1      34.940  34.062  30.972  1.00  0.00     0.039 A 
ATOM     34  C   UNL A   1      36.103  34.714  30.531  1.00  0.00     0.014 A 
ATOM     35  C   UNL A   1      35.050  32.980  31.836  1.00  0.00     0.014 A 
ATOM     36  C   UNL A   1      37.355  34.138  30.751  1.00  0.00     0.010 A 
ATOM     37  C   UNL A   1      36.277  32.375  31.999  1.00  0.00     0.010 A 
ATOM     38  C   UNL A   1      37.415  32.908  31.392  1.00  0.00    -0.014 A 
BRANCH  38  39
ATOM     39  C   UNL A   1      38.575  32.033  31.438  1.00  0.00     0.031 A 
ATOM     40  C   UNL A   1      38.576  30.741  30.729  1.00  0.00     0.074 A 
ATOM     41  C   UNL A   1      39.734  32.539  31.916  1.00  0.00     0.049 A 
ATOM     42  N   UNL A   1      39.410  29.790  30.977  1.00  0.00    -0.248 NA
ATOM     43  C   UNL A   1      37.620  30.427  29.674  1.00  0.00     0.031 C 
ATOM     44  C   UNL A   1      41.085  32.054  31.654  1.00  0.00     0.029 A 
ATOM     45  N   UNL A   1      39.903  33.493  32.924  1.00  0.00    -0.354 N 
ATOM     46  C   UNL A   1      39.289  28.871  29.958  1.00  0.00     0.074 A 
ATOM     47  C   UNL A   1      38.119  29.276  29.213  1.00  0.00     0.031 C 
ATOM     48  C   UNL A   1      41.889  32.472  32.642  1.00  0.00     0.029 A 
ATOM     49  C   UNL A   1      41.041  33.094  33.645  1.00  0.00     0.049 A 
ATOM     50  H   UNL A   1      39.339  34.283  33.094  1.00  0.00     0.167 HD
ATOM     51  C   UNL A   1      40.282  27.964  29.746  1.00  0.00     0.034 A 
ATOM     52  C   UNL A   1      41.033  32.790  34.975  1.00  0.00     0.034 A 
ATOM     53  C   UNL A   1      41.387  28.148  30.692  1.00  0.00     0.049 A 
ATOM     54  C   UNL A   1      41.560  31.401  35.279  1.00  0.00     0.074 A 
ATOM     55  C   UNL A   1      42.594  28.824  30.600  1.00  0.00     0.029 A 
ATOM     56  N   UNL A   1      41.209  27.842  32.033  1.00  0.00    -0.354 N 
ATOM     57  N   UNL A   1      41.811  30.497  34.372  1.00  0.00    -0.248 NA
ATOM     58  C   UNL A   1      41.825  30.910  36.626  1.00  0.00     0.031 C 
ATOM     59  C   UNL A   1      43.126  28.959  31.907  1.00  0.00     0.029 A 
ATOM     60  C   UNL A   1      42.252  28.351  32.791  1.00  0.00     0.049 A 
ATOM     61  H   UNL A   1      40.448  27.334  32.396  1.00  0.00     0.167 HD
ATOM     62  C   UNL A   1      42.143  29.306  34.969  1.00  0.00     0.074 A 
ATOM     63  C   UNL A   1      42.208  29.643  36.382  1.00  0.00     0.031 C 
ATOM     64  C   UNL A   1      42.280  28.154  34.237  1.00  0.00     0.034 A 
BRANCH  51  65
ATOM     65  C   UNL A   1      40.408  27.160  28.469  1.00  0.00     0.023 A 
ATOM     66  C   UNL A   1      39.584  26.022  28.323  1.00  0.00     0.012 A 
ATOM     67  C   UNL A   1      41.321  27.409  27.421  1.00  0.00     0.148 A 
ATOM     68  C   UNL A   1      39.736  25.115  27.271  1.00  0.00     0.002 A 
ATOM     69  C   UNL A   1      41.528  26.465  26.410  1.00  0.00     0.091 A 
ATOM     70  F   UNL A   1      41.948  28.591  27.361  1.00  0.00    -0.205 F 
ATOM     71  C   UNL A   1      40.739  25.313  26.336  1.00  0.00     0.022 A 
BRANCH  69  72
ATOM     72  S   UNL A   1      42.896  26.595  25.245  1.00  0.00     0.127 S 
ATOM     73  O   UNL A   1      44.049  26.769  26.133  1.00  0.00    -0.237 OA
ATOM     74  O   UNL A   1      42.851  25.309  24.555  1.00  0.00    -0.237 OA
ATOM     75  O   UNL A   1      42.606  27.768  24.428  1.00  0.00    -0.744 OA
ENDBRANCH  69  72
ENDBRANCH  51  65
BRANCH  52  76
ATOM     76  C   UNL A   1      39.979  33.511  35.745  1.00  0.00     0.023 A 
ATOM     77  C   UNL A   1      38.715  32.881  35.833  1.00  0.00     0.012 A 
ATOM     78  C   UNL A   1      40.306  34.511  36.678  1.00  0.00     0.148 A 
ATOM     79  C   UNL A   1      37.858  33.134  36.905  1.00  0.00     0.002 A 
ATOM     80  C   UNL A   1      39.441  34.762  37.745  1.00  0.00     0.091 A 
ATOM     81  F   UNL A   1      41.485  35.133  36.565  1.00  0.00    -0.205 F 
ATOM     82  C   UNL A   1      38.239  34.048  37.881  1.00  0.00     0.022 A 
BRANCH  80  83
ATOM     83  S   UNL A   1      39.883  35.899  39.067  1.00  0.00     0.127 S 
ATOM     84  O   UNL A   1      41.286  35.561  39.285  1.00  0.00    -0.237 OA
ATOM     85  O   UNL A   1      39.654  37.205  38.449  1.00  0.00    -0.237 OA
ATOM     86  O   UNL A   1      38.963  35.583  40.149  1.00  0.00    -0.744 OA
ENDBRANCH  80  83
ENDBRANCH  52  76
BRANCH  64  87
ATOM     87  C   UNL A   1      42.445  26.732  34.768  1.00  0.00     0.023 A 
ATOM     88  C   UNL A   1      41.419  26.035  35.430  1.00  0.00     0.012 A 
ATOM     89  C   UNL A   1      43.631  25.987  34.503  1.00  0.00     0.148 A 
ATOM     90  C   UNL A   1      41.558  24.698  35.829  1.00  0.00     0.002 A 
ATOM     91  C   UNL A   1      43.724  24.630  34.804  1.00  0.00     0.091 A 
ATOM     92  F   UNL A   1      44.707  26.594  33.982  1.00  0.00    -0.205 F 
ATOM     93  C   UNL A   1      42.698  23.986  35.491  1.00  0.00     0.022 A 
BRANCH  91  94
ATOM     94  S   UNL A   1      45.093  23.634  34.189  1.00  0.00     0.127 S 
ATOM     95  O   UNL A   1      44.474  22.319  34.052  1.00  0.00    -0.237 OA
ATOM     96  O   UNL A   1      45.415  24.291  32.920  1.00  0.00    -0.237 OA
ATOM     97  O   UNL A   1      46.131  23.758  35.202  1.00  0.00    -0.744 OA
ENDBRANCH  91  94
ENDBRANCH  64  87
ENDBRANCH  38  39
ENDBRANCH  30  33
ENDBRANCH  28  29
ENDBRANCH  27  28
ENDBRANCH  26  27
ENDBRANCH   1  26
TORSDOF 20
ENDMDL
MODEL 2
REMARK VINA RESULT:     -10.9      2.007      2.625
REMARK SMILES Cc1cccc(O[C@H](C)C(=O)N2CCC[C@@H](C(=O)NCCCCCCNC(=O)c3ccc(-c4c5nc(c(-c6cccc(S(=O)(=O)[O-])c6F)c6ccc([nH]6)c(-c6cccc(S(=O)(=O)[O-])c6F)c6nc(c(-c7cccc(S(=O)(=O)[O-])c7F)c7ccc4[nH]7)C=C6)C=C5)cc3)C2)c1
REMARK SMILES IDX 22 1 21 2 20 3 19 4 17 5 18 6 16 8 12 9 13 10 92 11 14 12
REMARK SMILES IDX 15 13 10 14 11 15 8 16 9 17 7 18 6 19 1 20 2 21 3 22 93 23
REMARK SMILES IDX 4 24 5 25 23 26 24 27 25 28 26 29 27 30 28 32 29 33 30 34
REMARK SMILES IDX 91 35 31 36 90 37 32 38 33 39 34 40 84 41 35 42 89 43 83 44
REMARK SMILES IDX 85 45 36 46 88 47 82 48 81 49 37 51 69 52 49 53 68 54 50 55
REMARK SMILES IDX 53 56 67 57 86 58 51 59 52 60 66 62 87 63 54 64 38 65 39 66
REMARK SMILES IDX 47 67 40 68 42 69 48 70 41 71 43 72 44 73 45 74 46 75 70 76
REMARK SMILES IDX 71 77 79 78 72 79 74 80 80 81 73 82 75 83 76 84 77 85 78 86
REMARK SMILES IDX 55 87 56 88 64 89 57 90 59 91 65 92 58 93 60 94 61 95 62 96
REMARK SMILES IDX 63 97
REMARK H PARENT 19 7 26 31 85 50 53 61
REMARK Flexibility Score: inf
ROOT
ATOM      1  C   UNL A   1      32.833  29.918  27.121  1.00  0.00     0.002 C 
ENDROOT
BRANCH   1   2
ATOM      2  C   UNL A   1      32.449  30.089  25.648  1.00  0.00     0.021 C 
BRANCH   2   3
ATOM      3  C   UNL A   1      31.874  28.852  24.965  1.00  0.00     0.116 C 
BRANCH   3   4
ATOM      4  N   UNL A   1      31.470  27.864  25.942  1.00  0.00    -0.356 N 
ATOM      5  C   UNL A   1      31.405  26.511  25.872  1.00  0.00     0.224 C 
ATOM      6  O   UNL A   1      30.900  25.929  26.838  1.00  0.00    -0.275 OA
ATOM      7  H   UNL A   1      31.191  28.239  26.808  1.00  0.00     0.163 HD
BRANCH   5   8
ATOM      8  C   UNL A   1      31.994  25.701  24.725  1.00  0.00     0.098 C 
ATOM      9  N   UNL A   1      33.135  23.679  23.899  1.00  0.00    -0.339 N 
ATOM     10  C   UNL A   1      32.302  23.651  22.695  1.00  0.00     0.119 C 
ATOM     11  C   UNL A   1      32.508  24.295  25.073  1.00  0.00     0.133 C 
ATOM     12  C   UNL A   1      31.774  25.033  22.321  1.00  0.00     0.022 C 
ATOM     13  C   UNL A   1      31.066  25.686  23.505  1.00  0.00     0.017 C 
BRANCH   9  14
ATOM     14  C   UNL A   1      34.397  23.113  23.817  1.00  0.00     0.263 C 
ATOM     15  O   UNL A   1      35.241  23.622  23.061  1.00  0.00    -0.271 OA
BRANCH  14  16
ATOM     16  C   UNL A   1      34.791  21.814  24.578  1.00  0.00     0.259 C 
ATOM     17  C   UNL A   1      35.958  21.879  25.556  1.00  0.00     0.064 C 
BRANCH  16  18
ATOM     18  O   UNL A   1      33.737  20.901  24.873  1.00  0.00    -0.481 OA
BRANCH  18  19
ATOM     19  C   UNL A   1      33.543  19.735  24.207  1.00  0.00     0.120 A 
ATOM     20  C   UNL A   1      34.806  16.164  24.739  1.00  0.00     0.044 C 
ATOM     21  C   UNL A   1      34.073  17.350  24.181  1.00  0.00    -0.047 A 
ATOM     22  C   UNL A   1      33.130  17.171  23.169  1.00  0.00     0.003 A 
ATOM     23  C   UNL A   1      34.285  18.642  24.679  1.00  0.00     0.049 A 
ATOM     24  C   UNL A   1      32.341  18.236  22.747  1.00  0.00     0.004 A 
ATOM     25  C   UNL A   1      32.545  19.515  23.267  1.00  0.00     0.046 A 
ENDBRANCH  18  19
ENDBRANCH  16  18
ENDBRANCH  14  16
ENDBRANCH   9  14
ENDBRANCH   5   8
ENDBRANCH   3   4
ENDBRANCH   2   3
ENDBRANCH   1   2
BRANCH   1  26
ATOM     26  C   UNL A   1      34.242  29.377  27.397  1.00  0.00     0.002 C 
BRANCH  26  27
ATOM     27  C   UNL A   1      35.166  30.306  28.184  1.00  0.00     0.021 C 
BRANCH  27  28
ATOM     28  C   UNL A   1      35.206  31.745  27.679  1.00  0.00     0.116 C 
BRANCH  28  29
ATOM     29  N   UNL A   1      34.450  32.660  28.520  1.00  0.00    -0.352 N 
ATOM     30  C   UNL A   1      34.715  33.147  29.785  1.00  0.00     0.251 C 
ATOM     31  H   UNL A   1      33.610  32.985  28.122  1.00  0.00     0.163 HD
ATOM     32  O   UNL A   1      33.835  33.786  30.359  1.00  0.00    -0.269 OA
BRANCH  30  33
ATOM     33  C   UNL A   1      36.066  33.008  30.383  1.00  0.00     0.039 A 
ATOM     34  C   UNL A   1      37.158  33.570  29.702  1.00  0.00     0.014 A 
ATOM     35  C   UNL A   1      36.292  32.213  31.500  1.00  0.00     0.014 A 
ATOM     36  C   UNL A   1      38.455  33.139  29.985  1.00  0.00     0.010 A 
ATOM     37  C   UNL A   1      37.563  31.738  31.737  1.00  0.00     0.010 A 
ATOM     38  C   UNL A   1      38.630  32.138  30.931  1.00  0.00    -0.014 A 
BRANCH  38  39
ATOM     39  C   UNL A   1      39.846  31.368  31.134  1.00  0.00     0.031 A 
ATOM     40  C   UNL A   1      40.052  30.085  30.442  1.00  0.00     0.074 A 
ATOM     41  C   UNL A   1      40.885  31.972  31.755  1.00  0.00     0.049 A 
ATOM     42  N   UNL A   1      40.928  29.209  30.804  1.00  0.00    -0.248 NA
ATOM     43  C   UNL A   1      39.273  29.691  29.275  1.00  0.00     0.031 C 
ATOM     44  C   UNL A   1      42.295  31.609  31.674  1.00  0.00     0.029 A 
ATOM     45  N   UNL A   1      40.836  32.935  32.769  1.00  0.00    -0.354 N 
ATOM     46  C   UNL A   1      41.021  28.287  29.785  1.00  0.00     0.074 A 
ATOM     47  C   UNL A   1      39.926  28.589  28.891  1.00  0.00     0.031 C 
ATOM     48  C   UNL A   1      42.925  32.093  32.755  1.00  0.00     0.029 A 
ATOM     49  C   UNL A   1      41.902  32.634  33.634  1.00  0.00     0.049 A 
ATOM     50  H   UNL A   1      40.189  33.671  32.858  1.00  0.00     0.167 HD
ATOM     51  C   UNL A   1      42.109  27.471  29.711  1.00  0.00     0.034 A 
ATOM     52  C   UNL A   1      41.748  32.326  34.954  1.00  0.00     0.034 A 
ATOM     53  C   UNL A   1      43.061  27.748  30.790  1.00  0.00     0.049 A 
ATOM     54  C   UNL A   1      42.350  30.988  35.335  1.00  0.00     0.074 A 
ATOM     55  C   UNL A   1      44.205  28.528  30.851  1.00  0.00     0.029 A 
ATOM     56  N   UNL A   1      42.737  27.423  32.100  1.00  0.00    -0.354 N 
ATOM     57  N   UNL A   1      42.795  30.113  34.476  1.00  0.00    -0.248 NA
ATOM     58  C   UNL A   1      42.480  30.517  36.709  1.00  0.00     0.031 C 
ATOM     59  C   UNL A   1      44.549  28.705  32.215  1.00  0.00     0.029 A 
ATOM     60  C   UNL A   1      43.624  28.020  32.983  1.00  0.00     0.049 A 
ATOM     61  H   UNL A   1      41.983  26.849  32.365  1.00  0.00     0.167 HD
ATOM     62  C   UNL A   1      43.150  28.954  35.120  1.00  0.00     0.074 A 
ATOM     63  C   UNL A   1      43.001  29.290  36.527  1.00  0.00     0.031 C 
ATOM     64  C   UNL A   1      43.481  27.820  34.422  1.00  0.00     0.034 A 
BRANCH  51  65
ATOM     65  C   UNL A   1      42.470  26.686  28.467  1.00  0.00     0.023 A 
ATOM     66  C   UNL A   1      41.837  25.438  28.269  1.00  0.00     0.012 A 
ATOM     67  C   UNL A   1      43.431  27.059  27.503  1.00  0.00     0.148 A 
ATOM     68  C   UNL A   1      42.217  24.557  27.254  1.00  0.00     0.002 A 
ATOM     69  C   UNL A   1      43.868  26.149  26.535  1.00  0.00     0.091 A 
ATOM     70  F   UNL A   1      43.884  28.320  27.477  1.00  0.00    -0.205 F 
ATOM     71  C   UNL A   1      43.264  24.893  26.412  1.00  0.00     0.022 A 
BRANCH  69  72
ATOM     72  S   UNL A   1      45.305  26.469  25.499  1.00  0.00     0.127 S 
ATOM     73  O   UNL A   1      45.407  25.236  24.713  1.00  0.00    -0.237 OA
ATOM     74  O   UNL A   1      44.893  27.643  24.734  1.00  0.00    -0.237 OA
ATOM     75  O   UNL A   1      46.418  26.667  26.421  1.00  0.00    -0.744 OA
ENDBRANCH  69  72
ENDBRANCH  51  65
BRANCH  52  76
ATOM     76  C   UNL A   1      40.543  32.950  35.575  1.00  0.00     0.023 A 
ATOM     77  C   UNL A   1      39.410  32.117  35.736  1.00  0.00     0.012 A 
ATOM     78  C   UNL A   1      40.637  34.124  36.343  1.00  0.00     0.148 A 
ATOM     79  C   UNL A   1      38.468  32.369  36.734  1.00  0.00     0.002 A 
ATOM     80  C   UNL A   1      39.688  34.371  37.336  1.00  0.00     0.091 A 
ATOM     81  F   UNL A   1      41.690  34.929  36.157  1.00  0.00    -0.205 F 
ATOM     82  C   UNL A   1      38.629  33.476  37.558  1.00  0.00     0.022 A 
BRANCH  80  83
ATOM     83  S   UNL A   1      39.851  35.759  38.468  1.00  0.00     0.127 S 
ATOM     84  O   UNL A   1      39.634  36.892  37.574  1.00  0.00    -0.237 OA
ATOM     85  O   UNL A   1      38.770  35.515  39.423  1.00  0.00    -0.237 OA
ATOM     86  O   UNL A   1      41.185  35.623  39.032  1.00  0.00    -0.744 OA
ENDBRANCH  80  83
ENDBRANCH  52  76
BRANCH  64  87
ATOM     87  C   UNL A   1      43.700  26.417  34.981  1.00  0.00     0.023 A 
ATOM     88  C   UNL A   1      42.773  25.372  34.817  1.00  0.00     0.012 A 
ATOM     89  C   UNL A   1      44.934  26.062  35.600  1.00  0.00     0.148 A 
ATOM     90  C   UNL A   1      43.031  24.066  35.258  1.00  0.00     0.002 A 
ATOM     91  C   UNL A   1      45.229  24.742  35.938  1.00  0.00     0.091 A 
ATOM     92  F   UNL A   1      45.833  27.008  35.905  1.00  0.00    -0.205 F 
ATOM     93  C   UNL A   1      44.270  23.744  35.791  1.00  0.00     0.022 A 
BRANCH  91  94
ATOM     94  S   UNL A   1      46.893  24.260  36.427  1.00  0.00     0.127 S 
ATOM     95  O   UNL A   1      47.162  25.173  37.534  1.00  0.00    -0.237 OA
ATOM     96  O   UNL A   1      46.712  22.861  36.823  1.00  0.00    -0.237 OA
ATOM     97  O   UNL A   1      47.703  24.437  35.230  1.00  0.00    -0.744 OA
ENDBRANCH  91  94
ENDBRANCH  64  87
ENDBRANCH  38  39
ENDBRANCH  30  33
ENDBRANCH  28  29
ENDBRANCH  27  28
ENDBRANCH  26  27
ENDBRANCH   1  26
TORSDOF 20
ENDMDL
MODEL 3
REMARK VINA RESULT:     -10.8      3.304      4.514
REMARK SMILES Cc1cccc(O[C@H](C)C(=O)N2CCC[C@@H](C(=O)NCCCCCCNC(=O)c3ccc(-c4c5nc(c(-c6cccc(S(=O)(=O)[O-])c6F)c6ccc([nH]6)c(-c6cccc(S(=O)(=O)[O-])c6F)c6nc(c(-c7cccc(S(=O)(=O)[O-])c7F)c7ccc4[nH]7)C=C6)C=C5)cc3)C2)c1
REMARK SMILES IDX 22 1 21 2 20 3 19 4 17 5 18 6 16 8 12 9 13 10 92 11 14 12
REMARK SMILES IDX 15 13 10 14 11 15 8 16 9 17 7 18 6 19 1 20 2 21 3 22 93 23
REMARK SMILES IDX 4 24 5 25 23 26 24 27 25 28 26 29 27 30 28 32 29 33 30 34
REMARK SMILES IDX 91 35 31 36 90 37 32 38 33 39 34 40 84 41 35 42 89 43 83 44
REMARK SMILES IDX 85 45 36 46 88 47 82 48 81 49 37 51 69 52 49 53 68 54 50 55
REMARK SMILES IDX 53 56 67 57 86 58 51 59 52 60 66 62 87 63 54 64 38 65 39 66
REMARK SMILES IDX 47 67 40 68 42 69 48 70 41 71 43 72 44 73 45 74 46 75 70 76
REMARK SMILES IDX 71 77 79 78 72 79 74 80 80 81 73 82 75 83 76 84 77 85 78 86
REMARK SMILES IDX 55 87 56 88 64 89 57 90 59 91 65 92 58 93 60 94 61 95 62 96
REMARK SMILES IDX 63 97
REMARK H PARENT 19 7 26 31 85 50 53 61
REMARK Flexibility Score: inf
ROOT
ATOM      1  C   UNL A   1      32.929  31.462  27.367  1.00  0.00     0.002 C 
ENDROOT
BRANCH   1   2
ATOM      2  C   UNL A   1      32.328  30.367  26.480  1.00  0.00     0.021 C 
BRANCH   2   3
ATOM      3  C   UNL A   1      33.274  29.234  26.092  1.00  0.00     0.116 C 
BRANCH   3   4
ATOM      4  N   UNL A   1      33.646  29.327  24.697  1.00  0.00    -0.356 N 
ATOM      5  C   UNL A   1      33.225  28.634  23.610  1.00  0.00     0.224 C 
ATOM      6  O   UNL A   1      33.817  28.853  22.548  1.00  0.00    -0.275 OA
ATOM      7  H   UNL A   1      34.326  30.013  24.502  1.00  0.00     0.163 HD
BRANCH   5   8
ATOM      8  C   UNL A   1      32.029  27.691  23.628  1.00  0.00     0.098 C 
ATOM      9  N   UNL A   1      30.932  25.642  24.445  1.00  0.00    -0.339 N 
ATOM     10  C   UNL A   1      29.636  26.319  24.525  1.00  0.00     0.119 C 
ATOM     11  C   UNL A   1      32.099  26.514  24.613  1.00  0.00     0.133 C 
ATOM     12  C   UNL A   1      29.533  27.495  23.560  1.00  0.00     0.022 C 
ATOM     13  C   UNL A   1      30.705  28.456  23.740  1.00  0.00     0.017 C 
BRANCH   9  14
ATOM     14  C   UNL A   1      30.927  24.270  24.244  1.00  0.00     0.263 C 
ATOM     15  O   UNL A   1      30.530  23.819  23.157  1.00  0.00    -0.271 OA
BRANCH  14  16
ATOM     16  C   UNL A   1      31.329  23.254  25.351  1.00  0.00     0.259 C 
ATOM     17  C   UNL A   1      30.545  23.268  26.658  1.00  0.00     0.064 C 
BRANCH  16  18
ATOM     18  O   UNL A   1      31.853  22.003  24.913  1.00  0.00    -0.481 OA
BRANCH  18  19
ATOM     19  C   UNL A   1      33.177  21.707  24.894  1.00  0.00     0.120 A 
ATOM     20  C   UNL A   1      36.333  23.740  25.625  1.00  0.00     0.044 C 
ATOM     21  C   UNL A   1      35.417  22.598  25.289  1.00  0.00    -0.047 A 
ATOM     22  C   UNL A   1      35.932  21.309  25.162  1.00  0.00     0.003 A 
ATOM     23  C   UNL A   1      34.038  22.789  25.133  1.00  0.00     0.049 A 
ATOM     24  C   UNL A   1      35.077  20.224  24.996  1.00  0.00     0.004 A 
ATOM     25  C   UNL A   1      33.702  20.422  24.867  1.00  0.00     0.046 A 
ENDBRANCH  18  19
ENDBRANCH  16  18
ENDBRANCH  14  16
ENDBRANCH   9  14
ENDBRANCH   5   8
ENDBRANCH   3   4
ENDBRANCH   2   3
ENDBRANCH   1   2
BRANCH   1  26
ATOM     26  C   UNL A   1      34.348  31.208  27.891  1.00  0.00     0.002 C 
BRANCH  26  27
ATOM     27  C   UNL A   1      35.364  32.317  27.619  1.00  0.00     0.021 C 
BRANCH  27  28
ATOM     28  C   UNL A   1      35.866  33.043  28.863  1.00  0.00     0.116 C 
BRANCH  28  29
ATOM     29  N   UNL A   1      35.632  32.293  30.088  1.00  0.00    -0.352 N 
ATOM     30  C   UNL A   1      36.324  31.233  30.639  1.00  0.00     0.251 C 
ATOM     31  H   UNL A   1      34.852  32.591  30.609  1.00  0.00     0.163 HD
ATOM     32  O   UNL A   1      35.831  30.657  31.608  1.00  0.00    -0.269 OA
BRANCH  30  33
ATOM     33  C   UNL A   1      37.679  30.877  30.152  1.00  0.00     0.039 A 
ATOM     34  C   UNL A   1      37.789  29.955  29.099  1.00  0.00     0.014 A 
ATOM     35  C   UNL A   1      38.826  31.306  30.808  1.00  0.00     0.014 A 
ATOM     36  C   UNL A   1      38.995  29.289  28.875  1.00  0.00     0.010 A 
ATOM     37  C   UNL A   1      39.999  30.605  30.633  1.00  0.00     0.010 A 
ATOM     38  C   UNL A   1      40.063  29.546  29.725  1.00  0.00    -0.014 A 
BRANCH  38  39
ATOM     39  C   UNL A   1      41.271  28.746  29.832  1.00  0.00     0.031 A 
ATOM     40  C   UNL A   1      41.308  27.362  29.330  1.00  0.00     0.074 A 
ATOM     41  C   UNL A   1      42.423  29.375  30.156  1.00  0.00     0.049 A 
ATOM     42  N   UNL A   1      42.208  26.502  29.668  1.00  0.00    -0.248 NA
ATOM     43  C   UNL A   1      40.318  26.842  28.395  1.00  0.00     0.031 C 
ATOM     44  C   UNL A   1      43.784  28.922  29.890  1.00  0.00     0.029 A 
ATOM     45  N   UNL A   1      42.590  30.482  30.996  1.00  0.00    -0.354 N 
ATOM     46  C   UNL A   1      42.086  25.431  28.810  1.00  0.00     0.074 A 
ATOM     47  C   UNL A   1      40.856  25.659  28.085  1.00  0.00     0.031 C 
ATOM     48  C   UNL A   1      44.614  29.526  30.752  1.00  0.00     0.029 A 
ATOM     49  C   UNL A   1      43.786  30.254  31.698  1.00  0.00     0.049 A 
ATOM     50  H   UNL A   1      41.993  31.260  31.078  1.00  0.00     0.167 HD
ATOM     51  C   UNL A   1      43.116  24.551  28.678  1.00  0.00     0.034 A 
ATOM     52  C   UNL A   1      43.866  30.160  33.057  1.00  0.00     0.034 A 
ATOM     53  C   UNL A   1      44.257  24.932  29.515  1.00  0.00     0.049 A 
ATOM     54  C   UNL A   1      44.486  28.862  33.535  1.00  0.00     0.074 A 
ATOM     55  C   UNL A   1      45.417  25.644  29.249  1.00  0.00     0.029 A 
ATOM     56  N   UNL A   1      44.168  24.830  30.896  1.00  0.00    -0.354 N 
ATOM     57  N   UNL A   1      44.740  27.842  32.763  1.00  0.00    -0.248 NA
ATOM     58  C   UNL A   1      44.849  28.599  34.923  1.00  0.00     0.031 C 
ATOM     59  C   UNL A   1      46.008  26.005  30.485  1.00  0.00     0.029 A 
ATOM     60  C   UNL A   1      45.219  25.501  31.503  1.00  0.00     0.049 A 
ATOM     61  H   UNL A   1      43.457  24.348  31.378  1.00  0.00     0.167 HD
ATOM     62  C   UNL A   1      45.171  26.775  33.513  1.00  0.00     0.074 A 
ATOM     63  C   UNL A   1      45.291  27.330  34.852  1.00  0.00     0.031 C 
ATOM     64  C   UNL A   1      45.334  25.531  32.958  1.00  0.00     0.034 A 
BRANCH  51  65
ATOM     65  C   UNL A   1      43.220  23.566  27.532  1.00  0.00     0.023 A 
ATOM     66  C   UNL A   1      43.759  24.030  26.312  1.00  0.00     0.012 A 
ATOM     67  C   UNL A   1      42.772  22.228  27.549  1.00  0.00     0.148 A 
ATOM     68  C   UNL A   1      43.744  23.263  25.144  1.00  0.00     0.002 A 
ATOM     69  C   UNL A   1      42.683  21.486  26.366  1.00  0.00     0.091 A 
ATOM     70  F   UNL A   1      42.489  21.642  28.720  1.00  0.00    -0.205 F 
ATOM     71  C   UNL A   1      43.165  22.005  25.160  1.00  0.00     0.022 A 
BRANCH  69  72
ATOM     72  S   UNL A   1      41.827  19.903  26.291  1.00  0.00     0.127 S 
ATOM     73  O   UNL A   1      42.299  19.233  27.507  1.00  0.00    -0.237 OA
ATOM     74  O   UNL A   1      40.422  20.298  26.323  1.00  0.00    -0.237 OA
ATOM     75  O   UNL A   1      42.284  19.268  25.060  1.00  0.00    -0.744 OA
ENDBRANCH  69  72
ENDBRANCH  51  65
BRANCH  52  76
ATOM     76  C   UNL A   1      42.814  30.941  33.771  1.00  0.00     0.023 A 
ATOM     77  C   UNL A   1      42.888  32.350  33.664  1.00  0.00     0.012 A 
ATOM     78  C   UNL A   1      41.597  30.351  34.156  1.00  0.00     0.148 A 
ATOM     79  C   UNL A   1      41.746  33.141  33.795  1.00  0.00     0.002 A 
ATOM     80  C   UNL A   1      40.461  31.150  34.290  1.00  0.00     0.091 A 
ATOM     81  F   UNL A   1      41.544  29.021  34.297  1.00  0.00    -0.205 F 
ATOM     82  C   UNL A   1      40.525  32.536  34.071  1.00  0.00     0.022 A 
BRANCH  80  83
ATOM     83  S   UNL A   1      38.840  30.437  34.605  1.00  0.00     0.127 S 
ATOM     84  O   UNL A   1      38.827  29.317  33.670  1.00  0.00    -0.237 OA
ATOM     85  O   UNL A   1      38.931  30.059  36.015  1.00  0.00    -0.237 OA
ATOM     86  O   UNL A   1      37.902  31.516  34.339  1.00  0.00    -0.744 OA
ENDBRANCH  80  83
ENDBRANCH  52  76
BRANCH  64  87
ATOM     87  C   UNL A   1      45.608  24.218  33.687  1.00  0.00     0.023 A 
ATOM     88  C   UNL A   1      44.662  23.183  33.786  1.00  0.00     0.012 A 
ATOM     89  C   UNL A   1      46.903  23.929  34.207  1.00  0.00     0.148 A 
ATOM     90  C   UNL A   1      44.962  21.949  34.381  1.00  0.00     0.002 A 
ATOM     91  C   UNL A   1      47.228  22.665  34.697  1.00  0.00     0.091 A 
ATOM     92  F   UNL A   1      47.838  24.888  34.264  1.00  0.00    -0.205 F 
ATOM     93  C   UNL A   1      46.252  21.678  34.810  1.00  0.00     0.022 A 
BRANCH  91  94
ATOM     94  S   UNL A   1      48.935  22.220  35.058  1.00  0.00     0.127 S 
ATOM     95  O   UNL A   1      49.197  22.981  36.276  1.00  0.00    -0.237 OA
ATOM     96  O   UNL A   1      48.848  20.771  35.254  1.00  0.00    -0.237 OA
ATOM     97  O   UNL A   1      49.684  22.615  33.874  1.00  0.00    -0.744 OA
ENDBRANCH  91  94
ENDBRANCH  64  87
ENDBRANCH  38  39
ENDBRANCH  30  33
ENDBRANCH  28  29
ENDBRANCH  27  28
ENDBRANCH  26  27
ENDBRANCH   1  26
TORSDOF 20
ENDMDL
