MODEL 1
REMARK VINA RESULT:     -11.4      0.000      0.000
REMARK SMILES CC(C)[N@H+](Cc1cccs1)[C@@H](C)c1ccc(C(=O)NCCCCCCNC(=O)c2ccc(-c3c4nc(c(-c5cccc(S(=O)(=O)[O-])c5F)c5ccc([nH]5)c(-c5cccc(S(=O)(=O)[O-])c5F)c5nc(c(-c6cccc(S(=O)(=O)[O-])c6F)c6ccc3[nH]6)C=C5)C=C4)cc2)o1
REMARK SMILES IDX 22 1 21 2 20 3 19 4 17 5 18 6 16 8 13 9 14 10 92 11 15 12
REMARK SMILES IDX 11 13 12 14 4 15 2 17 1 18 3 19 5 20 6 21 7 22 10 23 8 24
REMARK SMILES IDX 9 25 23 26 24 27 25 28 26 29 27 30 28 32 29 33 30 34 91 35
REMARK SMILES IDX 31 36 90 37 32 38 33 39 34 40 84 41 35 42 89 43 83 44 85 45
REMARK SMILES IDX 36 46 88 47 82 48 81 49 37 51 69 52 49 53 68 54 50 55 53 56
REMARK SMILES IDX 67 57 86 58 51 59 52 60 66 62 87 63 54 64 38 65 39 66 47 67
REMARK SMILES IDX 40 68 42 69 48 70 41 71 43 72 44 73 45 74 46 75 70 76 71 77
REMARK SMILES IDX 79 78 72 79 74 80 80 81 73 82 75 83 76 84 77 85 78 86 55 87
REMARK SMILES IDX 56 88 64 89 57 90 59 91 65 92 58 93 60 94 61 95 62 96 63 97
REMARK H PARENT 19 7 4 16 26 31 85 50 53 61
REMARK Flexibility Score: inf
ROOT
ATOM      1  C   UNL A   1      34.051  19.915  24.649  1.00  0.00     0.002 C 
ENDROOT
BRANCH   1   2
ATOM      2  C   UNL A   1      32.745  20.058  25.436  1.00  0.00     0.021 C 
BRANCH   2   3
ATOM      3  C   UNL A   1      31.889  21.213  24.922  1.00  0.00     0.116 C 
BRANCH   3   4
ATOM      4  N   UNL A   1      31.103  21.772  25.994  1.00  0.00    -0.349 N 
ATOM      5  C   UNL A   1      31.230  22.942  26.697  1.00  0.00     0.287 C 
ATOM      6  O   UNL A   1      30.402  23.098  27.602  1.00  0.00    -0.266 OA
ATOM      7  H   UNL A   1      30.338  21.215  26.268  1.00  0.00     0.163 HD
BRANCH   5   8
ATOM      8  C   UNL A   1      32.248  23.929  26.381  1.00  0.00     0.191 A 
ATOM      9  C   UNL A   1      32.833  25.967  25.744  1.00  0.00     0.162 A 
ATOM     10  C   UNL A   1      34.005  25.261  25.867  1.00  0.00     0.053 A 
ATOM     11  O   UNL A   1      31.772  25.163  26.012  1.00  0.00    -0.450 OA
ATOM     12  C   UNL A   1      33.633  23.988  26.356  1.00  0.00     0.057 A 
BRANCH   9  13
ATOM     13  C   UNL A   1      32.515  27.377  25.387  1.00  0.00     0.248 C 
ATOM     14  C   UNL A   1      31.443  27.824  26.412  1.00  0.00     0.084 C 
BRANCH  13  15
ATOM     15  N   UNL A   1      32.050  27.576  24.000  1.00  0.00    -0.320 N 
ATOM     16  H   UNL A   1      31.313  26.871  24.038  1.00  0.00     0.349 HD
BRANCH  15  17
ATOM     17  C   UNL A   1      32.738  27.030  22.809  1.00  0.00     0.178 C 
ATOM     18  C   UNL A   1      31.987  26.364  21.647  1.00  0.00     0.075 C 
ATOM     19  C   UNL A   1      33.579  28.181  22.232  1.00  0.00     0.075 C 
ENDBRANCH  15  17
BRANCH  15  20
ATOM     20  C   UNL A   1      31.557  28.947  23.766  1.00  0.00     0.310 C 
BRANCH  20  21
ATOM     21  C   UNL A   1      30.082  29.064  23.453  1.00  0.00     0.059 A 
ATOM     22  C   UNL A   1      29.194  28.007  23.327  1.00  0.00     0.021 A 
ATOM     23  S   UNL A   1      29.277  30.560  23.208  1.00  0.00    -0.143 S 
ATOM     24  C   UNL A   1      27.878  28.430  22.987  1.00  0.00     0.012 A 
ATOM     25  C   UNL A   1      27.792  29.798  22.876  1.00  0.00     0.065 A 
ENDBRANCH  20  21
ENDBRANCH  15  20
ENDBRANCH  13  15
ENDBRANCH   9  13
ENDBRANCH   5   8
ENDBRANCH   3   4
ENDBRANCH   2   3
ENDBRANCH   1   2
BRANCH   1  26
ATOM     26  C   UNL A   1      35.230  20.699  25.241  1.00  0.00     0.002 C 
BRANCH  26  27
ATOM     27  C   UNL A   1      35.827  21.751  24.301  1.00  0.00     0.021 C 
BRANCH  27  28
ATOM     28  C   UNL A   1      37.286  22.072  24.600  1.00  0.00     0.116 C 
BRANCH  28  29
ATOM     29  N   UNL A   1      37.916  20.990  25.345  1.00  0.00    -0.352 N 
ATOM     30  C   UNL A   1      39.054  21.025  26.105  1.00  0.00     0.251 C 
ATOM     31  H   UNL A   1      37.463  20.118  25.296  1.00  0.00     0.163 HD
ATOM     32  O   UNL A   1      39.608  19.979  26.441  1.00  0.00    -0.269 OA
BRANCH  30  33
ATOM     33  C   UNL A   1      39.604  22.330  26.515  1.00  0.00     0.039 A 
ATOM     34  C   UNL A   1      40.760  22.372  27.296  1.00  0.00     0.014 A 
ATOM     35  C   UNL A   1      38.970  23.510  26.118  1.00  0.00     0.014 A 
ATOM     36  C   UNL A   1      41.308  23.607  27.642  1.00  0.00     0.010 A 
ATOM     37  C   UNL A   1      39.562  24.735  26.394  1.00  0.00     0.010 A 
ATOM     38  C   UNL A   1      40.727  24.797  27.172  1.00  0.00    -0.014 A 
BRANCH  38  39
ATOM     39  C   UNL A   1      41.308  26.123  27.490  1.00  0.00     0.031 A 
ATOM     40  C   UNL A   1      42.726  26.434  27.094  1.00  0.00     0.074 A 
ATOM     41  C   UNL A   1      40.595  27.008  28.215  1.00  0.00     0.049 A 
ATOM     42  N   UNL A   1      43.443  27.493  27.358  1.00  0.00    -0.248 NA
ATOM     43  C   UNL A   1      43.442  25.401  26.325  1.00  0.00     0.031 C 
ATOM     44  C   UNL A   1      39.236  26.793  28.713  1.00  0.00     0.029 A 
ATOM     45  N   UNL A   1      40.929  28.253  28.685  1.00  0.00    -0.354 N 
ATOM     46  C   UNL A   1      44.702  27.240  26.828  1.00  0.00     0.074 A 
ATOM     47  C   UNL A   1      44.662  25.911  26.258  1.00  0.00     0.031 C 
ATOM     48  C   UNL A   1      38.850  27.870  29.416  1.00  0.00     0.029 A 
ATOM     49  C   UNL A   1      39.946  28.833  29.452  1.00  0.00     0.049 A 
ATOM     50  H   UNL A   1      41.790  28.689  28.492  1.00  0.00     0.167 HD
ATOM     51  C   UNL A   1      45.786  28.051  26.792  1.00  0.00     0.034 A 
ATOM     52  C   UNL A   1      39.936  30.003  30.120  1.00  0.00     0.034 A 
ATOM     53  C   UNL A   1      45.806  29.385  27.329  1.00  0.00     0.049 A 
ATOM     54  C   UNL A   1      41.145  30.894  30.049  1.00  0.00     0.074 A 
ATOM     55  C   UNL A   1      46.824  30.318  27.273  1.00  0.00     0.029 A 
ATOM     56  N   UNL A   1      44.764  29.969  28.033  1.00  0.00    -0.354 N 
ATOM     57  N   UNL A   1      42.278  30.700  29.419  1.00  0.00    -0.248 NA
ATOM     58  C   UNL A   1      41.063  32.184  30.750  1.00  0.00     0.031 C 
ATOM     59  C   UNL A   1      46.410  31.456  27.973  1.00  0.00     0.029 A 
ATOM     60  C   UNL A   1      45.118  31.247  28.427  1.00  0.00     0.049 A 
ATOM     61  H   UNL A   1      43.899  29.538  28.222  1.00  0.00     0.167 HD
ATOM     62  C   UNL A   1      43.025  31.855  29.611  1.00  0.00     0.074 A 
ATOM     63  C   UNL A   1      42.211  32.751  30.406  1.00  0.00     0.031 C 
ATOM     64  C   UNL A   1      44.275  32.147  29.174  1.00  0.00     0.034 A 
BRANCH  51  65
ATOM     65  C   UNL A   1      47.028  27.528  26.117  1.00  0.00     0.023 A 
ATOM     66  C   UNL A   1      47.244  27.791  24.748  1.00  0.00     0.012 A 
ATOM     67  C   UNL A   1      47.999  26.814  26.844  1.00  0.00     0.148 A 
ATOM     68  C   UNL A   1      48.385  27.313  24.104  1.00  0.00     0.002 A 
ATOM     69  C   UNL A   1      49.158  26.385  26.207  1.00  0.00     0.091 A 
ATOM     70  F   UNL A   1      47.768  26.554  28.139  1.00  0.00    -0.205 F 
ATOM     71  C   UNL A   1      49.345  26.620  24.835  1.00  0.00     0.022 A 
BRANCH  69  72
ATOM     72  S   UNL A   1      50.492  25.557  27.078  1.00  0.00     0.127 S 
ATOM     73  O   UNL A   1      49.811  24.376  27.607  1.00  0.00    -0.237 OA
ATOM     74  O   UNL A   1      51.440  25.282  25.998  1.00  0.00    -0.237 OA
ATOM     75  O   UNL A   1      50.968  26.504  28.077  1.00  0.00    -0.744 OA
ENDBRANCH  69  72
ENDBRANCH  51  65
BRANCH  52  76
ATOM     76  C   UNL A   1      38.716  30.421  30.866  1.00  0.00     0.023 A 
ATOM     77  C   UNL A   1      38.614  30.134  32.241  1.00  0.00     0.012 A 
ATOM     78  C   UNL A   1      37.674  31.125  30.232  1.00  0.00     0.148 A 
ATOM     79  C   UNL A   1      37.481  30.511  32.965  1.00  0.00     0.002 A 
ATOM     80  C   UNL A   1      36.575  31.547  30.970  1.00  0.00     0.091 A 
ATOM     81  F   UNL A   1      37.790  31.384  28.922  1.00  0.00    -0.205 F 
ATOM     82  C   UNL A   1      36.467  31.225  32.332  1.00  0.00     0.022 A 
BRANCH  80  83
ATOM     83  S   UNL A   1      35.282  32.581  30.273  1.00  0.00     0.127 S 
ATOM     84  O   UNL A   1      36.015  33.805  29.958  1.00  0.00    -0.237 OA
ATOM     85  O   UNL A   1      34.863  31.795  29.113  1.00  0.00    -0.237 OA
ATOM     86  O   UNL A   1      34.270  32.704  31.314  1.00  0.00    -0.744 OA
ENDBRANCH  80  83
ENDBRANCH  52  76
BRANCH  64  87
ATOM     87  C   UNL A   1      44.832  33.510  29.492  1.00  0.00     0.023 A 
ATOM     88  C   UNL A   1      45.563  33.719  30.676  1.00  0.00     0.012 A 
ATOM     89  C   UNL A   1      44.701  34.563  28.562  1.00  0.00     0.148 A 
ATOM     90  C   UNL A   1      46.132  34.963  30.946  1.00  0.00     0.002 A 
ATOM     91  C   UNL A   1      45.316  35.782  28.812  1.00  0.00     0.091 A 
ATOM     92  F   UNL A   1      43.985  34.347  27.449  1.00  0.00    -0.205 F 
ATOM     93  C   UNL A   1      46.021  35.989  30.009  1.00  0.00     0.022 A 
BRANCH  91  94
ATOM     94  S   UNL A   1      45.313  37.126  27.620  1.00  0.00     0.127 S 
ATOM     95  O   UNL A   1      45.858  38.227  28.412  1.00  0.00    -0.237 OA
ATOM     96  O   UNL A   1      46.211  36.618  26.582  1.00  0.00    -0.237 OA
ATOM     97  O   UNL A   1      43.928  37.288  27.198  1.00  0.00    -0.744 OA
ENDBRANCH  91  94
ENDBRANCH  64  87
ENDBRANCH  38  39
ENDBRANCH  30  33
ENDBRANCH  28  29
ENDBRANCH  27  28
ENDBRANCH  26  27
ENDBRANCH   1  26
TORSDOF 21
ENDMDL
MODEL 2
REMARK VINA RESULT:     -11.1      1.998      2.797
REMARK SMILES CC(C)[N@H+](Cc1cccs1)[C@@H](C)c1ccc(C(=O)NCCCCCCNC(=O)c2ccc(-c3c4nc(c(-c5cccc(S(=O)(=O)[O-])c5F)c5ccc([nH]5)c(-c5cccc(S(=O)(=O)[O-])c5F)c5nc(c(-c6cccc(S(=O)(=O)[O-])c6F)c6ccc3[nH]6)C=C5)C=C4)cc2)o1
REMARK SMILES IDX 22 1 21 2 20 3 19 4 17 5 18 6 16 8 13 9 14 10 92 11 15 12
REMARK SMILES IDX 11 13 12 14 4 15 2 17 1 18 3 19 5 20 6 21 7 22 10 23 8 24
REMARK SMILES IDX 9 25 23 26 24 27 25 28 26 29 27 30 28 32 29 33 30 34 91 35
REMARK SMILES IDX 31 36 90 37 32 38 33 39 34 40 84 41 35 42 89 43 83 44 85 45
REMARK SMILES IDX 36 46 88 47 82 48 81 49 37 51 69 52 49 53 68 54 50 55 53 56
REMARK SMILES IDX 67 57 86 58 51 59 52 60 66 62 87 63 54 64 38 65 39 66 47 67
REMARK SMILES IDX 40 68 42 69 48 70 41 71 43 72 44 73 45 74 46 75 70 76 71 77
REMARK SMILES IDX 79 78 72 79 74 80 80 81 73 82 75 83 76 84 77 85 78 86 55 87
REMARK SMILES IDX 56 88 64 89 57 90 59 91 65 92 58 93 60 94 61 95 62 96 63 97
REMARK H PARENT 19 7 4 16 26 31 85 50 53 61
REMARK Flexibility Score: inf
ROOT
ATOM      1  C   UNL A   1      34.193  22.335  23.658  1.00  0.00     0.002 C 
ENDROOT
BRANCH   1   2
ATOM      2  C   UNL A   1      33.108  21.653  24.498  1.00  0.00     0.021 C 
BRANCH   2   3
ATOM      3  C   UNL A   1      31.732  22.274  24.274  1.00  0.00     0.116 C 
BRANCH   3   4
ATOM      4  N   UNL A   1      31.203  22.786  25.514  1.00  0.00    -0.349 N 
ATOM      5  C   UNL A   1      31.472  23.937  26.208  1.00  0.00     0.287 C 
ATOM      6  O   UNL A   1      30.870  24.050  27.283  1.00  0.00    -0.266 OA
ATOM      7  H   UNL A   1      30.528  22.207  25.936  1.00  0.00     0.163 HD
BRANCH   5   8
ATOM      8  C   UNL A   1      32.379  24.953  25.703  1.00  0.00     0.191 A 
ATOM      9  C   UNL A   1      32.771  26.767  24.494  1.00  0.00     0.162 A 
ATOM     10  C   UNL A   1      33.991  26.371  24.984  1.00  0.00     0.053 A 
ATOM     11  O   UNL A   1      31.804  25.897  24.887  1.00  0.00    -0.450 OA
ATOM     12  C   UNL A   1      33.724  25.265  25.824  1.00  0.00     0.057 A 
BRANCH   9  13
ATOM     13  C   UNL A   1      32.322  27.908  23.649  1.00  0.00     0.248 C 
ATOM     14  C   UNL A   1      33.620  28.501  23.045  1.00  0.00     0.084 C 
BRANCH  13  15
ATOM     15  N   UNL A   1      31.540  28.938  24.362  1.00  0.00    -0.320 N 
ATOM     16  H   UNL A   1      32.039  29.735  23.966  1.00  0.00     0.349 HD
BRANCH  15  17
ATOM     17  C   UNL A   1      31.749  29.302  25.781  1.00  0.00     0.178 C 
ATOM     18  C   UNL A   1      31.530  28.311  26.934  1.00  0.00     0.075 C 
ATOM     19  C   UNL A   1      33.188  29.834  25.882  1.00  0.00     0.075 C 
ENDBRANCH  15  17
BRANCH  15  20
ATOM     20  C   UNL A   1      30.107  28.894  24.013  1.00  0.00     0.310 C 
BRANCH  20  21
ATOM     21  C   UNL A   1      29.554  30.147  23.373  1.00  0.00     0.059 A 
ATOM     22  C   UNL A   1      29.198  31.308  24.040  1.00  0.00     0.021 A 
ATOM     23  S   UNL A   1      29.287  30.314  21.686  1.00  0.00    -0.143 S 
ATOM     24  C   UNL A   1      28.668  32.304  23.170  1.00  0.00     0.012 A 
ATOM     25  C   UNL A   1      28.647  31.882  21.861  1.00  0.00     0.065 A 
ENDBRANCH  20  21
ENDBRANCH  15  20
ENDBRANCH  13  15
ENDBRANCH   9  13
ENDBRANCH   5   8
ENDBRANCH   3   4
ENDBRANCH   2   3
ENDBRANCH   1   2
BRANCH   1  26
ATOM     26  C   UNL A   1      35.625  22.040  24.123  1.00  0.00     0.002 C 
BRANCH  26  27
ATOM     27  C   UNL A   1      36.575  23.240  24.052  1.00  0.00     0.021 C 
BRANCH  27  28
ATOM     28  C   UNL A   1      37.133  23.652  25.407  1.00  0.00     0.116 C 
BRANCH  28  29
ATOM     29  N   UNL A   1      37.978  22.603  25.964  1.00  0.00    -0.352 N 
ATOM     30  C   UNL A   1      39.217  22.716  26.533  1.00  0.00     0.251 C 
ATOM     31  H   UNL A   1      37.608  21.693  25.926  1.00  0.00     0.163 HD
ATOM     32  O   UNL A   1      39.916  21.717  26.701  1.00  0.00    -0.269 OA
BRANCH  30  33
ATOM     33  C   UNL A   1      39.702  24.047  26.942  1.00  0.00     0.039 A 
ATOM     34  C   UNL A   1      40.110  24.958  25.966  1.00  0.00     0.014 A 
ATOM     35  C   UNL A   1      39.744  24.388  28.297  1.00  0.00     0.014 A 
ATOM     36  C   UNL A   1      40.521  26.234  26.351  1.00  0.00     0.010 A 
ATOM     37  C   UNL A   1      40.074  25.684  28.670  1.00  0.00     0.010 A 
ATOM     38  C   UNL A   1      40.482  26.615  27.703  1.00  0.00    -0.014 A 
BRANCH  38  39
ATOM     39  C   UNL A   1      40.876  27.976  28.139  1.00  0.00     0.031 A 
ATOM     40  C   UNL A   1      42.330  28.358  28.176  1.00  0.00     0.074 A 
ATOM     41  C   UNL A   1      39.936  28.830  28.590  1.00  0.00     0.049 A 
ATOM     42  N   UNL A   1      42.882  29.460  28.610  1.00  0.00    -0.248 NA
ATOM     43  C   UNL A   1      43.294  27.355  27.690  1.00  0.00     0.031 C 
ATOM     44  C   UNL A   1      38.502  28.548  28.664  1.00  0.00     0.029 A 
ATOM     45  N   UNL A   1      40.053  30.099  29.099  1.00  0.00    -0.354 N 
ATOM     46  C   UNL A   1      44.254  29.269  28.489  1.00  0.00     0.074 A 
ATOM     47  C   UNL A   1      44.452  27.931  27.976  1.00  0.00     0.031 C 
ATOM     48  C   UNL A   1      37.871  29.612  29.185  1.00  0.00     0.029 A 
ATOM     49  C   UNL A   1      38.857  30.635  29.518  1.00  0.00     0.049 A 
ATOM     50  H   UNL A   1      40.910  30.578  29.160  1.00  0.00     0.167 HD
ATOM     51  C   UNL A   1      45.258  30.138  28.755  1.00  0.00     0.034 A 
ATOM     52  C   UNL A   1      38.590  31.812  30.116  1.00  0.00     0.034 A 
ATOM     53  C   UNL A   1      45.050  31.478  29.232  1.00  0.00     0.049 A 
ATOM     54  C   UNL A   1      39.720  32.768  30.383  1.00  0.00     0.074 A 
ATOM     55  C   UNL A   1      45.992  32.466  29.454  1.00  0.00     0.029 A 
ATOM     56  N   UNL A   1      43.818  32.015  29.572  1.00  0.00    -0.354 N 
ATOM     57  N   UNL A   1      40.999  32.627  30.128  1.00  0.00    -0.248 NA
ATOM     58  C   UNL A   1      39.369  34.061  30.987  1.00  0.00     0.031 C 
ATOM     59  C   UNL A   1      45.333  33.589  29.963  1.00  0.00     0.029 A 
ATOM     60  C   UNL A   1      43.975  33.316  30.015  1.00  0.00     0.049 A 
ATOM     61  H   UNL A   1      42.959  31.540  29.508  1.00  0.00     0.167 HD
ATOM     62  C   UNL A   1      41.597  33.825  30.499  1.00  0.00     0.074 A 
ATOM     63  C   UNL A   1      40.538  34.686  30.986  1.00  0.00     0.031 C 
ATOM     64  C   UNL A   1      42.905  34.179  30.447  1.00  0.00     0.034 A 
BRANCH  51  65
ATOM     65  C   UNL A   1      46.669  29.675  28.499  1.00  0.00     0.023 A 
ATOM     66  C   UNL A   1      47.275  29.931  27.251  1.00  0.00     0.012 A 
ATOM     67  C   UNL A   1      47.409  29.024  29.504  1.00  0.00     0.148 A 
ATOM     68  C   UNL A   1      48.578  29.507  26.993  1.00  0.00     0.002 A 
ATOM     69  C   UNL A   1      48.725  28.651  29.257  1.00  0.00     0.091 A 
ATOM     70  F   UNL A   1      46.812  28.771  30.678  1.00  0.00    -0.205 F 
ATOM     71  C   UNL A   1      49.305  28.877  27.999  1.00  0.00     0.022 A 
BRANCH  69  72
ATOM     72  S   UNL A   1      49.773  27.909  30.513  1.00  0.00     0.127 S 
ATOM     73  O   UNL A   1      49.085  26.644  30.762  1.00  0.00    -0.237 OA
ATOM     74  O   UNL A   1      51.051  27.781  29.810  1.00  0.00    -0.237 OA
ATOM     75  O   UNL A   1      49.786  28.844  31.630  1.00  0.00    -0.744 OA
ENDBRANCH  69  72
ENDBRANCH  51  65
BRANCH  52  76
ATOM     76  C   UNL A   1      37.184  32.173  30.450  1.00  0.00     0.023 A 
ATOM     77  C   UNL A   1      36.696  31.929  31.748  1.00  0.00     0.012 A 
ATOM     78  C   UNL A   1      36.339  32.782  29.501  1.00  0.00     0.148 A 
ATOM     79  C   UNL A   1      35.382  32.254  32.087  1.00  0.00     0.002 A 
ATOM     80  C   UNL A   1      35.050  33.155  29.862  1.00  0.00     0.091 A 
ATOM     81  F   UNL A   1      36.822  33.002  28.271  1.00  0.00    -0.205 F 
ATOM     82  C   UNL A   1      34.562  32.874  31.148  1.00  0.00     0.022 A 
BRANCH  80  83
ATOM     83  S   UNL A   1      33.966  34.074  28.763  1.00  0.00     0.127 S 
ATOM     84  O   UNL A   1      32.913  34.510  29.677  1.00  0.00    -0.237 OA
ATOM     85  O   UNL A   1      34.852  35.136  28.289  1.00  0.00    -0.237 OA
ATOM     86  O   UNL A   1      33.555  33.129  27.733  1.00  0.00    -0.744 OA
ENDBRANCH  80  83
ENDBRANCH  52  76
BRANCH  64  87
ATOM     87  C   UNL A   1      43.273  35.575  30.875  1.00  0.00     0.023 A 
ATOM     88  C   UNL A   1      43.623  35.838  32.213  1.00  0.00     0.012 A 
ATOM     89  C   UNL A   1      43.358  36.609  29.920  1.00  0.00     0.148 A 
ATOM     90  C   UNL A   1      44.023  37.116  32.601  1.00  0.00     0.002 A 
ATOM     91  C   UNL A   1      43.810  37.865  30.303  1.00  0.00     0.091 A 
ATOM     92  F   UNL A   1      43.004  36.342  28.655  1.00  0.00    -0.205 F 
ATOM     93  C   UNL A   1      44.130  38.125  31.645  1.00  0.00     0.022 A 
BRANCH  91  94
ATOM     94  S   UNL A   1      44.076  39.195  29.125  1.00  0.00     0.127 S 
ATOM     95  O   UNL A   1      45.054  38.597  28.217  1.00  0.00    -0.237 OA
ATOM     96  O   UNL A   1      42.741  39.372  28.554  1.00  0.00    -0.237 OA
ATOM     97  O   UNL A   1      44.560  40.330  29.900  1.00  0.00    -0.744 OA
ENDBRANCH  91  94
ENDBRANCH  64  87
ENDBRANCH  38  39
ENDBRANCH  30  33
ENDBRANCH  28  29
ENDBRANCH  27  28
ENDBRANCH  26  27
ENDBRANCH   1  26
TORSDOF 21
ENDMDL
MODEL 3
REMARK VINA RESULT:     -11.1      5.493      9.004
REMARK SMILES CC(C)[N@H+](Cc1cccs1)[C@@H](C)c1ccc(C(=O)NCCCCCCNC(=O)c2ccc(-c3c4nc(c(-c5cccc(S(=O)(=O)[O-])c5F)c5ccc([nH]5)c(-c5cccc(S(=O)(=O)[O-])c5F)c5nc(c(-c6cccc(S(=O)(=O)[O-])c6F)c6ccc3[nH]6)C=C5)C=C4)cc2)o1
REMARK SMILES IDX 22 1 21 2 20 3 19 4 17 5 18 6 16 8 13 9 14 10 92 11 15 12
REMARK SMILES IDX 11 13 12 14 4 15 2 17 1 18 3 19 5 20 6 21 7 22 10 23 8 24
REMARK SMILES IDX 9 25 23 26 24 27 25 28 26 29 27 30 28 32 29 33 30 34 91 35
REMARK SMILES IDX 31 36 90 37 32 38 33 39 34 40 84 41 35 42 89 43 83 44 85 45
REMARK SMILES IDX 36 46 88 47 82 48 81 49 37 51 69 52 49 53 68 54 50 55 53 56
REMARK SMILES IDX 67 57 86 58 51 59 52 60 66 62 87 63 54 64 38 65 39 66 47 67
REMARK SMILES IDX 40 68 42 69 48 70 41 71 43 72 44 73 45 74 46 75 70 76 71 77
REMARK SMILES IDX 79 78 72 79 74 80 80 81 73 82 75 83 76 84 77 85 78 86 55 87
REMARK SMILES IDX 56 88 64 89 57 90 59 91 65 92 58 93 60 94 61 95 62 96 63 97
REMARK H PARENT 19 7 4 16 26 31 85 50 53 61
REMARK Flexibility Score: inf
ROOT
ATOM      1  C   UNL A   1      32.394  29.239  26.867  1.00  0.00     0.002 C 
ENDROOT
BRANCH   1   2
ATOM      2  C   UNL A   1      32.189  27.874  26.203  1.00  0.00     0.021 C 
BRANCH   2   3
ATOM      3  C   UNL A   1      33.513  27.208  25.838  1.00  0.00     0.116 C 
BRANCH   3   4
ATOM      4  N   UNL A   1      33.766  27.331  24.424  1.00  0.00    -0.349 N 
ATOM      5  C   UNL A   1      33.253  26.654  23.349  1.00  0.00     0.287 C 
ATOM      6  O   UNL A   1      33.729  26.977  22.254  1.00  0.00    -0.266 OA
ATOM      7  H   UNL A   1      34.424  28.025  24.189  1.00  0.00     0.163 HD
BRANCH   5   8
ATOM      8  C   UNL A   1      32.211  25.651  23.490  1.00  0.00     0.191 A 
ATOM      9  C   UNL A   1      31.425  23.795  24.406  1.00  0.00     0.162 A 
ATOM     10  C   UNL A   1      30.490  24.181  23.476  1.00  0.00     0.053 A 
ATOM     11  O   UNL A   1      32.480  24.650  24.391  1.00  0.00    -0.450 OA
ATOM     12  C   UNL A   1      30.954  25.410  22.956  1.00  0.00     0.057 A 
BRANCH   9  13
ATOM     13  C   UNL A   1      31.505  22.671  25.379  1.00  0.00     0.248 C 
ATOM     14  C   UNL A   1      31.755  23.340  26.753  1.00  0.00     0.084 C 
BRANCH  13  15
ATOM     15  N   UNL A   1      32.538  21.660  25.076  1.00  0.00    -0.320 N 
ATOM     16  H   UNL A   1      32.790  22.044  24.165  1.00  0.00     0.349 HD
BRANCH  15  17
ATOM     17  C   UNL A   1      32.243  20.290  24.602  1.00  0.00     0.178 C 
ATOM     18  C   UNL A   1      32.503  19.835  23.159  1.00  0.00     0.075 C 
ATOM     19  C   UNL A   1      32.999  19.337  25.542  1.00  0.00     0.075 C 
ENDBRANCH  15  17
BRANCH  15  20
ATOM     20  C   UNL A   1      33.640  21.675  26.058  1.00  0.00     0.310 C 
BRANCH  20  21
ATOM     21  C   UNL A   1      34.896  22.393  25.617  1.00  0.00     0.059 A 
ATOM     22  C   UNL A   1      35.670  23.227  26.407  1.00  0.00     0.021 A 
ATOM     23  S   UNL A   1      35.558  22.269  24.039  1.00  0.00    -0.143 S 
ATOM     24  C   UNL A   1      36.770  23.791  25.699  1.00  0.00     0.012 A 
ATOM     25  C   UNL A   1      36.814  23.362  24.394  1.00  0.00     0.065 A 
ENDBRANCH  20  21
ENDBRANCH  15  20
ENDBRANCH  13  15
ENDBRANCH   9  13
ENDBRANCH   5   8
ENDBRANCH   3   4
ENDBRANCH   2   3
ENDBRANCH   1   2
BRANCH   1  26
ATOM     26  C   UNL A   1      31.816  30.418  26.073  1.00  0.00     0.002 C 
BRANCH  26  27
ATOM     27  C   UNL A   1      31.663  31.711  26.879  1.00  0.00     0.021 C 
BRANCH  27  28
ATOM     28  C   UNL A   1      32.975  32.457  27.084  1.00  0.00     0.116 C 
BRANCH  28  29
ATOM     29  N   UNL A   1      32.733  33.847  27.447  1.00  0.00    -0.352 N 
ATOM     30  C   UNL A   1      33.214  34.546  28.521  1.00  0.00     0.251 C 
ATOM     31  H   UNL A   1      32.146  34.351  26.839  1.00  0.00     0.163 HD
ATOM     32  O   UNL A   1      32.704  35.619  28.842  1.00  0.00    -0.269 OA
BRANCH  30  33
ATOM     33  C   UNL A   1      34.350  33.998  29.285  1.00  0.00     0.039 A 
ATOM     34  C   UNL A   1      34.127  32.970  30.203  1.00  0.00     0.014 A 
ATOM     35  C   UNL A   1      35.636  34.505  29.082  1.00  0.00     0.014 A 
ATOM     36  C   UNL A   1      35.209  32.419  30.889  1.00  0.00     0.010 A 
ATOM     37  C   UNL A   1      36.720  33.899  29.703  1.00  0.00     0.010 A 
ATOM     38  C   UNL A   1      36.516  32.862  30.625  1.00  0.00    -0.014 A 
BRANCH  38  39
ATOM     39  C   UNL A   1      37.690  32.269  31.309  1.00  0.00     0.031 A 
ATOM     40  C   UNL A   1      38.437  31.134  30.662  1.00  0.00     0.074 A 
ATOM     41  C   UNL A   1      38.024  32.685  32.546  1.00  0.00     0.049 A 
ATOM     42  N   UNL A   1      39.427  30.423  31.135  1.00  0.00    -0.248 NA
ATOM     43  C   UNL A   1      37.991  30.723  29.320  1.00  0.00     0.031 C 
ATOM     44  C   UNL A   1      37.332  33.731  33.301  1.00  0.00     0.029 A 
ATOM     45  N   UNL A   1      39.010  32.256  33.398  1.00  0.00    -0.354 N 
ATOM     46  C   UNL A   1      39.694  29.459  30.170  1.00  0.00     0.074 A 
ATOM     47  C   UNL A   1      38.738  29.652  29.102  1.00  0.00     0.031 C 
ATOM     48  C   UNL A   1      37.917  33.865  34.502  1.00  0.00     0.029 A 
ATOM     49  C   UNL A   1      38.997  32.890  34.618  1.00  0.00     0.049 A 
ATOM     50  H   UNL A   1      39.663  31.560  33.159  1.00  0.00     0.167 HD
ATOM     51  C   UNL A   1      40.665  28.515  30.161  1.00  0.00     0.034 A 
ATOM     52  C   UNL A   1      39.759  32.696  35.711  1.00  0.00     0.034 A 
ATOM     53  C   UNL A   1      41.633  28.353  31.211  1.00  0.00     0.049 A 
ATOM     54  C   UNL A   1      40.844  31.656  35.669  1.00  0.00     0.074 A 
ATOM     55  C   UNL A   1      42.708  27.483  31.263  1.00  0.00     0.029 A 
ATOM     56  N   UNL A   1      41.637  29.066  32.400  1.00  0.00    -0.354 N 
ATOM     57  N   UNL A   1      41.176  30.848  34.690  1.00  0.00    -0.248 NA
ATOM     58  C   UNL A   1      41.684  31.520  36.867  1.00  0.00     0.031 C 
ATOM     59  C   UNL A   1      43.341  27.647  32.499  1.00  0.00     0.029 A 
ATOM     60  C   UNL A   1      42.687  28.649  33.198  1.00  0.00     0.049 A 
ATOM     61  H   UNL A   1      40.989  29.767  32.640  1.00  0.00     0.167 HD
ATOM     62  C   UNL A   1      42.287  30.143  35.137  1.00  0.00     0.074 A 
ATOM     63  C   UNL A   1      42.579  30.626  36.471  1.00  0.00     0.031 C 
ATOM     64  C   UNL A   1      42.997  29.177  34.503  1.00  0.00     0.034 A 
BRANCH  51  65
ATOM     65  C   UNL A   1      40.748  27.610  28.959  1.00  0.00     0.023 A 
ATOM     66  C   UNL A   1      39.837  26.542  28.821  1.00  0.00     0.012 A 
ATOM     67  C   UNL A   1      41.699  27.840  27.946  1.00  0.00     0.148 A 
ATOM     68  C   UNL A   1      39.901  25.692  27.718  1.00  0.00     0.002 A 
ATOM     69  C   UNL A   1      41.723  27.019  26.825  1.00  0.00     0.091 A 
ATOM     70  F   UNL A   1      42.571  28.846  28.102  1.00  0.00    -0.205 F 
ATOM     71  C   UNL A   1      40.835  25.936  26.716  1.00  0.00     0.022 A 
BRANCH  69  72
ATOM     72  S   UNL A   1      42.833  27.301  25.441  1.00  0.00     0.127 S 
ATOM     73  O   UNL A   1      42.757  26.022  24.737  1.00  0.00    -0.237 OA
ATOM     74  O   UNL A   1      42.185  28.416  24.751  1.00  0.00    -0.237 OA
ATOM     75  O   UNL A   1      44.129  27.618  26.024  1.00  0.00    -0.744 OA
ENDBRANCH  69  72
ENDBRANCH  51  65
BRANCH  52  76
ATOM     76  C   UNL A   1      39.560  33.549  36.917  1.00  0.00     0.023 A 
ATOM     77  C   UNL A   1      40.055  34.867  36.922  1.00  0.00     0.012 A 
ATOM     78  C   UNL A   1      38.859  33.073  38.043  1.00  0.00     0.148 A 
ATOM     79  C   UNL A   1      39.886  35.686  38.039  1.00  0.00     0.002 A 
ATOM     80  C   UNL A   1      38.645  33.913  39.129  1.00  0.00     0.091 A 
ATOM     81  F   UNL A   1      38.400  31.815  38.018  1.00  0.00    -0.205 F 
ATOM     82  C   UNL A   1      39.174  35.213  39.138  1.00  0.00     0.022 A 
BRANCH  80  83
ATOM     83  S   UNL A   1      37.631  33.436  40.534  1.00  0.00     0.127 S 
ATOM     84  O   UNL A   1      38.390  32.316  41.084  1.00  0.00    -0.237 OA
ATOM     85  O   UNL A   1      37.652  34.654  41.344  1.00  0.00    -0.237 OA
ATOM     86  O   UNL A   1      36.325  33.102  39.983  1.00  0.00    -0.744 OA
ENDBRANCH  80  83
ENDBRANCH  52  76
BRANCH  64  87
ATOM     87  C   UNL A   1      44.198  28.608  35.211  1.00  0.00     0.023 A 
ATOM     88  C   UNL A   1      45.472  29.174  35.012  1.00  0.00     0.012 A 
ATOM     89  C   UNL A   1      44.042  27.565  36.146  1.00  0.00     0.148 A 
ATOM     90  C   UNL A   1      46.578  28.691  35.712  1.00  0.00     0.002 A 
ATOM     91  C   UNL A   1      45.137  27.126  36.879  1.00  0.00     0.091 A 
ATOM     92  F   UNL A   1      42.823  27.028  36.307  1.00  0.00    -0.205 F 
ATOM     93  C   UNL A   1      46.408  27.677  36.653  1.00  0.00     0.022 A 
BRANCH  91  94
ATOM     94  S   UNL A   1      44.996  25.899  38.183  1.00  0.00     0.127 S 
ATOM     95  O   UNL A   1      44.114  26.574  39.133  1.00  0.00    -0.237 OA
ATOM     96  O   UNL A   1      44.386  24.770  37.479  1.00  0.00    -0.237 OA
ATOM     97  O   UNL A   1      46.352  25.655  38.657  1.00  0.00    -0.744 OA
ENDBRANCH  91  94
ENDBRANCH  64  87
ENDBRANCH  38  39
ENDBRANCH  30  33
ENDBRANCH  28  29
ENDBRANCH  27  28
ENDBRANCH  26  27
ENDBRANCH   1  26
TORSDOF 21
ENDMDL
