MODEL 1
REMARK VINA RESULT:     -11.6      0.000      0.000
REMARK SMILES C[C@@]1(CN2C(=O)c3ccc(C(=O)NCCCCCCNC(=O)c4ccc(-c5c6nc(c(-c7cccc(S(=O)(=O)[O-])c7F)c7ccc([nH]7)c(-c7cccc(S(=O)(=O)[O-])c7F)c7nc(c(-c8cccc(S(=O)(=O)[O-])c8F)c8ccc5[nH]8)C=C7)C=C6)cc4)cc3C2=O)CCCO1
REMARK SMILES IDX 17 1 16 2 15 3 14 4 13 5 11 6 12 7 10 9 4 10 5 11 88 12 6 13
REMARK SMILES IDX 7 14 87 15 89 16 8 17 86 18 9 19 3 20 2 21 1 22 90 23 93 24
REMARK SMILES IDX 91 25 92 26 18 27 19 28 20 29 21 30 22 32 23 33 24 34 85 35
REMARK SMILES IDX 25 36 84 37 26 38 27 39 28 40 78 41 29 42 83 43 77 44 79 45
REMARK SMILES IDX 30 46 82 47 76 48 75 49 31 51 63 52 43 53 62 54 44 55 47 56
REMARK SMILES IDX 61 57 80 58 45 59 46 60 60 62 81 63 48 64 32 65 33 66 41 67
REMARK SMILES IDX 34 68 36 69 42 70 35 71 37 72 38 73 39 74 40 75 64 76 65 77
REMARK SMILES IDX 73 78 66 79 68 80 74 81 67 82 69 83 70 84 71 85 72 86 49 87
REMARK SMILES IDX 50 88 58 89 51 90 53 91 59 92 52 93 54 94 55 95 56 96 57 97
REMARK H PARENT 13 8 20 31 79 50 47 61
REMARK Flexibility Score: inf
ROOT
ATOM      1  C   UNL A   1      35.292  21.516  26.143  1.00  0.00     0.002 C 
ENDROOT
BRANCH   1   2
ATOM      2  C   UNL A   1      35.355  20.765  24.807  1.00  0.00     0.002 C 
BRANCH   2   3
ATOM      3  C   UNL A   1      34.769  19.347  24.838  1.00  0.00     0.021 C 
BRANCH   3   4
ATOM      4  C   UNL A   1      33.239  19.320  24.848  1.00  0.00     0.116 C 
BRANCH   4   5
ATOM      5  N   UNL A   1      32.722  19.713  23.551  1.00  0.00    -0.352 N 
ATOM      6  C   UNL A   1      32.158  20.872  23.089  1.00  0.00     0.251 C 
ATOM      7  O   UNL A   1      31.821  20.907  21.905  1.00  0.00    -0.269 OA
ATOM      8  H   UNL A   1      32.790  19.008  22.868  1.00  0.00     0.163 HD
BRANCH   6   9
ATOM      9  C   UNL A   1      31.962  22.094  23.924  1.00  0.00     0.040 A 
ATOM     10  N   UNL A   1      31.599  26.621  24.699  1.00  0.00    -0.271 N 
ATOM     11  C   UNL A   1      31.376  25.820  25.781  1.00  0.00     0.261 C 
ATOM     12  C   UNL A   1      31.837  25.890  23.563  1.00  0.00     0.261 C 
ATOM     13  O   UNL A   1      31.042  26.128  26.912  1.00  0.00    -0.269 OA
ATOM     14  C   UNL A   1      31.571  24.449  25.331  1.00  0.00     0.053 A 
ATOM     15  C   UNL A   1      31.848  24.485  23.980  1.00  0.00     0.054 A 
ATOM     16  O   UNL A   1      31.960  26.260  22.416  1.00  0.00    -0.269 OA
ATOM     17  C   UNL A   1      31.471  23.265  26.027  1.00  0.00     0.015 A 
ATOM     18  C   UNL A   1      32.048  23.329  23.249  1.00  0.00     0.028 A 
ATOM     19  C   UNL A   1      31.641  22.080  25.301  1.00  0.00     0.015 A 
BRANCH  10  20
ATOM     20  C   UNL A   1      31.530  28.071  24.741  1.00  0.00     0.164 C 
BRANCH  20  21
ATOM     21  C   UNL A   1      32.921  28.762  24.765  1.00  0.00     0.084 C 
ATOM     22  C   UNL A   1      33.451  29.076  23.365  1.00  0.00     0.044 C 
ATOM     23  C   UNL A   1      33.930  27.910  25.544  1.00  0.00     0.039 C 
ATOM     24  O   UNL A   1      32.820  30.003  25.497  1.00  0.00    -0.373 OA
ATOM     25  C   UNL A   1      33.732  28.376  26.965  1.00  0.00     0.031 C 
ATOM     26  C   UNL A   1      33.431  29.847  26.784  1.00  0.00     0.161 C 
ENDBRANCH  20  21
ENDBRANCH  10  20
ENDBRANCH   6   9
ENDBRANCH   4   5
ENDBRANCH   3   4
ENDBRANCH   2   3
ENDBRANCH   1   2
BRANCH   1  27
ATOM     27  C   UNL A   1      35.310  23.042  26.025  1.00  0.00     0.021 C 
BRANCH  27  28
ATOM     28  C   UNL A   1      36.689  23.630  25.742  1.00  0.00     0.116 C 
BRANCH  28  29
ATOM     29  N   UNL A   1      37.744  22.666  26.015  1.00  0.00    -0.352 N 
ATOM     30  C   UNL A   1      39.027  22.892  26.449  1.00  0.00     0.251 C 
ATOM     31  H   UNL A   1      37.506  21.722  25.870  1.00  0.00     0.163 HD
ATOM     32  O   UNL A   1      39.865  21.997  26.390  1.00  0.00    -0.269 OA
BRANCH  30  33
ATOM     33  C   UNL A   1      39.392  24.221  26.981  1.00  0.00     0.039 A 
ATOM     34  C   UNL A   1      39.141  24.514  28.324  1.00  0.00     0.014 A 
ATOM     35  C   UNL A   1      39.972  25.181  26.144  1.00  0.00     0.014 A 
ATOM     36  C   UNL A   1      39.517  25.756  28.841  1.00  0.00     0.010 A 
ATOM     37  C   UNL A   1      40.407  26.388  26.679  1.00  0.00     0.010 A 
ATOM     38  C   UNL A   1      40.175  26.693  28.028  1.00  0.00    -0.014 A 
BRANCH  38  39
ATOM     39  C   UNL A   1      40.620  28.006  28.560  1.00  0.00     0.031 A 
ATOM     40  C   UNL A   1      42.089  28.285  28.733  1.00  0.00     0.074 A 
ATOM     41  C   UNL A   1      39.704  28.907  28.968  1.00  0.00     0.049 A 
ATOM     42  N   UNL A   1      42.673  29.324  29.270  1.00  0.00    -0.248 NA
ATOM     43  C   UNL A   1      43.026  27.247  28.268  1.00  0.00     0.031 C 
ATOM     44  C   UNL A   1      38.252  28.725  28.910  1.00  0.00     0.029 A 
ATOM     45  N   UNL A   1      39.860  30.144  29.541  1.00  0.00    -0.354 N 
ATOM     46  C   UNL A   1      44.036  29.053  29.236  1.00  0.00     0.074 A 
ATOM     47  C   UNL A   1      44.193  27.735  28.661  1.00  0.00     0.031 C 
ATOM     48  C   UNL A   1      37.651  29.810  29.426  1.00  0.00     0.029 A 
ATOM     49  C   UNL A   1      38.671  30.749  29.880  1.00  0.00     0.049 A 
ATOM     50  H   UNL A   1      40.738  30.559  29.695  1.00  0.00     0.167 HD
ATOM     51  C   UNL A   1      45.068  29.843  29.617  1.00  0.00     0.034 A 
ATOM     52  C   UNL A   1      38.433  31.923  30.498  1.00  0.00     0.034 A 
ATOM     53  C   UNL A   1      44.910  31.170  30.147  1.00  0.00     0.049 A 
ATOM     54  C   UNL A   1      39.601  32.790  30.890  1.00  0.00     0.074 A 
ATOM     55  C   UNL A   1      45.893  32.076  30.504  1.00  0.00     0.029 A 
ATOM     56  N   UNL A   1      43.691  31.784  30.391  1.00  0.00    -0.354 N 
ATOM     57  N   UNL A   1      40.883  32.572  30.724  1.00  0.00    -0.248 NA
ATOM     58  C   UNL A   1      39.288  34.080  31.520  1.00  0.00     0.031 C 
ATOM     59  C   UNL A   1      45.268  33.234  30.978  1.00  0.00     0.029 A 
ATOM     60  C   UNL A   1      43.897  33.057  30.892  1.00  0.00     0.049 A 
ATOM     61  H   UNL A   1      42.811  31.374  30.231  1.00  0.00     0.167 HD
ATOM     62  C   UNL A   1      41.525  33.716  31.184  1.00  0.00     0.074 A 
ATOM     63  C   UNL A   1      40.491  34.629  31.622  1.00  0.00     0.031 C 
ATOM     64  C   UNL A   1      42.853  33.981  31.254  1.00  0.00     0.034 A 
BRANCH  51  65
ATOM     65  C   UNL A   1      46.467  29.320  29.416  1.00  0.00     0.023 A 
ATOM     66  C   UNL A   1      47.120  28.668  30.483  1.00  0.00     0.012 A 
ATOM     67  C   UNL A   1      47.106  29.407  28.164  1.00  0.00     0.148 A 
ATOM     68  C   UNL A   1      48.397  28.136  30.316  1.00  0.00     0.002 A 
ATOM     69  C   UNL A   1      48.361  28.834  27.993  1.00  0.00     0.091 A 
ATOM     70  F   UNL A   1      46.477  30.045  27.168  1.00  0.00    -0.205 F 
ATOM     71  C   UNL A   1      49.011  28.209  29.069  1.00  0.00     0.022 A 
BRANCH  69  72
ATOM     72  S   UNL A   1      49.208  28.803  26.409  1.00  0.00     0.127 S 
ATOM     73  O   UNL A   1      50.075  27.635  26.562  1.00  0.00    -0.237 OA
ATOM     74  O   UNL A   1      48.100  28.622  25.472  1.00  0.00    -0.237 OA
ATOM     75  O   UNL A   1      49.899  30.080  26.296  1.00  0.00    -0.744 OA
ENDBRANCH  69  72
ENDBRANCH  51  65
BRANCH  52  76
ATOM     76  C   UNL A   1      37.034  32.382  30.730  1.00  0.00     0.023 A 
ATOM     77  C   UNL A   1      36.463  32.237  32.010  1.00  0.00     0.012 A 
ATOM     78  C   UNL A   1      36.266  32.957  29.700  1.00  0.00     0.148 A 
ATOM     79  C   UNL A   1      35.141  32.615  32.249  1.00  0.00     0.002 A 
ATOM     80  C   UNL A   1      34.968  33.385  29.959  1.00  0.00     0.091 A 
ATOM     81  F   UNL A   1      36.819  33.077  28.484  1.00  0.00    -0.205 F 
ATOM     82  C   UNL A   1      34.397  33.197  31.226  1.00  0.00     0.022 A 
BRANCH  80  83
ATOM     83  S   UNL A   1      33.987  34.261  28.735  1.00  0.00     0.127 S 
ATOM     84  O   UNL A   1      34.906  35.314  28.312  1.00  0.00    -0.237 OA
ATOM     85  O   UNL A   1      33.742  33.219  27.738  1.00  0.00    -0.237 OA
ATOM     86  O   UNL A   1      32.792  34.704  29.441  1.00  0.00    -0.744 OA
ENDBRANCH  80  83
ENDBRANCH  52  76
BRANCH  64  87
ATOM     87  C   UNL A   1      43.273  35.332  31.766  1.00  0.00     0.023 A 
ATOM     88  C   UNL A   1      43.507  35.522  33.142  1.00  0.00     0.012 A 
ATOM     89  C   UNL A   1      43.518  36.391  30.868  1.00  0.00     0.148 A 
ATOM     90  C   UNL A   1      43.951  36.754  33.620  1.00  0.00     0.002 A 
ATOM     91  C   UNL A   1      44.008  37.599  31.346  1.00  0.00     0.091 A 
ATOM     92  F   UNL A   1      43.271  36.194  29.565  1.00  0.00    -0.205 F 
ATOM     93  C   UNL A   1      44.213  37.787  32.723  1.00  0.00     0.022 A 
BRANCH  91  94
ATOM     94  S   UNL A   1      44.467  38.952  30.256  1.00  0.00     0.127 S 
ATOM     95  O   UNL A   1      45.010  39.925  31.202  1.00  0.00    -0.237 OA
ATOM     96  O   UNL A   1      45.463  38.323  29.387  1.00  0.00    -0.237 OA
ATOM     97  O   UNL A   1      43.242  39.356  29.579  1.00  0.00    -0.744 OA
ENDBRANCH  91  94
ENDBRANCH  64  87
ENDBRANCH  38  39
ENDBRANCH  30  33
ENDBRANCH  28  29
ENDBRANCH  27  28
ENDBRANCH   1  27
TORSDOF 18
ENDMDL
MODEL 2
REMARK VINA RESULT:     -11.4      3.413      8.583
REMARK SMILES C[C@@]1(CN2C(=O)c3ccc(C(=O)NCCCCCCNC(=O)c4ccc(-c5c6nc(c(-c7cccc(S(=O)(=O)[O-])c7F)c7ccc([nH]7)c(-c7cccc(S(=O)(=O)[O-])c7F)c7nc(c(-c8cccc(S(=O)(=O)[O-])c8F)c8ccc5[nH]8)C=C7)C=C6)cc4)cc3C2=O)CCCO1
REMARK SMILES IDX 17 1 16 2 15 3 14 4 13 5 11 6 12 7 10 9 4 10 5 11 88 12 6 13
REMARK SMILES IDX 7 14 87 15 89 16 8 17 86 18 9 19 3 20 2 21 1 22 90 23 93 24
REMARK SMILES IDX 91 25 92 26 18 27 19 28 20 29 21 30 22 32 23 33 24 34 85 35
REMARK SMILES IDX 25 36 84 37 26 38 27 39 28 40 78 41 29 42 83 43 77 44 79 45
REMARK SMILES IDX 30 46 82 47 76 48 75 49 31 51 63 52 43 53 62 54 44 55 47 56
REMARK SMILES IDX 61 57 80 58 45 59 46 60 60 62 81 63 48 64 32 65 33 66 41 67
REMARK SMILES IDX 34 68 36 69 42 70 35 71 37 72 38 73 39 74 40 75 64 76 65 77
REMARK SMILES IDX 73 78 66 79 68 80 74 81 67 82 69 83 70 84 71 85 72 86 49 87
REMARK SMILES IDX 50 88 58 89 51 90 53 91 59 92 52 93 54 94 55 95 56 96 57 97
REMARK H PARENT 13 8 20 31 79 50 47 61
REMARK Flexibility Score: inf
ROOT
ATOM      1  C   UNL A   1      38.220  22.093  25.651  1.00  0.00     0.002 C 
ENDROOT
BRANCH   1   2
ATOM      2  C   UNL A   1      36.788  22.185  25.110  1.00  0.00     0.002 C 
BRANCH   2   3
ATOM      3  C   UNL A   1      35.814  21.149  25.687  1.00  0.00     0.021 C 
BRANCH   3   4
ATOM      4  C   UNL A   1      35.540  19.977  24.742  1.00  0.00     0.116 C 
BRANCH   4   5
ATOM      5  N   UNL A   1      34.325  19.290  25.135  1.00  0.00    -0.352 N 
ATOM      6  C   UNL A   1      33.006  19.658  25.126  1.00  0.00     0.251 C 
ATOM      7  O   UNL A   1      32.183  18.831  25.520  1.00  0.00    -0.269 OA
ATOM      8  H   UNL A   1      34.478  18.379  25.475  1.00  0.00     0.163 HD
BRANCH   6   9
ATOM      9  C   UNL A   1      32.513  20.980  24.639  1.00  0.00     0.040 A 
ATOM     10  N   UNL A   1      30.938  25.286  25.088  1.00  0.00    -0.271 N 
ATOM     11  C   UNL A   1      31.171  24.877  23.807  1.00  0.00     0.261 C 
ATOM     12  C   UNL A   1      31.284  24.324  26.002  1.00  0.00     0.261 C 
ATOM     13  O   UNL A   1      31.071  25.505  22.768  1.00  0.00    -0.269 OA
ATOM     14  C   UNL A   1      31.625  23.496  23.888  1.00  0.00     0.053 A 
ATOM     15  C   UNL A   1      31.700  23.154  25.223  1.00  0.00     0.054 A 
ATOM     16  O   UNL A   1      31.320  24.383  27.212  1.00  0.00    -0.269 OA
ATOM     17  C   UNL A   1      31.988  22.622  22.888  1.00  0.00     0.015 A 
ATOM     18  C   UNL A   1      32.139  21.909  25.631  1.00  0.00     0.028 A 
ATOM     19  C   UNL A   1      32.462  21.364  23.278  1.00  0.00     0.015 A 
BRANCH  10  20
ATOM     20  C   UNL A   1      30.444  26.607  25.435  1.00  0.00     0.164 C 
BRANCH  20  21
ATOM     21  C   UNL A   1      31.564  27.606  25.837  1.00  0.00     0.084 C 
ATOM     22  C   UNL A   1      31.654  27.820  27.348  1.00  0.00     0.044 C 
ATOM     23  C   UNL A   1      31.374  28.944  25.113  1.00  0.00     0.039 C 
ATOM     24  O   UNL A   1      32.836  27.099  25.377  1.00  0.00    -0.373 OA
ATOM     25  C   UNL A   1      32.106  28.727  23.812  1.00  0.00     0.031 C 
ATOM     26  C   UNL A   1      33.264  27.852  24.235  1.00  0.00     0.161 C 
ENDBRANCH  20  21
ENDBRANCH  10  20
ENDBRANCH   6   9
ENDBRANCH   4   5
ENDBRANCH   3   4
ENDBRANCH   2   3
ENDBRANCH   1   2
BRANCH   1  27
ATOM     27  C   UNL A   1      38.929  20.764  25.377  1.00  0.00     0.021 C 
BRANCH  27  28
ATOM     28  C   UNL A   1      39.581  20.140  26.605  1.00  0.00     0.116 C 
BRANCH  28  29
ATOM     29  N   UNL A   1      40.639  19.212  26.233  1.00  0.00    -0.352 N 
ATOM     30  C   UNL A   1      41.948  19.478  25.919  1.00  0.00     0.251 C 
ATOM     31  H   UNL A   1      40.380  18.263  26.204  1.00  0.00     0.163 HD
ATOM     32  O   UNL A   1      42.642  18.617  25.386  1.00  0.00    -0.269 OA
BRANCH  30  33
ATOM     33  C   UNL A   1      42.513  20.810  26.220  1.00  0.00     0.039 A 
ATOM     34  C   UNL A   1      42.754  21.704  25.175  1.00  0.00     0.014 A 
ATOM     35  C   UNL A   1      42.814  21.166  27.539  1.00  0.00     0.014 A 
ATOM     36  C   UNL A   1      43.254  22.977  25.457  1.00  0.00     0.010 A 
ATOM     37  C   UNL A   1      43.245  22.457  27.823  1.00  0.00     0.010 A 
ATOM     38  C   UNL A   1      43.480  23.372  26.786  1.00  0.00    -0.014 A 
BRANCH  38  39
ATOM     39  C   UNL A   1      43.976  24.731  27.120  1.00  0.00     0.031 A 
ATOM     40  C   UNL A   1      43.025  25.761  27.669  1.00  0.00     0.074 A 
ATOM     41  C   UNL A   1      45.253  25.063  26.846  1.00  0.00     0.049 A 
ATOM     42  N   UNL A   1      43.237  27.024  27.928  1.00  0.00    -0.248 NA
ATOM     43  C   UNL A   1      41.644  25.320  27.935  1.00  0.00     0.031 C 
ATOM     44  C   UNL A   1      46.252  24.171  26.253  1.00  0.00     0.029 A 
ATOM     45  N   UNL A   1      45.921  26.252  27.001  1.00  0.00    -0.354 N 
ATOM     46  C   UNL A   1      42.017  27.535  28.356  1.00  0.00     0.074 A 
ATOM     47  C   UNL A   1      41.057  26.455  28.286  1.00  0.00     0.031 C 
ATOM     48  C   UNL A   1      47.404  24.843  26.096  1.00  0.00     0.029 A 
ATOM     49  C   UNL A   1      47.219  26.219  26.544  1.00  0.00     0.049 A 
ATOM     50  H   UNL A   1      45.511  27.051  27.401  1.00  0.00     0.167 HD
ATOM     51  C   UNL A   1      41.728  28.781  28.801  1.00  0.00     0.034 A 
ATOM     52  C   UNL A   1      48.149  27.192  26.483  1.00  0.00     0.034 A 
ATOM     53  C   UNL A   1      42.695  29.839  28.911  1.00  0.00     0.049 A 
ATOM     54  C   UNL A   1      47.805  28.562  27.006  1.00  0.00     0.074 A 
ATOM     55  C   UNL A   1      42.517  31.117  29.408  1.00  0.00     0.029 A 
ATOM     56  N   UNL A   1      44.022  29.740  28.524  1.00  0.00    -0.354 N 
ATOM     57  N   UNL A   1      46.682  28.986  27.533  1.00  0.00    -0.248 NA
ATOM     58  C   UNL A   1      48.866  29.578  26.960  1.00  0.00     0.031 C 
ATOM     59  C   UNL A   1      43.735  31.797  29.308  1.00  0.00     0.029 A 
ATOM     60  C   UNL A   1      44.676  30.933  28.772  1.00  0.00     0.049 A 
ATOM     61  H   UNL A   1      44.437  28.939  28.131  1.00  0.00     0.167 HD
ATOM     62  C   UNL A   1      46.917  30.300  27.924  1.00  0.00     0.074 A 
ATOM     63  C   UNL A   1      48.293  30.596  27.587  1.00  0.00     0.031 C 
ATOM     64  C   UNL A   1      46.067  31.187  28.497  1.00  0.00     0.034 A 
BRANCH  51  65
ATOM     65  C   UNL A   1      40.320  29.054  29.264  1.00  0.00     0.023 A 
ATOM     66  C   UNL A   1      39.333  29.385  28.312  1.00  0.00     0.012 A 
ATOM     67  C   UNL A   1      39.957  28.915  30.617  1.00  0.00     0.148 A 
ATOM     68  C   UNL A   1      38.013  29.602  28.703  1.00  0.00     0.002 A 
ATOM     69  C   UNL A   1      38.629  29.089  30.992  1.00  0.00     0.091 A 
ATOM     70  F   UNL A   1      40.911  28.618  31.509  1.00  0.00    -0.205 F 
ATOM     71  C   UNL A   1      37.660  29.443  30.040  1.00  0.00     0.022 A 
BRANCH  69  72
ATOM     72  S   UNL A   1      38.052  28.832  32.675  1.00  0.00     0.127 S 
ATOM     73  O   UNL A   1      36.683  29.339  32.597  1.00  0.00    -0.237 OA
ATOM     74  O   UNL A   1      38.159  27.380  32.816  1.00  0.00    -0.237 OA
ATOM     75  O   UNL A   1      38.951  29.595  33.530  1.00  0.00    -0.744 OA
ENDBRANCH  69  72
ENDBRANCH  51  65
BRANCH  52  76
ATOM     76  C   UNL A   1      49.516  26.898  25.967  1.00  0.00     0.023 A 
ATOM     77  C   UNL A   1      50.463  26.301  26.822  1.00  0.00     0.012 A 
ATOM     78  C   UNL A   1      49.886  27.203  24.643  1.00  0.00     0.148 A 
ATOM     79  C   UNL A   1      51.764  26.054  26.383  1.00  0.00     0.002 A 
ATOM     80  C   UNL A   1      51.167  26.901  24.194  1.00  0.00     0.091 A 
ATOM     81  F   UNL A   1      48.978  27.782  23.845  1.00  0.00    -0.205 F 
ATOM     82  C   UNL A   1      52.114  26.345  25.068  1.00  0.00     0.022 A 
BRANCH  80  83
ATOM     83  S   UNL A   1      51.659  27.124  22.481  1.00  0.00     0.127 S 
ATOM     84  O   UNL A   1      51.937  28.557  22.433  1.00  0.00    -0.237 OA
ATOM     85  O   UNL A   1      52.838  26.262  22.387  1.00  0.00    -0.237 OA
ATOM     86  O   UNL A   1      50.523  26.669  21.689  1.00  0.00    -0.744 OA
ENDBRANCH  80  83
ENDBRANCH  52  76
BRANCH  64  87
ATOM     87  C   UNL A   1      46.606  32.546  28.854  1.00  0.00     0.023 A 
ATOM     88  C   UNL A   1      47.223  32.752  30.103  1.00  0.00     0.012 A 
ATOM     89  C   UNL A   1      46.575  33.595  27.914  1.00  0.00     0.148 A 
ATOM     90  C   UNL A   1      47.776  33.991  30.423  1.00  0.00     0.002 A 
ATOM     91  C   UNL A   1      47.172  34.811  28.220  1.00  0.00     0.091 A 
ATOM     92  F   UNL A   1      45.966  33.382  26.738  1.00  0.00    -0.205 F 
ATOM     93  C   UNL A   1      47.762  35.015  29.478  1.00  0.00     0.022 A 
BRANCH  91  94
ATOM     94  S   UNL A   1      47.289  36.153  27.032  1.00  0.00     0.127 S 
ATOM     95  O   UNL A   1      48.010  37.167  27.797  1.00  0.00    -0.237 OA
ATOM     96  O   UNL A   1      48.062  35.541  25.949  1.00  0.00    -0.237 OA
ATOM     97  O   UNL A   1      45.918  36.496  26.677  1.00  0.00    -0.744 OA
ENDBRANCH  91  94
ENDBRANCH  64  87
ENDBRANCH  38  39
ENDBRANCH  30  33
ENDBRANCH  28  29
ENDBRANCH  27  28
ENDBRANCH   1  27
TORSDOF 18
ENDMDL
MODEL 3
REMARK VINA RESULT:     -11.3      2.419      3.566
REMARK SMILES C[C@@]1(CN2C(=O)c3ccc(C(=O)NCCCCCCNC(=O)c4ccc(-c5c6nc(c(-c7cccc(S(=O)(=O)[O-])c7F)c7ccc([nH]7)c(-c7cccc(S(=O)(=O)[O-])c7F)c7nc(c(-c8cccc(S(=O)(=O)[O-])c8F)c8ccc5[nH]8)C=C7)C=C6)cc4)cc3C2=O)CCCO1
REMARK SMILES IDX 17 1 16 2 15 3 14 4 13 5 11 6 12 7 10 9 4 10 5 11 88 12 6 13
REMARK SMILES IDX 7 14 87 15 89 16 8 17 86 18 9 19 3 20 2 21 1 22 90 23 93 24
REMARK SMILES IDX 91 25 92 26 18 27 19 28 20 29 21 30 22 32 23 33 24 34 85 35
REMARK SMILES IDX 25 36 84 37 26 38 27 39 28 40 78 41 29 42 83 43 77 44 79 45
REMARK SMILES IDX 30 46 82 47 76 48 75 49 31 51 63 52 43 53 62 54 44 55 47 56
REMARK SMILES IDX 61 57 80 58 45 59 46 60 60 62 81 63 48 64 32 65 33 66 41 67
REMARK SMILES IDX 34 68 36 69 42 70 35 71 37 72 38 73 39 74 40 75 64 76 65 77
REMARK SMILES IDX 73 78 66 79 68 80 74 81 67 82 69 83 70 84 71 85 72 86 49 87
REMARK SMILES IDX 50 88 58 89 51 90 53 91 59 92 52 93 54 94 55 95 56 96 57 97
REMARK H PARENT 13 8 20 31 79 50 47 61
REMARK Flexibility Score: inf
ROOT
ATOM      1  C   UNL A   1      38.005  22.093  25.199  1.00  0.00     0.002 C 
ENDROOT
BRANCH   1   2
ATOM      2  C   UNL A   1      36.518  22.051  24.827  1.00  0.00     0.002 C 
BRANCH   2   3
ATOM      3  C   UNL A   1      35.701  20.981  25.562  1.00  0.00     0.021 C 
BRANCH   3   4
ATOM      4  C   UNL A   1      35.465  19.717  24.733  1.00  0.00     0.116 C 
BRANCH   4   5
ATOM      5  N   UNL A   1      34.245  19.057  25.159  1.00  0.00    -0.352 N 
ATOM      6  C   UNL A   1      32.932  19.447  25.162  1.00  0.00     0.251 C 
ATOM      7  O   UNL A   1      32.103  18.642  25.586  1.00  0.00    -0.269 OA
ATOM      8  H   UNL A   1      34.389  18.152  25.515  1.00  0.00     0.163 HD
BRANCH   6   9
ATOM      9  C   UNL A   1      32.453  20.767  24.655  1.00  0.00     0.040 A 
ATOM     10  N   UNL A   1      30.912  25.091  25.040  1.00  0.00    -0.271 N 
ATOM     11  C   UNL A   1      31.148  24.663  23.765  1.00  0.00     0.261 C 
ATOM     12  C   UNL A   1      31.244  24.137  25.968  1.00  0.00     0.261 C 
ATOM     13  O   UNL A   1      31.060  25.278  22.718  1.00  0.00    -0.269 OA
ATOM     14  C   UNL A   1      31.591  23.280  23.867  1.00  0.00     0.053 A 
ATOM     15  C   UNL A   1      31.655  22.955  25.207  1.00  0.00     0.054 A 
ATOM     16  O   UNL A   1      31.274  24.212  27.178  1.00  0.00    -0.269 OA
ATOM     17  C   UNL A   1      31.952  22.390  22.880  1.00  0.00     0.015 A 
ATOM     18  C   UNL A   1      32.081  21.711  25.633  1.00  0.00     0.028 A 
ATOM     19  C   UNL A   1      32.414  21.133  23.289  1.00  0.00     0.015 A 
BRANCH  10  20
ATOM     20  C   UNL A   1      30.426  26.420  25.367  1.00  0.00     0.164 C 
BRANCH  20  21
ATOM     21  C   UNL A   1      31.553  27.418  25.751  1.00  0.00     0.084 C 
ATOM     22  C   UNL A   1      31.629  27.675  27.257  1.00  0.00     0.044 C 
ATOM     23  C   UNL A   1      31.386  28.736  24.987  1.00  0.00     0.039 C 
ATOM     24  O   UNL A   1      32.824  26.883  25.320  1.00  0.00    -0.373 OA
ATOM     25  C   UNL A   1      32.129  28.473  23.701  1.00  0.00     0.031 C 
ATOM     26  C   UNL A   1      33.273  27.598  24.162  1.00  0.00     0.161 C 
ENDBRANCH  20  21
ENDBRANCH  10  20
ENDBRANCH   6   9
ENDBRANCH   4   5
ENDBRANCH   3   4
ENDBRANCH   2   3
ENDBRANCH   1   2
BRANCH   1  27
ATOM     27  C   UNL A   1      38.741  20.756  25.068  1.00  0.00     0.021 C 
BRANCH  27  28
ATOM     28  C   UNL A   1      39.300  20.220  26.382  1.00  0.00     0.116 C 
BRANCH  28  29
ATOM     29  N   UNL A   1      40.499  19.425  26.165  1.00  0.00    -0.352 N 
ATOM     30  C   UNL A   1      41.797  19.845  26.015  1.00  0.00     0.251 C 
ATOM     31  H   UNL A   1      40.361  18.451  26.121  1.00  0.00     0.163 HD
ATOM     32  O   UNL A   1      42.651  19.072  25.592  1.00  0.00    -0.269 OA
BRANCH  30  33
ATOM     33  C   UNL A   1      42.156  21.236  26.361  1.00  0.00     0.039 A 
ATOM     34  C   UNL A   1      42.310  22.178  25.340  1.00  0.00     0.014 A 
ATOM     35  C   UNL A   1      42.351  21.603  27.696  1.00  0.00     0.014 A 
ATOM     36  C   UNL A   1      42.613  23.502  25.663  1.00  0.00     0.010 A 
ATOM     37  C   UNL A   1      42.584  22.936  28.018  1.00  0.00     0.010 A 
ATOM     38  C   UNL A   1      42.729  23.896  27.006  1.00  0.00    -0.014 A 
BRANCH  38  39
ATOM     39  C   UNL A   1      43.014  25.304  27.381  1.00  0.00     0.031 A 
ATOM     40  C   UNL A   1      44.419  25.837  27.278  1.00  0.00     0.074 A 
ATOM     41  C   UNL A   1      42.033  26.072  27.895  1.00  0.00     0.049 A 
ATOM     42  N   UNL A   1      44.889  26.999  27.648  1.00  0.00    -0.248 NA
ATOM     43  C   UNL A   1      45.436  24.933  26.712  1.00  0.00     0.031 C 
ATOM     44  C   UNL A   1      40.646  25.647  28.103  1.00  0.00     0.029 A 
ATOM     45  N   UNL A   1      42.058  27.361  28.365  1.00  0.00    -0.354 N 
ATOM     46  C   UNL A   1      46.255  26.956  27.389  1.00  0.00     0.074 A 
ATOM     47  C   UNL A   1      46.546  25.638  26.867  1.00  0.00     0.031 C 
ATOM     48  C   UNL A   1      39.955  26.657  28.658  1.00  0.00     0.029 A 
ATOM     49  C   UNL A   1      40.853  27.786  28.875  1.00  0.00     0.049 A 
ATOM     50  H   UNL A   1      42.862  27.927  28.339  1.00  0.00     0.167 HD
ATOM     51  C   UNL A   1      47.178  27.935  27.540  1.00  0.00     0.034 A 
ATOM     52  C   UNL A   1      40.515  28.952  29.462  1.00  0.00     0.034 A 
ATOM     53  C   UNL A   1      46.876  29.256  28.017  1.00  0.00     0.049 A 
ATOM     54  C   UNL A   1      41.558  30.030  29.595  1.00  0.00     0.074 A 
ATOM     55  C   UNL A   1      47.728  30.339  28.148  1.00  0.00     0.029 A 
ATOM     56  N   UNL A   1      45.624  29.678  28.439  1.00  0.00    -0.354 N 
ATOM     57  N   UNL A   1      42.814  30.014  29.218  1.00  0.00    -0.248 NA
ATOM     58  C   UNL A   1      41.129  31.299  30.201  1.00  0.00     0.031 C 
ATOM     59  C   UNL A   1      46.993  31.412  28.661  1.00  0.00     0.029 A 
ATOM     60  C   UNL A   1      45.680  31.004  28.827  1.00  0.00     0.049 A 
ATOM     61  H   UNL A   1      44.817  29.116  28.458  1.00  0.00     0.167 HD
ATOM     62  C   UNL A   1      43.310  31.283  29.496  1.00  0.00     0.074 A 
ATOM     63  C   UNL A   1      42.216  32.046  30.059  1.00  0.00     0.031 C 
ATOM     64  C   UNL A   1      44.562  31.770  29.317  1.00  0.00     0.034 A 
BRANCH  51  65
ATOM     65  C   UNL A   1      48.595  27.636  27.124  1.00  0.00     0.023 A 
ATOM     66  C   UNL A   1      49.503  27.132  28.080  1.00  0.00     0.012 A 
ATOM     67  C   UNL A   1      49.010  27.782  25.787  1.00  0.00     0.148 A 
ATOM     68  C   UNL A   1      50.808  26.805  27.717  1.00  0.00     0.002 A 
ATOM     69  C   UNL A   1      50.300  27.412  25.424  1.00  0.00     0.091 A 
ATOM     70  F   UNL A   1      48.139  28.279  24.898  1.00  0.00    -0.205 F 
ATOM     71  C   UNL A   1      51.202  26.935  26.388  1.00  0.00     0.022 A 
BRANCH  69  72
ATOM     72  S   UNL A   1      50.886  27.465  23.726  1.00  0.00     0.127 S 
ATOM     73  O   UNL A   1      52.134  26.709  23.822  1.00  0.00    -0.237 OA
ATOM     74  O   UNL A   1      49.811  26.780  23.009  1.00  0.00    -0.237 OA
ATOM     75  O   UNL A   1      51.036  28.876  23.395  1.00  0.00    -0.744 OA
ENDBRANCH  69  72
ENDBRANCH  51  65
BRANCH  52  76
ATOM     76  C   UNL A   1      39.113  29.190  29.911  1.00  0.00     0.023 A 
ATOM     77  C   UNL A   1      38.720  28.769  31.197  1.00  0.00     0.012 A 
ATOM     78  C   UNL A   1      38.171  29.827  29.081  1.00  0.00     0.148 A 
ATOM     79  C   UNL A   1      37.404  28.936  31.630  1.00  0.00     0.002 A 
ATOM     80  C   UNL A   1      36.877  30.044  29.541  1.00  0.00     0.091 A 
ATOM     81  F   UNL A   1      38.558  30.211  27.856  1.00  0.00    -0.205 F 
ATOM     82  C   UNL A   1      36.485  29.581  30.807  1.00  0.00     0.022 A 
BRANCH  80  83
ATOM     83  S   UNL A   1      35.669  30.980  28.597  1.00  0.00     0.127 S 
ATOM     84  O   UNL A   1      34.955  31.697  29.650  1.00  0.00    -0.237 OA
ATOM     85  O   UNL A   1      36.523  31.815  27.751  1.00  0.00    -0.237 OA
ATOM     86  O   UNL A   1      34.894  29.986  27.865  1.00  0.00    -0.744 OA
ENDBRANCH  80  83
ENDBRANCH  52  76
BRANCH  64  87
ATOM     87  C   UNL A   1      44.814  33.210  29.674  1.00  0.00     0.023 A 
ATOM     88  C   UNL A   1      45.268  33.546  30.965  1.00  0.00     0.012 A 
ATOM     89  C   UNL A   1      44.681  34.220  28.701  1.00  0.00     0.148 A 
ATOM     90  C   UNL A   1      45.558  34.870  31.290  1.00  0.00     0.002 A 
ATOM     91  C   UNL A   1      45.020  35.529  29.017  1.00  0.00     0.091 A 
ATOM     92  F   UNL A   1      44.230  33.880  27.485  1.00  0.00    -0.205 F 
ATOM     93  C   UNL A   1      45.446  35.858  30.314  1.00  0.00     0.022 A 
BRANCH  91  94
ATOM     94  S   UNL A   1      45.002  36.850  27.799  1.00  0.00     0.127 S 
ATOM     95  O   UNL A   1      45.431  37.996  28.597  1.00  0.00    -0.237 OA
ATOM     96  O   UNL A   1      45.987  36.383  26.823  1.00  0.00    -0.237 OA
ATOM     97  O   UNL A   1      43.636  36.914  27.297  1.00  0.00    -0.744 OA
ENDBRANCH  91  94
ENDBRANCH  64  87
ENDBRANCH  38  39
ENDBRANCH  30  33
ENDBRANCH  28  29
ENDBRANCH  27  28
ENDBRANCH   1  27
TORSDOF 18
ENDMDL
