MODEL 1
REMARK VINA RESULT:     -12.4      0.000      0.000
REMARK SMILES CCc1sc(NC(=O)[C@H]2CC(C)=C(C)C[C@H]2C(=O)NCCCCCCNC(=O)c2ccc(-c3c4nc(c(-c5cccc(S(=O)(=O)[O-])c5F)c5ccc([nH]5)c(-c5cccc(S(=O)(=O)[O-])c5F)c5nc(c(-c6cccc(S(=O)(=O)[O-])c6F)c6ccc3[nH]6)C=C5)C=C4)cc2)nc1-c1ccccc1
REMARK SMILES IDX 22 1 21 2 20 3 19 4 17 5 18 6 16 8 9 9 10 10 11 11 15 12
REMARK SMILES IDX 12 13 13 14 14 15 7 16 6 17 8 19 5 20 3 21 4 22 93 23 92 24
REMARK SMILES IDX 2 25 1 26 94 27 95 28 99 29 96 30 98 31 97 32 23 33 24 34
REMARK SMILES IDX 25 35 26 36 27 37 28 39 29 40 30 41 91 42 31 43 90 44 32 45
REMARK SMILES IDX 33 46 34 47 84 48 35 49 89 50 83 51 85 52 36 53 88 54 82 55
REMARK SMILES IDX 81 56 37 58 69 59 49 60 68 61 50 62 53 63 67 64 86 65 51 66
REMARK SMILES IDX 52 67 66 69 87 70 54 71 38 72 39 73 47 74 40 75 42 76 48 77
REMARK SMILES IDX 41 78 43 79 44 80 45 81 46 82 70 83 71 84 79 85 72 86 74 87
REMARK SMILES IDX 80 88 73 89 75 90 76 91 77 92 78 93 55 94 56 95 64 96 57 97
REMARK SMILES IDX 59 98 65 99 58 100 60 101 61 102 62 103 63 104
REMARK H PARENT 19 7 6 18 26 38 85 57 53 68
REMARK Flexibility Score: inf
ROOT
ATOM      1  C   UNL A   1      31.423  30.151  25.453  1.00  0.00     0.002 C 
ENDROOT
BRANCH   1   2
ATOM      2  C   UNL A   1      32.277  28.925  25.132  1.00  0.00     0.021 C 
BRANCH   2   3
ATOM      3  C   UNL A   1      32.159  27.798  26.150  1.00  0.00     0.116 C 
BRANCH   3   4
ATOM      4  N   UNL A   1      33.353  26.981  26.208  1.00  0.00    -0.356 N 
ATOM      5  C   UNL A   1      33.680  25.811  25.612  1.00  0.00     0.224 C 
ATOM      6  O   UNL A   1      34.781  25.327  25.902  1.00  0.00    -0.275 OA
ATOM      7  H   UNL A   1      34.059  27.345  26.789  1.00  0.00     0.163 HD
BRANCH   5   8
ATOM      8  C   UNL A   1      32.782  25.073  24.615  1.00  0.00     0.095 C 
ATOM      9  C   UNL A   1      31.564  24.337  25.198  1.00  0.00     0.095 C 
ATOM     10  C   UNL A   1      30.236  25.105  25.077  1.00  0.00     0.045 C 
ATOM     11  C   UNL A   1      30.075  25.990  23.863  1.00  0.00    -0.074 C 
ATOM     12  C   UNL A   1      32.523  25.860  23.324  1.00  0.00     0.045 C 
ATOM     13  C   UNL A   1      28.670  26.521  23.693  1.00  0.00     0.039 C 
ATOM     14  C   UNL A   1      31.113  26.338  23.074  1.00  0.00    -0.074 C 
ATOM     15  C   UNL A   1      30.974  27.311  21.928  1.00  0.00     0.039 C 
BRANCH   9  16
ATOM     16  C   UNL A   1      31.800  23.932  26.654  1.00  0.00     0.230 C 
ATOM     17  N   UNL A   1      32.766  23.103  27.100  1.00  0.00    -0.302 N 
ATOM     18  H   UNL A   1      32.919  23.204  28.068  1.00  0.00     0.172 HD
ATOM     19  O   UNL A   1      31.101  24.417  27.553  1.00  0.00    -0.274 OA
BRANCH  17  20
ATOM     20  C   UNL A   1      33.583  22.164  26.551  1.00  0.00     0.190 A 
ATOM     21  C   UNL A   1      35.336  20.901  25.466  1.00  0.00     0.034 A 
ATOM     22  S   UNL A   1      35.270  22.256  26.521  1.00  0.00    -0.101 S 
ATOM     23  C   UNL A   1      34.049  20.419  25.284  1.00  0.00     0.087 A 
ATOM     24  N   UNL A   1      33.057  21.151  25.907  1.00  0.00    -0.220 NA
BRANCH  21  25
ATOM     25  C   UNL A   1      36.647  20.465  24.890  1.00  0.00     0.046 C 
ATOM     26  C   UNL A   1      37.386  21.610  24.211  1.00  0.00     0.010 C 
ENDBRANCH  21  25
BRANCH  23  27
ATOM     27  C   UNL A   1      33.706  19.304  24.422  1.00  0.00     0.001 A 
ATOM     28  C   UNL A   1      34.461  18.127  24.430  1.00  0.00     0.010 A 
ATOM     29  C   UNL A   1      32.614  19.418  23.552  1.00  0.00     0.010 A 
ATOM     30  C   UNL A   1      34.150  17.089  23.551  1.00  0.00     0.001 A 
ATOM     31  C   UNL A   1      32.307  18.381  22.670  1.00  0.00     0.001 A 
ATOM     32  C   UNL A   1      33.079  17.220  22.666  1.00  0.00     0.000 A 
ENDBRANCH  23  27
ENDBRANCH  17  20
ENDBRANCH   9  16
ENDBRANCH   5   8
ENDBRANCH   3   4
ENDBRANCH   2   3
ENDBRANCH   1   2
BRANCH   1  33
ATOM     33  C   UNL A   1      31.720  30.783  26.815  1.00  0.00     0.002 C 
BRANCH  33  34
ATOM     34  C   UNL A   1      31.609  32.310  26.852  1.00  0.00     0.021 C 
BRANCH  34  35
ATOM     35  C   UNL A   1      32.898  33.034  27.230  1.00  0.00     0.116 C 
BRANCH  35  36
ATOM     36  N   UNL A   1      32.630  34.325  27.842  1.00  0.00    -0.352 N 
ATOM     37  C   UNL A   1      33.173  34.851  28.987  1.00  0.00     0.251 C 
ATOM     38  H   UNL A   1      31.977  34.895  27.376  1.00  0.00     0.163 HD
ATOM     39  O   UNL A   1      32.704  35.863  29.495  1.00  0.00    -0.269 OA
BRANCH  37  40
ATOM     40  C   UNL A   1      34.328  34.171  29.607  1.00  0.00     0.039 A 
ATOM     41  C   UNL A   1      35.616  34.484  29.168  1.00  0.00     0.014 A 
ATOM     42  C   UNL A   1      34.130  33.238  30.629  1.00  0.00     0.014 A 
ATOM     43  C   UNL A   1      36.715  33.883  29.784  1.00  0.00     0.010 A 
ATOM     44  C   UNL A   1      35.228  32.683  31.277  1.00  0.00     0.010 A 
ATOM     45  C   UNL A   1      36.530  32.991  30.852  1.00  0.00    -0.014 A 
BRANCH  45  46
ATOM     46  C   UNL A   1      37.686  32.365  31.537  1.00  0.00     0.031 A 
ATOM     47  C   UNL A   1      38.424  31.228  30.884  1.00  0.00     0.074 A 
ATOM     48  C   UNL A   1      38.018  32.763  32.781  1.00  0.00     0.049 A 
ATOM     49  N   UNL A   1      39.430  30.528  31.342  1.00  0.00    -0.248 NA
ATOM     50  C   UNL A   1      37.953  30.804  29.555  1.00  0.00     0.031 C 
ATOM     51  C   UNL A   1      37.322  33.796  33.551  1.00  0.00     0.029 A 
ATOM     52  N   UNL A   1      39.005  32.326  33.627  1.00  0.00    -0.354 N 
ATOM     53  C   UNL A   1      39.687  29.561  30.378  1.00  0.00     0.074 A 
ATOM     54  C   UNL A   1      38.715  29.745  29.324  1.00  0.00     0.031 C 
ATOM     55  C   UNL A   1      37.901  33.909  34.757  1.00  0.00     0.029 A 
ATOM     56  C   UNL A   1      38.997  32.949  34.853  1.00  0.00     0.049 A 
ATOM     57  H   UNL A   1      39.659  31.632  33.379  1.00  0.00     0.167 HD
ATOM     58  C   UNL A   1      40.666  28.627  30.358  1.00  0.00     0.034 A 
ATOM     59  C   UNL A   1      39.783  32.766  35.932  1.00  0.00     0.034 A 
ATOM     60  C   UNL A   1      41.666  28.487  31.381  1.00  0.00     0.049 A 
ATOM     61  C   UNL A   1      40.906  31.767  35.855  1.00  0.00     0.074 A 
ATOM     62  C   UNL A   1      42.761  27.641  31.405  1.00  0.00     0.029 A 
ATOM     63  N   UNL A   1      41.691  29.210  32.563  1.00  0.00    -0.354 N 
ATOM     64  N   UNL A   1      41.246  30.983  34.860  1.00  0.00    -0.248 NA
ATOM     65  C   UNL A   1      41.780  31.656  37.032  1.00  0.00     0.031 C 
ATOM     66  C   UNL A   1      43.443  27.846  32.610  1.00  0.00     0.029 A 
ATOM     67  C   UNL A   1      42.780  28.826  33.329  1.00  0.00     0.049 A 
ATOM     68  H   UNL A   1      41.033  29.894  32.822  1.00  0.00     0.167 HD
ATOM     69  C   UNL A   1      42.387  30.309  35.277  1.00  0.00     0.074 A 
ATOM     70  C   UNL A   1      42.696  30.795  36.607  1.00  0.00     0.031 C 
ATOM     71  C   UNL A   1      43.105  29.361  34.627  1.00  0.00     0.034 A 
BRANCH  58  72
ATOM     72  C   UNL A   1      40.746  27.723  29.155  1.00  0.00     0.023 A 
ATOM     73  C   UNL A   1      39.862  26.630  29.054  1.00  0.00     0.012 A 
ATOM     74  C   UNL A   1      41.648  27.984  28.105  1.00  0.00     0.148 A 
ATOM     75  C   UNL A   1      39.894  25.791  27.940  1.00  0.00     0.002 A 
ATOM     76  C   UNL A   1      41.647  27.167  26.980  1.00  0.00     0.091 A 
ATOM     77  F   UNL A   1      42.498  29.013  28.231  1.00  0.00    -0.205 F 
ATOM     78  C   UNL A   1      40.778  26.066  26.900  1.00  0.00     0.022 A 
BRANCH  76  79
ATOM     79  S   UNL A   1      42.695  27.483  25.556  1.00  0.00     0.127 S 
ATOM     80  O   UNL A   1      42.601  26.215  24.832  1.00  0.00    -0.237 OA
ATOM     81  O   UNL A   1      42.010  28.604  24.910  1.00  0.00    -0.237 OA
ATOM     82  O   UNL A   1      44.010  27.805  26.091  1.00  0.00    -0.744 OA
ENDBRANCH  76  79
ENDBRANCH  58  72
BRANCH  59  83
ATOM     83  C   UNL A   1      39.585  33.609  37.145  1.00  0.00     0.023 A 
ATOM     84  C   UNL A   1      40.115  34.914  37.170  1.00  0.00     0.012 A 
ATOM     85  C   UNL A   1      38.844  33.146  38.249  1.00  0.00     0.148 A 
ATOM     86  C   UNL A   1      39.935  35.732  38.285  1.00  0.00     0.002 A 
ATOM     87  C   UNL A   1      38.624  33.986  39.335  1.00  0.00     0.091 A 
ATOM     88  F   UNL A   1      38.360  31.897  38.213  1.00  0.00    -0.205 F 
ATOM     89  C   UNL A   1      39.181  35.274  39.362  1.00  0.00     0.022 A 
BRANCH  87  90
ATOM     90  S   UNL A   1      37.554  33.523  40.701  1.00  0.00     0.127 S 
ATOM     91  O   UNL A   1      38.375  32.543  41.407  1.00  0.00    -0.237 OA
ATOM     92  O   UNL A   1      37.377  34.797  41.400  1.00  0.00    -0.237 OA
ATOM     93  O   UNL A   1      36.337  33.009  40.085  1.00  0.00    -0.744 OA
ENDBRANCH  87  90
ENDBRANCH  59  83
BRANCH  71  94
ATOM     94  C   UNL A   1      44.312  28.795  35.326  1.00  0.00     0.023 A 
ATOM     95  C   UNL A   1      45.583  29.349  35.076  1.00  0.00     0.012 A 
ATOM     96  C   UNL A   1      44.178  27.774  36.287  1.00  0.00     0.148 A 
ATOM     97  C   UNL A   1      46.706  28.878  35.753  1.00  0.00     0.002 A 
ATOM     98  C   UNL A   1      45.295  27.340  36.990  1.00  0.00     0.091 A 
ATOM     99  F   UNL A   1      42.963  27.245  36.495  1.00  0.00    -0.205 F 
ATOM    100  C   UNL A   1      46.561  27.884  36.717  1.00  0.00     0.022 A 
BRANCH  98 101
ATOM    101  S   UNL A   1      45.184  26.129  38.314  1.00  0.00     0.127 S 
ATOM    102  O   UNL A   1      44.047  26.630  39.082  1.00  0.00    -0.237 OA
ATOM    103  O   UNL A   1      44.928  24.887  37.583  1.00  0.00    -0.237 OA
ATOM    104  O   UNL A   1      46.471  26.170  38.997  1.00  0.00    -0.744 OA
ENDBRANCH  98 101
ENDBRANCH  71  94
ENDBRANCH  45  46
ENDBRANCH  37  40
ENDBRANCH  35  36
ENDBRANCH  34  35
ENDBRANCH  33  34
ENDBRANCH   1  33
TORSDOF 20
ENDMDL
MODEL 2
REMARK VINA RESULT:     -12.2      5.578      8.507
REMARK SMILES CCc1sc(NC(=O)[C@H]2CC(C)=C(C)C[C@H]2C(=O)NCCCCCCNC(=O)c2ccc(-c3c4nc(c(-c5cccc(S(=O)(=O)[O-])c5F)c5ccc([nH]5)c(-c5cccc(S(=O)(=O)[O-])c5F)c5nc(c(-c6cccc(S(=O)(=O)[O-])c6F)c6ccc3[nH]6)C=C5)C=C4)cc2)nc1-c1ccccc1
REMARK SMILES IDX 22 1 21 2 20 3 19 4 17 5 18 6 16 8 9 9 10 10 11 11 15 12
REMARK SMILES IDX 12 13 13 14 14 15 7 16 6 17 8 19 5 20 3 21 4 22 93 23 92 24
REMARK SMILES IDX 2 25 1 26 94 27 95 28 99 29 96 30 98 31 97 32 23 33 24 34
REMARK SMILES IDX 25 35 26 36 27 37 28 39 29 40 30 41 91 42 31 43 90 44 32 45
REMARK SMILES IDX 33 46 34 47 84 48 35 49 89 50 83 51 85 52 36 53 88 54 82 55
REMARK SMILES IDX 81 56 37 58 69 59 49 60 68 61 50 62 53 63 67 64 86 65 51 66
REMARK SMILES IDX 52 67 66 69 87 70 54 71 38 72 39 73 47 74 40 75 42 76 48 77
REMARK SMILES IDX 41 78 43 79 44 80 45 81 46 82 70 83 71 84 79 85 72 86 74 87
REMARK SMILES IDX 80 88 73 89 75 90 76 91 77 92 78 93 55 94 56 95 64 96 57 97
REMARK SMILES IDX 59 98 65 99 58 100 60 101 61 102 62 103 63 104
REMARK H PARENT 19 7 6 18 26 38 85 57 53 68
REMARK Flexibility Score: inf
ROOT
ATOM      1  C   UNL A   1      34.914  23.321  25.086  1.00  0.00     0.002 C 
ENDROOT
BRANCH   1   2
ATOM      2  C   UNL A   1      35.009  24.846  25.086  1.00  0.00     0.021 C 
BRANCH   2   3
ATOM      3  C   UNL A   1      33.705  25.553  24.737  1.00  0.00     0.116 C 
BRANCH   3   4
ATOM      4  N   UNL A   1      33.631  25.912  23.337  1.00  0.00    -0.356 N 
ATOM      5  C   UNL A   1      33.334  27.077  22.716  1.00  0.00     0.224 C 
ATOM      6  O   UNL A   1      33.307  27.058  21.479  1.00  0.00    -0.275 OA
ATOM      7  H   UNL A   1      33.834  25.172  22.722  1.00  0.00     0.163 HD
BRANCH   5   8
ATOM      8  C   UNL A   1      33.041  28.392  23.445  1.00  0.00     0.095 C 
ATOM      9  C   UNL A   1      31.565  28.703  23.740  1.00  0.00     0.095 C 
ATOM     10  C   UNL A   1      31.118  28.374  25.175  1.00  0.00     0.045 C 
ATOM     11  C   UNL A   1      32.156  28.536  26.261  1.00  0.00    -0.074 C 
ATOM     12  C   UNL A   1      34.022  28.689  24.588  1.00  0.00     0.045 C 
ATOM     13  C   UNL A   1      31.584  28.424  27.655  1.00  0.00     0.039 C 
ATOM     14  C   UNL A   1      33.472  28.670  25.994  1.00  0.00    -0.074 C 
ATOM     15  C   UNL A   1      34.522  28.720  27.078  1.00  0.00     0.039 C 
BRANCH   9  16
ATOM     16  C   UNL A   1      30.638  28.015  22.736  1.00  0.00     0.230 C 
ATOM     17  N   UNL A   1      30.003  26.839  22.919  1.00  0.00    -0.302 N 
ATOM     18  H   UNL A   1      29.253  26.724  22.292  1.00  0.00     0.172 HD
ATOM     19  O   UNL A   1      30.370  28.567  21.661  1.00  0.00    -0.274 OA
BRANCH  17  20
ATOM     20  C   UNL A   1      30.139  25.772  23.751  1.00  0.00     0.190 A 
ATOM     21  C   UNL A   1      30.509  24.234  25.581  1.00  0.00     0.034 A 
ATOM     22  S   UNL A   1      29.823  25.801  25.412  1.00  0.00    -0.101 S 
ATOM     23  C   UNL A   1      30.853  23.764  24.323  1.00  0.00     0.087 A 
ATOM     24  N   UNL A   1      30.639  24.653  23.287  1.00  0.00    -0.220 NA
BRANCH  21  25
ATOM     25  C   UNL A   1      30.675  23.633  26.942  1.00  0.00     0.046 C 
ATOM     26  C   UNL A   1      29.461  22.815  27.361  1.00  0.00     0.010 C 
ENDBRANCH  21  25
BRANCH  23  27
ATOM     27  C   UNL A   1      31.497  22.488  24.073  1.00  0.00     0.001 A 
ATOM     28  C   UNL A   1      31.771  22.062  22.769  1.00  0.00     0.010 A 
ATOM     29  C   UNL A   1      31.830  21.662  25.153  1.00  0.00     0.010 A 
ATOM     30  C   UNL A   1      32.337  20.806  22.547  1.00  0.00     0.001 A 
ATOM     31  C   UNL A   1      32.391  20.404  24.930  1.00  0.00     0.001 A 
ATOM     32  C   UNL A   1      32.638  19.975  23.627  1.00  0.00     0.000 A 
ENDBRANCH  23  27
ENDBRANCH  17  20
ENDBRANCH   9  16
ENDBRANCH   5   8
ENDBRANCH   3   4
ENDBRANCH   2   3
ENDBRANCH   1   2
BRANCH   1  33
ATOM     33  C   UNL A   1      35.603  22.650  23.895  1.00  0.00     0.002 C 
BRANCH  33  34
ATOM     34  C   UNL A   1      36.957  22.009  24.216  1.00  0.00     0.021 C 
BRANCH  34  35
ATOM     35  C   UNL A   1      37.384  22.116  25.677  1.00  0.00     0.116 C 
BRANCH  35  36
ATOM     36  N   UNL A   1      38.357  21.096  26.030  1.00  0.00    -0.352 N 
ATOM     37  C   UNL A   1      39.645  21.266  26.471  1.00  0.00     0.251 C 
ATOM     38  H   UNL A   1      38.054  20.164  25.941  1.00  0.00     0.163 HD
ATOM     39  O   UNL A   1      40.416  20.317  26.534  1.00  0.00    -0.269 OA
BRANCH  37  40
ATOM     40  C   UNL A   1      40.092  22.619  26.858  1.00  0.00     0.039 A 
ATOM     41  C   UNL A   1      40.994  22.760  27.915  1.00  0.00     0.014 A 
ATOM     42  C   UNL A   1      39.628  23.740  26.163  1.00  0.00     0.014 A 
ATOM     43  C   UNL A   1      41.461  24.031  28.253  1.00  0.00     0.010 A 
ATOM     44  C   UNL A   1      40.137  24.998  26.466  1.00  0.00     0.010 A 
ATOM     45  C   UNL A   1      41.048  25.157  27.522  1.00  0.00    -0.014 A 
BRANCH  45  46
ATOM     46  C   UNL A   1      41.556  26.511  27.848  1.00  0.00     0.031 A 
ATOM     47  C   UNL A   1      42.977  26.882  27.524  1.00  0.00     0.074 A 
ATOM     48  C   UNL A   1      40.763  27.376  28.512  1.00  0.00     0.049 A 
ATOM     49  N   UNL A   1      43.613  27.998  27.768  1.00  0.00    -0.248 NA
ATOM     50  C   UNL A   1      43.800  25.855  26.864  1.00  0.00     0.031 C 
ATOM     51  C   UNL A   1      39.397  27.098  28.957  1.00  0.00     0.029 A 
ATOM     52  N   UNL A   1      41.005  28.652  28.954  1.00  0.00    -0.354 N 
ATOM     53  C   UNL A   1      44.915  27.796  27.328  1.00  0.00     0.074 A 
ATOM     54  C   UNL A   1      44.987  26.441  26.828  1.00  0.00     0.031 C 
ATOM     55  C   UNL A   1      38.922  28.170  29.612  1.00  0.00     0.029 A 
ATOM     56  C   UNL A   1      39.954  29.203  29.648  1.00  0.00     0.049 A 
ATOM     57  H   UNL A   1      41.851  29.128  28.789  1.00  0.00     0.167 HD
ATOM     58  C   UNL A   1      45.948  28.672  27.311  1.00  0.00     0.034 A 
ATOM     59  C   UNL A   1      39.836  30.405  30.246  1.00  0.00     0.034 A 
ATOM     60  C   UNL A   1      45.854  30.035  27.755  1.00  0.00     0.049 A 
ATOM     61  C   UNL A   1      40.976  31.382  30.152  1.00  0.00     0.074 A 
ATOM     62  C   UNL A   1      46.811  31.032  27.684  1.00  0.00     0.029 A 
ATOM     63  N   UNL A   1      44.737  30.594  28.356  1.00  0.00    -0.354 N 
ATOM     64  N   UNL A   1      42.142  31.234  29.571  1.00  0.00    -0.248 NA
ATOM     65  C   UNL A   1      40.771  32.705  30.759  1.00  0.00     0.031 C 
ATOM     66  C   UNL A   1      46.275  32.192  28.254  1.00  0.00     0.029 A 
ATOM     67  C   UNL A   1      44.981  31.921  28.668  1.00  0.00     0.049 A 
ATOM     68  H   UNL A   1      43.895  30.118  28.536  1.00  0.00     0.167 HD
ATOM     69  C   UNL A   1      42.796  32.452  29.714  1.00  0.00     0.074 A 
ATOM     70  C   UNL A   1      41.888  33.335  30.416  1.00  0.00     0.031 C 
ATOM     71  C   UNL A   1      44.044  32.802  29.316  1.00  0.00     0.034 A 
BRANCH  58  72
ATOM     72  C   UNL A   1      47.254  28.200  26.729  1.00  0.00     0.023 A 
ATOM     73  C   UNL A   1      48.314  27.862  27.596  1.00  0.00     0.012 A 
ATOM     74  C   UNL A   1      47.418  28.036  25.340  1.00  0.00     0.148 A 
ATOM     75  C   UNL A   1      49.527  27.398  27.088  1.00  0.00     0.002 A 
ATOM     76  C   UNL A   1      48.617  27.534  24.843  1.00  0.00     0.091 A 
ATOM     77  F   UNL A   1      46.409  28.386  24.530  1.00  0.00    -0.205 F 
ATOM     78  C   UNL A   1      49.673  27.224  25.714  1.00  0.00     0.022 A 
BRANCH  76  79
ATOM     79  S   UNL A   1      48.876  27.204  23.097  1.00  0.00     0.127 S 
ATOM     80  O   UNL A   1      50.335  27.176  23.015  1.00  0.00    -0.237 OA
ATOM     81  O   UNL A   1      48.231  25.900  22.929  1.00  0.00    -0.237 OA
ATOM     82  O   UNL A   1      48.227  28.295  22.383  1.00  0.00    -0.744 OA
ENDBRANCH  76  79
ENDBRANCH  58  72
BRANCH  59  83
ATOM     83  C   UNL A   1      38.556  30.777  30.913  1.00  0.00     0.023 A 
ATOM     84  C   UNL A   1      38.400  30.530  32.291  1.00  0.00     0.012 A 
ATOM     85  C   UNL A   1      37.515  31.409  30.206  1.00  0.00     0.148 A 
ATOM     86  C   UNL A   1      37.220  30.880  32.947  1.00  0.00     0.002 A 
ATOM     87  C   UNL A   1      36.362  31.802  30.877  1.00  0.00     0.091 A 
ATOM     88  F   UNL A   1      37.674  31.622  28.892  1.00  0.00    -0.205 F 
ATOM     89  C   UNL A   1      36.206  31.525  32.243  1.00  0.00     0.022 A 
BRANCH  87  90
ATOM     90  S   UNL A   1      35.067  32.756  30.076  1.00  0.00     0.127 S 
ATOM     91  O   UNL A   1      34.575  31.814  29.074  1.00  0.00    -0.237 OA
ATOM     92  O   UNL A   1      34.146  33.016  31.183  1.00  0.00    -0.237 OA
ATOM     93  O   UNL A   1      35.727  33.949  29.559  1.00  0.00    -0.744 OA
ENDBRANCH  87  90
ENDBRANCH  59  83
BRANCH  71  94
ATOM     94  C   UNL A   1      44.502  34.207  29.606  1.00  0.00     0.023 A 
ATOM     95  C   UNL A   1      45.135  34.492  30.831  1.00  0.00     0.012 A 
ATOM     96  C   UNL A   1      44.378  35.222  28.637  1.00  0.00     0.148 A 
ATOM     97  C   UNL A   1      45.616  35.773  31.099  1.00  0.00     0.002 A 
ATOM     98  C   UNL A   1      44.899  36.485  28.893  1.00  0.00     0.091 A 
ATOM     99  F   UNL A   1      43.753  34.936  27.485  1.00  0.00    -0.205 F 
ATOM    100  C   UNL A   1      45.509  36.764  30.127  1.00  0.00     0.022 A 
BRANCH  98 101
ATOM    101  S   UNL A   1      44.888  37.794  27.662  1.00  0.00     0.127 S 
ATOM    102  O   UNL A   1      45.797  37.260  26.650  1.00  0.00    -0.237 OA
ATOM    103  O   UNL A   1      43.481  37.834  27.259  1.00  0.00    -0.237 OA
ATOM    104  O   UNL A   1      45.349  38.991  28.353  1.00  0.00    -0.744 OA
ENDBRANCH  98 101
ENDBRANCH  71  94
ENDBRANCH  45  46
ENDBRANCH  37  40
ENDBRANCH  35  36
ENDBRANCH  34  35
ENDBRANCH  33  34
ENDBRANCH   1  33
TORSDOF 20
ENDMDL
MODEL 3
REMARK VINA RESULT:     -12.1      6.058     10.890
REMARK SMILES CCc1sc(NC(=O)[C@H]2CC(C)=C(C)C[C@H]2C(=O)NCCCCCCNC(=O)c2ccc(-c3c4nc(c(-c5cccc(S(=O)(=O)[O-])c5F)c5ccc([nH]5)c(-c5cccc(S(=O)(=O)[O-])c5F)c5nc(c(-c6cccc(S(=O)(=O)[O-])c6F)c6ccc3[nH]6)C=C5)C=C4)cc2)nc1-c1ccccc1
REMARK SMILES IDX 22 1 21 2 20 3 19 4 17 5 18 6 16 8 9 9 10 10 11 11 15 12
REMARK SMILES IDX 12 13 13 14 14 15 7 16 6 17 8 19 5 20 3 21 4 22 93 23 92 24
REMARK SMILES IDX 2 25 1 26 94 27 95 28 99 29 96 30 98 31 97 32 23 33 24 34
REMARK SMILES IDX 25 35 26 36 27 37 28 39 29 40 30 41 91 42 31 43 90 44 32 45
REMARK SMILES IDX 33 46 34 47 84 48 35 49 89 50 83 51 85 52 36 53 88 54 82 55
REMARK SMILES IDX 81 56 37 58 69 59 49 60 68 61 50 62 53 63 67 64 86 65 51 66
REMARK SMILES IDX 52 67 66 69 87 70 54 71 38 72 39 73 47 74 40 75 42 76 48 77
REMARK SMILES IDX 41 78 43 79 44 80 45 81 46 82 70 83 71 84 79 85 72 86 74 87
REMARK SMILES IDX 80 88 73 89 75 90 76 91 77 92 78 93 55 94 56 95 64 96 57 97
REMARK SMILES IDX 59 98 65 99 58 100 60 101 61 102 62 103 63 104
REMARK H PARENT 19 7 6 18 26 38 85 57 53 68
REMARK Flexibility Score: inf
ROOT
ATOM      1  C   UNL A   1      37.006  22.143  25.697  1.00  0.00     0.002 C 
ENDROOT
BRANCH   1   2
ATOM      2  C   UNL A   1      36.688  23.511  25.096  1.00  0.00     0.021 C 
BRANCH   2   3
ATOM      3  C   UNL A   1      35.218  23.713  24.745  1.00  0.00     0.116 C 
BRANCH   3   4
ATOM      4  N   UNL A   1      34.618  24.797  25.495  1.00  0.00    -0.356 N 
ATOM      5  C   UNL A   1      33.470  25.491  25.321  1.00  0.00     0.224 C 
ATOM      6  O   UNL A   1      33.249  26.411  26.117  1.00  0.00    -0.275 OA
ATOM      7  H   UNL A   1      35.143  25.082  26.276  1.00  0.00     0.163 HD
BRANCH   5   8
ATOM      8  C   UNL A   1      32.448  25.202  24.217  1.00  0.00     0.095 C 
ATOM      9  C   UNL A   1      31.133  24.534  24.652  1.00  0.00     0.095 C 
ATOM     10  C   UNL A   1      29.950  25.504  24.818  1.00  0.00     0.045 C 
ATOM     11  C   UNL A   1      29.921  26.701  23.896  1.00  0.00    -0.074 C 
ATOM     12  C   UNL A   1      32.307  26.342  23.200  1.00  0.00     0.045 C 
ATOM     13  C   UNL A   1      28.623  27.471  23.956  1.00  0.00     0.039 C 
ATOM     14  C   UNL A   1      30.992  27.084  23.169  1.00  0.00    -0.074 C 
ATOM     15  C   UNL A   1      31.002  28.342  22.335  1.00  0.00     0.039 C 
BRANCH   9  16
ATOM     16  C   UNL A   1      31.318  23.716  25.931  1.00  0.00     0.230 C 
ATOM     17  N   UNL A   1      31.929  22.518  26.024  1.00  0.00    -0.302 N 
ATOM     18  H   UNL A   1      32.189  22.308  26.951  1.00  0.00     0.172 HD
ATOM     19  O   UNL A   1      30.934  24.169  27.017  1.00  0.00    -0.274 OA
BRANCH  17  20
ATOM     20  C   UNL A   1      32.278  21.525  25.161  1.00  0.00     0.190 A 
ATOM     21  C   UNL A   1      32.476  19.915  23.368  1.00  0.00     0.034 A 
ATOM     22  S   UNL A   1      32.012  21.565  23.492  1.00  0.00    -0.101 S 
ATOM     23  C   UNL A   1      32.889  19.477  24.616  1.00  0.00     0.087 A 
ATOM     24  N   UNL A   1      32.769  20.405  25.632  1.00  0.00    -0.220 NA
BRANCH  21  25
ATOM     25  C   UNL A   1      32.354  19.200  22.058  1.00  0.00     0.046 C 
ATOM     26  C   UNL A   1      31.703  20.067  20.989  1.00  0.00     0.010 C 
ENDBRANCH  21  25
BRANCH  23  27
ATOM     27  C   UNL A   1      33.316  18.121  24.909  1.00  0.00     0.001 A 
ATOM     28  C   UNL A   1      34.600  17.680  24.571  1.00  0.00     0.010 A 
ATOM     29  C   UNL A   1      32.420  17.235  25.520  1.00  0.00     0.010 A 
ATOM     30  C   UNL A   1      34.970  16.356  24.808  1.00  0.00     0.001 A 
ATOM     31  C   UNL A   1      32.790  15.910  25.751  1.00  0.00     0.001 A 
ATOM     32  C   UNL A   1      34.063  15.470  25.389  1.00  0.00     0.000 A 
ENDBRANCH  23  27
ENDBRANCH  17  20
ENDBRANCH   9  16
ENDBRANCH   5   8
ENDBRANCH   3   4
ENDBRANCH   2   3
ENDBRANCH   1   2
BRANCH   1  33
ATOM     33  C   UNL A   1      36.985  20.994  24.686  1.00  0.00     0.002 C 
BRANCH  33  34
ATOM     34  C   UNL A   1      38.015  19.891  24.947  1.00  0.00     0.021 C 
BRANCH  34  35
ATOM     35  C   UNL A   1      39.046  20.222  26.022  1.00  0.00     0.116 C 
BRANCH  35  36
ATOM     36  N   UNL A   1      40.098  19.221  26.085  1.00  0.00    -0.352 N 
ATOM     37  C   UNL A   1      41.454  19.418  26.162  1.00  0.00     0.251 C 
ATOM     38  H   UNL A   1      39.801  18.284  26.071  1.00  0.00     0.163 HD
ATOM     39  O   UNL A   1      42.232  18.485  26.003  1.00  0.00    -0.269 OA
BRANCH  37  40
ATOM     40  C   UNL A   1      41.963  20.778  26.430  1.00  0.00     0.039 A 
ATOM     41  C   UNL A   1      42.115  21.667  25.364  1.00  0.00     0.014 A 
ATOM     42  C   UNL A   1      42.271  21.170  27.735  1.00  0.00     0.014 A 
ATOM     43  C   UNL A   1      42.546  22.971  25.616  1.00  0.00     0.010 A 
ATOM     44  C   UNL A   1      42.647  22.485  27.990  1.00  0.00     0.010 A 
ATOM     45  C   UNL A   1      42.800  23.393  26.931  1.00  0.00    -0.014 A 
BRANCH  45  46
ATOM     46  C   UNL A   1      43.231  24.782  27.220  1.00  0.00     0.031 A 
ATOM     47  C   UNL A   1      42.280  25.745  27.878  1.00  0.00     0.074 A 
ATOM     48  C   UNL A   1      44.446  25.199  26.814  1.00  0.00     0.049 A 
ATOM     49  N   UNL A   1      42.459  27.006  28.174  1.00  0.00    -0.248 NA
ATOM     50  C   UNL A   1      40.944  25.231  28.225  1.00  0.00     0.031 C 
ATOM     51  C   UNL A   1      45.421  24.382  26.089  1.00  0.00     0.029 A 
ATOM     52  N   UNL A   1      45.056  26.423  26.927  1.00  0.00    -0.354 N 
ATOM     53  C   UNL A   1      41.253  27.445  28.704  1.00  0.00     0.074 A 
ATOM     54  C   UNL A   1      40.340  26.325  28.664  1.00  0.00     0.031 C 
ATOM     55  C   UNL A   1      46.504  25.129  25.819  1.00  0.00     0.029 A 
ATOM     56  C   UNL A   1      46.295  26.478  26.335  1.00  0.00     0.049 A 
ATOM     57  H   UNL A   1      44.644  27.189  27.389  1.00  0.00     0.167 HD
ATOM     58  C   UNL A   1      40.944  28.662  29.210  1.00  0.00     0.034 A 
ATOM     59  C   UNL A   1      47.164  27.502  26.221  1.00  0.00     0.034 A 
ATOM     60  C   UNL A   1      41.873  29.755  29.301  1.00  0.00     0.049 A 
ATOM     61  C   UNL A   1      46.822  28.824  26.852  1.00  0.00     0.074 A 
ATOM     62  C   UNL A   1      41.691  30.994  29.889  1.00  0.00     0.029 A 
ATOM     63  N   UNL A   1      43.160  29.741  28.787  1.00  0.00    -0.354 N 
ATOM     64  N   UNL A   1      45.741  29.168  27.511  1.00  0.00    -0.248 NA
ATOM     65  C   UNL A   1      47.833  29.887  26.762  1.00  0.00     0.031 C 
ATOM     66  C   UNL A   1      42.866  31.734  29.721  1.00  0.00     0.029 A 
ATOM     67  C   UNL A   1      43.783  30.952  29.038  1.00  0.00     0.049 A 
ATOM     68  H   UNL A   1      43.570  28.983  28.312  1.00  0.00     0.167 HD
ATOM     69  C   UNL A   1      45.954  30.472  27.940  1.00  0.00     0.074 A 
ATOM     70  C   UNL A   1      47.277  30.850  27.487  1.00  0.00     0.031 C 
ATOM     71  C   UNL A   1      45.123  31.291  28.630  1.00  0.00     0.034 A 
BRANCH  58  72
ATOM     72  C   UNL A   1      39.559  28.856  29.769  1.00  0.00     0.023 A 
ATOM     73  C   UNL A   1      39.272  28.405  31.074  1.00  0.00     0.012 A 
ATOM     74  C   UNL A   1      38.563  29.530  29.036  1.00  0.00     0.148 A 
ATOM     75  C   UNL A   1      38.007  28.594  31.629  1.00  0.00     0.002 A 
ATOM     76  C   UNL A   1      37.316  29.750  29.611  1.00  0.00     0.091 A 
ATOM     77  F   UNL A   1      38.846  29.929  27.788  1.00  0.00    -0.205 F 
ATOM     78  C   UNL A   1      37.034  29.275  30.902  1.00  0.00     0.022 A 
BRANCH  76  79
ATOM     79  S   UNL A   1      36.022  30.682  28.784  1.00  0.00     0.127 S 
ATOM     80  O   UNL A   1      35.461  29.674  27.885  1.00  0.00    -0.237 OA
ATOM     81  O   UNL A   1      35.149  31.056  29.898  1.00  0.00    -0.237 OA
ATOM     82  O   UNL A   1      36.688  31.802  28.136  1.00  0.00    -0.744 OA
ENDBRANCH  76  79
ENDBRANCH  58  72
BRANCH  59  83
ATOM     83  C   UNL A   1      48.478  27.286  25.551  1.00  0.00     0.023 A 
ATOM     84  C   UNL A   1      49.570  26.821  26.310  1.00  0.00     0.012 A 
ATOM     85  C   UNL A   1      48.642  27.497  24.169  1.00  0.00     0.148 A 
ATOM     86  C   UNL A   1      50.809  26.597  25.710  1.00  0.00     0.002 A 
ATOM     87  C   UNL A   1      49.866  27.221  23.567  1.00  0.00     0.091 A 
ATOM     88  F   UNL A   1      47.597  27.954  23.465  1.00  0.00    -0.205 F 
ATOM     89  C   UNL A   1      50.954  26.786  24.338  1.00  0.00     0.022 A 
BRANCH  87  90
ATOM     90  S   UNL A   1      50.098  27.309  21.788  1.00  0.00     0.127 S 
ATOM     91  O   UNL A   1      51.477  26.852  21.642  1.00  0.00    -0.237 OA
ATOM     92  O   UNL A   1      49.083  26.374  21.299  1.00  0.00    -0.237 OA
ATOM     93  O   UNL A   1      49.846  28.699  21.431  1.00  0.00    -0.744 OA
ENDBRANCH  87  90
ENDBRANCH  59  83
BRANCH  71  94
ATOM     94  C   UNL A   1      45.619  32.672  28.964  1.00  0.00     0.023 A 
ATOM     95  C   UNL A   1      46.338  32.883  30.157  1.00  0.00     0.012 A 
ATOM     96  C   UNL A   1      45.446  33.740  28.062  1.00  0.00     0.148 A 
ATOM     97  C   UNL A   1      46.855  34.141  30.460  1.00  0.00     0.002 A 
ATOM     98  C   UNL A   1      46.002  34.981  28.349  1.00  0.00     0.091 A 
ATOM     99  F   UNL A   1      44.741  33.525  26.941  1.00  0.00    -0.205 F 
ATOM    100  C   UNL A   1      46.698  35.185  29.552  1.00  0.00     0.022 A 
BRANCH  98 101
ATOM    101  S   UNL A   1      45.928  36.356  27.194  1.00  0.00     0.127 S 
ATOM    102  O   UNL A   1      44.492  36.611  27.125  1.00  0.00    -0.237 OA
ATOM    103  O   UNL A   1      46.699  37.389  27.887  1.00  0.00    -0.237 OA
ATOM    104  O   UNL A   1      46.541  35.873  25.964  1.00  0.00    -0.744 OA
ENDBRANCH  98 101
ENDBRANCH  71  94
ENDBRANCH  45  46
ENDBRANCH  37  40
ENDBRANCH  35  36
ENDBRANCH  34  35
ENDBRANCH  33  34
ENDBRANCH   1  33
TORSDOF 20
ENDMDL
