MODEL 1
REMARK VINA RESULT:     -11.8      0.000      0.000
REMARK SMILES Cc1csc(NC(=O)[C@@H]2CC=CC[C@H]2C(=O)NCCCCCCNC(=O)c2ccc(-c3c4nc(c(-c5cccc(S(=O)(=O)[O-])c5F)c5ccc([nH]5)c(-c5cccc(S(=O)(=O)[O-])c5F)c5nc(c(-c6cccc(S(=O)(=O)[O-])c6F)c6ccc3[nH]6)C=C5)C=C4)cc2)n1
REMARK SMILES IDX 21 1 20 2 19 3 18 4 17 5 15 6 16 7 14 9 9 10 10 11 11 12
REMARK SMILES IDX 13 13 12 14 7 15 6 16 8 18 5 19 1 20 2 21 3 22 90 23 4 24
REMARK SMILES IDX 22 25 23 26 24 27 25 28 26 30 27 31 28 32 89 33 29 34 88 35
REMARK SMILES IDX 30 36 31 37 32 38 82 39 33 40 87 41 81 42 83 43 34 44 86 45
REMARK SMILES IDX 80 46 79 47 35 49 67 50 47 51 66 52 48 53 51 54 65 55 84 56
REMARK SMILES IDX 49 57 50 58 64 60 85 61 52 62 36 63 37 64 45 65 38 66 40 67
REMARK SMILES IDX 46 68 39 69 41 70 42 71 43 72 44 73 68 74 69 75 77 76 70 77
REMARK SMILES IDX 72 78 78 79 71 80 73 81 74 82 75 83 76 84 53 85 54 86 62 87
REMARK SMILES IDX 55 88 57 89 63 90 56 91 58 92 59 93 60 94 61 95
REMARK H PARENT 17 8 6 17 24 29 83 48 51 59
REMARK Flexibility Score: inf
ROOT
ATOM      1  C   UNL A   1      36.571  20.094  24.969  1.00  0.00     0.002 C 
ENDROOT
BRANCH   1   2
ATOM      2  C   UNL A   1      36.638  21.570  24.561  1.00  0.00     0.002 C 
BRANCH   2   3
ATOM      3  C   UNL A   1      36.510  22.557  25.727  1.00  0.00     0.021 C 
BRANCH   3   4
ATOM      4  C   UNL A   1      35.165  23.278  25.750  1.00  0.00     0.116 C 
BRANCH   4   5
ATOM      5  N   UNL A   1      34.444  22.952  26.966  1.00  0.00    -0.356 N 
ATOM      6  C   UNL A   1      33.147  22.588  27.160  1.00  0.00     0.224 C 
ATOM      7  O   UNL A   1      32.797  22.293  28.306  1.00  0.00    -0.275 OA
ATOM      8  H   UNL A   1      34.982  23.002  27.789  1.00  0.00     0.163 HD
BRANCH   6   9
ATOM      9  C   UNL A   1      32.199  22.398  25.980  1.00  0.00     0.095 C 
ATOM     10  C   UNL A   1      31.676  23.721  25.331  1.00  0.00     0.095 C 
ATOM     11  C   UNL A   1      31.160  23.442  23.921  1.00  0.00     0.041 C 
ATOM     12  C   UNL A   1      31.889  22.449  23.082  1.00  0.00    -0.030 C 
ATOM     13  C   UNL A   1      32.891  21.359  25.061  1.00  0.00     0.041 C 
ATOM     14  C   UNL A   1      32.669  21.502  23.597  1.00  0.00    -0.030 C 
BRANCH  10  15
ATOM     15  C   UNL A   1      30.732  24.449  26.335  1.00  0.00     0.230 C 
ATOM     16  N   UNL A   1      30.537  25.776  26.527  1.00  0.00    -0.302 N 
ATOM     17  H   UNL A   1      29.962  25.992  27.296  1.00  0.00     0.172 HD
ATOM     18  O   UNL A   1      30.103  23.753  27.151  1.00  0.00    -0.274 OA
BRANCH  16  19
ATOM     19  C   UNL A   1      30.988  26.863  25.848  1.00  0.00     0.189 A 
ATOM     20  C   UNL A   1      30.571  29.225  23.223  1.00  0.00     0.068 C 
ATOM     21  C   UNL A   1      31.090  28.559  24.443  1.00  0.00     0.051 A 
ATOM     22  C   UNL A   1      31.880  29.070  25.453  1.00  0.00     0.092 A 
ATOM     23  N   UNL A   1      30.690  27.262  24.653  1.00  0.00    -0.225 NA
ATOM     24  S   UNL A   1      32.031  27.901  26.717  1.00  0.00    -0.105 S 
ENDBRANCH  16  19
ENDBRANCH  10  15
ENDBRANCH   6   9
ENDBRANCH   4   5
ENDBRANCH   3   4
ENDBRANCH   2   3
ENDBRANCH   1   2
BRANCH   1  25
ATOM     25  C   UNL A   1      37.923  19.377  24.986  1.00  0.00     0.021 C 
BRANCH  25  26
ATOM     26  C   UNL A   1      39.002  20.105  25.778  1.00  0.00     0.116 C 
BRANCH  26  27
ATOM     27  N   UNL A   1      40.141  19.241  26.053  1.00  0.00    -0.352 N 
ATOM     28  C   UNL A   1      41.441  19.587  26.321  1.00  0.00     0.251 C 
ATOM     29  H   UNL A   1      39.952  18.276  26.045  1.00  0.00     0.163 HD
ATOM     30  O   UNL A   1      42.322  18.735  26.308  1.00  0.00    -0.269 OA
BRANCH  28  31
ATOM     31  C   UNL A   1      41.771  20.997  26.613  1.00  0.00     0.039 A 
ATOM     32  C   UNL A   1      42.035  21.373  27.931  1.00  0.00     0.014 A 
ATOM     33  C   UNL A   1      41.820  21.943  25.585  1.00  0.00     0.014 A 
ATOM     34  C   UNL A   1      42.396  22.692  28.211  1.00  0.00     0.010 A 
ATOM     35  C   UNL A   1      42.258  23.234  25.855  1.00  0.00     0.010 A 
ATOM     36  C   UNL A   1      42.537  23.626  27.172  1.00  0.00    -0.014 A 
BRANCH  36  37
ATOM     37  C   UNL A   1      42.978  25.018  27.443  1.00  0.00     0.031 A 
ATOM     38  C   UNL A   1      42.032  26.002  28.075  1.00  0.00     0.074 A 
ATOM     39  C   UNL A   1      44.202  25.416  27.045  1.00  0.00     0.049 A 
ATOM     40  N   UNL A   1      42.221  27.267  28.348  1.00  0.00    -0.248 NA
ATOM     41  C   UNL A   1      40.688  25.509  28.419  1.00  0.00     0.031 C 
ATOM     42  C   UNL A   1      45.181  24.576  26.352  1.00  0.00     0.029 A 
ATOM     43  N   UNL A   1      44.821  26.636  27.143  1.00  0.00    -0.354 N 
ATOM     44  C   UNL A   1      41.013  27.729  28.859  1.00  0.00     0.074 A 
ATOM     45  C   UNL A   1      40.087  26.618  28.823  1.00  0.00     0.031 C 
ATOM     46  C   UNL A   1      46.280  25.302  26.098  1.00  0.00     0.029 A 
ATOM     47  C   UNL A   1      46.074  26.665  26.577  1.00  0.00     0.049 A 
ATOM     48  H   UNL A   1      44.408  27.417  27.578  1.00  0.00     0.167 HD
ATOM     49  C   UNL A   1      40.710  28.957  29.342  1.00  0.00     0.034 A 
ATOM     50  C   UNL A   1      46.954  27.677  26.450  1.00  0.00     0.034 A 
ATOM     51  C   UNL A   1      41.645  30.048  29.407  1.00  0.00     0.049 A 
ATOM     52  C   UNL A   1      46.605  29.025  27.019  1.00  0.00     0.074 A 
ATOM     53  C   UNL A   1      41.467  31.303  29.960  1.00  0.00     0.029 A 
ATOM     54  N   UNL A   1      42.931  30.020  28.888  1.00  0.00    -0.354 N 
ATOM     55  N   UNL A   1      45.515  29.400  27.644  1.00  0.00    -0.248 NA
ATOM     56  C   UNL A   1      47.621  30.080  26.898  1.00  0.00     0.031 C 
ATOM     57  C   UNL A   1      42.632  32.046  29.743  1.00  0.00     0.029 A 
ATOM     58  C   UNL A   1      43.552  31.241  29.091  1.00  0.00     0.049 A 
ATOM     59  H   UNL A   1      43.343  29.246  28.441  1.00  0.00     0.167 HD
ATOM     60  C   UNL A   1      45.727  30.720  28.023  1.00  0.00     0.074 A 
ATOM     61  C   UNL A   1      47.059  31.074  27.573  1.00  0.00     0.031 C 
ATOM     62  C   UNL A   1      44.893  31.567  28.676  1.00  0.00     0.034 A 
BRANCH  49  63
ATOM     63  C   UNL A   1      39.316  29.173  29.874  1.00  0.00     0.023 A 
ATOM     64  C   UNL A   1      38.998  28.769  31.188  1.00  0.00     0.012 A 
ATOM     65  C   UNL A   1      38.332  29.806  29.091  1.00  0.00     0.148 A 
ATOM     66  C   UNL A   1      37.712  28.950  31.697  1.00  0.00     0.002 A 
ATOM     67  C   UNL A   1      37.066  30.028  29.622  1.00  0.00     0.091 A 
ATOM     68  F   UNL A   1      38.644  30.164  27.837  1.00  0.00    -0.205 F 
ATOM     69  C   UNL A   1      36.750  29.588  30.917  1.00  0.00     0.022 A 
BRANCH  67  70
ATOM     70  S   UNL A   1      35.784  30.915  28.729  1.00  0.00     0.127 S 
ATOM     71  O   UNL A   1      36.567  31.922  28.014  1.00  0.00    -0.237 OA
ATOM     72  O   UNL A   1      35.218  29.867  27.880  1.00  0.00    -0.237 OA
ATOM     73  O   UNL A   1      34.876  31.432  29.743  1.00  0.00    -0.744 OA
ENDBRANCH  67  70
ENDBRANCH  49  63
BRANCH  50  74
ATOM     74  C   UNL A   1      48.278  27.431  25.812  1.00  0.00     0.023 A 
ATOM     75  C   UNL A   1      49.362  27.015  26.609  1.00  0.00     0.012 A 
ATOM     76  C   UNL A   1      48.460  27.570  24.423  1.00  0.00     0.148 A 
ATOM     77  C   UNL A   1      50.611  26.768  26.039  1.00  0.00     0.002 A 
ATOM     78  C   UNL A   1      49.691  27.270  23.853  1.00  0.00     0.091 A 
ATOM     79  F   UNL A   1      47.417  27.973  23.685  1.00  0.00    -0.205 F 
ATOM     80  C   UNL A   1      50.773  26.886  24.661  1.00  0.00     0.022 A 
BRANCH  78  81
ATOM     81  S   UNL A   1      49.959  27.268  22.078  1.00  0.00     0.127 S 
ATOM     82  O   UNL A   1      48.923  26.345  21.619  1.00  0.00    -0.237 OA
ATOM     83  O   UNL A   1      49.729  28.672  21.738  1.00  0.00    -0.237 OA
ATOM     84  O   UNL A   1      51.332  26.818  21.885  1.00  0.00    -0.744 OA
ENDBRANCH  78  81
ENDBRANCH  50  74
BRANCH  62  85
ATOM     85  C   UNL A   1      45.400  32.952  28.982  1.00  0.00     0.023 A 
ATOM     86  C   UNL A   1      46.120  33.194  30.168  1.00  0.00     0.012 A 
ATOM     87  C   UNL A   1      45.227  33.998  28.053  1.00  0.00     0.148 A 
ATOM     88  C   UNL A   1      46.629  34.463  30.442  1.00  0.00     0.002 A 
ATOM     89  C   UNL A   1      45.781  35.246  28.308  1.00  0.00     0.091 A 
ATOM     90  F   UNL A   1      44.524  33.753  26.937  1.00  0.00    -0.205 F 
ATOM     91  C   UNL A   1      46.470  35.485  29.509  1.00  0.00     0.022 A 
BRANCH  89  92
ATOM     92  S   UNL A   1      45.715  36.592  27.121  1.00  0.00     0.127 S 
ATOM     93  O   UNL A   1      46.384  36.001  25.962  1.00  0.00    -0.237 OA
ATOM     94  O   UNL A   1      44.273  36.789  26.957  1.00  0.00    -0.237 OA
ATOM     95  O   UNL A   1      46.411  37.711  27.740  1.00  0.00    -0.744 OA
ENDBRANCH  89  92
ENDBRANCH  62  85
ENDBRANCH  36  37
ENDBRANCH  28  31
ENDBRANCH  26  27
ENDBRANCH  25  26
ENDBRANCH   1  25
TORSDOF 18
ENDMDL
MODEL 2
REMARK VINA RESULT:     -11.7      6.337     11.633
REMARK SMILES Cc1csc(NC(=O)[C@@H]2CC=CC[C@H]2C(=O)NCCCCCCNC(=O)c2ccc(-c3c4nc(c(-c5cccc(S(=O)(=O)[O-])c5F)c5ccc([nH]5)c(-c5cccc(S(=O)(=O)[O-])c5F)c5nc(c(-c6cccc(S(=O)(=O)[O-])c6F)c6ccc3[nH]6)C=C5)C=C4)cc2)n1
REMARK SMILES IDX 21 1 20 2 19 3 18 4 17 5 15 6 16 7 14 9 9 10 10 11 11 12
REMARK SMILES IDX 13 13 12 14 7 15 6 16 8 18 5 19 1 20 2 21 3 22 90 23 4 24
REMARK SMILES IDX 22 25 23 26 24 27 25 28 26 30 27 31 28 32 89 33 29 34 88 35
REMARK SMILES IDX 30 36 31 37 32 38 82 39 33 40 87 41 81 42 83 43 34 44 86 45
REMARK SMILES IDX 80 46 79 47 35 49 67 50 47 51 66 52 48 53 51 54 65 55 84 56
REMARK SMILES IDX 49 57 50 58 64 60 85 61 52 62 36 63 37 64 45 65 38 66 40 67
REMARK SMILES IDX 46 68 39 69 41 70 42 71 43 72 44 73 68 74 69 75 77 76 70 77
REMARK SMILES IDX 72 78 78 79 71 80 73 81 74 82 75 83 76 84 53 85 54 86 62 87
REMARK SMILES IDX 55 88 57 89 63 90 56 91 58 92 59 93 60 94 61 95
REMARK H PARENT 17 8 6 17 24 29 83 48 51 59
REMARK Flexibility Score: inf
ROOT
ATOM      1  C   UNL A   1      31.551  30.887  25.976  1.00  0.00     0.002 C 
ENDROOT
BRANCH   1   2
ATOM      2  C   UNL A   1      32.019  29.552  26.567  1.00  0.00     0.002 C 
BRANCH   2   3
ATOM      3  C   UNL A   1      33.470  29.185  26.238  1.00  0.00     0.021 C 
BRANCH   3   4
ATOM      4  C   UNL A   1      33.585  27.937  25.367  1.00  0.00     0.116 C 
BRANCH   4   5
ATOM      5  N   UNL A   1      34.191  28.271  24.092  1.00  0.00    -0.356 N 
ATOM      6  C   UNL A   1      33.737  28.101  22.820  1.00  0.00     0.224 C 
ATOM      7  O   UNL A   1      34.429  28.542  21.899  1.00  0.00    -0.275 OA
ATOM      8  H   UNL A   1      35.079  28.690  24.156  1.00  0.00     0.163 HD
BRANCH   6   9
ATOM      9  C   UNL A   1      32.350  27.528  22.551  1.00  0.00     0.095 C 
ATOM     10  C   UNL A   1      32.111  26.084  23.101  1.00  0.00     0.095 C 
ATOM     11  C   UNL A   1      30.613  25.810  23.215  1.00  0.00     0.041 C 
ATOM     12  C   UNL A   1      29.719  26.920  23.649  1.00  0.00    -0.030 C 
ATOM     13  C   UNL A   1      31.356  28.641  22.971  1.00  0.00     0.041 C 
ATOM     14  C   UNL A   1      30.052  28.203  23.535  1.00  0.00    -0.030 C 
BRANCH  10  15
ATOM     15  C   UNL A   1      32.991  25.075  22.303  1.00  0.00     0.230 C 
ATOM     16  N   UNL A   1      33.543  23.906  22.707  1.00  0.00    -0.302 N 
ATOM     17  H   UNL A   1      34.147  23.496  22.046  1.00  0.00     0.172 HD
ATOM     18  O   UNL A   1      33.323  25.384  21.146  1.00  0.00    -0.274 OA
BRANCH  16  19
ATOM     19  C   UNL A   1      33.413  23.195  23.857  1.00  0.00     0.189 A 
ATOM     20  C   UNL A   1      34.352  22.652  27.244  1.00  0.00     0.068 C 
ATOM     21  C   UNL A   1      33.615  22.561  25.959  1.00  0.00     0.051 A 
ATOM     22  C   UNL A   1      32.353  22.061  25.704  1.00  0.00     0.092 A 
ATOM     23  N   UNL A   1      34.230  23.103  24.858  1.00  0.00    -0.225 NA
ATOM     24  S   UNL A   1      31.929  22.373  24.059  1.00  0.00    -0.105 S 
ENDBRANCH  16  19
ENDBRANCH  10  15
ENDBRANCH   6   9
ENDBRANCH   4   5
ENDBRANCH   3   4
ENDBRANCH   2   3
ENDBRANCH   1   2
BRANCH   1  25
ATOM     25  C   UNL A   1      31.421  32.022  26.994  1.00  0.00     0.021 C 
BRANCH  25  26
ATOM     26  C   UNL A   1      32.730  32.741  27.293  1.00  0.00     0.116 C 
BRANCH  26  27
ATOM     27  N   UNL A   1      32.511  34.144  27.614  1.00  0.00    -0.352 N 
ATOM     28  C   UNL A   1      33.064  34.896  28.619  1.00  0.00     0.251 C 
ATOM     29  H   UNL A   1      31.878  34.618  27.029  1.00  0.00     0.163 HD
ATOM     30  O   UNL A   1      32.606  36.000  28.888  1.00  0.00    -0.269 OA
BRANCH  28  31
ATOM     31  C   UNL A   1      34.211  34.358  29.380  1.00  0.00     0.039 A 
ATOM     32  C   UNL A   1      33.969  33.637  30.551  1.00  0.00     0.014 A 
ATOM     33  C   UNL A   1      35.519  34.565  28.935  1.00  0.00     0.014 A 
ATOM     34  C   UNL A   1      35.041  33.082  31.251  1.00  0.00     0.010 A 
ATOM     35  C   UNL A   1      36.578  33.943  29.588  1.00  0.00     0.010 A 
ATOM     36  C   UNL A   1      36.351  33.207  30.760  1.00  0.00    -0.014 A 
BRANCH  36  37
ATOM     37  C   UNL A   1      37.498  32.573  31.458  1.00  0.00     0.031 A 
ATOM     38  C   UNL A   1      38.235  31.429  30.817  1.00  0.00     0.074 A 
ATOM     39  C   UNL A   1      37.823  32.974  32.702  1.00  0.00     0.049 A 
ATOM     40  N   UNL A   1      39.230  30.724  31.288  1.00  0.00    -0.248 NA
ATOM     41  C   UNL A   1      37.777  31.004  29.484  1.00  0.00     0.031 C 
ATOM     42  C   UNL A   1      37.134  34.021  33.460  1.00  0.00     0.029 A 
ATOM     43  N   UNL A   1      38.799  32.532  33.558  1.00  0.00    -0.354 N 
ATOM     44  C   UNL A   1      39.492  29.750  30.331  1.00  0.00     0.074 A 
ATOM     45  C   UNL A   1      38.526  29.933  29.269  1.00  0.00     0.031 C 
ATOM     46  C   UNL A   1      37.716  34.147  34.663  1.00  0.00     0.029 A 
ATOM     47  C   UNL A   1      38.795  33.170  34.777  1.00  0.00     0.049 A 
ATOM     48  H   UNL A   1      39.443  31.825  33.323  1.00  0.00     0.167 HD
ATOM     49  C   UNL A   1      40.464  28.808  30.322  1.00  0.00     0.034 A 
ATOM     50  C   UNL A   1      39.565  32.985  35.865  1.00  0.00     0.034 A 
ATOM     51  C   UNL A   1      41.443  28.653  31.364  1.00  0.00     0.049 A 
ATOM     52  C   UNL A   1      40.658  31.952  35.820  1.00  0.00     0.074 A 
ATOM     53  C   UNL A   1      42.524  27.792  31.409  1.00  0.00     0.029 A 
ATOM     54  N   UNL A   1      41.451  29.366  32.553  1.00  0.00    -0.354 N 
ATOM     55  N   UNL A   1      40.992  31.147  34.840  1.00  0.00    -0.248 NA
ATOM     56  C   UNL A   1      41.501  31.824  37.016  1.00  0.00     0.031 C 
ATOM     57  C   UNL A   1      43.164  27.958  32.641  1.00  0.00     0.029 A 
ATOM     58  C   UNL A   1      42.507  28.952  33.347  1.00  0.00     0.049 A 
ATOM     59  H   UNL A   1      40.802  30.064  32.798  1.00  0.00     0.167 HD
ATOM     60  C   UNL A   1      42.105  30.445  35.286  1.00  0.00     0.074 A 
ATOM     61  C   UNL A   1      42.400  30.933  36.618  1.00  0.00     0.031 C 
ATOM     62  C   UNL A   1      42.815  29.477  34.654  1.00  0.00     0.034 A 
BRANCH  49  63
ATOM     63  C   UNL A   1      40.539  27.895  29.124  1.00  0.00     0.023 A 
ATOM     64  C   UNL A   1      39.679  26.780  29.038  1.00  0.00     0.012 A 
ATOM     65  C   UNL A   1      41.432  28.158  28.067  1.00  0.00     0.148 A 
ATOM     66  C   UNL A   1      39.738  25.917  27.944  1.00  0.00     0.002 A 
ATOM     67  C   UNL A   1      41.451  27.322  26.956  1.00  0.00     0.091 A 
ATOM     68  F   UNL A   1      42.258  29.209  28.174  1.00  0.00    -0.205 F 
ATOM     69  C   UNL A   1      40.617  26.194  26.900  1.00  0.00     0.022 A 
BRANCH  67  70
ATOM     70  S   UNL A   1      42.486  27.640  25.523  1.00  0.00     0.127 S 
ATOM     71  O   UNL A   1      41.924  28.897  25.028  1.00  0.00    -0.237 OA
ATOM     72  O   UNL A   1      43.814  27.761  26.123  1.00  0.00    -0.237 OA
ATOM     73  O   UNL A   1      42.319  26.491  24.645  1.00  0.00    -0.744 OA
ENDBRANCH  67  70
ENDBRANCH  49  63
BRANCH  50  74
ATOM     74  C   UNL A   1      39.372  33.846  37.066  1.00  0.00     0.023 A 
ATOM     75  C   UNL A   1      39.785  35.192  37.025  1.00  0.00     0.012 A 
ATOM     76  C   UNL A   1      38.749  33.353  38.229  1.00  0.00     0.148 A 
ATOM     77  C   UNL A   1      39.607  36.024  38.130  1.00  0.00     0.002 A 
ATOM     78  C   UNL A   1      38.526  34.201  39.306  1.00  0.00     0.091 A 
ATOM     79  F   UNL A   1      38.370  32.068  38.248  1.00  0.00    -0.205 F 
ATOM     80  C   UNL A   1      38.970  35.532  39.266  1.00  0.00     0.022 A 
BRANCH  78  81
ATOM     81  S   UNL A   1      37.600  33.695  40.759  1.00  0.00     0.127 S 
ATOM     82  O   UNL A   1      38.494  32.703  41.353  1.00  0.00    -0.237 OA
ATOM     83  O   UNL A   1      37.493  34.952  41.499  1.00  0.00    -0.237 OA
ATOM     84  O   UNL A   1      36.332  33.179  40.260  1.00  0.00    -0.744 OA
ENDBRANCH  78  81
ENDBRANCH  50  74
BRANCH  62  85
ATOM     85  C   UNL A   1      44.007  28.900  35.374  1.00  0.00     0.023 A 
ATOM     86  C   UNL A   1      45.280  29.480  35.209  1.00  0.00     0.012 A 
ATOM     87  C   UNL A   1      43.848  27.827  36.274  1.00  0.00     0.148 A 
ATOM     88  C   UNL A   1      46.382  28.979  35.902  1.00  0.00     0.002 A 
ATOM     89  C   UNL A   1      44.939  27.367  37.000  1.00  0.00     0.091 A 
ATOM     90  F   UNL A   1      42.632  27.276  36.405  1.00  0.00    -0.205 F 
ATOM     91  C   UNL A   1      46.210  27.932  36.804  1.00  0.00     0.022 A 
BRANCH  89  92
ATOM     92  S   UNL A   1      44.794  26.092  38.257  1.00  0.00     0.127 S 
ATOM     93  O   UNL A   1      44.151  25.011  37.512  1.00  0.00    -0.237 OA
ATOM     94  O   UNL A   1      46.194  25.843  38.607  1.00  0.00    -0.237 OA
ATOM     95  O   UNL A   1      43.997  26.672  39.329  1.00  0.00    -0.744 OA
ENDBRANCH  89  92
ENDBRANCH  62  85
ENDBRANCH  36  37
ENDBRANCH  28  31
ENDBRANCH  26  27
ENDBRANCH  25  26
ENDBRANCH   1  25
TORSDOF 18
ENDMDL
MODEL 3
REMARK VINA RESULT:     -11.6      5.475     10.480
REMARK SMILES Cc1csc(NC(=O)[C@@H]2CC=CC[C@H]2C(=O)NCCCCCCNC(=O)c2ccc(-c3c4nc(c(-c5cccc(S(=O)(=O)[O-])c5F)c5ccc([nH]5)c(-c5cccc(S(=O)(=O)[O-])c5F)c5nc(c(-c6cccc(S(=O)(=O)[O-])c6F)c6ccc3[nH]6)C=C5)C=C4)cc2)n1
REMARK SMILES IDX 21 1 20 2 19 3 18 4 17 5 15 6 16 7 14 9 9 10 10 11 11 12
REMARK SMILES IDX 13 13 12 14 7 15 6 16 8 18 5 19 1 20 2 21 3 22 90 23 4 24
REMARK SMILES IDX 22 25 23 26 24 27 25 28 26 30 27 31 28 32 89 33 29 34 88 35
REMARK SMILES IDX 30 36 31 37 32 38 82 39 33 40 87 41 81 42 83 43 34 44 86 45
REMARK SMILES IDX 80 46 79 47 35 49 67 50 47 51 66 52 48 53 51 54 65 55 84 56
REMARK SMILES IDX 49 57 50 58 64 60 85 61 52 62 36 63 37 64 45 65 38 66 40 67
REMARK SMILES IDX 46 68 39 69 41 70 42 71 43 72 44 73 68 74 69 75 77 76 70 77
REMARK SMILES IDX 72 78 78 79 71 80 73 81 74 82 75 83 76 84 53 85 54 86 62 87
REMARK SMILES IDX 55 88 57 89 63 90 56 91 58 92 59 93 60 94 61 95
REMARK H PARENT 17 8 6 17 24 29 83 48 51 59
REMARK Flexibility Score: inf
ROOT
ATOM      1  C   UNL A   1      31.822  26.896  25.876  1.00  0.00     0.002 C 
ENDROOT
BRANCH   1   2
ATOM      2  C   UNL A   1      30.632  25.986  25.550  1.00  0.00     0.002 C 
BRANCH   2   3
ATOM      3  C   UNL A   1      31.013  24.653  24.898  1.00  0.00     0.021 C 
BRANCH   3   4
ATOM      4  C   UNL A   1      31.728  24.827  23.561  1.00  0.00     0.116 C 
BRANCH   4   5
ATOM      5  N   UNL A   1      31.776  23.563  22.850  1.00  0.00    -0.356 N 
ATOM      6  C   UNL A   1      32.689  22.556  22.888  1.00  0.00     0.224 C 
ATOM      7  O   UNL A   1      32.455  21.541  22.226  1.00  0.00    -0.275 OA
ATOM      8  H   UNL A   1      31.021  23.407  22.237  1.00  0.00     0.163 HD
BRANCH   6   9
ATOM      9  C   UNL A   1      33.882  22.612  23.837  1.00  0.00     0.095 C 
ATOM     10  C   UNL A   1      34.245  21.256  24.526  1.00  0.00     0.095 C 
ATOM     11  C   UNL A   1      35.682  21.300  25.041  1.00  0.00     0.041 C 
ATOM     12  C   UNL A   1      36.707  22.007  24.223  1.00  0.00    -0.030 C 
ATOM     13  C   UNL A   1      34.996  23.351  23.053  1.00  0.00     0.041 C 
ATOM     14  C   UNL A   1      36.399  22.940  23.326  1.00  0.00    -0.030 C 
BRANCH  10  15
ATOM     15  C   UNL A   1      33.112  20.864  25.523  1.00  0.00     0.230 C 
ATOM     16  N   UNL A   1      32.535  19.658  25.741  1.00  0.00    -0.302 N 
ATOM     17  H   UNL A   1      31.764  19.685  26.353  1.00  0.00     0.172 HD
ATOM     18  O   UNL A   1      32.578  21.774  26.181  1.00  0.00    -0.274 OA
BRANCH  16  19
ATOM     19  C   UNL A   1      32.828  18.418  25.271  1.00  0.00     0.189 A 
ATOM     20  C   UNL A   1      32.629  14.885  25.619  1.00  0.00     0.068 C 
ATOM     21  C   UNL A   1      32.873  16.227  25.034  1.00  0.00     0.051 A 
ATOM     22  C   UNL A   1      33.059  16.588  23.715  1.00  0.00     0.092 A 
ATOM     23  N   UNL A   1      32.854  17.289  25.904  1.00  0.00    -0.225 NA
ATOM     24  S   UNL A   1      33.121  18.310  23.591  1.00  0.00    -0.105 S 
ENDBRANCH  16  19
ENDBRANCH  10  15
ENDBRANCH   6   9
ENDBRANCH   4   5
ENDBRANCH   3   4
ENDBRANCH   2   3
ENDBRANCH   1   2
BRANCH   1  25
ATOM     25  C   UNL A   1      31.831  28.226  25.118  1.00  0.00     0.021 C 
BRANCH  25  26
ATOM     26  C   UNL A   1      32.976  29.154  25.505  1.00  0.00     0.116 C 
BRANCH  26  27
ATOM     27  N   UNL A   1      32.491  30.465  25.910  1.00  0.00    -0.352 N 
ATOM     28  C   UNL A   1      32.959  31.291  26.900  1.00  0.00     0.251 C 
ATOM     29  H   UNL A   1      31.720  30.807  25.402  1.00  0.00     0.163 HD
ATOM     30  O   UNL A   1      32.300  32.259  27.260  1.00  0.00    -0.269 OA
BRANCH  28  31
ATOM     31  C   UNL A   1      34.258  30.994  27.537  1.00  0.00     0.039 A 
ATOM     32  C   UNL A   1      35.189  32.023  27.693  1.00  0.00     0.014 A 
ATOM     33  C   UNL A   1      34.553  29.701  27.981  1.00  0.00     0.014 A 
ATOM     34  C   UNL A   1      36.399  31.764  28.338  1.00  0.00     0.010 A 
ATOM     35  C   UNL A   1      35.723  29.465  28.694  1.00  0.00     0.010 A 
ATOM     36  C   UNL A   1      36.664  30.491  28.867  1.00  0.00    -0.014 A 
BRANCH  36  37
ATOM     37  C   UNL A   1      37.920  30.212  29.609  1.00  0.00     0.031 A 
ATOM     38  C   UNL A   1      38.955  29.290  29.025  1.00  0.00     0.074 A 
ATOM     39  C   UNL A   1      38.090  30.724  30.843  1.00  0.00     0.049 A 
ATOM     40  N   UNL A   1      40.090  28.894  29.540  1.00  0.00    -0.248 NA
ATOM     41  C   UNL A   1      38.666  28.716  27.700  1.00  0.00     0.031 C 
ATOM     42  C   UNL A   1      37.124  31.568  31.549  1.00  0.00     0.029 A 
ATOM     43  N   UNL A   1      39.125  30.588  31.733  1.00  0.00    -0.354 N 
ATOM     44  C   UNL A   1      40.630  27.998  28.624  1.00  0.00     0.074 A 
ATOM     45  C   UNL A   1      39.681  27.881  27.539  1.00  0.00     0.031 C 
ATOM     46  C   UNL A   1      37.617  31.883  32.757  1.00  0.00     0.029 A 
ATOM     47  C   UNL A   1      38.915  31.238  32.927  1.00  0.00     0.049 A 
ATOM     48  H   UNL A   1      39.942  30.074  31.536  1.00  0.00     0.167 HD
ATOM     49  C   UNL A   1      41.820  27.354  28.668  1.00  0.00     0.034 A 
ATOM     50  C   UNL A   1      39.677  31.301  34.035  1.00  0.00     0.034 A 
ATOM     51  C   UNL A   1      42.775  27.500  29.733  1.00  0.00     0.049 A 
ATOM     52  C   UNL A   1      41.008  30.600  34.048  1.00  0.00     0.074 A 
ATOM     53  C   UNL A   1      44.047  26.965  29.830  1.00  0.00     0.029 A 
ATOM     54  N   UNL A   1      42.559  28.225  30.895  1.00  0.00    -0.354 N 
ATOM     55  N   UNL A   1      41.573  29.886  33.106  1.00  0.00    -0.248 NA
ATOM     56  C   UNL A   1      41.821  30.742  35.264  1.00  0.00     0.031 C 
ATOM     57  C   UNL A   1      44.584  27.336  31.067  1.00  0.00     0.029 A 
ATOM     58  C   UNL A   1      43.664  28.137  31.724  1.00  0.00     0.049 A 
ATOM     59  H   UNL A   1      41.738  28.730  31.102  1.00  0.00     0.167 HD
ATOM     60  C   UNL A   1      42.822  29.524  33.597  1.00  0.00     0.074 A 
ATOM     61  C   UNL A   1      42.937  30.115  34.916  1.00  0.00     0.031 C 
ATOM     62  C   UNL A   1      43.783  28.764  33.015  1.00  0.00     0.034 A 
BRANCH  49  63
ATOM     63  C   UNL A   1      42.171  26.458  27.506  1.00  0.00     0.023 A 
ATOM     64  C   UNL A   1      42.903  26.977  26.418  1.00  0.00     0.012 A 
ATOM     65  C   UNL A   1      41.811  25.097  27.507  1.00  0.00     0.148 A 
ATOM     66  C   UNL A   1      43.230  26.169  25.329  1.00  0.00     0.002 A 
ATOM     67  C   UNL A   1      42.182  24.285  26.442  1.00  0.00     0.091 A 
ATOM     68  F   UNL A   1      41.097  24.624  28.539  1.00  0.00    -0.205 F 
ATOM     69  C   UNL A   1      42.878  24.822  25.346  1.00  0.00     0.022 A 
BRANCH  67  70
ATOM     70  S   UNL A   1      41.851  22.520  26.407  1.00  0.00     0.127 S 
ATOM     71  O   UNL A   1      42.446  22.134  25.129  1.00  0.00    -0.237 OA
ATOM     72  O   UNL A   1      42.577  22.047  27.585  1.00  0.00    -0.237 OA
ATOM     73  O   UNL A   1      40.404  22.383  26.491  1.00  0.00    -0.744 OA
ENDBRANCH  67  70
ENDBRANCH  49  63
BRANCH  50  74
ATOM     74  C   UNL A   1      39.225  32.114  35.199  1.00  0.00     0.023 A 
ATOM     75  C   UNL A   1      38.338  31.549  36.135  1.00  0.00     0.012 A 
ATOM     76  C   UNL A   1      39.697  33.425  35.404  1.00  0.00     0.148 A 
ATOM     77  C   UNL A   1      37.906  32.284  37.240  1.00  0.00     0.002 A 
ATOM     78  C   UNL A   1      39.306  34.133  36.534  1.00  0.00     0.091 A 
ATOM     79  F   UNL A   1      40.535  33.946  34.497  1.00  0.00    -0.205 F 
ATOM     80  C   UNL A   1      38.396  33.571  37.444  1.00  0.00     0.022 A 
BRANCH  78  81
ATOM     81  S   UNL A   1      39.984  35.743  36.949  1.00  0.00     0.127 S 
ATOM     82  O   UNL A   1      41.409  35.445  37.072  1.00  0.00    -0.237 OA
ATOM     83  O   UNL A   1      39.618  36.534  35.774  1.00  0.00    -0.237 OA
ATOM     84  O   UNL A   1      39.317  36.148  38.180  1.00  0.00    -0.744 OA
ENDBRANCH  78  81
ENDBRANCH  50  74
BRANCH  62  85
ATOM     85  C   UNL A   1      45.065  28.553  33.778  1.00  0.00     0.023 A 
ATOM     86  C   UNL A   1      46.125  29.471  33.645  1.00  0.00     0.012 A 
ATOM     87  C   UNL A   1      45.189  27.483  34.686  1.00  0.00     0.148 A 
ATOM     88  C   UNL A   1      47.301  29.307  34.376  1.00  0.00     0.002 A 
ATOM     89  C   UNL A   1      46.342  27.355  35.450  1.00  0.00     0.091 A 
ATOM     90  F   UNL A   1      44.176  26.609  34.787  1.00  0.00    -0.205 F 
ATOM     91  C   UNL A   1      47.406  28.258  35.286  1.00  0.00     0.022 A 
BRANCH  89  92
ATOM     92  S   UNL A   1      46.525  26.096  36.718  1.00  0.00     0.127 S 
ATOM     93  O   UNL A   1      45.445  26.442  37.641  1.00  0.00    -0.237 OA
ATOM     94  O   UNL A   1      46.308  24.861  35.962  1.00  0.00    -0.237 OA
ATOM     95  O   UNL A   1      47.873  26.251  37.249  1.00  0.00    -0.744 OA
ENDBRANCH  89  92
ENDBRANCH  62  85
ENDBRANCH  36  37
ENDBRANCH  28  31
ENDBRANCH  26  27
ENDBRANCH  25  26
ENDBRANCH   1  25
TORSDOF 18
ENDMDL
