MODEL 1
REMARK VINA RESULT:     -11.6      0.000      0.000
REMARK SMILES O=C(NCCCCCCNC(=O)[C@@H]1CCC(=O)N1C(=O)/C=C/c1ccccc1)c1ccc(-c2c3nc(c(-c4cccc(S(=O)(=O)[O-])c4F)c4ccc([nH]4)c(-c4cccc(S(=O)(=O)[O-])c4F)c4nc(c(-c5cccc(S(=O)(=O)[O-])c5F)c5ccc2[nH]5)C=C4)C=C3)cc1
REMARK SMILES IDX 6 1 5 2 4 3 3 4 1 5 2 6 29 8 30 9 91 10 31 11 90 12 32 13
REMARK SMILES IDX 33 14 34 15 84 16 35 17 89 18 83 19 85 20 36 21 88 22 82 23
REMARK SMILES IDX 81 24 37 26 69 27 49 28 68 29 50 30 53 31 67 32 86 33 51 34
REMARK SMILES IDX 52 35 66 37 87 38 54 39 38 40 39 41 47 42 40 43 42 44 48 45
REMARK SMILES IDX 41 46 43 47 44 48 45 49 46 50 70 51 71 52 79 53 72 54 74 55
REMARK SMILES IDX 80 56 73 57 75 58 76 59 77 60 78 61 55 62 56 63 64 64 57 65
REMARK SMILES IDX 59 66 65 67 58 68 60 69 61 70 62 71 63 72 7 73 8 74 9 75
REMARK SMILES IDX 10 76 11 77 12 79 13 80 14 81 18 82 15 83 16 84 17 85 19 86
REMARK SMILES IDX 20 87 21 88 22 89 23 90 24 91 28 92 25 93 27 94 26 95
REMARK H PARENT 3 7 85 25 53 36 10 78
REMARK Flexibility Score: inf
ROOT
ATOM      1  C   UNL A   1      31.803  30.916  26.278  1.00  0.00     0.002 C 
ENDROOT
BRANCH   1   2
ATOM      2  C   UNL A   1      31.570  32.315  26.842  1.00  0.00     0.021 C 
BRANCH   2   3
ATOM      3  C   UNL A   1      32.792  32.970  27.462  1.00  0.00     0.116 C 
BRANCH   3   4
ATOM      4  N   UNL A   1      32.572  34.356  27.845  1.00  0.00    -0.352 N 
ATOM      5  O   UNL A   1      32.792  36.199  29.135  1.00  0.00    -0.269 OA
ATOM      6  C   UNL A   1      33.178  35.069  28.857  1.00  0.00     0.251 C 
ATOM      7  H   UNL A   1      31.905  34.848  27.314  1.00  0.00     0.163 HD
BRANCH   6   8
ATOM      8  C   UNL A   1      34.276  34.434  29.620  1.00  0.00     0.039 A 
ATOM      9  C   UNL A   1      35.595  34.585  29.195  1.00  0.00     0.014 A 
ATOM     10  C   UNL A   1      33.982  33.640  30.731  1.00  0.00     0.014 A 
ATOM     11  C   UNL A   1      36.592  33.806  29.761  1.00  0.00     0.010 A 
ATOM     12  C   UNL A   1      35.013  32.949  31.381  1.00  0.00     0.010 A 
ATOM     13  C   UNL A   1      36.323  33.002  30.882  1.00  0.00    -0.014 A 
BRANCH  13  14
ATOM     14  C   UNL A   1      37.464  32.328  31.553  1.00  0.00     0.031 A 
ATOM     15  C   UNL A   1      38.220  31.198  30.911  1.00  0.00     0.074 A 
ATOM     16  C   UNL A   1      37.843  32.796  32.761  1.00  0.00     0.049 A 
ATOM     17  N   UNL A   1      39.281  30.570  31.353  1.00  0.00    -0.248 NA
ATOM     18  C   UNL A   1      37.728  30.698  29.619  1.00  0.00     0.031 C 
ATOM     19  C   UNL A   1      37.148  33.852  33.506  1.00  0.00     0.029 A 
ATOM     20  N   UNL A   1      38.901  32.468  33.567  1.00  0.00    -0.354 N 
ATOM     21  C   UNL A   1      39.568  29.586  30.414  1.00  0.00     0.074 A 
ATOM     22  C   UNL A   1      38.560  29.690  29.380  1.00  0.00     0.031 C 
ATOM     23  C   UNL A   1      37.823  34.117  34.632  1.00  0.00     0.029 A 
ATOM     24  C   UNL A   1      38.951  33.202  34.729  1.00  0.00     0.049 A 
ATOM     25  H   UNL A   1      39.561  31.775  33.337  1.00  0.00     0.167 HD
ATOM     26  C   UNL A   1      40.587  28.692  30.408  1.00  0.00     0.034 A 
ATOM     27  C   UNL A   1      39.796  33.135  35.774  1.00  0.00     0.034 A 
ATOM     28  C   UNL A   1      41.596  28.608  31.434  1.00  0.00     0.049 A 
ATOM     29  C   UNL A   1      40.922  32.147  35.725  1.00  0.00     0.074 A 
ATOM     30  C   UNL A   1      42.690  27.762  31.498  1.00  0.00     0.029 A 
ATOM     31  N   UNL A   1      41.635  29.391  32.578  1.00  0.00    -0.354 N 
ATOM     32  N   UNL A   1      41.240  31.307  34.771  1.00  0.00    -0.248 NA
ATOM     33  C   UNL A   1      41.825  32.119  36.883  1.00  0.00     0.031 C 
ATOM     34  C   UNL A   1      43.376  28.017  32.691  1.00  0.00     0.029 A 
ATOM     35  C   UNL A   1      42.728  29.045  33.356  1.00  0.00     0.049 A 
ATOM     36  H   UNL A   1      40.980  30.091  32.806  1.00  0.00     0.167 HD
ATOM     37  C   UNL A   1      42.389  30.660  35.205  1.00  0.00     0.074 A 
ATOM     38  C   UNL A   1      42.735  31.241  36.487  1.00  0.00     0.031 C 
ATOM     39  C   UNL A   1      43.081  29.657  34.612  1.00  0.00     0.034 A 
BRANCH  26  40
ATOM     40  C   UNL A   1      40.698  27.748  29.235  1.00  0.00     0.023 A 
ATOM     41  C   UNL A   1      39.855  26.619  29.172  1.00  0.00     0.012 A 
ATOM     42  C   UNL A   1      41.557  28.027  28.153  1.00  0.00     0.148 A 
ATOM     43  C   UNL A   1      39.881  25.772  28.065  1.00  0.00     0.002 A 
ATOM     44  C   UNL A   1      41.547  27.201  27.034  1.00  0.00     0.091 A 
ATOM     45  F   UNL A   1      42.360  29.098  28.235  1.00  0.00    -0.205 F 
ATOM     46  C   UNL A   1      40.718  26.069  26.992  1.00  0.00     0.022 A 
BRANCH  44  47
ATOM     47  S   UNL A   1      42.527  27.538  25.565  1.00  0.00     0.127 S 
ATOM     48  O   UNL A   1      43.887  27.500  26.104  1.00  0.00    -0.237 OA
ATOM     49  O   UNL A   1      42.183  26.408  24.702  1.00  0.00    -0.237 OA
ATOM     50  O   UNL A   1      42.089  28.836  25.075  1.00  0.00    -0.744 OA
ENDBRANCH  44  47
ENDBRANCH  26  40
BRANCH  27  51
ATOM     51  C   UNL A   1      39.601  34.034  36.946  1.00  0.00     0.023 A 
ATOM     52  C   UNL A   1      39.924  35.400  36.846  1.00  0.00     0.012 A 
ATOM     53  C   UNL A   1      39.071  33.539  38.154  1.00  0.00     0.148 A 
ATOM     54  C   UNL A   1      39.759  36.249  37.941  1.00  0.00     0.002 A 
ATOM     55  C   UNL A   1      38.844  34.403  39.216  1.00  0.00     0.091 A 
ATOM     56  F   UNL A   1      38.784  32.232  38.236  1.00  0.00    -0.205 F 
ATOM     57  C   UNL A   1      39.208  35.754  39.121  1.00  0.00     0.022 A 
BRANCH  55  58
ATOM     58  S   UNL A   1      37.996  33.873  40.707  1.00  0.00     0.127 S 
ATOM     59  O   UNL A   1      38.926  32.885  41.245  1.00  0.00    -0.237 OA
ATOM     60  O   UNL A   1      37.911  35.121  41.468  1.00  0.00    -0.237 OA
ATOM     61  O   UNL A   1      36.707  33.361  40.260  1.00  0.00    -0.744 OA
ENDBRANCH  55  58
ENDBRANCH  27  51
BRANCH  39  62
ATOM     62  C   UNL A   1      44.296  29.145  35.338  1.00  0.00     0.023 A 
ATOM     63  C   UNL A   1      45.564  29.692  35.056  1.00  0.00     0.012 A 
ATOM     64  C   UNL A   1      44.180  28.135  36.313  1.00  0.00     0.148 A 
ATOM     65  C   UNL A   1      46.704  29.207  35.696  1.00  0.00     0.002 A 
ATOM     66  C   UNL A   1      45.313  27.695  36.985  1.00  0.00     0.091 A 
ATOM     67  F   UNL A   1      42.969  27.612  36.553  1.00  0.00    -0.205 F 
ATOM     68  C   UNL A   1      46.577  28.217  36.666  1.00  0.00     0.022 A 
BRANCH  66  69
ATOM     69  S   UNL A   1      45.234  26.488  38.313  1.00  0.00     0.127 S 
ATOM     70  O   UNL A   1      44.702  25.317  37.620  1.00  0.00    -0.237 OA
ATOM     71  O   UNL A   1      46.637  26.375  38.714  1.00  0.00    -0.237 OA
ATOM     72  O   UNL A   1      44.362  27.066  39.327  1.00  0.00    -0.744 OA
ENDBRANCH  66  69
ENDBRANCH  39  62
ENDBRANCH  13  14
ENDBRANCH   6   8
ENDBRANCH   3   4
ENDBRANCH   2   3
ENDBRANCH   1   2
BRANCH   1  73
ATOM     73  C   UNL A   1      32.426  29.902  27.244  1.00  0.00     0.002 C 
BRANCH  73  74
ATOM     74  C   UNL A   1      33.919  29.615  27.057  1.00  0.00     0.021 C 
BRANCH  74  75
ATOM     75  C   UNL A   1      34.236  28.355  26.262  1.00  0.00     0.116 C 
BRANCH  75  76
ATOM     76  N   UNL A   1      34.294  28.592  24.828  1.00  0.00    -0.354 N 
ATOM     77  C   UNL A   1      33.781  27.827  23.817  1.00  0.00     0.243 C 
ATOM     78  H   UNL A   1      34.765  29.411  24.549  1.00  0.00     0.163 HD
ATOM     79  O   UNL A   1      33.694  28.329  22.694  1.00  0.00    -0.273 OA
BRANCH  77  80
ATOM     80  C   UNL A   1      33.310  26.389  24.114  1.00  0.00     0.183 C 
ATOM     81  C   UNL A   1      33.821  25.475  22.996  1.00  0.00     0.046 C 
ATOM     82  N   UNL A   1      31.862  26.184  24.094  1.00  0.00    -0.266 N 
ATOM     83  C   UNL A   1      32.813  24.353  22.963  1.00  0.00     0.103 C 
ATOM     84  C   UNL A   1      31.534  25.070  23.305  1.00  0.00     0.230 C 
ATOM     85  O   UNL A   1      30.432  24.685  22.945  1.00  0.00    -0.274 OA
BRANCH  82  86
ATOM     86  C   UNL A   1      31.042  26.993  24.856  1.00  0.00     0.253 C 
ATOM     87  O   UNL A   1      30.805  26.755  26.043  1.00  0.00    -0.269 OA
BRANCH  86  88
ATOM     88  C   UNL A   1      30.427  28.238  24.341  1.00  0.00     0.072 C 
ATOM     89  C   UNL A   1      29.632  28.448  23.283  1.00  0.00     0.014 C 
BRANCH  89  90
ATOM     90  C   UNL A   1      29.111  29.778  22.902  1.00  0.00    -0.025 A 
ATOM     91  C   UNL A   1      28.608  29.960  21.606  1.00  0.00     0.008 A 
ATOM     92  C   UNL A   1      29.155  30.893  23.755  1.00  0.00     0.008 A 
ATOM     93  C   UNL A   1      28.175  31.219  21.175  1.00  0.00     0.001 A 
ATOM     94  C   UNL A   1      28.717  32.149  23.328  1.00  0.00     0.001 A 
ATOM     95  C   UNL A   1      28.233  32.313  22.036  1.00  0.00     0.000 A 
ENDBRANCH  89  90
ENDBRANCH  86  88
ENDBRANCH  82  86
ENDBRANCH  77  80
ENDBRANCH  75  76
ENDBRANCH  74  75
ENDBRANCH  73  74
ENDBRANCH   1  73
TORSDOF 19
ENDMDL
MODEL 2
REMARK VINA RESULT:     -11.5      1.709      2.398
REMARK SMILES O=C(NCCCCCCNC(=O)[C@@H]1CCC(=O)N1C(=O)/C=C/c1ccccc1)c1ccc(-c2c3nc(c(-c4cccc(S(=O)(=O)[O-])c4F)c4ccc([nH]4)c(-c4cccc(S(=O)(=O)[O-])c4F)c4nc(c(-c5cccc(S(=O)(=O)[O-])c5F)c5ccc2[nH]5)C=C4)C=C3)cc1
REMARK SMILES IDX 6 1 5 2 4 3 3 4 1 5 2 6 29 8 30 9 91 10 31 11 90 12 32 13
REMARK SMILES IDX 33 14 34 15 84 16 35 17 89 18 83 19 85 20 36 21 88 22 82 23
REMARK SMILES IDX 81 24 37 26 69 27 49 28 68 29 50 30 53 31 67 32 86 33 51 34
REMARK SMILES IDX 52 35 66 37 87 38 54 39 38 40 39 41 47 42 40 43 42 44 48 45
REMARK SMILES IDX 41 46 43 47 44 48 45 49 46 50 70 51 71 52 79 53 72 54 74 55
REMARK SMILES IDX 80 56 73 57 75 58 76 59 77 60 78 61 55 62 56 63 64 64 57 65
REMARK SMILES IDX 59 66 65 67 58 68 60 69 61 70 62 71 63 72 7 73 8 74 9 75
REMARK SMILES IDX 10 76 11 77 12 79 13 80 14 81 18 82 15 83 16 84 17 85 19 86
REMARK SMILES IDX 20 87 21 88 22 89 23 90 24 91 28 92 25 93 27 94 26 95
REMARK H PARENT 3 7 85 25 53 36 10 78
REMARK Flexibility Score: inf
ROOT
ATOM      1  C   UNL A   1      31.411  30.291  26.069  1.00  0.00     0.002 C 
ENDROOT
BRANCH   1   2
ATOM      2  C   UNL A   1      31.259  31.747  26.500  1.00  0.00     0.021 C 
BRANCH   2   3
ATOM      3  C   UNL A   1      32.563  32.507  26.669  1.00  0.00     0.116 C 
BRANCH   3   4
ATOM      4  N   UNL A   1      32.391  33.828  27.253  1.00  0.00    -0.352 N 
ATOM      5  O   UNL A   1      32.746  35.485  28.749  1.00  0.00    -0.269 OA
ATOM      6  C   UNL A   1      33.096  34.405  28.287  1.00  0.00     0.251 C 
ATOM      7  H   UNL A   1      31.678  34.382  26.859  1.00  0.00     0.163 HD
BRANCH   6   8
ATOM      8  C   UNL A   1      34.258  33.681  28.849  1.00  0.00     0.039 A 
ATOM      9  C   UNL A   1      34.065  32.481  29.533  1.00  0.00     0.014 A 
ATOM     10  C   UNL A   1      35.538  34.230  28.740  1.00  0.00     0.014 A 
ATOM     11  C   UNL A   1      35.109  31.929  30.258  1.00  0.00     0.010 A 
ATOM     12  C   UNL A   1      36.618  33.599  29.372  1.00  0.00     0.010 A 
ATOM     13  C   UNL A   1      36.407  32.460  30.162  1.00  0.00    -0.014 A 
BRANCH  13  14
ATOM     14  C   UNL A   1      37.518  31.723  30.819  1.00  0.00     0.031 A 
ATOM     15  C   UNL A   1      38.346  30.702  30.090  1.00  0.00     0.074 A 
ATOM     16  C   UNL A   1      37.800  32.033  32.101  1.00  0.00     0.049 A 
ATOM     17  N   UNL A   1      39.391  30.040  30.520  1.00  0.00    -0.248 NA
ATOM     18  C   UNL A   1      37.957  30.369  28.711  1.00  0.00     0.031 C 
ATOM     19  C   UNL A   1      37.028  32.969  32.928  1.00  0.00     0.029 A 
ATOM     20  N   UNL A   1      38.809  31.620  32.931  1.00  0.00    -0.354 N 
ATOM     21  C   UNL A   1      39.767  29.194  29.483  1.00  0.00     0.074 A 
ATOM     22  C   UNL A   1      38.830  29.417  28.402  1.00  0.00     0.031 C 
ATOM     23  C   UNL A   1      37.616  33.094  34.124  1.00  0.00     0.029 A 
ATOM     24  C   UNL A   1      38.760  32.194  34.181  1.00  0.00     0.049 A 
ATOM     25  H   UNL A   1      39.502  30.975  32.660  1.00  0.00     0.167 HD
ATOM     26  C   UNL A   1      40.808  28.327  29.433  1.00  0.00     0.034 A 
ATOM     27  C   UNL A   1      39.531  32.003  35.266  1.00  0.00     0.034 A 
ATOM     28  C   UNL A   1      41.746  28.125  30.509  1.00  0.00     0.049 A 
ATOM     29  C   UNL A   1      40.685  31.051  35.168  1.00  0.00     0.074 A 
ATOM     30  C   UNL A   1      42.855  27.297  30.539  1.00  0.00     0.029 A 
ATOM     31  N   UNL A   1      41.685  28.750  31.746  1.00  0.00    -0.354 N 
ATOM     32  N   UNL A   1      41.090  30.350  34.137  1.00  0.00    -0.248 NA
ATOM     33  C   UNL A   1      41.506  30.885  36.374  1.00  0.00     0.031 C 
ATOM     34  C   UNL A   1      43.450  27.403  31.801  1.00  0.00     0.029 A 
ATOM     35  C   UNL A   1      42.732  28.322  32.548  1.00  0.00     0.049 A 
ATOM     36  H   UNL A   1      40.998  29.402  32.016  1.00  0.00     0.167 HD
ATOM     37  C   UNL A   1      42.223  29.671  34.563  1.00  0.00     0.074 A 
ATOM     38  C   UNL A   1      42.465  30.083  35.932  1.00  0.00     0.031 C 
ATOM     39  C   UNL A   1      42.981  28.768  33.894  1.00  0.00     0.034 A 
BRANCH  26  40
ATOM     40  C   UNL A   1      41.024  27.550  28.158  1.00  0.00     0.023 A 
ATOM     41  C   UNL A   1      41.632  28.183  27.054  1.00  0.00     0.012 A 
ATOM     42  C   UNL A   1      40.722  26.175  28.081  1.00  0.00     0.148 A 
ATOM     43  C   UNL A   1      41.914  27.470  25.890  1.00  0.00     0.002 A 
ATOM     44  C   UNL A   1      41.045  25.461  26.932  1.00  0.00     0.091 A 
ATOM     45  F   UNL A   1      40.134  25.591  29.134  1.00  0.00    -0.205 F 
ATOM     46  C   UNL A   1      41.632  26.108  25.832  1.00  0.00     0.022 A 
BRANCH  44  47
ATOM     47  S   UNL A   1      40.796  23.687  26.784  1.00  0.00     0.127 S 
ATOM     48  O   UNL A   1      39.375  23.616  26.447  1.00  0.00    -0.237 OA
ATOM     49  O   UNL A   1      41.701  23.341  25.688  1.00  0.00    -0.237 OA
ATOM     50  O   UNL A   1      41.157  23.119  28.075  1.00  0.00    -0.744 OA
ENDBRANCH  44  47
ENDBRANCH  26  40
BRANCH  27  51
ATOM     51  C   UNL A   1      39.233  32.735  36.528  1.00  0.00     0.023 A 
ATOM     52  C   UNL A   1      39.838  33.980  36.780  1.00  0.00     0.012 A 
ATOM     53  C   UNL A   1      38.328  32.207  37.470  1.00  0.00     0.148 A 
ATOM     54  C   UNL A   1      39.576  34.668  37.965  1.00  0.00     0.002 A 
ATOM     55  C   UNL A   1      38.018  32.929  38.614  1.00  0.00     0.091 A 
ATOM     56  F   UNL A   1      37.773  31.012  37.221  1.00  0.00    -0.205 F 
ATOM     57  C   UNL A   1      38.658  34.150  38.876  1.00  0.00     0.022 A 
BRANCH  55  58
ATOM     58  S   UNL A   1      36.734  32.403  39.752  1.00  0.00     0.127 S 
ATOM     59  O   UNL A   1      35.566  32.344  38.880  1.00  0.00    -0.237 OA
ATOM     60  O   UNL A   1      37.238  31.104  40.199  1.00  0.00    -0.237 OA
ATOM     61  O   UNL A   1      36.702  33.419  40.797  1.00  0.00    -0.744 OA
ENDBRANCH  55  58
ENDBRANCH  27  51
BRANCH  39  62
ATOM     62  C   UNL A   1      44.157  28.186  34.633  1.00  0.00     0.023 A 
ATOM     63  C   UNL A   1      45.401  28.848  34.605  1.00  0.00     0.012 A 
ATOM     64  C   UNL A   1      44.025  26.992  35.369  1.00  0.00     0.148 A 
ATOM     65  C   UNL A   1      46.507  28.306  35.255  1.00  0.00     0.002 A 
ATOM     66  C   UNL A   1      45.119  26.486  36.060  1.00  0.00     0.091 A 
ATOM     67  F   UNL A   1      42.840  26.366  35.367  1.00  0.00    -0.205 F 
ATOM     68  C   UNL A   1      46.365  27.132  35.990  1.00  0.00     0.022 A 
BRANCH  66  69
ATOM     69  S   UNL A   1      45.006  25.030  37.105  1.00  0.00     0.127 S 
ATOM     70  O   UNL A   1      46.401  24.835  37.496  1.00  0.00    -0.237 OA
ATOM     71  O   UNL A   1      44.129  25.490  38.182  1.00  0.00    -0.237 OA
ATOM     72  O   UNL A   1      44.437  23.982  36.269  1.00  0.00    -0.744 OA
ENDBRANCH  66  69
ENDBRANCH  39  62
ENDBRANCH  13  14
ENDBRANCH   6   8
ENDBRANCH   3   4
ENDBRANCH   2   3
ENDBRANCH   1   2
BRANCH   1  73
ATOM     73  C   UNL A   1      31.775  29.301  27.180  1.00  0.00     0.002 C 
BRANCH  73  74
ATOM     74  C   UNL A   1      33.066  28.499  26.978  1.00  0.00     0.021 C 
BRANCH  74  75
ATOM     75  C   UNL A   1      32.914  27.238  26.138  1.00  0.00     0.116 C 
BRANCH  75  76
ATOM     76  N   UNL A   1      31.900  26.332  26.656  1.00  0.00    -0.354 N 
ATOM     77  C   UNL A   1      31.813  24.976  26.506  1.00  0.00     0.243 C 
ATOM     78  H   UNL A   1      31.183  26.752  27.185  1.00  0.00     0.163 HD
ATOM     79  O   UNL A   1      31.041  24.357  27.243  1.00  0.00    -0.273 OA
BRANCH  77  80
ATOM     80  C   UNL A   1      32.690  24.268  25.454  1.00  0.00     0.183 C 
ATOM     81  C   UNL A   1      34.144  24.696  25.675  1.00  0.00     0.046 C 
ATOM     82  N   UNL A   1      32.428  24.636  24.064  1.00  0.00    -0.266 N 
ATOM     83  C   UNL A   1      34.767  24.564  24.306  1.00  0.00     0.103 C 
ATOM     84  C   UNL A   1      33.626  24.952  23.404  1.00  0.00     0.230 C 
ATOM     85  O   UNL A   1      33.784  25.434  22.293  1.00  0.00    -0.274 OA
BRANCH  82  86
ATOM     86  C   UNL A   1      31.143  24.563  23.564  1.00  0.00     0.253 C 
ATOM     87  O   UNL A   1      30.609  23.488  23.281  1.00  0.00    -0.269 OA
BRANCH  86  88
ATOM     88  C   UNL A   1      30.276  25.750  23.379  1.00  0.00     0.072 C 
ATOM     89  C   UNL A   1      30.583  27.051  23.286  1.00  0.00     0.014 C 
BRANCH  89  90
ATOM     90  C   UNL A   1      29.576  28.119  23.112  1.00  0.00    -0.025 A 
ATOM     91  C   UNL A   1      30.016  29.431  22.884  1.00  0.00     0.008 A 
ATOM     92  C   UNL A   1      28.194  27.898  23.229  1.00  0.00     0.008 A 
ATOM     93  C   UNL A   1      29.103  30.487  22.790  1.00  0.00     0.001 A 
ATOM     94  C   UNL A   1      27.282  28.950  23.129  1.00  0.00     0.001 A 
ATOM     95  C   UNL A   1      27.737  30.246  22.915  1.00  0.00     0.000 A 
ENDBRANCH  89  90
ENDBRANCH  86  88
ENDBRANCH  82  86
ENDBRANCH  77  80
ENDBRANCH  75  76
ENDBRANCH  74  75
ENDBRANCH  73  74
ENDBRANCH   1  73
TORSDOF 19
ENDMDL
MODEL 3
REMARK VINA RESULT:     -11.4      6.669     12.081
REMARK SMILES O=C(NCCCCCCNC(=O)[C@@H]1CCC(=O)N1C(=O)/C=C/c1ccccc1)c1ccc(-c2c3nc(c(-c4cccc(S(=O)(=O)[O-])c4F)c4ccc([nH]4)c(-c4cccc(S(=O)(=O)[O-])c4F)c4nc(c(-c5cccc(S(=O)(=O)[O-])c5F)c5ccc2[nH]5)C=C4)C=C3)cc1
REMARK SMILES IDX 6 1 5 2 4 3 3 4 1 5 2 6 29 8 30 9 91 10 31 11 90 12 32 13
REMARK SMILES IDX 33 14 34 15 84 16 35 17 89 18 83 19 85 20 36 21 88 22 82 23
REMARK SMILES IDX 81 24 37 26 69 27 49 28 68 29 50 30 53 31 67 32 86 33 51 34
REMARK SMILES IDX 52 35 66 37 87 38 54 39 38 40 39 41 47 42 40 43 42 44 48 45
REMARK SMILES IDX 41 46 43 47 44 48 45 49 46 50 70 51 71 52 79 53 72 54 74 55
REMARK SMILES IDX 80 56 73 57 75 58 76 59 77 60 78 61 55 62 56 63 64 64 57 65
REMARK SMILES IDX 59 66 65 67 58 68 60 69 61 70 62 71 63 72 7 73 8 74 9 75
REMARK SMILES IDX 10 76 11 77 12 79 13 80 14 81 18 82 15 83 16 84 17 85 19 86
REMARK SMILES IDX 20 87 21 88 22 89 23 90 24 91 28 92 25 93 27 94 26 95
REMARK H PARENT 3 7 85 25 53 36 10 78
REMARK Flexibility Score: inf
ROOT
ATOM      1  C   UNL A   1      37.199  20.388  24.592  1.00  0.00     0.002 C 
ENDROOT
BRANCH   1   2
ATOM      2  C   UNL A   1      38.103  19.255  25.071  1.00  0.00     0.021 C 
BRANCH   2   3
ATOM      3  C   UNL A   1      39.151  19.657  26.095  1.00  0.00     0.116 C 
BRANCH   3   4
ATOM      4  N   UNL A   1      40.368  18.866  26.016  1.00  0.00    -0.352 N 
ATOM      5  O   UNL A   1      42.599  18.519  25.889  1.00  0.00    -0.269 OA
ATOM      6  C   UNL A   1      41.675  19.297  26.099  1.00  0.00     0.251 C 
ATOM      7  H   UNL A   1      40.244  17.898  25.888  1.00  0.00     0.163 HD
BRANCH   6   8
ATOM      8  C   UNL A   1      41.939  20.719  26.412  1.00  0.00     0.039 A 
ATOM      9  C   UNL A   1      41.826  21.684  25.410  1.00  0.00     0.014 A 
ATOM     10  C   UNL A   1      42.352  21.085  27.696  1.00  0.00     0.014 A 
ATOM     11  C   UNL A   1      42.298  22.967  25.638  1.00  0.00     0.010 A 
ATOM     12  C   UNL A   1      42.710  22.413  27.956  1.00  0.00     0.010 A 
ATOM     13  C   UNL A   1      42.716  23.360  26.921  1.00  0.00    -0.014 A 
BRANCH  13  14
ATOM     14  C   UNL A   1      43.043  24.792  27.145  1.00  0.00     0.031 A 
ATOM     15  C   UNL A   1      42.098  25.731  27.843  1.00  0.00     0.074 A 
ATOM     16  C   UNL A   1      44.253  25.227  26.740  1.00  0.00     0.049 A 
ATOM     17  N   UNL A   1      42.287  26.985  28.170  1.00  0.00    -0.248 NA
ATOM     18  C   UNL A   1      40.773  25.212  28.215  1.00  0.00     0.031 C 
ATOM     19  C   UNL A   1      45.231  24.418  26.002  1.00  0.00     0.029 A 
ATOM     20  N   UNL A   1      44.880  26.435  26.897  1.00  0.00    -0.354 N 
ATOM     21  C   UNL A   1      41.103  27.415  28.758  1.00  0.00     0.074 A 
ATOM     22  C   UNL A   1      40.192  26.289  28.732  1.00  0.00     0.031 C 
ATOM     23  C   UNL A   1      46.347  25.134  25.814  1.00  0.00     0.029 A 
ATOM     24  C   UNL A   1      46.141  26.473  26.347  1.00  0.00     0.049 A 
ATOM     25  H   UNL A   1      44.469  27.201  27.359  1.00  0.00     0.167 HD
ATOM     26  C   UNL A   1      40.811  28.629  29.284  1.00  0.00     0.034 A 
ATOM     27  C   UNL A   1      47.029  27.479  26.256  1.00  0.00     0.034 A 
ATOM     28  C   UNL A   1      41.731  29.739  29.320  1.00  0.00     0.049 A 
ATOM     29  C   UNL A   1      46.679  28.803  26.866  1.00  0.00     0.074 A 
ATOM     30  C   UNL A   1      41.540  30.996  29.867  1.00  0.00     0.029 A 
ATOM     31  N   UNL A   1      43.010  29.729  28.785  1.00  0.00    -0.354 N 
ATOM     32  N   UNL A   1      45.598  29.149  27.521  1.00  0.00    -0.248 NA
ATOM     33  C   UNL A   1      47.685  29.867  26.753  1.00  0.00     0.031 C 
ATOM     34  C   UNL A   1      42.695  31.754  29.640  1.00  0.00     0.029 A 
ATOM     35  C   UNL A   1      43.618  30.959  28.982  1.00  0.00     0.049 A 
ATOM     36  H   UNL A   1      43.426  28.961  28.330  1.00  0.00     0.167 HD
ATOM     37  C   UNL A   1      45.798  30.466  27.911  1.00  0.00     0.074 A 
ATOM     38  C   UNL A   1      47.125  30.837  27.460  1.00  0.00     0.031 C 
ATOM     39  C   UNL A   1      44.952  31.302  28.560  1.00  0.00     0.034 A 
BRANCH  26  40
ATOM     40  C   UNL A   1      39.450  28.825  29.908  1.00  0.00     0.023 A 
ATOM     41  C   UNL A   1      39.197  28.310  31.196  1.00  0.00     0.012 A 
ATOM     42  C   UNL A   1      38.459  29.598  29.269  1.00  0.00     0.148 A 
ATOM     43  C   UNL A   1      37.976  28.541  31.828  1.00  0.00     0.002 A 
ATOM     44  C   UNL A   1      37.260  29.859  29.924  1.00  0.00     0.091 A 
ATOM     45  F   UNL A   1      38.711  30.070  28.040  1.00  0.00    -0.205 F 
ATOM     46  C   UNL A   1      37.013  29.323  31.198  1.00  0.00     0.022 A 
BRANCH  44  47
ATOM     47  S   UNL A   1      35.985  30.922  29.235  1.00  0.00     0.127 S 
ATOM     48  O   UNL A   1      36.786  31.937  28.550  1.00  0.00    -0.237 OA
ATOM     49  O   UNL A   1      35.271  30.006  28.345  1.00  0.00    -0.237 OA
ATOM     50  O   UNL A   1      35.206  31.405  30.366  1.00  0.00    -0.744 OA
ENDBRANCH  44  47
ENDBRANCH  26  40
BRANCH  27  51
ATOM     51  C   UNL A   1      48.329  27.262  25.562  1.00  0.00     0.023 A 
ATOM     52  C   UNL A   1      49.461  26.861  26.297  1.00  0.00     0.012 A 
ATOM     53  C   UNL A   1      48.439  27.429  24.168  1.00  0.00     0.148 A 
ATOM     54  C   UNL A   1      50.687  26.668  25.660  1.00  0.00     0.002 A 
ATOM     55  C   UNL A   1      49.644  27.168  23.531  1.00  0.00     0.091 A 
ATOM     56  F   UNL A   1      47.354  27.827  23.487  1.00  0.00    -0.205 F 
ATOM     57  C   UNL A   1      50.776  26.809  24.277  1.00  0.00     0.022 A 
BRANCH  55  58
ATOM     58  S   UNL A   1      49.795  27.176  21.742  1.00  0.00     0.127 S 
ATOM     59  O   UNL A   1      48.728  26.261  21.347  1.00  0.00    -0.237 OA
ATOM     60  O   UNL A   1      49.552  28.583  21.423  1.00  0.00    -0.237 OA
ATOM     61  O   UNL A   1      51.154  26.730  21.466  1.00  0.00    -0.744 OA
ENDBRANCH  55  58
ENDBRANCH  27  51
BRANCH  39  62
ATOM     62  C   UNL A   1      45.452  32.695  28.840  1.00  0.00     0.023 A 
ATOM     63  C   UNL A   1      46.077  32.982  30.070  1.00  0.00     0.012 A 
ATOM     64  C   UNL A   1      45.320  33.714  27.876  1.00  0.00     0.148 A 
ATOM     65  C   UNL A   1      46.516  34.273  30.358  1.00  0.00     0.002 A 
ATOM     66  C   UNL A   1      45.809  34.985  28.149  1.00  0.00     0.091 A 
ATOM     67  F   UNL A   1      44.705  33.427  26.720  1.00  0.00    -0.205 F 
ATOM     68  C   UNL A   1      46.392  35.271  29.395  1.00  0.00     0.022 A 
BRANCH  66  69
ATOM     69  S   UNL A   1      45.775  36.309  26.936  1.00  0.00     0.127 S 
ATOM     70  O   UNL A   1      46.349  35.652  25.763  1.00  0.00    -0.237 OA
ATOM     71  O   UNL A   1      44.344  36.598  26.834  1.00  0.00    -0.237 OA
ATOM     72  O   UNL A   1      46.570  37.390  27.501  1.00  0.00    -0.744 OA
ENDBRANCH  66  69
ENDBRANCH  39  62
ENDBRANCH  13  14
ENDBRANCH   6   8
ENDBRANCH   3   4
ENDBRANCH   2   3
ENDBRANCH   1   2
BRANCH   1  73
ATOM     73  C   UNL A   1      37.607  21.798  25.033  1.00  0.00     0.002 C 
BRANCH  73  74
ATOM     74  C   UNL A   1      36.578  22.908  24.793  1.00  0.00     0.021 C 
BRANCH  74  75
ATOM     75  C   UNL A   1      36.175  23.690  26.036  1.00  0.00     0.116 C 
BRANCH  75  76
ATOM     76  N   UNL A   1      35.162  23.010  26.827  1.00  0.00    -0.354 N 
ATOM     77  C   UNL A   1      33.804  23.017  26.661  1.00  0.00     0.243 C 
ATOM     78  H   UNL A   1      35.498  22.474  27.582  1.00  0.00     0.163 HD
ATOM     79  O   UNL A   1      33.140  22.167  27.258  1.00  0.00    -0.273 OA
BRANCH  77  80
ATOM     80  C   UNL A   1      33.158  24.056  25.723  1.00  0.00     0.183 C 
ATOM     81  C   UNL A   1      32.013  24.738  26.479  1.00  0.00     0.046 C 
ATOM     82  N   UNL A   1      32.510  23.513  24.530  1.00  0.00    -0.266 N 
ATOM     83  C   UNL A   1      31.064  25.161  25.383  1.00  0.00     0.103 C 
ATOM     84  C   UNL A   1      31.219  24.044  24.386  1.00  0.00     0.230 C 
ATOM     85  O   UNL A   1      30.341  23.719  23.601  1.00  0.00    -0.274 OA
BRANCH  82  86
ATOM     86  C   UNL A   1      33.210  22.665  23.694  1.00  0.00     0.253 C 
ATOM     87  O   UNL A   1      33.817  23.075  22.702  1.00  0.00    -0.269 OA
BRANCH  86  88
ATOM     88  C   UNL A   1      33.343  21.211  23.942  1.00  0.00     0.072 C 
ATOM     89  C   UNL A   1      32.504  20.199  23.685  1.00  0.00     0.014 C 
BRANCH  89  90
ATOM     90  C   UNL A   1      32.797  18.788  24.014  1.00  0.00    -0.025 A 
ATOM     91  C   UNL A   1      32.518  18.326  25.308  1.00  0.00     0.008 A 
ATOM     92  C   UNL A   1      33.404  17.899  23.113  1.00  0.00     0.008 A 
ATOM     93  C   UNL A   1      32.849  17.021  25.690  1.00  0.00     0.001 A 
ATOM     94  C   UNL A   1      33.729  16.594  23.491  1.00  0.00     0.001 A 
ATOM     95  C   UNL A   1      33.458  16.157  24.782  1.00  0.00     0.000 A 
ENDBRANCH  89  90
ENDBRANCH  86  88
ENDBRANCH  82  86
ENDBRANCH  77  80
ENDBRANCH  75  76
ENDBRANCH  74  75
ENDBRANCH  73  74
ENDBRANCH   1  73
TORSDOF 19
ENDMDL
