MODEL 1
REMARK VINA RESULT:     -10.7      0.000      0.000
REMARK SMILES C[NH2+]CCC(=O)N1CC[C@@H](C(=O)NCCCCCCNC(=O)c2ccc(-c3c4nc(c(-c5cccc(S(=O)(=O)[O-])c5F)c5ccc([nH]5)c(-c5cccc(S(=O)(=O)[O-])c5F)c5nc(c(-c6cccc(S(=O)(=O)[O-])c6F)c6ccc3[nH]6)C=C5)C=C4)cc2)[C@@H]1C
REMARK SMILES IDX 16 1 15 2 14 3 13 4 11 5 12 6 10 8 7 9 8 10 86 11 9 12 87 13
REMARK SMILES IDX 5 14 6 15 4 16 3 17 2 18 1 19 17 22 18 23 19 24 20 25 21 26
REMARK SMILES IDX 22 28 23 29 24 30 85 31 25 32 84 33 26 34 27 35 28 36 78 37
REMARK SMILES IDX 29 38 83 39 77 40 79 41 30 42 82 43 76 44 75 45 31 47 63 48
REMARK SMILES IDX 43 49 62 50 44 51 47 52 61 53 80 54 45 55 46 56 60 58 81 59
REMARK SMILES IDX 48 60 32 61 33 62 41 63 34 64 36 65 42 66 35 67 37 68 38 69
REMARK SMILES IDX 39 70 40 71 64 72 65 73 73 74 66 75 68 76 74 77 67 78 69 79
REMARK SMILES IDX 70 80 71 81 72 82 49 83 50 84 58 85 51 86 53 87 59 88 52 89
REMARK SMILES IDX 54 90 55 91 56 92 57 93
REMARK H PARENT 13 7 2 20 2 21 20 27 79 46 47 57
REMARK Flexibility Score: inf
ROOT
ATOM      1  C   UNL A   1      32.389  29.835  26.989  1.00  0.00     0.002 C 
ENDROOT
BRANCH   1   2
ATOM      2  C   UNL A   1      31.765  28.504  27.416  1.00  0.00     0.021 C 
BRANCH   2   3
ATOM      3  C   UNL A   1      32.006  27.330  26.471  1.00  0.00     0.116 C 
BRANCH   3   4
ATOM      4  N   UNL A   1      31.051  26.266  26.720  1.00  0.00    -0.356 N 
ATOM      5  C   UNL A   1      31.137  24.924  26.539  1.00  0.00     0.225 C 
ATOM      6  O   UNL A   1      30.115  24.262  26.759  1.00  0.00    -0.275 OA
ATOM      7  H   UNL A   1      30.189  26.572  27.086  1.00  0.00     0.163 HD
BRANCH   5   8
ATOM      8  C   UNL A   1      32.401  24.220  26.072  1.00  0.00     0.102 C 
ATOM      9  N   UNL A   1      32.777  22.021  25.252  1.00  0.00    -0.339 N 
ATOM     10  C   UNL A   1      33.340  22.921  24.269  1.00  0.00     0.120 C 
ATOM     11  C   UNL A   1      32.470  22.738  26.485  1.00  0.00     0.094 C 
ATOM     12  C   UNL A   1      32.660  24.251  24.561  1.00  0.00     0.037 C 
ATOM     13  C   UNL A   1      33.614  22.541  27.494  1.00  0.00     0.032 C 
BRANCH   9  14
ATOM     14  C   UNL A   1      32.809  20.655  25.066  1.00  0.00     0.228 C 
ATOM     15  O   UNL A   1      31.781  19.978  25.105  1.00  0.00    -0.275 OA
BRANCH  14  16
ATOM     16  C   UNL A   1      34.174  19.991  25.004  1.00  0.00     0.161 C 
BRANCH  16  17
ATOM     17  C   UNL A   1      34.255  18.600  24.374  1.00  0.00     0.270 C 
BRANCH  17  18
ATOM     18  N   UNL A   1      34.448  17.451  25.267  1.00  0.00    -0.348 N 
ATOM     19  C   UNL A   1      34.288  16.160  24.624  1.00  0.00     0.330 C 
ATOM     20  H   UNL A   1      35.390  17.501  25.653  1.00  0.00     0.346 HD
ATOM     21  H   UNL A   1      33.723  17.512  25.983  1.00  0.00     0.346 HD
ENDBRANCH  17  18
ENDBRANCH  16  17
ENDBRANCH  14  16
ENDBRANCH   9  14
ENDBRANCH   5   8
ENDBRANCH   3   4
ENDBRANCH   2   3
ENDBRANCH   1   2
BRANCH   1  22
ATOM     22  C   UNL A   1      31.496  30.752  26.151  1.00  0.00     0.002 C 
BRANCH  22  23
ATOM     23  C   UNL A   1      31.394  32.203  26.626  1.00  0.00     0.021 C 
BRANCH  23  24
ATOM     24  C   UNL A   1      32.698  32.834  27.108  1.00  0.00     0.116 C 
BRANCH  24  25
ATOM     25  N   UNL A   1      32.496  34.137  27.722  1.00  0.00    -0.352 N 
ATOM     26  C   UNL A   1      33.113  34.695  28.812  1.00  0.00     0.251 C 
ATOM     27  H   UNL A   1      31.815  34.703  27.290  1.00  0.00     0.163 HD
ATOM     28  O   UNL A   1      32.682  35.748  29.287  1.00  0.00    -0.269 OA
BRANCH  26  29
ATOM     29  C   UNL A   1      34.277  34.030  29.430  1.00  0.00     0.039 A 
ATOM     30  C   UNL A   1      35.564  34.418  29.044  1.00  0.00     0.014 A 
ATOM     31  C   UNL A   1      34.105  33.022  30.384  1.00  0.00     0.014 A 
ATOM     32  C   UNL A   1      36.677  33.838  29.660  1.00  0.00     0.010 A 
ATOM     33  C   UNL A   1      35.212  32.501  31.049  1.00  0.00     0.010 A 
ATOM     34  C   UNL A   1      36.509  32.898  30.690  1.00  0.00    -0.014 A 
BRANCH  34  35
ATOM     35  C   UNL A   1      37.676  32.322  31.407  1.00  0.00     0.031 A 
ATOM     36  C   UNL A   1      38.451  31.182  30.801  1.00  0.00     0.074 A 
ATOM     37  C   UNL A   1      37.989  32.768  32.639  1.00  0.00     0.049 A 
ATOM     38  N   UNL A   1      39.462  30.517  31.295  1.00  0.00    -0.248 NA
ATOM     39  C   UNL A   1      38.014  30.711  29.476  1.00  0.00     0.031 C 
ATOM     40  C   UNL A   1      37.276  33.823  33.363  1.00  0.00     0.029 A 
ATOM     41  N   UNL A   1      38.975  32.378  33.510  1.00  0.00    -0.354 N 
ATOM     42  C   UNL A   1      39.762  29.532  30.362  1.00  0.00     0.074 A 
ATOM     43  C   UNL A   1      38.798  29.659  29.291  1.00  0.00     0.031 C 
ATOM     44  C   UNL A   1      37.857  34.005  34.560  1.00  0.00     0.029 A 
ATOM     45  C   UNL A   1      38.960  33.062  34.704  1.00  0.00     0.049 A 
ATOM     46  H   UNL A   1      39.631  31.674  33.300  1.00  0.00     0.167 HD
ATOM     47  C   UNL A   1      40.768  28.624  30.375  1.00  0.00     0.034 A 
ATOM     48  C   UNL A   1      39.748  32.942  35.790  1.00  0.00     0.034 A 
ATOM     49  C   UNL A   1      41.745  28.522  31.425  1.00  0.00     0.049 A 
ATOM     50  C   UNL A   1      40.866  31.934  35.776  1.00  0.00     0.074 A 
ATOM     51  C   UNL A   1      42.847  27.687  31.499  1.00  0.00     0.029 A 
ATOM     52  N   UNL A   1      41.735  29.273  32.590  1.00  0.00    -0.354 N 
ATOM     53  N   UNL A   1      41.226  31.113  34.820  1.00  0.00    -0.248 NA
ATOM     54  C   UNL A   1      41.707  31.861  36.979  1.00  0.00     0.031 C 
ATOM     55  C   UNL A   1      43.490  27.919  32.720  1.00  0.00     0.029 A 
ATOM     56  C   UNL A   1      42.804  28.918  33.395  1.00  0.00     0.049 A 
ATOM     57  H   UNL A   1      41.066  29.960  32.813  1.00  0.00     0.167 HD
ATOM     58  C   UNL A   1      42.358  30.456  35.288  1.00  0.00     0.074 A 
ATOM     59  C   UNL A   1      42.633  30.986  36.608  1.00  0.00     0.031 C 
ATOM     60  C   UNL A   1      43.097  29.492  34.684  1.00  0.00     0.034 A 
BRANCH  47  61
ATOM     61  C   UNL A   1      40.885  27.702  29.187  1.00  0.00     0.023 A 
ATOM     62  C   UNL A   1      40.143  26.503  29.164  1.00  0.00     0.012 A 
ATOM     63  C   UNL A   1      41.701  28.028  28.086  1.00  0.00     0.148 A 
ATOM     64  C   UNL A   1      40.248  25.620  28.089  1.00  0.00     0.002 A 
ATOM     65  C   UNL A   1      41.763  27.166  26.997  1.00  0.00     0.091 A 
ATOM     66  F   UNL A   1      42.416  29.161  28.130  1.00  0.00    -0.205 F 
ATOM     67  C   UNL A   1      41.050  25.956  27.002  1.00  0.00     0.022 A 
BRANCH  65  68
ATOM     68  S   UNL A   1      42.705  27.548  25.515  1.00  0.00     0.127 S 
ATOM     69  O   UNL A   1      44.064  27.638  26.045  1.00  0.00    -0.237 OA
ATOM     70  O   UNL A   1      42.455  26.373  24.677  1.00  0.00    -0.237 OA
ATOM     71  O   UNL A   1      42.148  28.788  24.997  1.00  0.00    -0.744 OA
ENDBRANCH  65  68
ENDBRANCH  47  61
BRANCH  48  72
ATOM     72  C   UNL A   1      39.565  33.863  36.948  1.00  0.00     0.023 A 
ATOM     73  C   UNL A   1      39.960  35.210  36.820  1.00  0.00     0.012 A 
ATOM     74  C   UNL A   1      38.977  33.432  38.152  1.00  0.00     0.148 A 
ATOM     75  C   UNL A   1      39.801  36.102  37.880  1.00  0.00     0.002 A 
ATOM     76  C   UNL A   1      38.772  34.338  39.186  1.00  0.00     0.091 A 
ATOM     77  F   UNL A   1      38.615  32.145  38.256  1.00  0.00    -0.205 F 
ATOM     78  C   UNL A   1      39.198  35.669  39.059  1.00  0.00     0.022 A 
BRANCH  76  79
ATOM     79  S   UNL A   1      37.890  33.908  40.691  1.00  0.00     0.127 S 
ATOM     80  O   UNL A   1      36.721  33.209  40.163  1.00  0.00    -0.237 OA
ATOM     81  O   UNL A   1      38.862  33.054  41.375  1.00  0.00    -0.237 OA
ATOM     82  O   UNL A   1      37.620  35.171  41.365  1.00  0.00    -0.744 OA
ENDBRANCH  76  79
ENDBRANCH  48  72
BRANCH  60  83
ATOM     83  C   UNL A   1      44.305  28.971  35.421  1.00  0.00     0.023 A 
ATOM     84  C   UNL A   1      45.563  29.575  35.221  1.00  0.00     0.012 A 
ATOM     85  C   UNL A   1      44.178  27.933  36.365  1.00  0.00     0.148 A 
ATOM     86  C   UNL A   1      46.681  29.131  35.926  1.00  0.00     0.002 A 
ATOM     87  C   UNL A   1      45.285  27.531  37.100  1.00  0.00     0.091 A 
ATOM     88  F   UNL A   1      42.976  27.359  36.526  1.00  0.00    -0.205 F 
ATOM     89  C   UNL A   1      46.541  28.119  36.874  1.00  0.00     0.022 A 
BRANCH  87  90
ATOM     90  S   UNL A   1      45.180  26.304  38.409  1.00  0.00     0.127 S 
ATOM     91  O   UNL A   1      45.052  25.064  37.646  1.00  0.00    -0.237 OA
ATOM     92  O   UNL A   1      46.462  26.470  39.094  1.00  0.00    -0.237 OA
ATOM     93  O   UNL A   1      44.017  26.670  39.207  1.00  0.00    -0.744 OA
ENDBRANCH  87  90
ENDBRANCH  60  83
ENDBRANCH  34  35
ENDBRANCH  26  29
ENDBRANCH  24  25
ENDBRANCH  23  24
ENDBRANCH  22  23
ENDBRANCH   1  22
TORSDOF 20
ENDMDL
MODEL 2
REMARK VINA RESULT:     -10.6      2.604      8.297
REMARK SMILES C[NH2+]CCC(=O)N1CC[C@@H](C(=O)NCCCCCCNC(=O)c2ccc(-c3c4nc(c(-c5cccc(S(=O)(=O)[O-])c5F)c5ccc([nH]5)c(-c5cccc(S(=O)(=O)[O-])c5F)c5nc(c(-c6cccc(S(=O)(=O)[O-])c6F)c6ccc3[nH]6)C=C5)C=C4)cc2)[C@@H]1C
REMARK SMILES IDX 16 1 15 2 14 3 13 4 11 5 12 6 10 8 7 9 8 10 86 11 9 12 87 13
REMARK SMILES IDX 5 14 6 15 4 16 3 17 2 18 1 19 17 22 18 23 19 24 20 25 21 26
REMARK SMILES IDX 22 28 23 29 24 30 85 31 25 32 84 33 26 34 27 35 28 36 78 37
REMARK SMILES IDX 29 38 83 39 77 40 79 41 30 42 82 43 76 44 75 45 31 47 63 48
REMARK SMILES IDX 43 49 62 50 44 51 47 52 61 53 80 54 45 55 46 56 60 58 81 59
REMARK SMILES IDX 48 60 32 61 33 62 41 63 34 64 36 65 42 66 35 67 37 68 38 69
REMARK SMILES IDX 39 70 40 71 64 72 65 73 73 74 66 75 68 76 74 77 67 78 69 79
REMARK SMILES IDX 70 80 71 81 72 82 49 83 50 84 58 85 51 86 53 87 59 88 52 89
REMARK SMILES IDX 54 90 55 91 56 92 57 93
REMARK H PARENT 13 7 2 20 2 21 20 27 79 46 47 57
REMARK Flexibility Score: inf
ROOT
ATOM      1  C   UNL A   1      32.333  28.186  24.372  1.00  0.00     0.002 C 
ENDROOT
BRANCH   1   2
ATOM      2  C   UNL A   1      31.663  28.530  23.039  1.00  0.00     0.021 C 
BRANCH   2   3
ATOM      3  C   UNL A   1      30.891  27.392  22.378  1.00  0.00     0.116 C 
BRANCH   3   4
ATOM      4  N   UNL A   1      31.739  26.665  21.452  1.00  0.00    -0.356 N 
ATOM      5  C   UNL A   1      32.594  25.628  21.644  1.00  0.00     0.225 C 
ATOM      6  O   UNL A   1      33.263  25.265  20.669  1.00  0.00    -0.275 OA
ATOM      7  H   UNL A   1      31.686  26.979  20.520  1.00  0.00     0.163 HD
BRANCH   5   8
ATOM      8  C   UNL A   1      32.771  24.924  22.979  1.00  0.00     0.102 C 
ATOM      9  N   UNL A   1      33.070  22.632  23.533  1.00  0.00    -0.339 N 
ATOM     10  C   UNL A   1      34.156  23.346  24.168  1.00  0.00     0.120 C 
ATOM     11  C   UNL A   1      32.052  23.565  23.061  1.00  0.00     0.094 C 
ATOM     12  C   UNL A   1      34.220  24.663  23.407  1.00  0.00     0.037 C 
ATOM     13  C   UNL A   1      30.913  23.649  24.090  1.00  0.00     0.032 C 
BRANCH   9  14
ATOM     14  C   UNL A   1      32.962  21.262  23.640  1.00  0.00     0.228 C 
ATOM     15  O   UNL A   1      32.155  20.627  22.959  1.00  0.00    -0.275 OA
BRANCH  14  16
ATOM     16  C   UNL A   1      33.733  20.586  24.761  1.00  0.00     0.161 C 
BRANCH  16  17
ATOM     17  C   UNL A   1      32.962  19.631  25.673  1.00  0.00     0.270 C 
BRANCH  17  18
ATOM     18  N   UNL A   1      33.261  18.197  25.576  1.00  0.00    -0.348 N 
ATOM     19  C   UNL A   1      32.552  17.509  24.513  1.00  0.00     0.330 C 
ATOM     20  H   UNL A   1      34.262  18.089  25.414  1.00  0.00     0.346 HD
ATOM     21  H   UNL A   1      32.954  17.774  26.453  1.00  0.00     0.346 HD
ENDBRANCH  17  18
ENDBRANCH  16  17
ENDBRANCH  14  16
ENDBRANCH   9  14
ENDBRANCH   5   8
ENDBRANCH   3   4
ENDBRANCH   2   3
ENDBRANCH   1   2
BRANCH   1  22
ATOM     22  C   UNL A   1      31.428  28.235  25.605  1.00  0.00     0.002 C 
BRANCH  22  23
ATOM     23  C   UNL A   1      31.775  29.300  26.648  1.00  0.00     0.021 C 
BRANCH  23  24
ATOM     24  C   UNL A   1      33.099  30.030  26.432  1.00  0.00     0.116 C 
BRANCH  24  25
ATOM     25  N   UNL A   1      33.032  31.434  26.809  1.00  0.00    -0.352 N 
ATOM     26  C   UNL A   1      33.840  32.152  27.651  1.00  0.00     0.251 C 
ATOM     27  H   UNL A   1      32.297  31.944  26.397  1.00  0.00     0.163 HD
ATOM     28  O   UNL A   1      33.519  33.296  27.980  1.00  0.00    -0.269 OA
BRANCH  26  29
ATOM     29  C   UNL A   1      35.083  31.554  28.181  1.00  0.00     0.039 A 
ATOM     30  C   UNL A   1      36.252  32.320  28.193  1.00  0.00     0.014 A 
ATOM     31  C   UNL A   1      35.100  30.240  28.658  1.00  0.00     0.014 A 
ATOM     32  C   UNL A   1      37.423  31.789  28.742  1.00  0.00     0.010 A 
ATOM     33  C   UNL A   1      36.246  29.741  29.273  1.00  0.00     0.010 A 
ATOM     34  C   UNL A   1      37.421  30.506  29.315  1.00  0.00    -0.014 A 
BRANCH  34  35
ATOM     35  C   UNL A   1      38.634  29.949  29.967  1.00  0.00     0.031 A 
ATOM     36  C   UNL A   1      39.061  30.445  31.323  1.00  0.00     0.074 A 
ATOM     37  C   UNL A   1      39.397  29.058  29.306  1.00  0.00     0.049 A 
ATOM     38  N   UNL A   1      40.113  30.119  32.028  1.00  0.00    -0.248 NA
ATOM     39  C   UNL A   1      38.206  31.462  31.959  1.00  0.00     0.031 C 
ATOM     40  C   UNL A   1      39.128  28.546  27.960  1.00  0.00     0.029 A 
ATOM     41  N   UNL A   1      40.568  28.438  29.667  1.00  0.00    -0.354 N 
ATOM     42  C   UNL A   1      40.065  30.908  33.170  1.00  0.00     0.074 A 
ATOM     43  C   UNL A   1      38.903  31.761  33.045  1.00  0.00     0.031 C 
ATOM     44  C   UNL A   1      40.095  27.681  27.616  1.00  0.00     0.029 A 
ATOM     45  C   UNL A   1      41.069  27.599  28.699  1.00  0.00     0.049 A 
ATOM     46  H   UNL A   1      41.006  28.581  30.537  1.00  0.00     0.167 HD
ATOM     47  C   UNL A   1      40.892  30.904  34.244  1.00  0.00     0.034 A 
ATOM     48  C   UNL A   1      42.189  26.849  28.686  1.00  0.00     0.034 A 
ATOM     49  C   UNL A   1      42.027  30.032  34.380  1.00  0.00     0.049 A 
ATOM     50  C   UNL A   1      43.086  26.852  29.895  1.00  0.00     0.074 A 
ATOM     51  C   UNL A   1      42.884  29.895  35.459  1.00  0.00     0.029 A 
ATOM     52  N   UNL A   1      42.469  29.151  33.405  1.00  0.00    -0.354 N 
ATOM     53  N   UNL A   1      42.942  27.495  31.029  1.00  0.00    -0.248 NA
ATOM     54  C   UNL A   1      44.281  26.000  29.835  1.00  0.00     0.031 C 
ATOM     55  C   UNL A   1      43.859  28.948  35.125  1.00  0.00     0.029 A 
ATOM     56  C   UNL A   1      43.593  28.474  33.849  1.00  0.00     0.049 A 
ATOM     57  H   UNL A   1      42.047  29.025  32.525  1.00  0.00     0.167 HD
ATOM     58  C   UNL A   1      44.003  27.094  31.831  1.00  0.00     0.074 A 
ATOM     59  C   UNL A   1      44.774  26.140  31.059  1.00  0.00     0.031 C 
ATOM     60  C   UNL A   1      44.319  27.488  33.090  1.00  0.00     0.034 A 
BRANCH  47  61
ATOM     61  C   UNL A   1      40.563  31.843  35.376  1.00  0.00     0.023 A 
ATOM     62  C   UNL A   1      41.379  32.971  35.602  1.00  0.00     0.012 A 
ATOM     63  C   UNL A   1      39.438  31.633  36.198  1.00  0.00     0.148 A 
ATOM     64  C   UNL A   1      41.112  33.846  36.656  1.00  0.00     0.002 A 
ATOM     65  C   UNL A   1      39.151  32.536  37.216  1.00  0.00     0.091 A 
ATOM     66  F   UNL A   1      38.682  30.546  35.985  1.00  0.00    -0.205 F 
ATOM     67  C   UNL A   1      39.994  33.633  37.456  1.00  0.00     0.022 A 
BRANCH  65  68
ATOM     68  S   UNL A   1      37.688  32.393  38.249  1.00  0.00     0.127 S 
ATOM     69  O   UNL A   1      38.006  33.313  39.339  1.00  0.00    -0.237 OA
ATOM     70  O   UNL A   1      36.628  32.855  37.352  1.00  0.00    -0.237 OA
ATOM     71  O   UNL A   1      37.597  30.987  38.618  1.00  0.00    -0.744 OA
ENDBRANCH  65  68
ENDBRANCH  47  61
BRANCH  48  72
ATOM     72  C   UNL A   1      42.477  25.961  27.523  1.00  0.00     0.023 A 
ATOM     73  C   UNL A   1      43.255  26.459  26.460  1.00  0.00     0.012 A 
ATOM     74  C   UNL A   1      42.021  24.630  27.476  1.00  0.00     0.148 A 
ATOM     75  C   UNL A   1      43.549  25.658  25.356  1.00  0.00     0.002 A 
ATOM     76  C   UNL A   1      42.361  23.820  26.398  1.00  0.00     0.091 A 
ATOM     77  F   UNL A   1      41.276  24.178  28.495  1.00  0.00    -0.205 F 
ATOM     78  C   UNL A   1      43.111  24.337  25.330  1.00  0.00     0.022 A 
BRANCH  76  79
ATOM     79  S   UNL A   1      41.953  22.072  26.335  1.00  0.00     0.127 S 
ATOM     80  O   UNL A   1      42.693  21.635  25.153  1.00  0.00    -0.237 OA
ATOM     81  O   UNL A   1      42.488  21.592  27.610  1.00  0.00    -0.237 OA
ATOM     82  O   UNL A   1      40.502  22.009  26.229  1.00  0.00    -0.744 OA
ENDBRANCH  76  79
ENDBRANCH  48  72
BRANCH  60  83
ATOM     83  C   UNL A   1      45.526  26.859  33.738  1.00  0.00     0.023 A 
ATOM     84  C   UNL A   1      46.772  27.515  33.686  1.00  0.00     0.012 A 
ATOM     85  C   UNL A   1      45.408  25.656  34.461  1.00  0.00     0.148 A 
ATOM     86  C   UNL A   1      47.889  26.966  34.317  1.00  0.00     0.002 A 
ATOM     87  C   UNL A   1      46.512  25.141  35.129  1.00  0.00     0.091 A 
ATOM     88  F   UNL A   1      44.218  25.037  34.483  1.00  0.00    -0.205 F 
ATOM     89  C   UNL A   1      47.756  25.788  35.048  1.00  0.00     0.022 A 
BRANCH  87  90
ATOM     90  S   UNL A   1      46.413  23.683  36.175  1.00  0.00     0.127 S 
ATOM     91  O   UNL A   1      46.331  22.611  35.184  1.00  0.00    -0.237 OA
ATOM     92  O   UNL A   1      47.678  23.741  36.908  1.00  0.00    -0.237 OA
ATOM     93  O   UNL A   1      45.227  23.863  37.001  1.00  0.00    -0.744 OA
ENDBRANCH  87  90
ENDBRANCH  60  83
ENDBRANCH  34  35
ENDBRANCH  26  29
ENDBRANCH  24  25
ENDBRANCH  23  24
ENDBRANCH  22  23
ENDBRANCH   1  22
TORSDOF 20
ENDMDL
MODEL 3
REMARK VINA RESULT:     -10.4      5.759      9.315
REMARK SMILES C[NH2+]CCC(=O)N1CC[C@@H](C(=O)NCCCCCCNC(=O)c2ccc(-c3c4nc(c(-c5cccc(S(=O)(=O)[O-])c5F)c5ccc([nH]5)c(-c5cccc(S(=O)(=O)[O-])c5F)c5nc(c(-c6cccc(S(=O)(=O)[O-])c6F)c6ccc3[nH]6)C=C5)C=C4)cc2)[C@@H]1C
REMARK SMILES IDX 16 1 15 2 14 3 13 4 11 5 12 6 10 8 7 9 8 10 86 11 9 12 87 13
REMARK SMILES IDX 5 14 6 15 4 16 3 17 2 18 1 19 17 22 18 23 19 24 20 25 21 26
REMARK SMILES IDX 22 28 23 29 24 30 85 31 25 32 84 33 26 34 27 35 28 36 78 37
REMARK SMILES IDX 29 38 83 39 77 40 79 41 30 42 82 43 76 44 75 45 31 47 63 48
REMARK SMILES IDX 43 49 62 50 44 51 47 52 61 53 80 54 45 55 46 56 60 58 81 59
REMARK SMILES IDX 48 60 32 61 33 62 41 63 34 64 36 65 42 66 35 67 37 68 38 69
REMARK SMILES IDX 39 70 40 71 64 72 65 73 73 74 66 75 68 76 74 77 67 78 69 79
REMARK SMILES IDX 70 80 71 81 72 82 49 83 50 84 58 85 51 86 53 87 59 88 52 89
REMARK SMILES IDX 54 90 55 91 56 92 57 93
REMARK H PARENT 13 7 2 20 2 21 20 27 79 46 47 57
REMARK Flexibility Score: inf
ROOT
ATOM      1  C   UNL A   1      33.168  23.040  26.141  1.00  0.00     0.002 C 
ENDROOT
BRANCH   1   2
ATOM      2  C   UNL A   1      31.849  22.607  25.498  1.00  0.00     0.021 C 
BRANCH   2   3
ATOM      3  C   UNL A   1      30.585  23.163  26.148  1.00  0.00     0.116 C 
BRANCH   3   4
ATOM      4  N   UNL A   1      30.810  24.508  26.642  1.00  0.00    -0.356 N 
ATOM      5  C   UNL A   1      30.794  25.710  26.011  1.00  0.00     0.225 C 
ATOM      6  O   UNL A   1      31.117  26.699  26.680  1.00  0.00    -0.275 OA
ATOM      7  H   UNL A   1      31.009  24.559  27.606  1.00  0.00     0.163 HD
BRANCH   5   8
ATOM      8  C   UNL A   1      30.423  25.883  24.547  1.00  0.00     0.102 C 
ATOM      9  N   UNL A   1      30.224  27.819  23.183  1.00  0.00    -0.339 N 
ATOM     10  C   UNL A   1      31.117  26.922  22.483  1.00  0.00     0.120 C 
ATOM     11  C   UNL A   1      29.551  27.123  24.274  1.00  0.00     0.094 C 
ATOM     12  C   UNL A   1      31.599  25.969  23.568  1.00  0.00     0.037 C 
ATOM     13  C   UNL A   1      28.154  26.674  23.815  1.00  0.00     0.032 C 
BRANCH   9  14
ATOM     14  C   UNL A   1      29.912  29.059  22.666  1.00  0.00     0.228 C 
ATOM     15  O   UNL A   1      30.074  29.315  21.472  1.00  0.00    -0.275 OA
BRANCH  14  16
ATOM     16  C   UNL A   1      29.546  30.154  23.652  1.00  0.00     0.161 C 
BRANCH  16  17
ATOM     17  C   UNL A   1      28.746  31.345  23.121  1.00  0.00     0.270 C 
BRANCH  17  18
ATOM     18  N   UNL A   1      27.971  31.157  21.888  1.00  0.00    -0.348 N 
ATOM     19  C   UNL A   1      28.049  32.268  20.958  1.00  0.00     0.330 C 
ATOM     20  H   UNL A   1      28.317  30.322  21.417  1.00  0.00     0.346 HD
ATOM     21  H   UNL A   1      26.992  31.078  22.167  1.00  0.00     0.346 HD
ENDBRANCH  17  18
ENDBRANCH  16  17
ENDBRANCH  14  16
ENDBRANCH   9  14
ENDBRANCH   5   8
ENDBRANCH   3   4
ENDBRANCH   2   3
ENDBRANCH   1   2
BRANCH   1  22
ATOM     22  C   UNL A   1      34.039  21.913  26.699  1.00  0.00     0.002 C 
BRANCH  22  23
ATOM     23  C   UNL A   1      35.540  22.203  26.774  1.00  0.00     0.021 C 
BRANCH  23  24
ATOM     24  C   UNL A   1      36.316  22.010  25.474  1.00  0.00     0.116 C 
BRANCH  24  25
ATOM     25  N   UNL A   1      37.337  20.979  25.578  1.00  0.00    -0.352 N 
ATOM     26  C   UNL A   1      38.669  21.094  25.882  1.00  0.00     0.251 C 
ATOM     27  H   UNL A   1      37.024  20.061  25.405  1.00  0.00     0.163 HD
ATOM     28  O   UNL A   1      39.413  20.120  25.752  1.00  0.00    -0.269 OA
BRANCH  26  29
ATOM     29  C   UNL A   1      39.218  22.385  26.345  1.00  0.00     0.039 A 
ATOM     30  C   UNL A   1      40.261  22.383  27.276  1.00  0.00     0.014 A 
ATOM     31  C   UNL A   1      38.705  23.595  25.869  1.00  0.00     0.014 A 
ATOM     32  C   UNL A   1      40.829  23.593  27.682  1.00  0.00     0.010 A 
ATOM     33  C   UNL A   1      39.322  24.794  26.217  1.00  0.00     0.010 A 
ATOM     34  C   UNL A   1      40.386  24.807  27.132  1.00  0.00    -0.014 A 
BRANCH  34  35
ATOM     35  C   UNL A   1      41.023  26.099  27.495  1.00  0.00     0.031 A 
ATOM     36  C   UNL A   1      42.451  26.374  27.109  1.00  0.00     0.074 A 
ATOM     37  C   UNL A   1      40.344  26.990  28.243  1.00  0.00     0.049 A 
ATOM     38  N   UNL A   1      43.193  27.417  27.379  1.00  0.00    -0.248 NA
ATOM     39  C   UNL A   1      43.146  25.328  26.341  1.00  0.00     0.031 C 
ATOM     40  C   UNL A   1      38.977  26.814  28.736  1.00  0.00     0.029 A 
ATOM     41  N   UNL A   1      40.718  28.215  28.737  1.00  0.00    -0.354 N 
ATOM     42  C   UNL A   1      44.446  27.141  26.845  1.00  0.00     0.074 A 
ATOM     43  C   UNL A   1      44.377  25.815  26.272  1.00  0.00     0.031 C 
ATOM     44  C   UNL A   1      38.623  27.896  29.449  1.00  0.00     0.029 A 
ATOM     45  C   UNL A   1      39.744  28.827  29.491  1.00  0.00     0.049 A 
ATOM     46  H   UNL A   1      41.601  28.617  28.568  1.00  0.00     0.167 HD
ATOM     47  C   UNL A   1      45.547  27.930  26.803  1.00  0.00     0.034 A 
ATOM     48  C   UNL A   1      39.755  30.007  30.143  1.00  0.00     0.034 A 
ATOM     49  C   UNL A   1      45.602  29.262  27.343  1.00  0.00     0.049 A 
ATOM     50  C   UNL A   1      40.986  30.871  30.072  1.00  0.00     0.074 A 
ATOM     51  C   UNL A   1      46.643  30.172  27.287  1.00  0.00     0.029 A 
ATOM     52  N   UNL A   1      44.575  29.873  28.047  1.00  0.00    -0.354 N 
ATOM     53  N   UNL A   1      42.111  30.656  29.434  1.00  0.00    -0.248 NA
ATOM     54  C   UNL A   1      40.935  32.156  30.784  1.00  0.00     0.031 C 
ATOM     55  C   UNL A   1      46.253  31.325  27.978  1.00  0.00     0.029 A 
ATOM     56  C   UNL A   1      44.959  31.144  28.440  1.00  0.00     0.049 A 
ATOM     57  H   UNL A   1      43.701  29.464  28.239  1.00  0.00     0.167 HD
ATOM     58  C   UNL A   1      42.884  31.794  29.632  1.00  0.00     0.074 A 
ATOM     59  C   UNL A   1      42.092  32.702  30.437  1.00  0.00     0.031 C 
ATOM     60  C   UNL A   1      44.141  32.059  29.196  1.00  0.00     0.034 A 
BRANCH  47  61
ATOM     61  C   UNL A   1      46.765  27.384  26.102  1.00  0.00     0.023 A 
ATOM     62  C   UNL A   1      46.894  27.546  24.706  1.00  0.00     0.012 A 
ATOM     63  C   UNL A   1      47.793  26.740  26.817  1.00  0.00     0.148 A 
ATOM     64  C   UNL A   1      47.999  27.033  24.028  1.00  0.00     0.002 A 
ATOM     65  C   UNL A   1      48.915  26.273  26.140  1.00  0.00     0.091 A 
ATOM     66  F   UNL A   1      47.649  26.575  28.140  1.00  0.00    -0.205 F 
ATOM     67  C   UNL A   1      49.013  26.405  24.745  1.00  0.00     0.022 A 
BRANCH  65  68
ATOM     68  S   UNL A   1      50.310  25.522  26.986  1.00  0.00     0.127 S 
ATOM     69  O   UNL A   1      51.227  25.270  25.877  1.00  0.00    -0.237 OA
ATOM     70  O   UNL A   1      50.733  26.589  27.895  1.00  0.00    -0.237 OA
ATOM     71  O   UNL A   1      49.784  24.338  27.649  1.00  0.00    -0.744 OA
ENDBRANCH  65  68
ENDBRANCH  47  61
BRANCH  48  72
ATOM     72  C   UNL A   1      38.528  30.481  30.845  1.00  0.00     0.023 A 
ATOM     73  C   UNL A   1      38.395  30.242  32.227  1.00  0.00     0.012 A 
ATOM     74  C   UNL A   1      37.516  31.189  30.170  1.00  0.00     0.148 A 
ATOM     75  C   UNL A   1      37.263  30.673  32.918  1.00  0.00     0.002 A 
ATOM     76  C   UNL A   1      36.415  31.663  30.875  1.00  0.00     0.091 A 
ATOM     77  F   UNL A   1      37.658  31.400  28.854  1.00  0.00    -0.205 F 
ATOM     78  C   UNL A   1      36.279  31.392  32.245  1.00  0.00     0.022 A 
BRANCH  76  79
ATOM     79  S   UNL A   1      35.160  32.706  30.124  1.00  0.00     0.127 S 
ATOM     80  O   UNL A   1      35.962  33.805  29.594  1.00  0.00    -0.237 OA
ATOM     81  O   UNL A   1      34.592  31.813  29.113  1.00  0.00    -0.237 OA
ATOM     82  O   UNL A   1      34.242  33.056  31.201  1.00  0.00    -0.744 OA
ENDBRANCH  76  79
ENDBRANCH  48  72
BRANCH  60  83
ATOM     83  C   UNL A   1      44.732  33.402  29.539  1.00  0.00     0.023 A 
ATOM     84  C   UNL A   1      45.515  33.548  30.702  1.00  0.00     0.012 A 
ATOM     85  C   UNL A   1      44.572  34.500  28.671  1.00  0.00     0.148 A 
ATOM     86  C   UNL A   1      46.103  34.775  31.010  1.00  0.00     0.002 A 
ATOM     87  C   UNL A   1      45.202  35.704  28.958  1.00  0.00     0.091 A 
ATOM     88  F   UNL A   1      43.807  34.346  27.579  1.00  0.00    -0.205 F 
ATOM     89  C   UNL A   1      45.957  35.848  30.133  1.00  0.00     0.022 A 
BRANCH  87  90
ATOM     90  S   UNL A   1      45.152  37.109  27.840  1.00  0.00     0.127 S 
ATOM     91  O   UNL A   1      45.684  36.529  26.607  1.00  0.00    -0.237 OA
ATOM     92  O   UNL A   1      43.724  37.424  27.800  1.00  0.00    -0.237 OA
ATOM     93  O   UNL A   1      45.980  38.139  28.453  1.00  0.00    -0.744 OA
ENDBRANCH  87  90
ENDBRANCH  60  83
ENDBRANCH  34  35
ENDBRANCH  26  29
ENDBRANCH  24  25
ENDBRANCH  23  24
ENDBRANCH  22  23
ENDBRANCH   1  22
TORSDOF 20
ENDMDL
