MODEL 1
REMARK VINA RESULT:      -8.8      0.000      0.000
REMARK SMILES COc1cc(/C=C2/CCc3cc(OC(C)(C)C(=O)NCCCCCCNC(=O)c4ccc(-c5c6nc(c(-c7cccc(S(=O)(=O)[O-])c7F)c7ccc([nH]7)c(-c7cccc(S(=O)(=O)[O-])c7F)c7nc(c(-c8cccc(S(=O)(=O)[O-])c8F)c8ccc5[nH]8)C=C7)C=C6)cc4)ccc3C2=O)cc(OC)c1O
REMARK SMILES IDX 22 1 21 2 20 3 19 4 17 5 18 6 14 8 15 9 16 10 13 11 12 12
REMARK SMILES IDX 6 13 7 14 8 15 95 16 9 17 94 18 96 19 10 20 93 21 11 22
REMARK SMILES IDX 92 23 5 24 3 25 4 26 101 27 98 28 97 29 2 30 1 31 102 32
REMARK SMILES IDX 99 34 100 35 23 36 24 37 25 38 26 39 27 40 28 42 29 43 30 44
REMARK SMILES IDX 91 45 31 46 90 47 32 48 33 49 34 50 84 51 35 52 89 53 83 54
REMARK SMILES IDX 85 55 36 56 88 57 82 58 81 59 37 61 69 62 49 63 68 64 50 65
REMARK SMILES IDX 53 66 67 67 86 68 51 69 52 70 66 72 87 73 54 74 38 75 39 76
REMARK SMILES IDX 47 77 40 78 42 79 48 80 41 81 43 82 44 83 45 84 46 85 70 86
REMARK SMILES IDX 71 87 79 88 72 89 74 90 80 91 73 92 75 93 76 94 77 95 78 96
REMARK SMILES IDX 55 97 56 98 64 99 57 100 59 101 65 102 58 103 60 104 61 105
REMARK SMILES IDX 62 106 63 107
REMARK H PARENT 19 7 102 33 26 41 85 60 53 71
REMARK Flexibility Score: inf
ROOT
ATOM      1  C   UNL A   1      43.729  23.833  25.031  1.00  0.00     0.002 C 
ENDROOT
BRANCH   1   2
ATOM      2  C   UNL A   1      43.011  23.832  26.378  1.00  0.00     0.021 C 
BRANCH   2   3
ATOM      3  C   UNL A   1      41.545  24.266  26.375  1.00  0.00     0.116 C 
BRANCH   3   4
ATOM      4  N   UNL A   1      41.275  25.610  25.846  1.00  0.00    -0.353 N 
ATOM      5  C   UNL A   1      40.864  26.775  26.500  1.00  0.00     0.263 C 
ATOM      6  O   UNL A   1      40.870  27.824  25.850  1.00  0.00    -0.270 OA
ATOM      7  H   UNL A   1      41.404  25.707  24.875  1.00  0.00     0.163 HD
BRANCH   5   8
ATOM      8  C   UNL A   1      40.239  26.683  27.942  1.00  0.00     0.181 C 
ATOM      9  C   UNL A   1      41.399  26.522  28.939  1.00  0.00     0.067 C 
ATOM     10  C   UNL A   1      39.283  25.488  27.652  1.00  0.00     0.067 C 
BRANCH   8  11
ATOM     11  O   UNL A   1      39.540  27.902  28.409  1.00  0.00    -0.478 OA
BRANCH  11  12
ATOM     12  C   UNL A   1      40.108  28.509  29.529  1.00  0.00     0.121 A 
ATOM     13  C   UNL A   1      37.474  32.647  32.368  1.00  0.00     0.016 C 
ATOM     14  C   UNL A   1      38.143  31.499  32.609  1.00  0.00     0.001 C 
ATOM     15  C   UNL A   1      38.765  30.691  33.750  1.00  0.00     0.044 C 
ATOM     16  C   UNL A   1      38.374  30.740  31.407  1.00  0.00     0.189 C 
ATOM     17  C   UNL A   1      39.227  29.166  33.286  1.00  0.00     0.041 C 
ATOM     18  C   UNL A   1      39.831  30.409  31.311  1.00  0.00     0.026 A 
ATOM     19  O   UNL A   1      37.455  30.079  30.938  1.00  0.00    -0.289 OA
ATOM     20  C   UNL A   1      39.831  29.141  31.862  1.00  0.00    -0.033 A 
ATOM     21  C   UNL A   1      40.511  30.747  30.151  1.00  0.00     0.016 A 
ATOM     22  C   UNL A   1      39.853  28.130  30.886  1.00  0.00     0.051 A 
ATOM     23  C   UNL A   1      40.702  29.737  29.234  1.00  0.00     0.047 A 
BRANCH  13  24
ATOM     24  C   UNL A   1      36.629  32.817  31.127  1.00  0.00    -0.018 A 
ATOM     25  C   UNL A   1      34.469  33.709  30.329  1.00  0.00     0.165 A 
ATOM     26  C   UNL A   1      35.442  33.533  31.327  1.00  0.00     0.058 A 
ATOM     27  C   UNL A   1      34.672  33.127  29.072  1.00  0.00     0.200 A 
ATOM     28  C   UNL A   1      35.819  32.338  28.848  1.00  0.00     0.165 A 
ATOM     29  C   UNL A   1      36.797  32.204  29.873  1.00  0.00     0.058 A 
BRANCH  25  30
ATOM     30  O   UNL A   1      33.434  34.461  30.804  1.00  0.00    -0.493 OA
ATOM     31  C   UNL A   1      33.207  35.791  30.395  1.00  0.00     0.278 C 
ENDBRANCH  25  30
BRANCH  27  32
ATOM     32  O   UNL A   1      33.793  33.315  28.040  1.00  0.00    -0.502 OA
ATOM     33  H   UNL A   1      33.768  32.706  27.329  1.00  0.00     0.293 HD
ENDBRANCH  27  32
BRANCH  28  34
ATOM     34  O   UNL A   1      36.119  31.639  27.695  1.00  0.00    -0.493 OA
ATOM     35  C   UNL A   1      35.913  30.225  27.680  1.00  0.00     0.278 C 
ENDBRANCH  28  34
ENDBRANCH  13  24
ENDBRANCH  11  12
ENDBRANCH   8  11
ENDBRANCH   5   8
ENDBRANCH   3   4
ENDBRANCH   2   3
ENDBRANCH   1   2
BRANCH   1  36
ATOM     36  C   UNL A   1      44.616  22.613  24.757  1.00  0.00     0.002 C 
BRANCH  36  37
ATOM     37  C   UNL A   1      46.120  22.885  24.628  1.00  0.00     0.021 C 
BRANCH  37  38
ATOM     38  C   UNL A   1      46.633  24.113  25.378  1.00  0.00     0.116 C 
BRANCH  38  39
ATOM     39  N   UNL A   1      47.026  25.197  24.493  1.00  0.00    -0.352 N 
ATOM     40  C   UNL A   1      46.842  26.558  24.618  1.00  0.00     0.251 C 
ATOM     41  H   UNL A   1      47.499  24.915  23.676  1.00  0.00     0.163 HD
ATOM     42  O   UNL A   1      47.132  27.298  23.690  1.00  0.00    -0.269 OA
BRANCH  40  43
ATOM     43  C   UNL A   1      46.263  27.118  25.860  1.00  0.00     0.039 A 
ATOM     44  C   UNL A   1      47.132  27.549  26.865  1.00  0.00     0.014 A 
ATOM     45  C   UNL A   1      44.881  27.222  26.037  1.00  0.00     0.014 A 
ATOM     46  C   UNL A   1      46.620  28.167  28.010  1.00  0.00     0.010 A 
ATOM     47  C   UNL A   1      44.374  27.894  27.149  1.00  0.00     0.010 A 
ATOM     48  C   UNL A   1      45.239  28.389  28.139  1.00  0.00    -0.014 A 
BRANCH  48  49
ATOM     49  C   UNL A   1      44.694  29.193  29.264  1.00  0.00     0.031 A 
ATOM     50  C   UNL A   1      44.329  28.545  30.570  1.00  0.00     0.074 A 
ATOM     51  C   UNL A   1      44.441  30.505  29.072  1.00  0.00     0.049 A 
ATOM     52  N   UNL A   1      43.773  29.078  31.627  1.00  0.00    -0.248 NA
ATOM     53  C   UNL A   1      44.609  27.106  30.701  1.00  0.00     0.031 C 
ATOM     54  C   UNL A   1      44.694  31.241  27.831  1.00  0.00     0.029 A 
ATOM     55  N   UNL A   1      43.887  31.446  29.906  1.00  0.00    -0.354 N 
ATOM     56  C   UNL A   1      43.610  28.042  32.537  1.00  0.00     0.074 A 
ATOM     57  C   UNL A   1      44.104  26.841  31.899  1.00  0.00     0.031 C 
ATOM     58  C   UNL A   1      44.294  32.513  27.983  1.00  0.00     0.029 A 
ATOM     59  C   UNL A   1      43.717  32.675  29.313  1.00  0.00     0.049 A 
ATOM     60  H   UNL A   1      43.636  31.258  30.839  1.00  0.00     0.167 HD
ATOM     61  C   UNL A   1      43.113  28.089  33.798  1.00  0.00     0.034 A 
ATOM     62  C   UNL A   1      43.138  33.802  29.775  1.00  0.00     0.034 A 
ATOM     63  C   UNL A   1      42.644  29.289  34.439  1.00  0.00     0.049 A 
ATOM     64  C   UNL A   1      42.582  33.821  31.173  1.00  0.00     0.074 A 
ATOM     65  C   UNL A   1      42.202  29.450  35.741  1.00  0.00     0.029 A 
ATOM     66  N   UNL A   1      42.534  30.526  33.824  1.00  0.00    -0.354 N 
ATOM     67  N   UNL A   1      42.585  32.870  32.074  1.00  0.00    -0.248 NA
ATOM     68  C   UNL A   1      41.966  35.077  31.627  1.00  0.00     0.031 C 
ATOM     69  C   UNL A   1      41.786  30.776  35.901  1.00  0.00     0.029 A 
ATOM     70  C   UNL A   1      42.003  31.449  34.710  1.00  0.00     0.049 A 
ATOM     71  H   UNL A   1      42.793  30.721  32.895  1.00  0.00     0.167 HD
ATOM     72  C   UNL A   1      41.994  33.418  33.208  1.00  0.00     0.074 A 
ATOM     73  C   UNL A   1      41.674  34.794  32.889  1.00  0.00     0.031 C 
ATOM     74  C   UNL A   1      41.723  32.828  34.398  1.00  0.00     0.034 A 
BRANCH  61  75
ATOM     75  C   UNL A   1      43.085  26.808  34.591  1.00  0.00     0.023 A 
ATOM     76  C   UNL A   1      41.867  26.115  34.753  1.00  0.00     0.012 A 
ATOM     77  C   UNL A   1      44.269  26.252  35.112  1.00  0.00     0.148 A 
ATOM     78  C   UNL A   1      41.825  24.905  35.444  1.00  0.00     0.002 A 
ATOM     79  C   UNL A   1      44.227  25.024  35.762  1.00  0.00     0.091 A 
ATOM     80  F   UNL A   1      45.414  26.934  34.963  1.00  0.00    -0.205 F 
ATOM     81  C   UNL A   1      43.004  24.355  35.938  1.00  0.00     0.022 A 
BRANCH  79  82
ATOM     82  S   UNL A   1      45.699  24.191  36.366  1.00  0.00     0.127 S 
ATOM     83  O   UNL A   1      45.133  22.970  36.936  1.00  0.00    -0.237 OA
ATOM     84  O   UNL A   1      46.466  23.993  35.136  1.00  0.00    -0.237 OA
ATOM     85  O   UNL A   1      46.311  25.100  37.325  1.00  0.00    -0.744 OA
ENDBRANCH  79  82
ENDBRANCH  61  75
BRANCH  62  86
ATOM     86  C   UNL A   1      43.073  35.017  28.913  1.00  0.00     0.023 A 
ATOM     87  C   UNL A   1      41.892  35.300  28.199  1.00  0.00     0.012 A 
ATOM     88  C   UNL A   1      44.167  35.898  28.806  1.00  0.00     0.148 A 
ATOM     89  C   UNL A   1      41.813  36.419  27.369  1.00  0.00     0.002 A 
ATOM     90  C   UNL A   1      44.062  37.042  28.023  1.00  0.00     0.091 A 
ATOM     91  F   UNL A   1      45.286  35.604  29.481  1.00  0.00    -0.205 F 
ATOM     92  C   UNL A   1      42.893  37.294  27.288  1.00  0.00     0.022 A 
BRANCH  90  93
ATOM     93  S   UNL A   1      45.351  38.292  27.967  1.00  0.00     0.127 S 
ATOM     94  O   UNL A   1      46.421  37.585  27.267  1.00  0.00    -0.237 OA
ATOM     95  O   UNL A   1      44.705  39.355  27.196  1.00  0.00    -0.237 OA
ATOM     96  O   UNL A   1      45.624  38.638  29.356  1.00  0.00    -0.744 OA
ENDBRANCH  90  93
ENDBRANCH  62  86
BRANCH  74  97
ATOM     97  C   UNL A   1      41.059  33.667  35.459  1.00  0.00     0.023 A 
ATOM     98  C   UNL A   1      39.654  33.682  35.560  1.00  0.00     0.012 A 
ATOM     99  C   UNL A   1      41.827  34.376  36.404  1.00  0.00     0.148 A 
ATOM    100  C   UNL A   1      39.022  34.414  36.564  1.00  0.00     0.002 A 
ATOM    101  C   UNL A   1      41.193  35.061  37.434  1.00  0.00     0.091 A 
ATOM    102  F   UNL A   1      43.163  34.360  36.284  1.00  0.00    -0.205 F 
ATOM    103  C   UNL A   1      39.790  35.092  37.508  1.00  0.00     0.022 A 
BRANCH 101 104
ATOM    104  S   UNL A   1      42.095  35.888  38.749  1.00  0.00     0.127 S 
ATOM    105  O   UNL A   1      42.976  34.821  39.222  1.00  0.00    -0.237 OA
ATOM    106  O   UNL A   1      42.772  36.965  38.026  1.00  0.00    -0.237 OA
ATOM    107  O   UNL A   1      41.093  36.334  39.707  1.00  0.00    -0.744 OA
ENDBRANCH 101 104
ENDBRANCH  74  97
ENDBRANCH  48  49
ENDBRANCH  40  43
ENDBRANCH  38  39
ENDBRANCH  37  38
ENDBRANCH  36  37
ENDBRANCH   1  36
TORSDOF 22
ENDMDL
MODEL 2
REMARK VINA RESULT:      -8.7      5.103      9.361
REMARK SMILES COc1cc(/C=C2/CCc3cc(OC(C)(C)C(=O)NCCCCCCNC(=O)c4ccc(-c5c6nc(c(-c7cccc(S(=O)(=O)[O-])c7F)c7ccc([nH]7)c(-c7cccc(S(=O)(=O)[O-])c7F)c7nc(c(-c8cccc(S(=O)(=O)[O-])c8F)c8ccc5[nH]8)C=C7)C=C6)cc4)ccc3C2=O)cc(OC)c1O
REMARK SMILES IDX 22 1 21 2 20 3 19 4 17 5 18 6 14 8 15 9 16 10 13 11 12 12
REMARK SMILES IDX 6 13 7 14 8 15 95 16 9 17 94 18 96 19 10 20 93 21 11 22
REMARK SMILES IDX 92 23 5 24 3 25 4 26 101 27 98 28 97 29 2 30 1 31 102 32
REMARK SMILES IDX 99 34 100 35 23 36 24 37 25 38 26 39 27 40 28 42 29 43 30 44
REMARK SMILES IDX 91 45 31 46 90 47 32 48 33 49 34 50 84 51 35 52 89 53 83 54
REMARK SMILES IDX 85 55 36 56 88 57 82 58 81 59 37 61 69 62 49 63 68 64 50 65
REMARK SMILES IDX 53 66 67 67 86 68 51 69 52 70 66 72 87 73 54 74 38 75 39 76
REMARK SMILES IDX 47 77 40 78 42 79 48 80 41 81 43 82 44 83 45 84 46 85 70 86
REMARK SMILES IDX 71 87 79 88 72 89 74 90 80 91 73 92 75 93 76 94 77 95 78 96
REMARK SMILES IDX 55 97 56 98 64 99 57 100 59 101 65 102 58 103 60 104 61 105
REMARK SMILES IDX 62 106 63 107
REMARK H PARENT 19 7 102 33 26 41 85 60 53 71
REMARK Flexibility Score: inf
ROOT
ATOM      1  C   UNL A   1      40.559  22.259  26.245  1.00  0.00     0.002 C 
ENDROOT
BRANCH   1   2
ATOM      2  C   UNL A   1      39.352  23.138  26.568  1.00  0.00     0.021 C 
BRANCH   2   3
ATOM      3  C   UNL A   1      38.071  22.859  25.783  1.00  0.00     0.116 C 
BRANCH   3   4
ATOM      4  N   UNL A   1      36.842  23.451  26.328  1.00  0.00    -0.353 N 
ATOM      5  C   UNL A   1      35.503  23.106  26.125  1.00  0.00     0.263 C 
ATOM      6  O   UNL A   1      34.660  23.657  26.838  1.00  0.00    -0.270 OA
ATOM      7  H   UNL A   1      36.983  24.214  26.934  1.00  0.00     0.163 HD
BRANCH   5   8
ATOM      8  C   UNL A   1      35.106  22.197  24.902  1.00  0.00     0.181 C 
ATOM      9  C   UNL A   1      35.904  20.888  25.021  1.00  0.00     0.067 C 
ATOM     10  C   UNL A   1      35.454  23.229  23.787  1.00  0.00     0.067 C 
BRANCH   8  11
ATOM     11  O   UNL A   1      33.695  21.750  24.877  1.00  0.00    -0.478 OA
BRANCH  11  12
ATOM     12  C   UNL A   1      32.998  22.082  23.714  1.00  0.00     0.121 A 
ATOM     13  C   UNL A   1      31.219  27.364  22.685  1.00  0.00     0.016 C 
ATOM     14  C   UNL A   1      31.851  26.351  22.056  1.00  0.00     0.001 C 
ATOM     15  C   UNL A   1      32.316  25.906  20.666  1.00  0.00     0.044 C 
ATOM     16  C   UNL A   1      32.241  25.303  22.964  1.00  0.00     0.189 C 
ATOM     17  C   UNL A   1      33.302  24.572  20.710  1.00  0.00     0.041 C 
ATOM     18  C   UNL A   1      31.733  23.993  22.446  1.00  0.00     0.026 A 
ATOM     19  O   UNL A   1      33.238  25.463  23.658  1.00  0.00    -0.289 OA
ATOM     20  C   UNL A   1      32.855  23.543  21.775  1.00  0.00    -0.033 A 
ATOM     21  C   UNL A   1      30.967  23.202  23.289  1.00  0.00     0.016 A 
ATOM     22  C   UNL A   1      33.591  22.610  22.523  1.00  0.00     0.051 A 
ATOM     23  C   UNL A   1      31.619  22.164  23.918  1.00  0.00     0.047 A 
BRANCH  13  24
ATOM     24  C   UNL A   1      31.399  27.601  24.166  1.00  0.00    -0.018 A 
ATOM     25  C   UNL A   1      30.905  26.634  26.384  1.00  0.00     0.165 A 
ATOM     26  C   UNL A   1      30.928  26.564  24.981  1.00  0.00     0.058 A 
ATOM     27  C   UNL A   1      31.352  27.802  27.013  1.00  0.00     0.200 A 
ATOM     28  C   UNL A   1      31.768  28.898  26.230  1.00  0.00     0.165 A 
ATOM     29  C   UNL A   1      31.804  28.782  24.812  1.00  0.00     0.058 A 
BRANCH  25  30
ATOM     30  O   UNL A   1      30.412  25.474  26.908  1.00  0.00    -0.493 OA
ATOM     31  C   UNL A   1      31.091  24.243  26.806  1.00  0.00     0.278 C 
ENDBRANCH  25  30
BRANCH  27  32
ATOM     32  O   UNL A   1      31.414  27.908  28.376  1.00  0.00    -0.502 OA
ATOM     33  H   UNL A   1      31.584  28.739  28.775  1.00  0.00     0.293 HD
ENDBRANCH  27  32
BRANCH  28  34
ATOM     34  O   UNL A   1      32.158  30.138  26.699  1.00  0.00    -0.493 OA
ATOM     35  C   UNL A   1      31.408  31.287  26.300  1.00  0.00     0.278 C 
ENDBRANCH  28  34
ENDBRANCH  13  24
ENDBRANCH  11  12
ENDBRANCH   8  11
ENDBRANCH   5   8
ENDBRANCH   3   4
ENDBRANCH   2   3
ENDBRANCH   1   2
BRANCH   1  36
ATOM     36  C   UNL A   1      40.598  20.906  26.964  1.00  0.00     0.002 C 
BRANCH  36  37
ATOM     37  C   UNL A   1      41.058  19.707  26.126  1.00  0.00     0.021 C 
BRANCH  37  38
ATOM     38  C   UNL A   1      42.349  19.036  26.592  1.00  0.00     0.116 C 
BRANCH  38  39
ATOM     39  N   UNL A   1      43.310  18.845  25.518  1.00  0.00    -0.352 N 
ATOM     40  C   UNL A   1      44.055  19.770  24.817  1.00  0.00     0.251 C 
ATOM     41  H   UNL A   1      43.453  17.909  25.250  1.00  0.00     0.163 HD
ATOM     42  O   UNL A   1      44.712  19.415  23.851  1.00  0.00    -0.269 OA
BRANCH  40  43
ATOM     43  C   UNL A   1      44.030  21.197  25.212  1.00  0.00     0.039 A 
ATOM     44  C   UNL A   1      44.329  21.528  26.537  1.00  0.00     0.014 A 
ATOM     45  C   UNL A   1      43.718  22.202  24.293  1.00  0.00     0.014 A 
ATOM     46  C   UNL A   1      44.403  22.870  26.918  1.00  0.00     0.010 A 
ATOM     47  C   UNL A   1      43.854  23.541  24.659  1.00  0.00     0.010 A 
ATOM     48  C   UNL A   1      44.215  23.890  25.971  1.00  0.00    -0.014 A 
BRANCH  48  49
ATOM     49  C   UNL A   1      44.458  25.314  26.318  1.00  0.00     0.031 A 
ATOM     50  C   UNL A   1      45.832  25.912  26.201  1.00  0.00     0.074 A 
ATOM     51  C   UNL A   1      43.448  26.049  26.829  1.00  0.00     0.049 A 
ATOM     52  N   UNL A   1      46.240  27.110  26.531  1.00  0.00    -0.248 NA
ATOM     53  C   UNL A   1      46.892  25.047  25.658  1.00  0.00     0.031 C 
ATOM     54  C   UNL A   1      42.082  25.568  27.049  1.00  0.00     0.029 A 
ATOM     55  N   UNL A   1      43.419  27.344  27.286  1.00  0.00    -0.354 N 
ATOM     56  C   UNL A   1      47.603  27.137  26.266  1.00  0.00     0.074 A 
ATOM     57  C   UNL A   1      47.960  25.825  25.768  1.00  0.00     0.031 C 
ATOM     58  C   UNL A   1      41.352  26.550  27.600  1.00  0.00     0.029 A 
ATOM     59  C   UNL A   1      42.204  27.714  27.814  1.00  0.00     0.049 A 
ATOM     60  H   UNL A   1      44.195  27.949  27.240  1.00  0.00     0.167 HD
ATOM     61  C   UNL A   1      48.475  28.166  26.403  1.00  0.00     0.034 A 
ATOM     62  C   UNL A   1      41.822  28.853  28.427  1.00  0.00     0.034 A 
ATOM     63  C   UNL A   1      48.113  29.476  26.875  1.00  0.00     0.049 A 
ATOM     64  C   UNL A   1      42.815  29.973  28.578  1.00  0.00     0.074 A 
ATOM     65  C   UNL A   1      48.908  30.606  26.969  1.00  0.00     0.029 A 
ATOM     66  N   UNL A   1      46.861  29.830  27.354  1.00  0.00    -0.354 N 
ATOM     67  N   UNL A   1      44.059  30.033  28.173  1.00  0.00    -0.248 NA
ATOM     68  C   UNL A   1      42.344  31.194  29.250  1.00  0.00     0.031 C 
ATOM     69  C   UNL A   1      48.149  31.630  27.542  1.00  0.00     0.029 A 
ATOM     70  C   UNL A   1      46.869  31.151  27.772  1.00  0.00     0.049 A 
ATOM     71  H   UNL A   1      46.081  29.232  27.392  1.00  0.00     0.167 HD
ATOM     72  C   UNL A   1      44.513  31.301  28.517  1.00  0.00     0.074 A 
ATOM     73  C   UNL A   1      43.399  31.989  29.137  1.00  0.00     0.031 C 
ATOM     74  C   UNL A   1      45.746  31.841  28.353  1.00  0.00     0.034 A 
BRANCH  61  75
ATOM     75  C   UNL A   1      49.908  27.933  26.000  1.00  0.00     0.023 A 
ATOM     76  C   UNL A   1      50.274  28.023  24.641  1.00  0.00     0.012 A 
ATOM     77  C   UNL A   1      50.904  27.701  26.969  1.00  0.00     0.148 A 
ATOM     78  C   UNL A   1      51.602  27.855  24.251  1.00  0.00     0.002 A 
ATOM     79  C   UNL A   1      52.232  27.579  26.578  1.00  0.00     0.091 A 
ATOM     80  F   UNL A   1      50.534  27.602  28.254  1.00  0.00    -0.205 F 
ATOM     81  C   UNL A   1      52.580  27.644  25.218  1.00  0.00     0.022 A 
BRANCH  79  82
ATOM     82  S   UNL A   1      53.578  27.384  27.750  1.00  0.00     0.127 S 
ATOM     83  O   UNL A   1      53.136  26.218  28.515  1.00  0.00    -0.237 OA
ATOM     84  O   UNL A   1      54.719  27.139  26.869  1.00  0.00    -0.237 OA
ATOM     85  O   UNL A   1      53.643  28.631  28.500  1.00  0.00    -0.744 OA
ENDBRANCH  79  82
ENDBRANCH  61  75
BRANCH  62  86
ATOM     86  C   UNL A   1      40.425  29.002  28.926  1.00  0.00     0.023 A 
ATOM     87  C   UNL A   1      39.392  29.311  28.019  1.00  0.00     0.012 A 
ATOM     88  C   UNL A   1      40.112  28.827  30.288  1.00  0.00     0.148 A 
ATOM     89  C   UNL A   1      38.080  29.477  28.465  1.00  0.00     0.002 A 
ATOM     90  C   UNL A   1      38.794  28.936  30.717  1.00  0.00     0.091 A 
ATOM     91  F   UNL A   1      41.110  28.547  31.137  1.00  0.00    -0.205 F 
ATOM     92  C   UNL A   1      37.780  29.281  29.810  1.00  0.00     0.022 A 
BRANCH  90  93
ATOM     93  S   UNL A   1      38.297  28.567  32.403  1.00  0.00     0.127 S 
ATOM     94  O   UNL A   1      39.170  29.451  33.172  1.00  0.00    -0.237 OA
ATOM     95  O   UNL A   1      36.885  28.952  32.390  1.00  0.00    -0.237 OA
ATOM     96  O   UNL A   1      38.528  27.140  32.578  1.00  0.00    -0.744 OA
ENDBRANCH  90  93
ENDBRANCH  62  86
BRANCH  74  97
ATOM     97  C   UNL A   1      45.962  33.251  28.835  1.00  0.00     0.023 A 
ATOM     98  C   UNL A   1      46.474  33.477  30.129  1.00  0.00     0.012 A 
ATOM     99  C   UNL A   1      45.734  34.349  27.982  1.00  0.00     0.148 A 
ATOM    100  C   UNL A   1      46.726  34.773  30.576  1.00  0.00     0.002 A 
ATOM    101  C   UNL A   1      46.035  35.635  28.416  1.00  0.00     0.091 A 
ATOM    102  F   UNL A   1      45.234  34.116  26.760  1.00  0.00    -0.205 F 
ATOM    103  C   UNL A   1      46.520  35.849  29.718  1.00  0.00     0.022 A 
BRANCH 101 104
ATOM    104  S   UNL A   1      45.891  37.077  27.354  1.00  0.00     0.127 S 
ATOM    105  O   UNL A   1      44.440  37.196  27.210  1.00  0.00    -0.237 OA
ATOM    106  O   UNL A   1      46.512  38.121  28.169  1.00  0.00    -0.237 OA
ATOM    107  O   UNL A   1      46.610  36.751  26.131  1.00  0.00    -0.744 OA
ENDBRANCH 101 104
ENDBRANCH  74  97
ENDBRANCH  48  49
ENDBRANCH  40  43
ENDBRANCH  38  39
ENDBRANCH  37  38
ENDBRANCH  36  37
ENDBRANCH   1  36
TORSDOF 22
ENDMDL
MODEL 3
REMARK VINA RESULT:      -8.6      5.075      9.180
REMARK SMILES COc1cc(/C=C2/CCc3cc(OC(C)(C)C(=O)NCCCCCCNC(=O)c4ccc(-c5c6nc(c(-c7cccc(S(=O)(=O)[O-])c7F)c7ccc([nH]7)c(-c7cccc(S(=O)(=O)[O-])c7F)c7nc(c(-c8cccc(S(=O)(=O)[O-])c8F)c8ccc5[nH]8)C=C7)C=C6)cc4)ccc3C2=O)cc(OC)c1O
REMARK SMILES IDX 22 1 21 2 20 3 19 4 17 5 18 6 14 8 15 9 16 10 13 11 12 12
REMARK SMILES IDX 6 13 7 14 8 15 95 16 9 17 94 18 96 19 10 20 93 21 11 22
REMARK SMILES IDX 92 23 5 24 3 25 4 26 101 27 98 28 97 29 2 30 1 31 102 32
REMARK SMILES IDX 99 34 100 35 23 36 24 37 25 38 26 39 27 40 28 42 29 43 30 44
REMARK SMILES IDX 91 45 31 46 90 47 32 48 33 49 34 50 84 51 35 52 89 53 83 54
REMARK SMILES IDX 85 55 36 56 88 57 82 58 81 59 37 61 69 62 49 63 68 64 50 65
REMARK SMILES IDX 53 66 67 67 86 68 51 69 52 70 66 72 87 73 54 74 38 75 39 76
REMARK SMILES IDX 47 77 40 78 42 79 48 80 41 81 43 82 44 83 45 84 46 85 70 86
REMARK SMILES IDX 71 87 79 88 72 89 74 90 80 91 73 92 75 93 76 94 77 95 78 96
REMARK SMILES IDX 55 97 56 98 64 99 57 100 59 101 65 102 58 103 60 104 61 105
REMARK SMILES IDX 62 106 63 107
REMARK H PARENT 19 7 102 33 26 41 85 60 53 71
REMARK Flexibility Score: inf
ROOT
ATOM      1  C   UNL A   1      39.784  23.199  26.167  1.00  0.00     0.002 C 
ENDROOT
BRANCH   1   2
ATOM      2  C   UNL A   1      38.692  24.203  26.531  1.00  0.00     0.021 C 
BRANCH   2   3
ATOM      3  C   UNL A   1      37.301  23.942  25.955  1.00  0.00     0.116 C 
BRANCH   3   4
ATOM      4  N   UNL A   1      36.435  23.054  26.745  1.00  0.00    -0.353 N 
ATOM      5  C   UNL A   1      35.272  22.369  26.384  1.00  0.00     0.263 C 
ATOM      6  O   UNL A   1      34.823  21.549  27.190  1.00  0.00    -0.270 OA
ATOM      7  H   UNL A   1      36.720  22.920  27.677  1.00  0.00     0.163 HD
BRANCH   5   8
ATOM      8  C   UNL A   1      34.486  22.790  25.086  1.00  0.00     0.181 C 
ATOM      9  C   UNL A   1      35.509  22.906  23.944  1.00  0.00     0.067 C 
ATOM     10  C   UNL A   1      33.825  24.070  25.681  1.00  0.00     0.067 C 
BRANCH   8  11
ATOM     11  O   UNL A   1      33.509  21.796  24.586  1.00  0.00    -0.478 OA
BRANCH  11  12
ATOM     12  C   UNL A   1      32.788  22.200  23.462  1.00  0.00     0.121 A 
ATOM     13  C   UNL A   1      31.359  27.616  22.596  1.00  0.00     0.016 C 
ATOM     14  C   UNL A   1      31.886  26.572  21.923  1.00  0.00     0.001 C 
ATOM     15  C   UNL A   1      32.256  26.120  20.508  1.00  0.00     0.044 C 
ATOM     16  C   UNL A   1      32.238  25.481  22.796  1.00  0.00     0.189 C 
ATOM     17  C   UNL A   1      33.142  24.718  20.486  1.00  0.00     0.041 C 
ATOM     18  C   UNL A   1      31.613  24.222  22.282  1.00  0.00     0.026 A 
ATOM     19  O   UNL A   1      33.273  25.555  23.447  1.00  0.00    -0.289 OA
ATOM     20  C   UNL A   1      32.668  23.704  21.554  1.00  0.00    -0.033 A 
ATOM     21  C   UNL A   1      30.829  23.473  23.146  1.00  0.00     0.016 A 
ATOM     22  C   UNL A   1      33.365  22.705  22.254  1.00  0.00     0.051 A 
ATOM     23  C   UNL A   1      31.430  22.379  23.730  1.00  0.00     0.047 A 
BRANCH  13  24
ATOM     24  C   UNL A   1      31.621  27.811  24.071  1.00  0.00    -0.018 A 
ATOM     25  C   UNL A   1      30.927  27.032  26.309  1.00  0.00     0.165 A 
ATOM     26  C   UNL A   1      30.906  26.944  24.907  1.00  0.00     0.058 A 
ATOM     27  C   UNL A   1      31.678  28.046  26.915  1.00  0.00     0.200 A 
ATOM     28  C   UNL A   1      32.356  28.985  26.111  1.00  0.00     0.165 A 
ATOM     29  C   UNL A   1      32.336  28.849  24.695  1.00  0.00     0.058 A 
BRANCH  25  30
ATOM     30  O   UNL A   1      30.153  26.050  26.857  1.00  0.00    -0.493 OA
ATOM     31  C   UNL A   1      30.207  24.709  26.425  1.00  0.00     0.278 C 
ENDBRANCH  25  30
BRANCH  27  32
ATOM     32  O   UNL A   1      31.789  28.145  28.276  1.00  0.00    -0.502 OA
ATOM     33  H   UNL A   1      31.607  27.401  28.816  1.00  0.00     0.293 HD
ENDBRANCH  27  32
BRANCH  28  34
ATOM     34  O   UNL A   1      33.069  30.081  26.556  1.00  0.00    -0.493 OA
ATOM     35  C   UNL A   1      34.334  29.864  27.185  1.00  0.00     0.278 C 
ENDBRANCH  28  34
ENDBRANCH  13  24
ENDBRANCH  11  12
ENDBRANCH   8  11
ENDBRANCH   5   8
ENDBRANCH   3   4
ENDBRANCH   2   3
ENDBRANCH   1   2
BRANCH   1  36
ATOM     36  C   UNL A   1      39.705  21.850  26.892  1.00  0.00     0.002 C 
BRANCH  36  37
ATOM     37  C   UNL A   1      40.047  20.611  26.055  1.00  0.00     0.021 C 
BRANCH  37  38
ATOM     38  C   UNL A   1      40.964  19.594  26.731  1.00  0.00     0.116 C 
BRANCH  38  39
ATOM     39  N   UNL A   1      42.118  19.243  25.920  1.00  0.00    -0.352 N 
ATOM     40  C   UNL A   1      43.158  20.027  25.466  1.00  0.00     0.251 C 
ATOM     41  H   UNL A   1      42.166  18.296  25.654  1.00  0.00     0.163 HD
ATOM     42  O   UNL A   1      43.968  19.565  24.678  1.00  0.00    -0.269 OA
BRANCH  40  43
ATOM     43  C   UNL A   1      43.272  21.436  25.906  1.00  0.00     0.039 A 
ATOM     44  C   UNL A   1      43.471  21.697  27.265  1.00  0.00     0.014 A 
ATOM     45  C   UNL A   1      43.186  22.493  24.996  1.00  0.00     0.014 A 
ATOM     46  C   UNL A   1      43.674  23.010  27.698  1.00  0.00     0.010 A 
ATOM     47  C   UNL A   1      43.450  23.795  25.420  1.00  0.00     0.010 A 
ATOM     48  C   UNL A   1      43.714  24.066  26.772  1.00  0.00    -0.014 A 
BRANCH  48  49
ATOM     49  C   UNL A   1      44.098  25.439  27.192  1.00  0.00     0.031 A 
ATOM     50  C   UNL A   1      43.070  26.400  27.718  1.00  0.00     0.074 A 
ATOM     51  C   UNL A   1      45.371  25.851  27.011  1.00  0.00     0.049 A 
ATOM     52  N   UNL A   1      43.212  27.656  28.057  1.00  0.00    -0.248 NA
ATOM     53  C   UNL A   1      41.696  25.892  27.867  1.00  0.00     0.031 C 
ATOM     54  C   UNL A   1      46.451  25.034  26.453  1.00  0.00     0.029 A 
ATOM     55  N   UNL A   1      45.965  27.067  27.245  1.00  0.00    -0.354 N 
ATOM     56  C   UNL A   1      41.950  28.096  28.432  1.00  0.00     0.074 A 
ATOM     57  C   UNL A   1      41.046  26.980  28.256  1.00  0.00     0.031 C 
ATOM     58  C   UNL A   1      47.571  25.770  26.385  1.00  0.00     0.029 A 
ATOM     59  C   UNL A   1      47.282  27.121  26.851  1.00  0.00     0.049 A 
ATOM     60  H   UNL A   1      45.493  27.827  27.656  1.00  0.00     0.167 HD
ATOM     61  C   UNL A   1      41.580  29.314  28.901  1.00  0.00     0.034 A 
ATOM     62  C   UNL A   1      48.155  28.149  26.840  1.00  0.00     0.034 A 
ATOM     63  C   UNL A   1      42.485  30.415  29.097  1.00  0.00     0.049 A 
ATOM     64  C   UNL A   1      47.712  29.492  27.353  1.00  0.00     0.074 A 
ATOM     65  C   UNL A   1      42.219  31.658  29.645  1.00  0.00     0.029 A 
ATOM     66  N   UNL A   1      43.823  30.417  28.735  1.00  0.00    -0.354 N 
ATOM     67  N   UNL A   1      46.554  29.844  27.853  1.00  0.00    -0.248 NA
ATOM     68  C   UNL A   1      48.706  30.577  27.322  1.00  0.00     0.031 C 
ATOM     69  C   UNL A   1      43.386  32.426  29.576  1.00  0.00     0.029 A 
ATOM     70  C   UNL A   1      44.389  31.649  29.019  1.00  0.00     0.049 A 
ATOM     71  H   UNL A   1      44.301  29.657  28.333  1.00  0.00     0.167 HD
ATOM     72  C   UNL A   1      46.684  31.178  28.219  1.00  0.00     0.074 A 
ATOM     73  C   UNL A   1      48.046  31.565  27.910  1.00  0.00     0.031 C 
ATOM     74  C   UNL A   1      45.755  32.015  28.744  1.00  0.00     0.034 A 
BRANCH  61  75
ATOM     75  C   UNL A   1      40.134  29.514  29.274  1.00  0.00     0.023 A 
ATOM     76  C   UNL A   1      39.176  29.724  28.262  1.00  0.00     0.012 A 
ATOM     77  C   UNL A   1      39.712  29.421  30.615  1.00  0.00     0.148 A 
ATOM     78  C   UNL A   1      37.826  29.868  28.579  1.00  0.00     0.002 A 
ATOM     79  C   UNL A   1      38.360  29.520  30.921  1.00  0.00     0.091 A 
ATOM     80  F   UNL A   1      40.640  29.238  31.565  1.00  0.00    -0.205 F 
ATOM     81  C   UNL A   1      37.417  29.755  29.905  1.00  0.00     0.022 A 
BRANCH  79  82
ATOM     82  S   UNL A   1      37.721  29.311  32.586  1.00  0.00     0.127 S 
ATOM     83  O   UNL A   1      38.653  30.129  33.363  1.00  0.00    -0.237 OA
ATOM     84  O   UNL A   1      36.373  29.866  32.469  1.00  0.00    -0.237 OA
ATOM     85  O   UNL A   1      37.770  27.882  32.860  1.00  0.00    -0.744 OA
ENDBRANCH  79  82
ENDBRANCH  61  75
BRANCH  62  86
ATOM     86  C   UNL A   1      49.546  27.943  26.345  1.00  0.00     0.023 A 
ATOM     87  C   UNL A   1      49.799  27.956  24.959  1.00  0.00     0.012 A 
ATOM     88  C   UNL A   1      50.619  27.748  27.237  1.00  0.00     0.148 A 
ATOM     89  C   UNL A   1      51.090  27.744  24.470  1.00  0.00     0.002 A 
ATOM     90  C   UNL A   1      51.910  27.596  26.746  1.00  0.00     0.091 A 
ATOM     91  F   UNL A   1      50.355  27.725  28.551  1.00  0.00    -0.205 F 
ATOM     92  C   UNL A   1      52.145  27.573  25.362  1.00  0.00     0.022 A 
BRANCH  90  93
ATOM     93  S   UNL A   1      53.345  27.506  27.822  1.00  0.00     0.127 S 
ATOM     94  O   UNL A   1      53.015  26.360  28.665  1.00  0.00    -0.237 OA
ATOM     95  O   UNL A   1      54.426  27.277  26.863  1.00  0.00    -0.237 OA
ATOM     96  O   UNL A   1      53.409  28.794  28.502  1.00  0.00    -0.744 OA
ENDBRANCH  90  93
ENDBRANCH  62  86
BRANCH  74  97
ATOM     97  C   UNL A   1      46.175  33.432  29.037  1.00  0.00     0.023 A 
ATOM     98  C   UNL A   1      46.812  33.734  30.257  1.00  0.00     0.012 A 
ATOM     99  C   UNL A   1      46.010  34.447  28.074  1.00  0.00     0.148 A 
ATOM    100  C   UNL A   1      47.251  35.029  30.527  1.00  0.00     0.002 A 
ATOM    101  C   UNL A   1      46.495  35.724  28.328  1.00  0.00     0.091 A 
ATOM    102  F   UNL A   1      45.389  34.143  26.924  1.00  0.00    -0.205 F 
ATOM    103  C   UNL A   1      47.105  36.020  29.559  1.00  0.00     0.022 A 
BRANCH 101 104
ATOM    104  S   UNL A   1      46.437  37.044  27.111  1.00  0.00     0.127 S 
ATOM    105  O   UNL A   1      47.122  36.431  25.974  1.00  0.00    -0.237 OA
ATOM    106  O   UNL A   1      44.998  37.231  26.930  1.00  0.00    -0.237 OA
ATOM    107  O   UNL A   1      47.128  38.178  27.712  1.00  0.00    -0.744 OA
ENDBRANCH 101 104
ENDBRANCH  74  97
ENDBRANCH  48  49
ENDBRANCH  40  43
ENDBRANCH  38  39
ENDBRANCH  37  38
ENDBRANCH  36  37
ENDBRANCH   1  36
TORSDOF 22
ENDMDL
