MODEL 1
REMARK VINA RESULT:     -11.2      0.000      0.000
REMARK SMILES CCC[C@]1(C(=O)NC[C@@H]2CC[C@H](C(=O)NCCCCCCNC(=O)c3ccc(-c4c5nc(c(-c6cccc(S(=O)(=O)[O-])c6F)c6ccc([nH]6)c(-c6cccc(S(=O)(=O)[O-])c6F)c6nc(c(-c7cccc(S(=O)(=O)[O-])c7F)c7ccc4[nH]7)C=C6)C=C5)cc3)O2)CCC[NH2+]C1
REMARK SMILES IDX 17 1 16 2 15 3 13 4 14 5 12 7 9 8 10 9 88 10 11 11 8 12 7 13
REMARK SMILES IDX 5 14 6 15 4 17 89 18 93 19 90 20 92 21 91 22 3 25 2 26 1 27
REMARK SMILES IDX 18 28 19 29 20 30 21 31 22 32 23 33 24 35 25 36 26 37 87 38
REMARK SMILES IDX 27 39 86 40 28 41 29 42 30 43 80 44 31 45 85 46 79 47 81 48
REMARK SMILES IDX 32 49 84 50 78 51 77 52 33 54 65 55 45 56 64 57 46 58 49 59
REMARK SMILES IDX 63 60 82 61 47 62 48 63 62 65 83 66 50 67 34 68 35 69 43 70
REMARK SMILES IDX 36 71 38 72 44 73 37 74 39 75 40 76 41 77 42 78 66 79 67 80
REMARK SMILES IDX 75 81 68 82 70 83 76 84 69 85 71 86 72 87 73 88 74 89 51 90
REMARK SMILES IDX 52 91 60 92 53 93 55 94 61 95 54 96 56 97 57 98 58 99 59 100
REMARK H PARENT 15 6 7 16 92 23 92 24 22 34 81 53 49 64
REMARK Flexibility Score: inf
ROOT
ATOM      1  C   UNL A   1      32.973  28.151  26.635  1.00  0.00     0.021 C 
ENDROOT
BRANCH   1   2
ATOM      2  C   UNL A   1      32.585  26.842  25.966  1.00  0.00     0.116 C 
BRANCH   2   3
ATOM      3  N   UNL A   1      31.384  26.260  26.514  1.00  0.00    -0.354 N 
ATOM      4  C   UNL A   1      30.237  25.869  25.886  1.00  0.00     0.249 C 
ATOM      5  O   UNL A   1      29.354  25.357  26.583  1.00  0.00    -0.272 OA
ATOM      6  H   UNL A   1      31.393  26.124  27.489  1.00  0.00     0.163 HD
BRANCH   4   7
ATOM      7  C   UNL A   1      30.027  26.056  24.367  1.00  0.00     0.207 C 
ATOM      8  C   UNL A   1      31.285  25.454  22.479  1.00  0.00     0.138 C 
ATOM      9  C   UNL A   1      31.569  26.931  22.721  1.00  0.00     0.037 C 
ATOM     10  O   UNL A   1      30.554  24.969  23.615  1.00  0.00    -0.363 OA
ATOM     11  C   UNL A   1      30.572  27.348  23.782  1.00  0.00     0.045 C 
BRANCH   8  12
ATOM     12  C   UNL A   1      32.542  24.579  22.261  1.00  0.00     0.147 C 
BRANCH  12  13
ATOM     13  N   UNL A   1      32.253  23.148  22.381  1.00  0.00    -0.353 N 
ATOM     14  C   UNL A   1      32.605  22.158  23.235  1.00  0.00     0.232 C 
ATOM     15  O   UNL A   1      32.173  21.037  22.940  1.00  0.00    -0.274 OA
ATOM     16  H   UNL A   1      31.657  22.828  21.666  1.00  0.00     0.163 HD
BRANCH  14  17
ATOM     17  C   UNL A   1      33.542  22.389  24.437  1.00  0.00     0.098 C 
ATOM     18  C   UNL A   1      32.668  23.054  25.539  1.00  0.00     0.028 C 
ATOM     19  C   UNL A   1      34.143  21.039  24.878  1.00  0.00     0.277 C 
ATOM     20  C   UNL A   1      33.194  22.877  26.956  1.00  0.00     0.063 C 
ATOM     21  N   UNL A   1      34.677  21.060  26.242  1.00  0.00    -0.345 N 
ATOM     22  C   UNL A   1      33.672  21.454  27.217  1.00  0.00     0.260 C 
ATOM     23  H   UNL A   1      35.016  20.127  26.476  1.00  0.00     0.346 HD
ATOM     24  H   UNL A   1      35.431  21.747  26.272  1.00  0.00     0.346 HD
BRANCH  17  25
ATOM     25  C   UNL A   1      34.662  23.390  23.960  1.00  0.00     0.022 C 
BRANCH  25  26
ATOM     26  C   UNL A   1      35.988  22.857  23.402  1.00  0.00    -0.002 C 
ATOM     27  C   UNL A   1      37.186  23.093  24.316  1.00  0.00     0.004 C 
ENDBRANCH  25  26
ENDBRANCH  17  25
ENDBRANCH  14  17
ENDBRANCH  12  13
ENDBRANCH   8  12
ENDBRANCH   4   7
ENDBRANCH   2   3
ENDBRANCH   1   2
BRANCH   1  28
ATOM     28  C   UNL A   1      31.784  29.083  26.873  1.00  0.00     0.002 C 
BRANCH  28  29
ATOM     29  C   UNL A   1      31.526  30.109  25.760  1.00  0.00     0.002 C 
BRANCH  29  30
ATOM     30  C   UNL A   1      31.399  31.565  26.220  1.00  0.00     0.021 C 
BRANCH  30  31
ATOM     31  C   UNL A   1      32.639  32.124  26.912  1.00  0.00     0.116 C 
BRANCH  31  32
ATOM     32  N   UNL A   1      32.481  33.528  27.257  1.00  0.00    -0.352 N 
ATOM     33  C   UNL A   1      33.099  34.260  28.239  1.00  0.00     0.251 C 
ATOM     34  H   UNL A   1      31.835  34.025  26.707  1.00  0.00     0.163 HD
ATOM     35  O   UNL A   1      32.684  35.378  28.522  1.00  0.00    -0.269 OA
BRANCH  33  36
ATOM     36  C   UNL A   1      34.263  33.694  28.952  1.00  0.00     0.039 A 
ATOM     37  C   UNL A   1      34.058  32.659  29.868  1.00  0.00     0.014 A 
ATOM     38  C   UNL A   1      35.547  34.202  28.734  1.00  0.00     0.014 A 
ATOM     39  C   UNL A   1      35.151  32.103  30.536  1.00  0.00     0.010 A 
ATOM     40  C   UNL A   1      36.640  33.597  29.344  1.00  0.00     0.010 A 
ATOM     41  C   UNL A   1      36.453  32.553  30.262  1.00  0.00    -0.014 A 
BRANCH  41  42
ATOM     42  C   UNL A   1      37.634  31.956  30.934  1.00  0.00     0.031 A 
ATOM     43  C   UNL A   1      38.482  30.947  30.206  1.00  0.00     0.074 A 
ATOM     44  C   UNL A   1      37.889  32.253  32.223  1.00  0.00     0.049 A 
ATOM     45  N   UNL A   1      39.498  30.252  30.647  1.00  0.00    -0.248 NA
ATOM     46  C   UNL A   1      38.124  30.659  28.806  1.00  0.00     0.031 C 
ATOM     47  C   UNL A   1      37.098  33.161  33.055  1.00  0.00     0.029 A 
ATOM     48  N   UNL A   1      38.869  31.796  33.069  1.00  0.00    -0.354 N 
ATOM     49  C   UNL A   1      39.872  29.420  29.599  1.00  0.00     0.074 A 
ATOM     50  C   UNL A   1      38.956  29.671  28.509  1.00  0.00     0.031 C 
ATOM     51  C   UNL A   1      37.622  33.194  34.291  1.00  0.00     0.029 A 
ATOM     52  C   UNL A   1      38.763  32.286  34.350  1.00  0.00     0.049 A 
ATOM     53  H   UNL A   1      39.580  31.177  32.785  1.00  0.00     0.167 HD
ATOM     54  C   UNL A   1      40.903  28.545  29.538  1.00  0.00     0.034 A 
ATOM     55  C   UNL A   1      39.493  32.022  35.451  1.00  0.00     0.034 A 
ATOM     56  C   UNL A   1      41.840  28.333  30.608  1.00  0.00     0.049 A 
ATOM     57  C   UNL A   1      40.657  31.073  35.345  1.00  0.00     0.074 A 
ATOM     58  C   UNL A   1      42.969  27.533  30.616  1.00  0.00     0.029 A 
ATOM     59  N   UNL A   1      41.755  28.918  31.862  1.00  0.00    -0.354 N 
ATOM     60  N   UNL A   1      41.084  30.406  34.300  1.00  0.00    -0.248 NA
ATOM     61  C   UNL A   1      41.462  30.868  36.558  1.00  0.00     0.031 C 
ATOM     62  C   UNL A   1      43.550  27.612  31.886  1.00  0.00     0.029 A 
ATOM     63  C   UNL A   1      42.805  28.490  32.655  1.00  0.00     0.049 A 
ATOM     64  H   UNL A   1      41.051  29.545  32.146  1.00  0.00     0.167 HD
ATOM     65  C   UNL A   1      42.230  29.739  34.717  1.00  0.00     0.074 A 
ATOM     66  C   UNL A   1      42.439  30.095  36.105  1.00  0.00     0.031 C 
ATOM     67  C   UNL A   1      43.033  28.900  34.016  1.00  0.00     0.034 A 
BRANCH  54  68
ATOM     68  C   UNL A   1      41.105  27.780  28.255  1.00  0.00     0.023 A 
ATOM     69  C   UNL A   1      41.621  28.441  27.122  1.00  0.00     0.012 A 
ATOM     70  C   UNL A   1      40.851  26.396  28.192  1.00  0.00     0.148 A 
ATOM     71  C   UNL A   1      41.849  27.745  25.936  1.00  0.00     0.002 A 
ATOM     72  C   UNL A   1      41.126  25.700  27.021  1.00  0.00     0.091 A 
ATOM     73  F   UNL A   1      40.342  25.789  29.273  1.00  0.00    -0.205 F 
ATOM     74  C   UNL A   1      41.613  26.374  25.889  1.00  0.00     0.022 A 
BRANCH  72  75
ATOM     75  S   UNL A   1      40.934  23.919  26.883  1.00  0.00     0.127 S 
ATOM     76  O   UNL A   1      41.425  23.468  28.185  1.00  0.00    -0.237 OA
ATOM     77  O   UNL A   1      39.490  23.779  26.693  1.00  0.00    -0.237 OA
ATOM     78  O   UNL A   1      41.741  23.514  25.741  1.00  0.00    -0.744 OA
ENDBRANCH  72  75
ENDBRANCH  54  68
BRANCH  55  79
ATOM     79  C   UNL A   1      39.180  32.704  36.738  1.00  0.00     0.023 A 
ATOM     80  C   UNL A   1      39.779  33.945  37.030  1.00  0.00     0.012 A 
ATOM     81  C   UNL A   1      38.285  32.139  37.667  1.00  0.00     0.148 A 
ATOM     82  C   UNL A   1      39.525  34.591  38.240  1.00  0.00     0.002 A 
ATOM     83  C   UNL A   1      37.992  32.814  38.845  1.00  0.00     0.091 A 
ATOM     84  F   UNL A   1      37.731  30.954  37.375  1.00  0.00    -0.205 F 
ATOM     85  C   UNL A   1      38.626  34.031  39.144  1.00  0.00     0.022 A 
BRANCH  83  86
ATOM     86  S   UNL A   1      36.750  32.230  40.004  1.00  0.00     0.127 S 
ATOM     87  O   UNL A   1      37.348  30.987  40.482  1.00  0.00    -0.237 OA
ATOM     88  O   UNL A   1      36.715  33.316  40.983  1.00  0.00    -0.237 OA
ATOM     89  O   UNL A   1      35.525  32.085  39.227  1.00  0.00    -0.744 OA
ENDBRANCH  83  86
ENDBRANCH  55  79
BRANCH  67  90
ATOM     90  C   UNL A   1      44.247  28.345  34.713  1.00  0.00     0.023 A 
ATOM     91  C   UNL A   1      45.441  29.091  34.752  1.00  0.00     0.012 A 
ATOM     92  C   UNL A   1      44.174  27.119  35.401  1.00  0.00     0.148 A 
ATOM     93  C   UNL A   1      46.554  28.608  35.440  1.00  0.00     0.002 A 
ATOM     94  C   UNL A   1      45.269  26.669  36.128  1.00  0.00     0.091 A 
ATOM     95  F   UNL A   1      43.033  26.417  35.335  1.00  0.00    -0.205 F 
ATOM     96  C   UNL A   1      46.463  27.406  36.137  1.00  0.00     0.022 A 
BRANCH  94  97
ATOM     97  S   UNL A   1      45.210  25.186  37.139  1.00  0.00     0.127 S 
ATOM     98  O   UNL A   1      45.108  24.139  36.125  1.00  0.00    -0.237 OA
ATOM     99  O   UNL A   1      46.494  25.237  37.837  1.00  0.00    -0.237 OA
ATOM    100  O   UNL A   1      44.045  25.333  38.002  1.00  0.00    -0.744 OA
ENDBRANCH  94  97
ENDBRANCH  67  90
ENDBRANCH  41  42
ENDBRANCH  33  36
ENDBRANCH  31  32
ENDBRANCH  30  31
ENDBRANCH  29  30
ENDBRANCH  28  29
ENDBRANCH   1  28
TORSDOF 21
ENDMDL
MODEL 2
REMARK VINA RESULT:     -11.2      2.172      2.758
REMARK SMILES CCC[C@]1(C(=O)NC[C@@H]2CC[C@H](C(=O)NCCCCCCNC(=O)c3ccc(-c4c5nc(c(-c6cccc(S(=O)(=O)[O-])c6F)c6ccc([nH]6)c(-c6cccc(S(=O)(=O)[O-])c6F)c6nc(c(-c7cccc(S(=O)(=O)[O-])c7F)c7ccc4[nH]7)C=C6)C=C5)cc3)O2)CCC[NH2+]C1
REMARK SMILES IDX 17 1 16 2 15 3 13 4 14 5 12 7 9 8 10 9 88 10 11 11 8 12 7 13
REMARK SMILES IDX 5 14 6 15 4 17 89 18 93 19 90 20 92 21 91 22 3 25 2 26 1 27
REMARK SMILES IDX 18 28 19 29 20 30 21 31 22 32 23 33 24 35 25 36 26 37 87 38
REMARK SMILES IDX 27 39 86 40 28 41 29 42 30 43 80 44 31 45 85 46 79 47 81 48
REMARK SMILES IDX 32 49 84 50 78 51 77 52 33 54 65 55 45 56 64 57 46 58 49 59
REMARK SMILES IDX 63 60 82 61 47 62 48 63 62 65 83 66 50 67 34 68 35 69 43 70
REMARK SMILES IDX 36 71 38 72 44 73 37 74 39 75 40 76 41 77 42 78 66 79 67 80
REMARK SMILES IDX 75 81 68 82 70 83 76 84 69 85 71 86 72 87 73 88 74 89 51 90
REMARK SMILES IDX 52 91 60 92 53 93 55 94 61 95 54 96 56 97 57 98 58 99 59 100
REMARK H PARENT 15 6 7 16 92 23 92 24 22 34 81 53 49 64
REMARK Flexibility Score: inf
ROOT
ATOM      1  C   UNL A   1      33.717  29.081  26.146  1.00  0.00     0.021 C 
ENDROOT
BRANCH   1   2
ATOM      2  C   UNL A   1      33.200  29.114  24.716  1.00  0.00     0.116 C 
BRANCH   2   3
ATOM      3  N   UNL A   1      33.650  27.994  23.926  1.00  0.00    -0.354 N 
ATOM      4  C   UNL A   1      33.063  26.780  23.716  1.00  0.00     0.249 C 
ATOM      5  O   UNL A   1      33.639  25.994  22.956  1.00  0.00    -0.272 OA
ATOM      6  H   UNL A   1      34.512  28.126  23.468  1.00  0.00     0.163 HD
BRANCH   4   7
ATOM      7  C   UNL A   1      31.735  26.381  24.398  1.00  0.00     0.207 C 
ATOM      8  C   UNL A   1      31.128  24.642  25.853  1.00  0.00     0.138 C 
ATOM      9  C   UNL A   1      30.658  24.216  24.468  1.00  0.00     0.037 C 
ATOM     10  O   UNL A   1      31.943  25.811  25.684  1.00  0.00    -0.363 OA
ATOM     11  C   UNL A   1      30.842  25.445  23.601  1.00  0.00     0.045 C 
BRANCH   8  12
ATOM     12  C   UNL A   1      31.922  23.566  26.628  1.00  0.00     0.147 C 
BRANCH  12  13
ATOM     13  N   UNL A   1      31.667  22.214  26.124  1.00  0.00    -0.353 N 
ATOM     14  C   UNL A   1      32.403  21.251  25.519  1.00  0.00     0.232 C 
ATOM     15  O   UNL A   1      31.771  20.238  25.194  1.00  0.00    -0.274 OA
ATOM     16  H   UNL A   1      30.731  21.938  26.258  1.00  0.00     0.163 HD
BRANCH  14  17
ATOM     17  C   UNL A   1      33.896  21.434  25.182  1.00  0.00     0.098 C 
ATOM     18  C   UNL A   1      33.990  22.750  24.357  1.00  0.00     0.028 C 
ATOM     19  C   UNL A   1      34.708  21.484  26.492  1.00  0.00     0.277 C 
ATOM     20  C   UNL A   1      35.358  23.417  24.384  1.00  0.00     0.063 C 
ATOM     21  N   UNL A   1      36.034  22.085  26.328  1.00  0.00    -0.345 N 
ATOM     22  C   UNL A   1      35.961  23.432  25.784  1.00  0.00     0.260 C 
ATOM     23  H   UNL A   1      36.492  22.122  27.239  1.00  0.00     0.346 HD
ATOM     24  H   UNL A   1      36.561  21.509  25.673  1.00  0.00     0.346 HD
BRANCH  17  25
ATOM     25  C   UNL A   1      34.319  20.207  24.288  1.00  0.00     0.022 C 
BRANCH  25  26
ATOM     26  C   UNL A   1      34.974  18.975  24.927  1.00  0.00    -0.002 C 
ATOM     27  C   UNL A   1      34.695  17.670  24.188  1.00  0.00     0.004 C 
ENDBRANCH  25  26
ENDBRANCH  17  25
ENDBRANCH  14  17
ENDBRANCH  12  13
ENDBRANCH   8  12
ENDBRANCH   4   7
ENDBRANCH   2   3
ENDBRANCH   1   2
BRANCH   1  28
ATOM     28  C   UNL A   1      32.836  29.856  27.126  1.00  0.00     0.002 C 
BRANCH  28  29
ATOM     29  C   UNL A   1      31.632  30.572  26.495  1.00  0.00     0.002 C 
BRANCH  29  30
ATOM     30  C   UNL A   1      31.547  32.079  26.759  1.00  0.00     0.021 C 
BRANCH  30  31
ATOM     31  C   UNL A   1      32.845  32.713  27.251  1.00  0.00     0.116 C 
BRANCH  31  32
ATOM     32  N   UNL A   1      32.648  34.089  27.677  1.00  0.00    -0.352 N 
ATOM     33  C   UNL A   1      33.221  34.770  28.722  1.00  0.00     0.251 C 
ATOM     34  H   UNL A   1      32.009  34.608  27.138  1.00  0.00     0.163 HD
ATOM     35  O   UNL A   1      32.775  35.860  29.060  1.00  0.00    -0.269 OA
BRANCH  33  36
ATOM     36  C   UNL A   1      34.374  34.182  29.434  1.00  0.00     0.039 A 
ATOM     37  C   UNL A   1      34.139  33.344  30.528  1.00  0.00     0.014 A 
ATOM     38  C   UNL A   1      35.682  34.477  29.038  1.00  0.00     0.014 A 
ATOM     39  C   UNL A   1      35.219  32.768  31.200  1.00  0.00     0.010 A 
ATOM     40  C   UNL A   1      36.751  33.843  29.662  1.00  0.00     0.010 A 
ATOM     41  C   UNL A   1      36.532  32.996  30.758  1.00  0.00    -0.014 A 
BRANCH  41  42
ATOM     42  C   UNL A   1      37.694  32.368  31.434  1.00  0.00     0.031 A 
ATOM     43  C   UNL A   1      38.412  31.216  30.781  1.00  0.00     0.074 A 
ATOM     44  C   UNL A   1      38.046  32.773  32.670  1.00  0.00     0.049 A 
ATOM     45  N   UNL A   1      39.389  30.483  31.247  1.00  0.00    -0.248 NA
ATOM     46  C   UNL A   1      37.952  30.818  29.439  1.00  0.00     0.031 C 
ATOM     47  C   UNL A   1      37.382  33.831  33.434  1.00  0.00     0.029 A 
ATOM     48  N   UNL A   1      39.030  32.321  33.514  1.00  0.00    -0.354 N 
ATOM     49  C   UNL A   1      39.632  29.516  30.279  1.00  0.00     0.074 A 
ATOM     50  C   UNL A   1      38.680  29.734  29.213  1.00  0.00     0.031 C 
ATOM     51  C   UNL A   1      37.976  33.945  34.634  1.00  0.00     0.029 A 
ATOM     52  C   UNL A   1      39.037  32.950  34.737  1.00  0.00     0.049 A 
ATOM     53  H   UNL A   1      39.669  31.615  33.266  1.00  0.00     0.167 HD
ATOM     54  C   UNL A   1      40.581  28.550  30.266  1.00  0.00     0.034 A 
ATOM     55  C   UNL A   1      39.804  32.737  35.826  1.00  0.00     0.034 A 
ATOM     56  C   UNL A   1      41.555  28.368  31.307  1.00  0.00     0.049 A 
ATOM     57  C   UNL A   1      40.875  31.681  35.768  1.00  0.00     0.074 A 
ATOM     58  C   UNL A   1      42.611  27.475  31.349  1.00  0.00     0.029 A 
ATOM     59  N   UNL A   1      41.590  29.085  32.492  1.00  0.00    -0.354 N 
ATOM     60  N   UNL A   1      41.185  30.874  34.783  1.00  0.00    -0.248 NA
ATOM     61  C   UNL A   1      41.727  31.533  36.957  1.00  0.00     0.031 C 
ATOM     62  C   UNL A   1      43.268  27.633  32.574  1.00  0.00     0.029 A 
ATOM     63  C   UNL A   1      42.643  28.650  33.277  1.00  0.00     0.049 A 
ATOM     64  H   UNL A   1      40.959  29.799  32.739  1.00  0.00     0.167 HD
ATOM     65  C   UNL A   1      42.293  30.153  35.216  1.00  0.00     0.074 A 
ATOM     66  C   UNL A   1      42.609  30.632  36.546  1.00  0.00     0.031 C 
ATOM     67  C   UNL A   1      42.981  29.177  34.573  1.00  0.00     0.034 A 
BRANCH  54  68
ATOM     68  C   UNL A   1      40.645  27.641  29.065  1.00  0.00     0.023 A 
ATOM     69  C   UNL A   1      39.732  26.573  28.949  1.00  0.00     0.012 A 
ATOM     70  C   UNL A   1      41.559  27.885  28.023  1.00  0.00     0.148 A 
ATOM     71  C   UNL A   1      39.749  25.742  27.830  1.00  0.00     0.002 A 
ATOM     72  C   UNL A   1      41.540  27.081  26.889  1.00  0.00     0.091 A 
ATOM     73  F   UNL A   1      42.433  28.892  28.160  1.00  0.00    -0.205 F 
ATOM     74  C   UNL A   1      40.644  26.003  26.796  1.00  0.00     0.022 A 
BRANCH  72  75
ATOM     75  S   UNL A   1      42.595  27.383  25.467  1.00  0.00     0.127 S 
ATOM     76  O   UNL A   1      43.910  27.497  26.095  1.00  0.00    -0.237 OA
ATOM     77  O   UNL A   1      42.399  26.167  24.676  1.00  0.00    -0.237 OA
ATOM     78  O   UNL A   1      42.095  28.601  24.846  1.00  0.00    -0.744 OA
ENDBRANCH  72  75
ENDBRANCH  54  68
BRANCH  55  79
ATOM     79  C   UNL A   1      39.622  33.574  37.044  1.00  0.00     0.023 A 
ATOM     80  C   UNL A   1      38.632  33.230  37.983  1.00  0.00     0.012 A 
ATOM     81  C   UNL A   1      40.433  34.700  37.285  1.00  0.00     0.148 A 
ATOM     82  C   UNL A   1      38.423  34.013  39.118  1.00  0.00     0.002 A 
ATOM     83  C   UNL A   1      40.258  35.445  38.445  1.00  0.00     0.091 A 
ATOM     84  F   UNL A   1      41.365  35.018  36.375  1.00  0.00    -0.205 F 
ATOM     85  C   UNL A   1      39.241  35.115  39.354  1.00  0.00     0.022 A 
BRANCH  83  86
ATOM     86  S   UNL A   1      41.349  36.800  38.890  1.00  0.00     0.127 S 
ATOM     87  O   UNL A   1      40.397  37.833  39.286  1.00  0.00    -0.237 OA
ATOM     88  O   UNL A   1      42.121  36.219  39.988  1.00  0.00    -0.237 OA
ATOM     89  O   UNL A   1      42.131  37.085  37.693  1.00  0.00    -0.744 OA
ENDBRANCH  83  86
ENDBRANCH  55  79
BRANCH  67  90
ATOM     90  C   UNL A   1      44.182  28.592  35.269  1.00  0.00     0.023 A 
ATOM     91  C   UNL A   1      45.467  29.106  35.012  1.00  0.00     0.012 A 
ATOM     92  C   UNL A   1      44.020  27.586  36.241  1.00  0.00     0.148 A 
ATOM     93  C   UNL A   1      46.578  28.604  35.690  1.00  0.00     0.002 A 
ATOM     94  C   UNL A   1      45.123  27.128  36.950  1.00  0.00     0.091 A 
ATOM     95  F   UNL A   1      42.789  27.098  36.456  1.00  0.00    -0.205 F 
ATOM     96  C   UNL A   1      46.404  27.627  36.667  1.00  0.00     0.022 A 
BRANCH  94  97
ATOM     97  S   UNL A   1      44.980  25.947  38.297  1.00  0.00     0.127 S 
ATOM     98  O   UNL A   1      46.365  25.851  38.755  1.00  0.00    -0.237 OA
ATOM     99  O   UNL A   1      44.079  26.638  39.219  1.00  0.00    -0.237 OA
ATOM    100  O   UNL A   1      44.431  24.732  37.710  1.00  0.00    -0.744 OA
ENDBRANCH  94  97
ENDBRANCH  67  90
ENDBRANCH  41  42
ENDBRANCH  33  36
ENDBRANCH  31  32
ENDBRANCH  30  31
ENDBRANCH  29  30
ENDBRANCH  28  29
ENDBRANCH   1  28
TORSDOF 21
ENDMDL
MODEL 3
REMARK VINA RESULT:     -11.0      5.702     11.267
REMARK SMILES CCC[C@]1(C(=O)NC[C@@H]2CC[C@H](C(=O)NCCCCCCNC(=O)c3ccc(-c4c5nc(c(-c6cccc(S(=O)(=O)[O-])c6F)c6ccc([nH]6)c(-c6cccc(S(=O)(=O)[O-])c6F)c6nc(c(-c7cccc(S(=O)(=O)[O-])c7F)c7ccc4[nH]7)C=C6)C=C5)cc3)O2)CCC[NH2+]C1
REMARK SMILES IDX 17 1 16 2 15 3 13 4 14 5 12 7 9 8 10 9 88 10 11 11 8 12 7 13
REMARK SMILES IDX 5 14 6 15 4 17 89 18 93 19 90 20 92 21 91 22 3 25 2 26 1 27
REMARK SMILES IDX 18 28 19 29 20 30 21 31 22 32 23 33 24 35 25 36 26 37 87 38
REMARK SMILES IDX 27 39 86 40 28 41 29 42 30 43 80 44 31 45 85 46 79 47 81 48
REMARK SMILES IDX 32 49 84 50 78 51 77 52 33 54 65 55 45 56 64 57 46 58 49 59
REMARK SMILES IDX 63 60 82 61 47 62 48 63 62 65 83 66 50 67 34 68 35 69 43 70
REMARK SMILES IDX 36 71 38 72 44 73 37 74 39 75 40 76 41 77 42 78 66 79 67 80
REMARK SMILES IDX 75 81 68 82 70 83 76 84 69 85 71 86 72 87 73 88 74 89 51 90
REMARK SMILES IDX 52 91 60 92 53 93 55 94 61 95 54 96 56 97 57 98 58 99 59 100
REMARK H PARENT 15 6 7 16 92 23 92 24 22 34 81 53 49 64
REMARK Flexibility Score: inf
ROOT
ATOM      1  C   UNL A   1      36.567  23.079  25.608  1.00  0.00     0.021 C 
ENDROOT
BRANCH   1   2
ATOM      2  C   UNL A   1      35.457  22.416  26.408  1.00  0.00     0.116 C 
BRANCH   2   3
ATOM      3  N   UNL A   1      34.386  23.320  26.747  1.00  0.00    -0.354 N 
ATOM      4  C   UNL A   1      33.314  23.724  26.004  1.00  0.00     0.249 C 
ATOM      5  O   UNL A   1      32.505  24.487  26.542  1.00  0.00    -0.272 OA
ATOM      6  H   UNL A   1      34.435  23.706  27.652  1.00  0.00     0.163 HD
BRANCH   4   7
ATOM      7  C   UNL A   1      33.105  23.262  24.545  1.00  0.00     0.207 C 
ATOM      8  C   UNL A   1      32.300  24.328  22.615  1.00  0.00     0.138 C 
ATOM      9  C   UNL A   1      31.143  23.491  23.148  1.00  0.00     0.037 C 
ATOM     10  O   UNL A   1      33.331  24.312  23.612  1.00  0.00    -0.363 OA
ATOM     11  C   UNL A   1      31.754  22.637  24.239  1.00  0.00     0.045 C 
BRANCH   8  12
ATOM     12  C   UNL A   1      31.936  25.790  22.269  1.00  0.00     0.147 C 
BRANCH  12  13
ATOM     13  N   UNL A   1      33.062  26.706  22.466  1.00  0.00    -0.353 N 
ATOM     14  C   UNL A   1      33.301  27.797  23.233  1.00  0.00     0.232 C 
ATOM     15  O   UNL A   1      34.403  28.330  23.053  1.00  0.00    -0.274 OA
ATOM     16  H   UNL A   1      33.836  26.471  21.904  1.00  0.00     0.163 HD
BRANCH  14  17
ATOM     17  C   UNL A   1      32.250  28.383  24.196  1.00  0.00     0.098 C 
ATOM     18  C   UNL A   1      31.651  27.170  24.966  1.00  0.00     0.028 C 
ATOM     19  C   UNL A   1      32.931  29.409  25.125  1.00  0.00     0.277 C 
ATOM     20  C   UNL A   1      31.027  27.519  26.308  1.00  0.00     0.063 C 
ATOM     21  N   UNL A   1      32.160  29.693  26.338  1.00  0.00    -0.345 N 
ATOM     22  C   UNL A   1      31.889  28.488  27.108  1.00  0.00     0.260 C 
ATOM     23  H   UNL A   1      32.690  30.342  26.919  1.00  0.00     0.346 HD
ATOM     24  H   UNL A   1      31.266  30.093  26.055  1.00  0.00     0.346 HD
BRANCH  17  25
ATOM     25  C   UNL A   1      31.138  29.059  23.307  1.00  0.00     0.022 C 
BRANCH  25  26
ATOM     26  C   UNL A   1      29.747  28.420  23.192  1.00  0.00    -0.002 C 
ATOM     27  C   UNL A   1      28.605  29.429  23.123  1.00  0.00     0.004 C 
ENDBRANCH  25  26
ENDBRANCH  17  25
ENDBRANCH  14  17
ENDBRANCH  12  13
ENDBRANCH   8  12
ENDBRANCH   4   7
ENDBRANCH   2   3
ENDBRANCH   1   2
BRANCH   1  28
ATOM     28  C   UNL A   1      37.260  22.129  24.632  1.00  0.00     0.002 C 
BRANCH  28  29
ATOM     29  C   UNL A   1      36.840  20.656  24.745  1.00  0.00     0.002 C 
BRANCH  29  30
ATOM     30  C   UNL A   1      37.980  19.659  24.978  1.00  0.00     0.021 C 
BRANCH  30  31
ATOM     31  C   UNL A   1      39.044  20.129  25.966  1.00  0.00     0.116 C 
BRANCH  31  32
ATOM     32  N   UNL A   1      40.155  19.194  26.051  1.00  0.00    -0.352 N 
ATOM     33  C   UNL A   1      41.500  19.445  26.150  1.00  0.00     0.251 C 
ATOM     34  H   UNL A   1      39.905  18.243  26.034  1.00  0.00     0.163 HD
ATOM     35  O   UNL A   1      42.306  18.533  25.996  1.00  0.00    -0.269 OA
BRANCH  33  36
ATOM     36  C   UNL A   1      41.971  20.814  26.441  1.00  0.00     0.039 A 
ATOM     37  C   UNL A   1      42.220  21.686  25.377  1.00  0.00     0.014 A 
ATOM     38  C   UNL A   1      42.189  21.227  27.758  1.00  0.00     0.014 A 
ATOM     39  C   UNL A   1      42.650  22.988  25.638  1.00  0.00     0.010 A 
ATOM     40  C   UNL A   1      42.544  22.547  28.018  1.00  0.00     0.010 A 
ATOM     41  C   UNL A   1      42.793  23.435  26.962  1.00  0.00    -0.014 A 
BRANCH  41  42
ATOM     42  C   UNL A   1      43.215  24.825  27.266  1.00  0.00     0.031 A 
ATOM     43  C   UNL A   1      42.244  25.783  27.904  1.00  0.00     0.074 A 
ATOM     44  C   UNL A   1      44.436  25.249  26.889  1.00  0.00     0.049 A 
ATOM     45  N   UNL A   1      42.392  27.055  28.168  1.00  0.00    -0.248 NA
ATOM     46  C   UNL A   1      40.919  25.249  28.266  1.00  0.00     0.031 C 
ATOM     47  C   UNL A   1      45.440  24.435  26.200  1.00  0.00     0.029 A 
ATOM     48  N   UNL A   1      45.031  26.482  27.003  1.00  0.00    -0.354 N 
ATOM     49  C   UNL A   1      41.175  27.480  28.686  1.00  0.00     0.074 A 
ATOM     50  C   UNL A   1      40.286  26.340  28.670  1.00  0.00     0.031 C 
ATOM     51  C   UNL A   1      46.523  25.189  25.952  1.00  0.00     0.029 A 
ATOM     52  C   UNL A   1      46.281  26.545  26.432  1.00  0.00     0.049 A 
ATOM     53  H   UNL A   1      44.603  27.246  27.451  1.00  0.00     0.167 HD
ATOM     54  C   UNL A   1      40.836  28.702  29.159  1.00  0.00     0.034 A 
ATOM     55  C   UNL A   1      47.129  27.584  26.296  1.00  0.00     0.034 A 
ATOM     56  C   UNL A   1      41.739  29.819  29.216  1.00  0.00     0.049 A 
ATOM     57  C   UNL A   1      46.740  28.922  26.865  1.00  0.00     0.074 A 
ATOM     58  C   UNL A   1      41.521  31.074  29.755  1.00  0.00     0.029 A 
ATOM     59  N   UNL A   1      43.030  29.820  28.712  1.00  0.00    -0.354 N 
ATOM     60  N   UNL A   1      45.638  29.266  27.485  1.00  0.00    -0.248 NA
ATOM     61  C   UNL A   1      47.727  30.006  26.749  1.00  0.00     0.031 C 
ATOM     62  C   UNL A   1      42.670  31.844  29.551  1.00  0.00     0.029 A 
ATOM     63  C   UNL A   1      43.618  31.056  28.918  1.00  0.00     0.049 A 
ATOM     64  H   UNL A   1      43.465  29.054  28.272  1.00  0.00     0.167 HD
ATOM     65  C   UNL A   1      45.815  30.589  27.871  1.00  0.00     0.074 A 
ATOM     66  C   UNL A   1      47.137  30.980  27.429  1.00  0.00     0.031 C 
ATOM     67  C   UNL A   1      44.956  31.410  28.526  1.00  0.00     0.034 A 
BRANCH  54  68
ATOM     68  C   UNL A   1      39.441  28.888  29.698  1.00  0.00     0.023 A 
ATOM     69  C   UNL A   1      39.157  28.544  31.035  1.00  0.00     0.012 A 
ATOM     70  C   UNL A   1      38.432  29.467  28.904  1.00  0.00     0.148 A 
ATOM     71  C   UNL A   1      37.883  28.741  31.564  1.00  0.00     0.002 A 
ATOM     72  C   UNL A   1      37.177  29.703  29.453  1.00  0.00     0.091 A 
ATOM     73  F   UNL A   1      38.715  29.769  27.629  1.00  0.00    -0.205 F 
ATOM     74  C   UNL A   1      36.897  29.331  30.778  1.00  0.00     0.022 A 
BRANCH  72  75
ATOM     75  S   UNL A   1      35.864  30.533  28.550  1.00  0.00     0.127 S 
ATOM     76  O   UNL A   1      36.626  31.374  27.628  1.00  0.00    -0.237 OA
ATOM     77  O   UNL A   1      35.168  29.411  27.920  1.00  0.00    -0.237 OA
ATOM     78  O   UNL A   1      35.083  31.253  29.546  1.00  0.00    -0.744 OA
ENDBRANCH  72  75
ENDBRANCH  54  68
BRANCH  55  79
ATOM     79  C   UNL A   1      48.452  27.389  25.640  1.00  0.00     0.023 A 
ATOM     80  C   UNL A   1      49.572  27.047  26.422  1.00  0.00     0.012 A 
ATOM     81  C   UNL A   1      48.605  27.527  24.246  1.00  0.00     0.148 A 
ATOM     82  C   UNL A   1      50.827  26.886  25.836  1.00  0.00     0.002 A 
ATOM     83  C   UNL A   1      49.846  27.310  23.661  1.00  0.00     0.091 A 
ATOM     84  F   UNL A   1      47.529  27.861  23.519  1.00  0.00    -0.205 F 
ATOM     85  C   UNL A   1      50.963  27.009  24.456  1.00  0.00     0.022 A 
BRANCH  83  86
ATOM     86  S   UNL A   1      50.084  27.321  21.880  1.00  0.00     0.127 S 
ATOM     87  O   UNL A   1      49.791  28.712  21.548  1.00  0.00    -0.237 OA
ATOM     88  O   UNL A   1      51.491  26.940  21.761  1.00  0.00    -0.237 OA
ATOM     89  O   UNL A   1      49.149  26.334  21.354  1.00  0.00    -0.744 OA
ENDBRANCH  83  86
ENDBRANCH  55  79
BRANCH  67  90
ATOM     90  C   UNL A   1      45.431  32.801  28.858  1.00  0.00     0.023 A 
ATOM     91  C   UNL A   1      46.161  33.034  30.040  1.00  0.00     0.012 A 
ATOM     92  C   UNL A   1      45.223  33.858  27.952  1.00  0.00     0.148 A 
ATOM     93  C   UNL A   1      46.649  34.308  30.329  1.00  0.00     0.002 A 
ATOM     94  C   UNL A   1      45.757  35.112  28.222  1.00  0.00     0.091 A 
ATOM     95  F   UNL A   1      44.510  33.618  26.842  1.00  0.00    -0.205 F 
ATOM     96  C   UNL A   1      46.459  35.341  29.415  1.00  0.00     0.022 A 
BRANCH  94  97
ATOM     97  S   UNL A   1      45.652  36.475  27.056  1.00  0.00     0.127 S 
ATOM     98  O   UNL A   1      46.398  37.520  27.753  1.00  0.00    -0.237 OA
ATOM     99  O   UNL A   1      46.324  35.927  25.878  1.00  0.00    -0.237 OA
ATOM    100  O   UNL A   1      44.230  36.740  26.874  1.00  0.00    -0.744 OA
ENDBRANCH  94  97
ENDBRANCH  67  90
ENDBRANCH  41  42
ENDBRANCH  33  36
ENDBRANCH  31  32
ENDBRANCH  30  31
ENDBRANCH  29  30
ENDBRANCH  28  29
ENDBRANCH   1  28
TORSDOF 21
ENDMDL
