MODEL 1
REMARK VINA RESULT:     -12.1      0.000      0.000
REMARK SMILES Cc1ccc(N(CC(=O)NCCCCCCNC(=O)c2ccc(-c3c4nc(c(-c5cccc(S(=O)(=O)[O-])c5F)c5ccc([nH]5)c(-c5cccc(S(=O)(=O)[O-])c5F)c5nc(c(-c6cccc(S(=O)(=O)[O-])c6F)c6ccc3[nH]6)C=C5)C=C4)cc2)C(=O)C[C@H]2C[NH2+]CCO2)cc1
REMARK SMILES IDX 13 1 12 2 11 3 10 4 8 5 9 6 7 8 6 9 5 10 1 11 2 12 3 13
REMARK SMILES IDX 93 14 4 15 92 16 83 17 84 18 85 19 86 20 87 21 91 22 88 23
REMARK SMILES IDX 90 24 89 25 14 28 15 29 16 30 17 31 18 32 19 34 20 35 21 36
REMARK SMILES IDX 82 37 22 38 81 39 23 40 24 41 25 42 75 43 26 44 80 45 74 46
REMARK SMILES IDX 76 47 27 48 79 49 73 50 72 51 28 53 60 54 40 55 59 56 41 57
REMARK SMILES IDX 44 58 58 59 77 60 42 61 43 62 57 64 78 65 45 66 29 67 30 68
REMARK SMILES IDX 38 69 31 70 33 71 39 72 32 73 34 74 35 75 36 76 37 77 61 78
REMARK SMILES IDX 62 79 70 80 63 81 65 82 71 83 64 84 66 85 67 86 68 87 69 88
REMARK SMILES IDX 46 89 47 90 55 91 48 92 50 93 56 94 49 95 51 96 52 97 53 98
REMARK SMILES IDX 54 99
REMARK H PARENT 10 7 88 26 88 27 17 33 76 52 44 63
REMARK Flexibility Score: inf
ROOT
ATOM      1  C   UNL A   1      31.692  28.240  26.314  1.00  0.00     0.002 C 
ENDROOT
BRANCH   1   2
ATOM      2  C   UNL A   1      32.386  28.199  24.948  1.00  0.00     0.021 C 
BRANCH   2   3
ATOM      3  C   UNL A   1      31.637  27.387  23.904  1.00  0.00     0.116 C 
BRANCH   3   4
ATOM      4  N   UNL A   1      32.510  26.968  22.838  1.00  0.00    -0.355 N 
ATOM      5  C   UNL A   1      32.766  25.708  22.416  1.00  0.00     0.240 C 
ATOM      6  O   UNL A   1      33.486  25.565  21.424  1.00  0.00    -0.273 OA
ATOM      7  H   UNL A   1      32.979  27.688  22.358  1.00  0.00     0.163 HD
BRANCH   5   8
ATOM      8  C   UNL A   1      32.065  24.516  23.075  1.00  0.00     0.225 C 
BRANCH   8   9
ATOM      9  N   UNL A   1      32.865  23.277  23.257  1.00  0.00    -0.303 N 
BRANCH   9  10
ATOM     10  C   UNL A   1      34.190  23.347  23.880  1.00  0.00     0.044 A 
ATOM     11  C   UNL A   1      38.140  23.577  25.747  1.00  0.00     0.044 C 
ATOM     12  C   UNL A   1      36.784  23.478  25.111  1.00  0.00    -0.051 A 
ATOM     13  C   UNL A   1      35.650  23.935  25.778  1.00  0.00     0.005 A 
ATOM     14  C   UNL A   1      36.625  22.954  23.833  1.00  0.00     0.005 A 
ATOM     15  C   UNL A   1      34.380  23.856  25.179  1.00  0.00     0.026 A 
ATOM     16  C   UNL A   1      35.355  22.901  23.231  1.00  0.00     0.026 A 
ENDBRANCH   9  10
BRANCH   9  17
ATOM     17  C   UNL A   1      32.284  22.027  22.966  1.00  0.00     0.230 C 
ATOM     18  O   UNL A   1      32.037  21.610  21.833  1.00  0.00    -0.274 OA
BRANCH  17  19
ATOM     19  C   UNL A   1      32.056  21.042  24.093  1.00  0.00     0.138 C 
BRANCH  19  20
ATOM     20  C   UNL A   1      33.182  20.005  24.247  1.00  0.00     0.182 C 
ATOM     21  C   UNL A   1      33.702  19.772  25.681  1.00  0.00     0.293 C 
ATOM     22  O   UNL A   1      32.938  18.771  23.547  1.00  0.00    -0.366 OA
ATOM     23  N   UNL A   1      32.903  18.831  26.474  1.00  0.00    -0.342 N 
ATOM     24  C   UNL A   1      32.276  17.750  24.301  1.00  0.00     0.222 C 
ATOM     25  C   UNL A   1      32.772  17.576  25.735  1.00  0.00     0.289 C 
ATOM     26  H   UNL A   1      31.978  19.226  26.644  1.00  0.00     0.346 HD
ATOM     27  H   UNL A   1      33.362  18.658  27.369  1.00  0.00     0.346 HD
ENDBRANCH  19  20
ENDBRANCH  17  19
ENDBRANCH   9  17
ENDBRANCH   8   9
ENDBRANCH   5   8
ENDBRANCH   3   4
ENDBRANCH   2   3
ENDBRANCH   1   2
BRANCH   1  28
ATOM     28  C   UNL A   1      31.998  29.467  27.189  1.00  0.00     0.002 C 
BRANCH  28  29
ATOM     29  C   UNL A   1      33.124  30.385  26.709  1.00  0.00     0.021 C 
BRANCH  29  30
ATOM     30  C   UNL A   1      34.488  30.015  27.254  1.00  0.00     0.116 C 
BRANCH  30  31
ATOM     31  N   UNL A   1      35.261  31.157  27.701  1.00  0.00    -0.352 N 
ATOM     32  C   UNL A   1      36.436  31.150  28.428  1.00  0.00     0.251 C 
ATOM     33  H   UNL A   1      34.907  32.042  27.459  1.00  0.00     0.163 HD
ATOM     34  O   UNL A   1      36.838  32.180  28.966  1.00  0.00    -0.269 OA
BRANCH  32  35
ATOM     35  C   UNL A   1      37.249  29.915  28.422  1.00  0.00     0.039 A 
ATOM     36  C   UNL A   1      37.419  29.265  29.648  1.00  0.00     0.014 A 
ATOM     37  C   UNL A   1      38.071  29.612  27.336  1.00  0.00     0.014 A 
ATOM     38  C   UNL A   1      38.559  28.501  29.864  1.00  0.00     0.010 A 
ATOM     39  C   UNL A   1      39.250  28.945  27.575  1.00  0.00     0.010 A 
ATOM     40  C   UNL A   1      39.512  28.439  28.853  1.00  0.00    -0.014 A 
BRANCH  40  41
ATOM     41  C   UNL A   1      40.795  27.783  28.992  1.00  0.00     0.031 A 
ATOM     42  C   UNL A   1      40.876  26.351  28.669  1.00  0.00     0.074 A 
ATOM     43  C   UNL A   1      41.897  28.506  29.282  1.00  0.00     0.049 A 
ATOM     44  N   UNL A   1      41.750  25.546  29.163  1.00  0.00    -0.248 NA
ATOM     45  C   UNL A   1      39.924  25.712  27.766  1.00  0.00     0.031 C 
ATOM     46  C   UNL A   1      43.283  28.087  29.122  1.00  0.00     0.029 A 
ATOM     47  N   UNL A   1      41.979  29.721  29.969  1.00  0.00    -0.354 N 
ATOM     48  C   UNL A   1      41.655  24.371  28.448  1.00  0.00     0.074 A 
ATOM     49  C   UNL A   1      40.454  24.491  27.655  1.00  0.00     0.031 C 
ATOM     50  C   UNL A   1      44.057  28.855  29.904  1.00  0.00     0.029 A 
ATOM     51  C   UNL A   1      43.171  29.675  30.713  1.00  0.00     0.049 A 
ATOM     52  H   UNL A   1      41.331  30.461  29.938  1.00  0.00     0.167 HD
ATOM     53  C   UNL A   1      42.698  23.496  28.457  1.00  0.00     0.034 A 
ATOM     54  C   UNL A   1      43.224  29.791  32.073  1.00  0.00     0.034 A 
ATOM     55  C   UNL A   1      43.800  24.009  29.275  1.00  0.00     0.049 A 
ATOM     56  C   UNL A   1      43.816  28.564  32.742  1.00  0.00     0.074 A 
ATOM     57  C   UNL A   1      44.919  24.760  28.953  1.00  0.00     0.029 A 
ATOM     58  N   UNL A   1      43.664  24.079  30.656  1.00  0.00    -0.354 N 
ATOM     59  N   UNL A   1      44.088  27.452  32.115  1.00  0.00    -0.248 NA
ATOM     60  C   UNL A   1      44.128  28.478  34.166  1.00  0.00     0.031 C 
ATOM     61  C   UNL A   1      45.413  25.347  30.145  1.00  0.00     0.029 A 
ATOM     62  C   UNL A   1      44.615  24.932  31.197  1.00  0.00     0.049 A 
ATOM     63  H   UNL A   1      42.986  23.591  31.177  1.00  0.00     0.167 HD
ATOM     64  C   UNL A   1      44.481  26.490  33.009  1.00  0.00     0.074 A 
ATOM     65  C   UNL A   1      44.560  27.207  34.271  1.00  0.00     0.031 C 
ATOM     66  C   UNL A   1      44.654  25.182  32.635  1.00  0.00     0.034 A 
BRANCH  53  67
ATOM     67  C   UNL A   1      42.851  22.407  27.415  1.00  0.00     0.023 A 
ATOM     68  C   UNL A   1      42.142  21.203  27.624  1.00  0.00     0.012 A 
ATOM     69  C   UNL A   1      43.695  22.452  26.283  1.00  0.00     0.148 A 
ATOM     70  C   UNL A   1      42.337  20.072  26.828  1.00  0.00     0.002 A 
ATOM     71  C   UNL A   1      43.944  21.300  25.529  1.00  0.00     0.091 A 
ATOM     72  F   UNL A   1      44.216  23.624  25.896  1.00  0.00    -0.205 F 
ATOM     73  C   UNL A   1      43.269  20.107  25.804  1.00  0.00     0.022 A 
BRANCH  71  74
ATOM     74  S   UNL A   1      45.227  21.233  24.264  1.00  0.00     0.127 S 
ATOM     75  O   UNL A   1      44.688  22.114  23.224  1.00  0.00    -0.237 OA
ATOM     76  O   UNL A   1      46.392  21.767  24.965  1.00  0.00    -0.237 OA
ATOM     77  O   UNL A   1      45.309  19.834  23.861  1.00  0.00    -0.744 OA
ENDBRANCH  71  74
ENDBRANCH  53  67
BRANCH  54  78
ATOM     78  C   UNL A   1      42.160  30.673  32.634  1.00  0.00     0.023 A 
ATOM     79  C   UNL A   1      42.168  32.021  32.199  1.00  0.00     0.012 A 
ATOM     80  C   UNL A   1      40.978  30.140  33.176  1.00  0.00     0.148 A 
ATOM     81  C   UNL A   1      40.992  32.769  32.159  1.00  0.00     0.002 A 
ATOM     82  C   UNL A   1      39.805  30.892  33.125  1.00  0.00     0.091 A 
ATOM     83  F   UNL A   1      40.995  28.884  33.639  1.00  0.00    -0.205 F 
ATOM     84  C   UNL A   1      39.803  32.189  32.583  1.00  0.00     0.022 A 
BRANCH  82  85
ATOM     85  S   UNL A   1      38.211  30.200  33.581  1.00  0.00     0.127 S 
ATOM     86  O   UNL A   1      38.155  30.510  35.007  1.00  0.00    -0.237 OA
ATOM     87  O   UNL A   1      37.292  30.976  32.750  1.00  0.00    -0.237 OA
ATOM     88  O   UNL A   1      38.296  28.791  33.230  1.00  0.00    -0.744 OA
ENDBRANCH  82  85
ENDBRANCH  54  78
BRANCH  66  89
ATOM     89  C   UNL A   1      44.878  24.003  33.568  1.00  0.00     0.023 A 
ATOM     90  C   UNL A   1      43.904  23.012  33.785  1.00  0.00     0.012 A 
ATOM     91  C   UNL A   1      46.155  23.773  34.151  1.00  0.00     0.148 A 
ATOM     92  C   UNL A   1      44.157  21.884  34.575  1.00  0.00     0.002 A 
ATOM     93  C   UNL A   1      46.438  22.590  34.828  1.00  0.00     0.091 A 
ATOM     94  F   UNL A   1      47.107  24.713  34.074  1.00  0.00    -0.205 F 
ATOM     95  C   UNL A   1      45.432  21.657  35.073  1.00  0.00     0.022 A 
BRANCH  93  96
ATOM     96  S   UNL A   1      48.130  22.151  35.255  1.00  0.00     0.127 S 
ATOM     97  O   UNL A   1      48.837  22.404  34.002  1.00  0.00    -0.237 OA
ATOM     98  O   UNL A   1      48.438  23.096  36.330  1.00  0.00    -0.237 OA
ATOM     99  O   UNL A   1      48.061  20.762  35.687  1.00  0.00    -0.744 OA
ENDBRANCH  93  96
ENDBRANCH  66  89
ENDBRANCH  40  41
ENDBRANCH  32  35
ENDBRANCH  30  31
ENDBRANCH  29  30
ENDBRANCH  28  29
ENDBRANCH   1  28
TORSDOF 21
ENDMDL
MODEL 2
REMARK VINA RESULT:     -11.4      4.264      9.928
REMARK SMILES Cc1ccc(N(CC(=O)NCCCCCCNC(=O)c2ccc(-c3c4nc(c(-c5cccc(S(=O)(=O)[O-])c5F)c5ccc([nH]5)c(-c5cccc(S(=O)(=O)[O-])c5F)c5nc(c(-c6cccc(S(=O)(=O)[O-])c6F)c6ccc3[nH]6)C=C5)C=C4)cc2)C(=O)C[C@H]2C[NH2+]CCO2)cc1
REMARK SMILES IDX 13 1 12 2 11 3 10 4 8 5 9 6 7 8 6 9 5 10 1 11 2 12 3 13
REMARK SMILES IDX 93 14 4 15 92 16 83 17 84 18 85 19 86 20 87 21 91 22 88 23
REMARK SMILES IDX 90 24 89 25 14 28 15 29 16 30 17 31 18 32 19 34 20 35 21 36
REMARK SMILES IDX 82 37 22 38 81 39 23 40 24 41 25 42 75 43 26 44 80 45 74 46
REMARK SMILES IDX 76 47 27 48 79 49 73 50 72 51 28 53 60 54 40 55 59 56 41 57
REMARK SMILES IDX 44 58 58 59 77 60 42 61 43 62 57 64 78 65 45 66 29 67 30 68
REMARK SMILES IDX 38 69 31 70 33 71 39 72 32 73 34 74 35 75 36 76 37 77 61 78
REMARK SMILES IDX 62 79 70 80 63 81 65 82 71 83 64 84 66 85 67 86 68 87 69 88
REMARK SMILES IDX 46 89 47 90 55 91 48 92 50 93 56 94 49 95 51 96 52 97 53 98
REMARK SMILES IDX 54 99
REMARK H PARENT 10 7 88 26 88 27 17 33 76 52 44 63
REMARK Flexibility Score: inf
ROOT
ATOM      1  C   UNL A   1      39.418  22.991  27.103  1.00  0.00     0.002 C 
ENDROOT
BRANCH   1   2
ATOM      2  C   UNL A   1      38.897  22.965  25.662  1.00  0.00     0.021 C 
BRANCH   2   3
ATOM      3  C   UNL A   1      37.593  22.201  25.495  1.00  0.00     0.116 C 
BRANCH   3   4
ATOM      4  N   UNL A   1      36.615  22.610  26.469  1.00  0.00    -0.355 N 
ATOM      5  C   UNL A   1      35.288  22.806  26.286  1.00  0.00     0.240 C 
ATOM      6  O   UNL A   1      34.602  23.077  27.276  1.00  0.00    -0.273 OA
ATOM      7  H   UNL A   1      36.954  22.767  27.379  1.00  0.00     0.163 HD
BRANCH   5   8
ATOM      8  C   UNL A   1      34.652  22.560  24.915  1.00  0.00     0.225 C 
BRANCH   8   9
ATOM      9  N   UNL A   1      33.175  22.414  24.871  1.00  0.00    -0.303 N 
BRANCH   9  10
ATOM     10  C   UNL A   1      32.335  23.566  24.529  1.00  0.00     0.044 A 
ATOM     11  C   UNL A   1      29.830  26.997  23.486  1.00  0.00     0.044 C 
ATOM     12  C   UNL A   1      30.679  25.818  23.862  1.00  0.00    -0.051 A 
ATOM     13  C   UNL A   1      30.454  24.569  23.291  1.00  0.00     0.005 A 
ATOM     14  C   UNL A   1      31.727  25.944  24.766  1.00  0.00     0.005 A 
ATOM     15  C   UNL A   1      31.257  23.464  23.630  1.00  0.00     0.026 A 
ATOM     16  C   UNL A   1      32.541  24.842  25.082  1.00  0.00     0.026 A 
ENDBRANCH   9  10
BRANCH   9  17
ATOM     17  C   UNL A   1      32.599  21.136  25.013  1.00  0.00     0.230 C 
ATOM     18  O   UNL A   1      31.473  20.913  25.462  1.00  0.00    -0.274 OA
BRANCH  17  19
ATOM     19  C   UNL A   1      33.336  19.933  24.462  1.00  0.00     0.138 C 
BRANCH  19  20
ATOM     20  C   UNL A   1      32.431  18.717  24.203  1.00  0.00     0.182 C 
ATOM     21  C   UNL A   1      32.793  17.843  22.984  1.00  0.00     0.293 C 
ATOM     22  O   UNL A   1      32.162  17.929  25.379  1.00  0.00    -0.366 OA
ATOM     23  N   UNL A   1      33.840  16.847  23.237  1.00  0.00    -0.342 N 
ATOM     24  C   UNL A   1      33.069  16.849  25.623  1.00  0.00     0.222 C 
ATOM     25  C   UNL A   1      33.456  16.034  24.390  1.00  0.00     0.289 C 
ATOM     26  H   UNL A   1      34.723  17.321  23.431  1.00  0.00     0.346 HD
ATOM     27  H   UNL A   1      33.954  16.251  22.417  1.00  0.00     0.346 HD
ENDBRANCH  19  20
ENDBRANCH  17  19
ENDBRANCH   9  17
ENDBRANCH   8   9
ENDBRANCH   5   8
ENDBRANCH   3   4
ENDBRANCH   2   3
ENDBRANCH   1   2
BRANCH   1  28
ATOM     28  C   UNL A   1      40.710  22.200  27.366  1.00  0.00     0.002 C 
BRANCH  28  29
ATOM     29  C   UNL A   1      41.392  21.580  26.146  1.00  0.00     0.021 C 
BRANCH  29  30
ATOM     30  C   UNL A   1      42.584  20.711  26.489  1.00  0.00     0.116 C 
BRANCH  30  31
ATOM     31  N   UNL A   1      43.351  20.298  25.330  1.00  0.00    -0.352 N 
ATOM     32  C   UNL A   1      44.199  21.071  24.559  1.00  0.00     0.251 C 
ATOM     33  H   UNL A   1      43.257  19.357  25.060  1.00  0.00     0.163 HD
ATOM     34  O   UNL A   1      44.573  20.669  23.457  1.00  0.00    -0.269 OA
BRANCH  32  35
ATOM     35  C   UNL A   1      44.740  22.313  25.151  1.00  0.00     0.039 A 
ATOM     36  C   UNL A   1      45.191  22.237  26.472  1.00  0.00     0.014 A 
ATOM     37  C   UNL A   1      44.497  23.548  24.551  1.00  0.00     0.014 A 
ATOM     38  C   UNL A   1      45.161  23.374  27.270  1.00  0.00     0.010 A 
ATOM     39  C   UNL A   1      44.365  24.653  25.361  1.00  0.00     0.010 A 
ATOM     40  C   UNL A   1      44.648  24.547  26.727  1.00  0.00    -0.014 A 
BRANCH  40  41
ATOM     41  C   UNL A   1      44.446  25.765  27.483  1.00  0.00     0.031 A 
ATOM     42  C   UNL A   1      43.110  26.380  27.457  1.00  0.00     0.074 A 
ATOM     43  C   UNL A   1      45.424  26.234  28.285  1.00  0.00     0.049 A 
ATOM     44  N   UNL A   1      42.885  27.631  27.653  1.00  0.00    -0.248 NA
ATOM     45  C   UNL A   1      41.912  25.600  27.165  1.00  0.00     0.031 C 
ATOM     46  C   UNL A   1      45.283  27.216  29.352  1.00  0.00     0.029 A 
ATOM     47  N   UNL A   1      46.805  26.047  28.166  1.00  0.00    -0.354 N 
ATOM     48  C   UNL A   1      41.521  27.772  27.788  1.00  0.00     0.074 A 
ATOM     49  C   UNL A   1      40.955  26.505  27.391  1.00  0.00     0.031 C 
ATOM     50  C   UNL A   1      46.488  27.747  29.610  1.00  0.00     0.029 A 
ATOM     51  C   UNL A   1      47.404  27.242  28.601  1.00  0.00     0.049 A 
ATOM     52  H   UNL A   1      47.265  25.239  27.842  1.00  0.00     0.167 HD
ATOM     53  C   UNL A   1      41.019  28.881  28.398  1.00  0.00     0.034 A 
ATOM     54  C   UNL A   1      48.223  28.010  27.823  1.00  0.00     0.034 A 
ATOM     55  C   UNL A   1      42.101  29.770  28.831  1.00  0.00     0.049 A 
ATOM     56  C   UNL A   1      47.682  29.412  27.612  1.00  0.00     0.074 A 
ATOM     57  C   UNL A   1      42.786  29.875  30.031  1.00  0.00     0.029 A 
ATOM     58  N   UNL A   1      42.853  30.457  27.887  1.00  0.00    -0.354 N 
ATOM     59  N   UNL A   1      46.492  29.799  27.983  1.00  0.00    -0.248 NA
ATOM     60  C   UNL A   1      48.421  30.484  26.950  1.00  0.00     0.031 C 
ATOM     61  C   UNL A   1      43.998  30.569  29.786  1.00  0.00     0.029 A 
ATOM     62  C   UNL A   1      44.039  30.912  28.446  1.00  0.00     0.049 A 
ATOM     63  H   UNL A   1      42.582  30.602  26.952  1.00  0.00     0.167 HD
ATOM     64  C   UNL A   1      46.247  31.071  27.535  1.00  0.00     0.074 A 
ATOM     65  C   UNL A   1      47.516  31.481  26.958  1.00  0.00     0.031 C 
ATOM     66  C   UNL A   1      45.006  31.646  27.635  1.00  0.00     0.034 A 
BRANCH  53  67
ATOM     67  C   UNL A   1      39.606  28.938  28.941  1.00  0.00     0.023 A 
ATOM     68  C   UNL A   1      38.559  29.115  28.010  1.00  0.00     0.012 A 
ATOM     69  C   UNL A   1      39.237  28.902  30.304  1.00  0.00     0.148 A 
ATOM     70  C   UNL A   1      37.240  29.354  28.402  1.00  0.00     0.002 A 
ATOM     71  C   UNL A   1      37.931  29.212  30.701  1.00  0.00     0.091 A 
ATOM     72  F   UNL A   1      40.134  28.513  31.220  1.00  0.00    -0.205 F 
ATOM     73  C   UNL A   1      36.932  29.442  29.750  1.00  0.00     0.022 A 
BRANCH  71  74
ATOM     74  S   UNL A   1      37.481  29.465  32.428  1.00  0.00     0.127 S 
ATOM     75  O   UNL A   1      38.520  30.390  32.890  1.00  0.00    -0.237 OA
ATOM     76  O   UNL A   1      36.149  30.054  32.326  1.00  0.00    -0.237 OA
ATOM     77  O   UNL A   1      37.551  28.148  33.050  1.00  0.00    -0.744 OA
ENDBRANCH  71  74
ENDBRANCH  53  67
BRANCH  54  78
ATOM     78  C   UNL A   1      49.024  27.218  26.845  1.00  0.00     0.023 A 
ATOM     79  C   UNL A   1      48.496  27.119  25.534  1.00  0.00     0.012 A 
ATOM     80  C   UNL A   1      50.394  26.975  27.047  1.00  0.00     0.148 A 
ATOM     81  C   UNL A   1      49.335  26.940  24.435  1.00  0.00     0.002 A 
ATOM     82  C   UNL A   1      51.226  26.804  25.942  1.00  0.00     0.091 A 
ATOM     83  F   UNL A   1      50.873  27.011  28.297  1.00  0.00    -0.205 F 
ATOM     84  C   UNL A   1      50.704  26.825  24.636  1.00  0.00     0.022 A 
BRANCH  82  85
ATOM     85  S   UNL A   1      53.013  26.721  26.101  1.00  0.00     0.127 S 
ATOM     86  O   UNL A   1      53.181  25.500  26.884  1.00  0.00    -0.237 OA
ATOM     87  O   UNL A   1      53.440  26.618  24.706  1.00  0.00    -0.237 OA
ATOM     88  O   UNL A   1      53.392  27.964  26.756  1.00  0.00    -0.744 OA
ENDBRANCH  82  85
ENDBRANCH  54  78
BRANCH  66  89
ATOM     89  C   UNL A   1      44.567  32.951  26.991  1.00  0.00     0.023 A 
ATOM     90  C   UNL A   1      44.070  33.018  25.677  1.00  0.00     0.012 A 
ATOM     91  C   UNL A   1      44.500  34.149  27.754  1.00  0.00     0.148 A 
ATOM     92  C   UNL A   1      43.584  34.211  25.128  1.00  0.00     0.002 A 
ATOM     93  C   UNL A   1      43.899  35.298  27.246  1.00  0.00     0.091 A 
ATOM     94  F   UNL A   1      45.041  34.196  28.980  1.00  0.00    -0.205 F 
ATOM     95  C   UNL A   1      43.471  35.345  25.920  1.00  0.00     0.022 A 
BRANCH  93  96
ATOM     96  S   UNL A   1      43.504  36.687  28.319  1.00  0.00     0.127 S 
ATOM     97  O   UNL A   1      44.831  37.178  28.685  1.00  0.00    -0.237 OA
ATOM     98  O   UNL A   1      42.754  37.571  27.424  1.00  0.00    -0.237 OA
ATOM     99  O   UNL A   1      42.708  36.117  29.397  1.00  0.00    -0.744 OA
ENDBRANCH  93  96
ENDBRANCH  66  89
ENDBRANCH  40  41
ENDBRANCH  32  35
ENDBRANCH  30  31
ENDBRANCH  29  30
ENDBRANCH  28  29
ENDBRANCH   1  28
TORSDOF 21
ENDMDL
MODEL 3
REMARK VINA RESULT:     -11.2      1.755      2.373
REMARK SMILES Cc1ccc(N(CC(=O)NCCCCCCNC(=O)c2ccc(-c3c4nc(c(-c5cccc(S(=O)(=O)[O-])c5F)c5ccc([nH]5)c(-c5cccc(S(=O)(=O)[O-])c5F)c5nc(c(-c6cccc(S(=O)(=O)[O-])c6F)c6ccc3[nH]6)C=C5)C=C4)cc2)C(=O)C[C@H]2C[NH2+]CCO2)cc1
REMARK SMILES IDX 13 1 12 2 11 3 10 4 8 5 9 6 7 8 6 9 5 10 1 11 2 12 3 13
REMARK SMILES IDX 93 14 4 15 92 16 83 17 84 18 85 19 86 20 87 21 91 22 88 23
REMARK SMILES IDX 90 24 89 25 14 28 15 29 16 30 17 31 18 32 19 34 20 35 21 36
REMARK SMILES IDX 82 37 22 38 81 39 23 40 24 41 25 42 75 43 26 44 80 45 74 46
REMARK SMILES IDX 76 47 27 48 79 49 73 50 72 51 28 53 60 54 40 55 59 56 41 57
REMARK SMILES IDX 44 58 58 59 77 60 42 61 43 62 57 64 78 65 45 66 29 67 30 68
REMARK SMILES IDX 38 69 31 70 33 71 39 72 32 73 34 74 35 75 36 76 37 77 61 78
REMARK SMILES IDX 62 79 70 80 63 81 65 82 71 83 64 84 66 85 67 86 68 87 69 88
REMARK SMILES IDX 46 89 47 90 55 91 48 92 50 93 56 94 49 95 51 96 52 97 53 98
REMARK SMILES IDX 54 99
REMARK H PARENT 10 7 88 26 88 27 17 33 76 52 44 63
REMARK Flexibility Score: inf
ROOT
ATOM      1  C   UNL A   1      31.339  27.412  25.606  1.00  0.00     0.002 C 
ENDROOT
BRANCH   1   2
ATOM      2  C   UNL A   1      32.114  27.166  24.307  1.00  0.00     0.021 C 
BRANCH   2   3
ATOM      3  C   UNL A   1      31.301  26.463  23.231  1.00  0.00     0.116 C 
BRANCH   3   4
ATOM      4  N   UNL A   1      32.152  25.830  22.259  1.00  0.00    -0.355 N 
ATOM      5  C   UNL A   1      32.615  24.558  22.258  1.00  0.00     0.240 C 
ATOM      6  O   UNL A   1      33.269  24.180  21.282  1.00  0.00    -0.273 OA
ATOM      7  H   UNL A   1      32.432  26.392  21.501  1.00  0.00     0.163 HD
BRANCH   5   8
ATOM      8  C   UNL A   1      32.215  23.590  23.376  1.00  0.00     0.225 C 
BRANCH   8   9
ATOM      9  N   UNL A   1      33.167  22.495  23.697  1.00  0.00    -0.303 N 
BRANCH   9  10
ATOM     10  C   UNL A   1      34.459  22.807  24.314  1.00  0.00     0.044 A 
ATOM     11  C   UNL A   1      38.325  23.717  26.148  1.00  0.00     0.044 C 
ATOM     12  C   UNL A   1      36.997  23.425  25.515  1.00  0.00    -0.051 A 
ATOM     13  C   UNL A   1      36.923  22.875  24.238  1.00  0.00     0.005 A 
ATOM     14  C   UNL A   1      35.807  23.670  26.191  1.00  0.00     0.005 A 
ATOM     15  C   UNL A   1      35.679  22.586  23.647  1.00  0.00     0.026 A 
ATOM     16  C   UNL A   1      34.568  23.357  25.604  1.00  0.00     0.026 A 
ENDBRANCH   9  10
BRANCH   9  17
ATOM     17  C   UNL A   1      32.762  21.155  23.540  1.00  0.00     0.230 C 
ATOM     18  O   UNL A   1      32.030  20.738  22.640  1.00  0.00    -0.274 OA
BRANCH  17  19
ATOM     19  C   UNL A   1      33.356  20.098  24.447  1.00  0.00     0.138 C 
BRANCH  19  20
ATOM     20  C   UNL A   1      33.063  18.658  23.995  1.00  0.00     0.182 C 
ATOM     21  C   UNL A   1      34.290  17.747  23.781  1.00  0.00     0.293 C 
ATOM     22  O   UNL A   1      32.026  18.007  24.753  1.00  0.00    -0.366 OA
ATOM     23  N   UNL A   1      34.805  17.120  25.004  1.00  0.00    -0.342 N 
ATOM     24  C   UNL A   1      32.465  17.262  25.893  1.00  0.00     0.222 C 
ATOM     25  C   UNL A   1      33.714  16.411  25.672  1.00  0.00     0.289 C 
ATOM     26  H   UNL A   1      35.177  17.839  25.626  1.00  0.00     0.346 HD
ATOM     27  H   UNL A   1      35.549  16.464  24.768  1.00  0.00     0.346 HD
ENDBRANCH  19  20
ENDBRANCH  17  19
ENDBRANCH   9  17
ENDBRANCH   8   9
ENDBRANCH   5   8
ENDBRANCH   3   4
ENDBRANCH   2   3
ENDBRANCH   1   2
BRANCH   1  28
ATOM     28  C   UNL A   1      31.634  28.739  26.326  1.00  0.00     0.002 C 
BRANCH  28  29
ATOM     29  C   UNL A   1      32.842  28.753  27.264  1.00  0.00     0.021 C 
BRANCH  29  30
ATOM     30  C   UNL A   1      34.106  29.289  26.626  1.00  0.00     0.116 C 
BRANCH  30  31
ATOM     31  N   UNL A   1      34.494  30.596  27.120  1.00  0.00    -0.352 N 
ATOM     32  C   UNL A   1      35.552  30.905  27.953  1.00  0.00     0.251 C 
ATOM     33  H   UNL A   1      33.937  31.353  26.828  1.00  0.00     0.163 HD
ATOM     34  O   UNL A   1      35.607  32.003  28.505  1.00  0.00    -0.269 OA
BRANCH  32  35
ATOM     35  C   UNL A   1      36.667  29.938  28.047  1.00  0.00     0.039 A 
ATOM     36  C   UNL A   1      36.839  29.292  29.276  1.00  0.00     0.014 A 
ATOM     37  C   UNL A   1      37.680  29.929  27.090  1.00  0.00     0.014 A 
ATOM     38  C   UNL A   1      38.105  28.854  29.645  1.00  0.00     0.010 A 
ATOM     39  C   UNL A   1      38.954  29.594  27.489  1.00  0.00     0.010 A 
ATOM     40  C   UNL A   1      39.168  29.108  28.783  1.00  0.00    -0.014 A 
BRANCH  40  41
ATOM     41  C   UNL A   1      40.550  28.817  29.100  1.00  0.00     0.031 A 
ATOM     42  C   UNL A   1      41.132  27.574  28.570  1.00  0.00     0.074 A 
ATOM     43  C   UNL A   1      41.303  29.729  29.749  1.00  0.00     0.049 A 
ATOM     44  N   UNL A   1      42.120  26.951  29.108  1.00  0.00    -0.248 NA
ATOM     45  C   UNL A   1      40.595  26.921  27.380  1.00  0.00     0.031 C 
ATOM     46  C   UNL A   1      42.756  29.755  29.841  1.00  0.00     0.029 A 
ATOM     47  N   UNL A   1      40.881  30.730  30.629  1.00  0.00    -0.354 N 
ATOM     48  C   UNL A   1      42.522  25.990  28.205  1.00  0.00     0.074 A 
ATOM     49  C   UNL A   1      41.494  25.952  27.191  1.00  0.00     0.031 C 
ATOM     50  C   UNL A   1      43.106  30.508  30.895  1.00  0.00     0.029 A 
ATOM     51  C   UNL A   1      41.885  30.846  31.606  1.00  0.00     0.049 A 
ATOM     52  H   UNL A   1      40.047  31.251  30.575  1.00  0.00     0.167 HD
ATOM     53  C   UNL A   1      43.771  25.458  28.305  1.00  0.00     0.034 A 
ATOM     54  C   UNL A   1      41.671  30.660  32.942  1.00  0.00     0.034 A 
ATOM     55  C   UNL A   1      44.501  26.054  29.426  1.00  0.00     0.049 A 
ATOM     56  C   UNL A   1      42.500  29.524  33.514  1.00  0.00     0.074 A 
ATOM     57  C   UNL A   1      45.363  27.137  29.496  1.00  0.00     0.029 A 
ATOM     58  N   UNL A   1      44.122  25.768  30.731  1.00  0.00    -0.354 N 
ATOM     59  N   UNL A   1      43.210  28.703  32.790  1.00  0.00    -0.248 NA
ATOM     60  C   UNL A   1      42.581  29.206  34.937  1.00  0.00     0.031 C 
ATOM     61  C   UNL A   1      45.441  27.550  30.850  1.00  0.00     0.029 A 
ATOM     62  C   UNL A   1      44.652  26.703  31.609  1.00  0.00     0.049 A 
ATOM     63  H   UNL A   1      43.557  25.007  30.996  1.00  0.00     0.167 HD
ATOM     64  C   UNL A   1      43.733  27.710  33.577  1.00  0.00     0.074 A 
ATOM     65  C   UNL A   1      43.369  28.114  34.925  1.00  0.00     0.031 C 
ATOM     66  C   UNL A   1      44.369  26.621  33.039  1.00  0.00     0.034 A 
BRANCH  53  67
ATOM     67  C   UNL A   1      44.431  24.719  27.159  1.00  0.00     0.023 A 
ATOM     68  C   UNL A   1      45.279  25.463  26.309  1.00  0.00     0.012 A 
ATOM     69  C   UNL A   1      44.224  23.365  26.813  1.00  0.00     0.148 A 
ATOM     70  C   UNL A   1      45.804  24.935  25.126  1.00  0.00     0.002 A 
ATOM     71  C   UNL A   1      44.689  22.857  25.595  1.00  0.00     0.091 A 
ATOM     72  F   UNL A   1      43.624  22.546  27.687  1.00  0.00    -0.205 F 
ATOM     73  C   UNL A   1      45.476  23.644  24.748  1.00  0.00     0.022 A 
BRANCH  71  74
ATOM     74  S   UNL A   1      44.206  21.234  24.978  1.00  0.00     0.127 S 
ATOM     75  O   UNL A   1      45.138  20.343  25.674  1.00  0.00    -0.237 OA
ATOM     76  O   UNL A   1      42.819  21.125  25.423  1.00  0.00    -0.237 OA
ATOM     77  O   UNL A   1      44.411  21.285  23.535  1.00  0.00    -0.744 OA
ENDBRANCH  71  74
ENDBRANCH  53  67
BRANCH  54  78
ATOM     78  C   UNL A   1      40.305  31.064  33.385  1.00  0.00     0.023 A 
ATOM     79  C   UNL A   1      39.509  30.048  33.971  1.00  0.00     0.012 A 
ATOM     80  C   UNL A   1      39.985  32.409  33.635  1.00  0.00     0.148 A 
ATOM     81  C   UNL A   1      38.521  30.361  34.904  1.00  0.00     0.002 A 
ATOM     82  C   UNL A   1      39.001  32.712  34.575  1.00  0.00     0.091 A 
ATOM     83  F   UNL A   1      40.705  33.362  33.031  1.00  0.00    -0.205 F 
ATOM     84  C   UNL A   1      38.297  31.690  35.237  1.00  0.00     0.022 A 
BRANCH  82  85
ATOM     85  S   UNL A   1      38.693  34.396  35.121  1.00  0.00     0.127 S 
ATOM     86  O   UNL A   1      37.462  34.716  34.404  1.00  0.00    -0.237 OA
ATOM     87  O   UNL A   1      38.534  34.225  36.565  1.00  0.00    -0.237 OA
ATOM     88  O   UNL A   1      39.880  35.142  34.731  1.00  0.00    -0.744 OA
ENDBRANCH  82  85
ENDBRANCH  54  78
BRANCH  66  89
ATOM     89  C   UNL A   1      44.795  25.369  33.789  1.00  0.00     0.023 A 
ATOM     90  C   UNL A   1      43.966  24.240  33.913  1.00  0.00     0.012 A 
ATOM     91  C   UNL A   1      46.125  25.231  34.273  1.00  0.00     0.148 A 
ATOM     92  C   UNL A   1      44.405  23.061  34.526  1.00  0.00     0.002 A 
ATOM     93  C   UNL A   1      46.594  24.018  34.766  1.00  0.00     0.091 A 
ATOM     94  F   UNL A   1      46.949  26.290  34.282  1.00  0.00    -0.205 F 
ATOM     95  C   UNL A   1      45.728  22.937  34.928  1.00  0.00     0.022 A 
BRANCH  93  96
ATOM     96  S   UNL A   1      48.351  23.749  35.048  1.00  0.00     0.127 S 
ATOM     97  O   UNL A   1      48.635  24.694  36.126  1.00  0.00    -0.237 OA
ATOM     98  O   UNL A   1      48.394  22.341  35.446  1.00  0.00    -0.237 OA
ATOM     99  O   UNL A   1      48.985  24.025  33.766  1.00  0.00    -0.744 OA
ENDBRANCH  93  96
ENDBRANCH  66  89
ENDBRANCH  40  41
ENDBRANCH  32  35
ENDBRANCH  30  31
ENDBRANCH  29  30
ENDBRANCH  28  29
ENDBRANCH   1  28
TORSDOF 21
ENDMDL
