MODEL 1
REMARK VINA RESULT:     -11.3      0.000      0.000
REMARK SMILES Cc1ccc(/C=C/C(=O)N[C@@H](CO)C(=O)NCCCCCCNC(=O)c2ccc(-c3c4nc(c(-c5cccc(S(=O)(=O)[O-])c5F)c5ccc([nH]5)c(-c5cccc(S(=O)(=O)[O-])c5F)c5nc(c(-c6cccc(S(=O)(=O)[O-])c6F)c6ccc3[nH]6)C=C5)C=C4)cc2)o1
REMARK SMILES IDX 19 1 18 2 17 3 16 4 14 5 15 6 11 8 10 9 8 10 9 11 7 13 6 14
REMARK SMILES IDX 5 15 1 16 2 17 3 18 89 19 4 20 12 21 13 22 20 24 21 25 22 26
REMARK SMILES IDX 23 27 24 28 25 30 26 31 27 32 88 33 28 34 87 35 29 36 30 37
REMARK SMILES IDX 31 38 81 39 32 40 86 41 80 42 82 43 33 44 85 45 79 46 78 47
REMARK SMILES IDX 34 49 66 50 46 51 65 52 47 53 50 54 64 55 83 56 48 57 49 58
REMARK SMILES IDX 63 60 84 61 51 62 35 63 36 64 44 65 37 66 39 67 45 68 38 69
REMARK SMILES IDX 40 70 41 71 42 72 43 73 67 74 68 75 76 76 69 77 71 78 77 79
REMARK SMILES IDX 70 80 72 81 73 82 74 83 75 84 52 85 53 86 61 87 54 88 56 89
REMARK SMILES IDX 62 90 55 91 57 92 58 93 59 94 60 95
REMARK H PARENT 16 7 10 12 13 23 23 29 82 48 50 59
REMARK Flexibility Score: inf
ROOT
ATOM      1  C   UNL A   1      31.057  26.917  25.918  1.00  0.00     0.002 C 
ENDROOT
BRANCH   1   2
ATOM      2  C   UNL A   1      30.179  25.782  25.389  1.00  0.00     0.021 C 
BRANCH   2   3
ATOM      3  C   UNL A   1      30.082  25.686  23.869  1.00  0.00     0.116 C 
BRANCH   3   4
ATOM      4  N   UNL A   1      29.798  26.964  23.244  1.00  0.00    -0.354 N 
ATOM      5  C   UNL A   1      30.625  27.827  22.590  1.00  0.00     0.244 C 
ATOM      6  O   UNL A   1      30.102  28.787  22.009  1.00  0.00    -0.273 OA
ATOM      7  H   UNL A   1      28.858  27.252  23.302  1.00  0.00     0.163 HD
BRANCH   5   8
ATOM      8  C   UNL A   1      32.156  27.647  22.546  1.00  0.00     0.197 C 
BRANCH   8   9
ATOM      9  N   UNL A   1      32.558  26.874  21.367  1.00  0.00    -0.339 N 
ATOM     10  C   UNL A   1      32.848  25.559  21.197  1.00  0.00     0.244 C 
ATOM     11  O   UNL A   1      33.062  25.140  20.063  1.00  0.00    -0.270 OA
ATOM     12  H   UNL A   1      32.630  27.409  20.543  1.00  0.00     0.164 HD
BRANCH  10  13
ATOM     13  C   UNL A   1      33.047  24.652  22.345  1.00  0.00     0.075 C 
ATOM     14  C   UNL A   1      33.037  23.315  22.287  1.00  0.00     0.053 C 
BRANCH  14  15
ATOM     15  C   UNL A   1      33.179  22.546  23.471  1.00  0.00     0.127 A 
ATOM     16  C   UNL A   1      34.438  22.263  26.824  1.00  0.00     0.087 C 
ATOM     17  C   UNL A   1      33.768  21.989  25.538  1.00  0.00     0.101 A 
ATOM     18  C   UNL A   1      33.114  20.895  25.026  1.00  0.00     0.046 A 
ATOM     19  O   UNL A   1      33.785  22.996  24.624  1.00  0.00    -0.462 OA
ATOM     20  C   UNL A   1      32.750  21.245  23.705  1.00  0.00     0.050 A 
ENDBRANCH  14  15
ENDBRANCH  10  13
ENDBRANCH   8   9
BRANCH   8  21
ATOM     21  C   UNL A   1      32.939  28.947  22.767  1.00  0.00     0.191 C 
BRANCH  21  22
ATOM     22  O   UNL A   1      34.288  28.760  23.168  1.00  0.00    -0.394 OA
ATOM     23  H   UNL A   1      34.633  29.587  23.539  1.00  0.00     0.210 HD
ENDBRANCH  21  22
ENDBRANCH   8  21
ENDBRANCH   5   8
ENDBRANCH   3   4
ENDBRANCH   2   3
ENDBRANCH   1   2
BRANCH   1  24
ATOM     24  C   UNL A   1      32.526  26.562  26.159  1.00  0.00     0.002 C 
BRANCH  24  25
ATOM     25  C   UNL A   1      33.477  27.746  26.357  1.00  0.00     0.021 C 
BRANCH  25  26
ATOM     26  C   UNL A   1      33.293  28.531  27.652  1.00  0.00     0.116 C 
BRANCH  26  27
ATOM     27  N   UNL A   1      33.412  29.965  27.455  1.00  0.00    -0.352 N 
ATOM     28  C   UNL A   1      34.444  30.807  27.780  1.00  0.00     0.251 C 
ATOM     29  H   UNL A   1      32.637  30.394  27.025  1.00  0.00     0.163 HD
ATOM     30  O   UNL A   1      34.289  32.020  27.671  1.00  0.00    -0.269 OA
BRANCH  28  31
ATOM     31  C   UNL A   1      35.731  30.267  28.276  1.00  0.00     0.039 A 
ATOM     32  C   UNL A   1      36.825  30.254  27.407  1.00  0.00     0.014 A 
ATOM     33  C   UNL A   1      35.860  29.746  29.567  1.00  0.00     0.014 A 
ATOM     34  C   UNL A   1      38.053  29.750  27.843  1.00  0.00     0.010 A 
ATOM     35  C   UNL A   1      37.104  29.309  30.024  1.00  0.00     0.010 A 
ATOM     36  C   UNL A   1      38.209  29.289  29.162  1.00  0.00    -0.014 A 
BRANCH  36  37
ATOM     37  C   UNL A   1      39.531  28.797  29.633  1.00  0.00     0.031 A 
ATOM     38  C   UNL A   1      40.256  29.490  30.757  1.00  0.00     0.074 A 
ATOM     39  C   UNL A   1      40.104  27.746  29.011  1.00  0.00     0.049 A 
ATOM     40  N   UNL A   1      41.388  29.165  31.328  1.00  0.00    -0.248 NA
ATOM     41  C   UNL A   1      39.650  30.719  31.296  1.00  0.00     0.031 C 
ATOM     42  C   UNL A   1      39.557  27.056  27.840  1.00  0.00     0.029 A 
ATOM     43  N   UNL A   1      41.280  27.086  29.265  1.00  0.00    -0.354 N 
ATOM     44  C   UNL A   1      41.650  30.164  32.259  1.00  0.00     0.074 A 
ATOM     45  C   UNL A   1      40.570  31.121  32.163  1.00  0.00     0.031 C 
ATOM     46  C   UNL A   1      40.394  26.069  27.482  1.00  0.00     0.029 A 
ATOM     47  C   UNL A   1      41.538  26.059  28.386  1.00  0.00     0.049 A 
ATOM     48  H   UNL A   1      41.883  27.325  30.006  1.00  0.00     0.167 HD
ATOM     49  C   UNL A   1      42.678  30.259  33.134  1.00  0.00     0.034 A 
ATOM     50  C   UNL A   1      42.577  25.203  28.320  1.00  0.00     0.034 A 
ATOM     51  C   UNL A   1      43.717  29.273  33.269  1.00  0.00     0.049 A 
ATOM     52  C   UNL A   1      43.649  25.275  29.375  1.00  0.00     0.074 A 
ATOM     53  C   UNL A   1      44.732  29.218  34.209  1.00  0.00     0.029 A 
ATOM     54  N   UNL A   1      43.882  28.178  32.438  1.00  0.00    -0.354 N 
ATOM     55  N   UNL A   1      43.761  26.104  30.383  1.00  0.00    -0.248 NA
ATOM     56  C   UNL A   1      44.709  24.259  29.313  1.00  0.00     0.031 C 
ATOM     57  C   UNL A   1      45.524  28.099  33.931  1.00  0.00     0.029 A 
ATOM     58  C   UNL A   1      44.988  27.445  32.835  1.00  0.00     0.049 A 
ATOM     59  H   UNL A   1      43.299  27.953  31.677  1.00  0.00     0.167 HD
ATOM     60  C   UNL A   1      44.884  25.691  31.092  1.00  0.00     0.074 A 
ATOM     61  C   UNL A   1      45.392  24.515  30.418  1.00  0.00     0.031 C 
ATOM     62  C   UNL A   1      45.454  26.246  32.189  1.00  0.00     0.034 A 
BRANCH  49  63
ATOM     63  C   UNL A   1      42.714  31.444  34.064  1.00  0.00     0.023 A 
ATOM     64  C   UNL A   1      43.283  32.657  33.625  1.00  0.00     0.012 A 
ATOM     65  C   UNL A   1      42.092  31.389  35.326  1.00  0.00     0.148 A 
ATOM     66  C   UNL A   1      43.251  33.790  34.437  1.00  0.00     0.002 A 
ATOM     67  C   UNL A   1      42.024  32.534  36.112  1.00  0.00     0.091 A 
ATOM     68  F   UNL A   1      41.572  30.221  35.732  1.00  0.00    -0.205 F 
ATOM     69  C   UNL A   1      42.612  33.732  35.672  1.00  0.00     0.022 A 
BRANCH  67  70
ATOM     70  S   UNL A   1      41.152  32.589  37.681  1.00  0.00     0.127 S 
ATOM     71  O   UNL A   1      41.962  31.690  38.501  1.00  0.00    -0.237 OA
ATOM     72  O   UNL A   1      41.258  34.004  38.039  1.00  0.00    -0.237 OA
ATOM     73  O   UNL A   1      39.797  32.128  37.407  1.00  0.00    -0.744 OA
ENDBRANCH  67  70
ENDBRANCH  49  63
BRANCH  50  74
ATOM     74  C   UNL A   1      42.620  24.156  27.260  1.00  0.00     0.023 A 
ATOM     75  C   UNL A   1      43.309  24.409  26.058  1.00  0.00     0.012 A 
ATOM     76  C   UNL A   1      41.984  22.913  27.437  1.00  0.00     0.148 A 
ATOM     77  C   UNL A   1      43.323  23.462  25.033  1.00  0.00     0.002 A 
ATOM     78  C   UNL A   1      42.052  21.951  26.435  1.00  0.00     0.091 A 
ATOM     79  F   UNL A   1      41.319  22.693  28.580  1.00  0.00    -0.205 F 
ATOM     80  C   UNL A   1      42.703  22.231  25.224  1.00  0.00     0.022 A 
BRANCH  78  81
ATOM     81  S   UNL A   1      41.400  20.293  26.665  1.00  0.00     0.127 S 
ATOM     82  O   UNL A   1      42.108  19.856  27.865  1.00  0.00    -0.237 OA
ATOM     83  O   UNL A   1      39.971  20.547  26.849  1.00  0.00    -0.237 OA
ATOM     84  O   UNL A   1      41.722  19.580  25.436  1.00  0.00    -0.744 OA
ENDBRANCH  78  81
ENDBRANCH  50  74
BRANCH  62  85
ATOM     85  C   UNL A   1      46.679  25.572  32.750  1.00  0.00     0.023 A 
ATOM     86  C   UNL A   1      47.959  25.966  32.312  1.00  0.00     0.012 A 
ATOM     87  C   UNL A   1      46.565  24.575  33.739  1.00  0.00     0.148 A 
ATOM     88  C   UNL A   1      49.104  25.345  32.812  1.00  0.00     0.002 A 
ATOM     89  C   UNL A   1      47.712  23.998  34.271  1.00  0.00     0.091 A 
ATOM     90  F   UNL A   1      45.340  24.197  34.133  1.00  0.00    -0.205 F 
ATOM     91  C   UNL A   1      48.980  24.369  33.798  1.00  0.00     0.022 A 
BRANCH  89  92
ATOM     92  S   UNL A   1      47.641  22.806  35.613  1.00  0.00     0.127 S 
ATOM     93  O   UNL A   1      46.631  23.398  36.487  1.00  0.00    -0.237 OA
ATOM     94  O   UNL A   1      47.215  21.585  34.929  1.00  0.00    -0.237 OA
ATOM     95  O   UNL A   1      48.991  22.746  36.157  1.00  0.00    -0.744 OA
ENDBRANCH  89  92
ENDBRANCH  62  85
ENDBRANCH  36  37
ENDBRANCH  28  31
ENDBRANCH  26  27
ENDBRANCH  25  26
ENDBRANCH  24  25
ENDBRANCH   1  24
TORSDOF 21
ENDMDL
MODEL 2
REMARK VINA RESULT:     -11.3      5.200      9.886
REMARK SMILES Cc1ccc(/C=C/C(=O)N[C@@H](CO)C(=O)NCCCCCCNC(=O)c2ccc(-c3c4nc(c(-c5cccc(S(=O)(=O)[O-])c5F)c5ccc([nH]5)c(-c5cccc(S(=O)(=O)[O-])c5F)c5nc(c(-c6cccc(S(=O)(=O)[O-])c6F)c6ccc3[nH]6)C=C5)C=C4)cc2)o1
REMARK SMILES IDX 19 1 18 2 17 3 16 4 14 5 15 6 11 8 10 9 8 10 9 11 7 13 6 14
REMARK SMILES IDX 5 15 1 16 2 17 3 18 89 19 4 20 12 21 13 22 20 24 21 25 22 26
REMARK SMILES IDX 23 27 24 28 25 30 26 31 27 32 88 33 28 34 87 35 29 36 30 37
REMARK SMILES IDX 31 38 81 39 32 40 86 41 80 42 82 43 33 44 85 45 79 46 78 47
REMARK SMILES IDX 34 49 66 50 46 51 65 52 47 53 50 54 64 55 83 56 48 57 49 58
REMARK SMILES IDX 63 60 84 61 51 62 35 63 36 64 44 65 37 66 39 67 45 68 38 69
REMARK SMILES IDX 40 70 41 71 42 72 43 73 67 74 68 75 76 76 69 77 71 78 77 79
REMARK SMILES IDX 70 80 72 81 73 82 74 83 75 84 52 85 53 86 61 87 54 88 56 89
REMARK SMILES IDX 62 90 55 91 57 92 58 93 59 94 60 95
REMARK H PARENT 16 7 10 12 13 23 23 29 82 48 50 59
REMARK Flexibility Score: inf
ROOT
ATOM      1  C   UNL A   1      34.833  23.143  23.286  1.00  0.00     0.002 C 
ENDROOT
BRANCH   1   2
ATOM      2  C   UNL A   1      34.268  24.358  24.025  1.00  0.00     0.021 C 
BRANCH   2   3
ATOM      3  C   UNL A   1      32.851  24.762  23.629  1.00  0.00     0.116 C 
BRANCH   3   4
ATOM      4  N   UNL A   1      32.111  25.357  24.725  1.00  0.00    -0.354 N 
ATOM      5  C   UNL A   1      31.621  24.795  25.865  1.00  0.00     0.244 C 
ATOM      6  O   UNL A   1      31.155  25.557  26.721  1.00  0.00    -0.273 OA
ATOM      7  H   UNL A   1      31.934  26.321  24.628  1.00  0.00     0.163 HD
BRANCH   5   8
ATOM      8  C   UNL A   1      31.637  23.274  26.120  1.00  0.00     0.197 C 
BRANCH   8   9
ATOM      9  N   UNL A   1      32.704  22.912  27.058  1.00  0.00    -0.339 N 
ATOM     10  C   UNL A   1      33.644  21.933  27.031  1.00  0.00     0.244 C 
ATOM     11  O   UNL A   1      34.502  21.909  27.910  1.00  0.00    -0.270 OA
ATOM     12  H   UNL A   1      32.748  23.486  27.856  1.00  0.00     0.164 HD
BRANCH  10  13
ATOM     13  C   UNL A   1      33.583  20.823  26.060  1.00  0.00     0.075 C 
ATOM     14  C   UNL A   1      32.894  20.834  24.912  1.00  0.00     0.053 C 
BRANCH  14  15
ATOM     15  C   UNL A   1      32.861  19.681  24.085  1.00  0.00     0.127 A 
ATOM     16  C   UNL A   1      34.107  16.396  23.336  1.00  0.00     0.087 C 
ATOM     17  C   UNL A   1      33.346  17.659  23.306  1.00  0.00     0.101 A 
ATOM     18  C   UNL A   1      32.403  18.176  22.451  1.00  0.00     0.046 A 
ATOM     19  O   UNL A   1      33.605  18.542  24.308  1.00  0.00    -0.462 OA
ATOM     20  C   UNL A   1      32.104  19.469  22.940  1.00  0.00     0.050 A 
ENDBRANCH  14  15
ENDBRANCH  10  13
ENDBRANCH   8   9
BRANCH   8  21
ATOM     21  C   UNL A   1      30.259  22.687  26.449  1.00  0.00     0.191 C 
BRANCH  21  22
ATOM     22  O   UNL A   1      29.687  23.170  27.657  1.00  0.00    -0.394 OA
ATOM     23  H   UNL A   1      30.287  23.814  28.063  1.00  0.00     0.210 HD
ENDBRANCH  21  22
ENDBRANCH   8  21
ENDBRANCH   5   8
ENDBRANCH   3   4
ENDBRANCH   2   3
ENDBRANCH   1   2
BRANCH   1  24
ATOM     24  C   UNL A   1      36.358  23.019  23.283  1.00  0.00     0.002 C 
BRANCH  24  25
ATOM     25  C   UNL A   1      36.936  21.855  24.095  1.00  0.00     0.021 C 
BRANCH  25  26
ATOM     26  C   UNL A   1      37.501  22.223  25.463  1.00  0.00     0.116 C 
BRANCH  26  27
ATOM     27  N   UNL A   1      38.426  21.224  25.969  1.00  0.00    -0.352 N 
ATOM     28  C   UNL A   1      39.649  21.391  26.568  1.00  0.00     0.251 C 
ATOM     29  H   UNL A   1      38.131  20.290  25.867  1.00  0.00     0.163 HD
ATOM     30  O   UNL A   1      40.352  20.408  26.787  1.00  0.00    -0.269 OA
BRANCH  28  31
ATOM     31  C   UNL A   1      40.132  22.742  26.932  1.00  0.00     0.039 A 
ATOM     32  C   UNL A   1      41.060  22.858  27.970  1.00  0.00     0.014 A 
ATOM     33  C   UNL A   1      39.658  23.890  26.289  1.00  0.00     0.014 A 
ATOM     34  C   UNL A   1      41.535  24.119  28.340  1.00  0.00     0.010 A 
ATOM     35  C   UNL A   1      40.187  25.141  26.612  1.00  0.00     0.010 A 
ATOM     36  C   UNL A   1      41.117  25.271  27.652  1.00  0.00    -0.014 A 
BRANCH  36  37
ATOM     37  C   UNL A   1      41.661  26.605  28.021  1.00  0.00     0.031 A 
ATOM     38  C   UNL A   1      43.071  26.990  27.656  1.00  0.00     0.074 A 
ATOM     39  C   UNL A   1      40.895  27.457  28.733  1.00  0.00     0.049 A 
ATOM     40  N   UNL A   1      43.688  28.128  27.853  1.00  0.00    -0.248 NA
ATOM     41  C   UNL A   1      43.907  25.964  27.011  1.00  0.00     0.031 C 
ATOM     42  C   UNL A   1      39.554  27.162  29.244  1.00  0.00     0.029 A 
ATOM     43  N   UNL A   1      41.140  28.736  29.165  1.00  0.00    -0.354 N 
ATOM     44  C   UNL A   1      44.988  27.943  27.395  1.00  0.00     0.074 A 
ATOM     45  C   UNL A   1      45.081  26.576  26.932  1.00  0.00     0.031 C 
ATOM     46  C   UNL A   1      39.094  28.230  29.914  1.00  0.00     0.029 A 
ATOM     47  C   UNL A   1      40.107  29.281  29.892  1.00  0.00     0.049 A 
ATOM     48  H   UNL A   1      41.977  29.218  28.974  1.00  0.00     0.167 HD
ATOM     49  C   UNL A   1      46.003  28.838  27.339  1.00  0.00     0.034 A 
ATOM     50  C   UNL A   1      39.986  30.492  30.471  1.00  0.00     0.034 A 
ATOM     51  C   UNL A   1      45.889  30.214  27.744  1.00  0.00     0.049 A 
ATOM     52  C   UNL A   1      41.094  31.496  30.296  1.00  0.00     0.074 A 
ATOM     53  C   UNL A   1      46.820  31.229  27.609  1.00  0.00     0.029 A 
ATOM     54  N   UNL A   1      44.783  30.766  28.368  1.00  0.00    -0.354 N 
ATOM     55  N   UNL A   1      42.236  31.365  29.668  1.00  0.00    -0.248 NA
ATOM     56  C   UNL A   1      40.871  32.833  30.865  1.00  0.00     0.031 C 
ATOM     57  C   UNL A   1      46.285  32.391  28.175  1.00  0.00     0.029 A 
ATOM     58  C   UNL A   1      45.012  32.105  28.637  1.00  0.00     0.049 A 
ATOM     59  H   UNL A   1      43.956  30.279  28.588  1.00  0.00     0.167 HD
ATOM     60  C   UNL A   1      42.854  32.609  29.739  1.00  0.00     0.074 A 
ATOM     61  C   UNL A   1      41.941  33.489  30.438  1.00  0.00     0.031 C 
ATOM     62  C   UNL A   1      44.075  32.985  29.285  1.00  0.00     0.034 A 
BRANCH  49  63
ATOM     63  C   UNL A   1      47.321  28.384  26.768  1.00  0.00     0.023 A 
ATOM     64  C   UNL A   1      48.388  28.079  27.637  1.00  0.00     0.012 A 
ATOM     65  C   UNL A   1      47.469  28.159  25.386  1.00  0.00     0.148 A 
ATOM     66  C   UNL A   1      49.589  27.577  27.137  1.00  0.00     0.002 A 
ATOM     67  C   UNL A   1      48.653  27.616  24.899  1.00  0.00     0.091 A 
ATOM     68  F   UNL A   1      46.449  28.472  24.574  1.00  0.00    -0.205 F 
ATOM     69  C   UNL A   1      49.717  27.334  25.773  1.00  0.00     0.022 A 
BRANCH  67  70
ATOM     70  S   UNL A   1      48.890  27.187  23.171  1.00  0.00     0.127 S 
ATOM     71  O   UNL A   1      50.345  27.054  23.096  1.00  0.00    -0.237 OA
ATOM     72  O   UNL A   1      48.156  25.925  23.066  1.00  0.00    -0.237 OA
ATOM     73  O   UNL A   1      48.327  28.287  22.400  1.00  0.00    -0.744 OA
ENDBRANCH  67  70
ENDBRANCH  49  63
BRANCH  50  74
ATOM     74  C   UNL A   1      38.742  30.851  31.208  1.00  0.00     0.023 A 
ATOM     75  C   UNL A   1      38.669  30.640  32.598  1.00  0.00     0.012 A 
ATOM     76  C   UNL A   1      37.631  31.400  30.540  1.00  0.00     0.148 A 
ATOM     77  C   UNL A   1      37.498  30.924  33.302  1.00  0.00     0.002 A 
ATOM     78  C   UNL A   1      36.488  31.736  31.257  1.00  0.00     0.091 A 
ATOM     79  F   UNL A   1      37.709  31.580  29.213  1.00  0.00    -0.205 F 
ATOM     80  C   UNL A   1      36.411  31.480  32.633  1.00  0.00     0.022 A 
BRANCH  78  81
ATOM     81  S   UNL A   1      35.103  32.586  30.490  1.00  0.00     0.127 S 
ATOM     82  O   UNL A   1      34.115  32.581  31.566  1.00  0.00    -0.237 OA
ATOM     83  O   UNL A   1      35.676  33.897  30.184  1.00  0.00    -0.237 OA
ATOM     84  O   UNL A   1      34.771  31.794  29.312  1.00  0.00    -0.744 OA
ENDBRANCH  78  81
ENDBRANCH  50  74
BRANCH  62  85
ATOM     85  C   UNL A   1      44.485  34.418  29.504  1.00  0.00     0.023 A 
ATOM     86  C   UNL A   1      45.140  34.786  30.695  1.00  0.00     0.012 A 
ATOM     87  C   UNL A   1      44.258  35.393  28.513  1.00  0.00     0.148 A 
ATOM     88  C   UNL A   1      45.517  36.109  30.920  1.00  0.00     0.002 A 
ATOM     89  C   UNL A   1      44.683  36.699  28.721  1.00  0.00     0.091 A 
ATOM     90  F   UNL A   1      43.616  35.032  27.391  1.00  0.00    -0.205 F 
ATOM     91  C   UNL A   1      45.297  37.063  29.929  1.00  0.00     0.022 A 
BRANCH  89  92
ATOM     92  S   UNL A   1      44.526  37.963  27.454  1.00  0.00     0.127 S 
ATOM     93  O   UNL A   1      44.656  39.190  28.237  1.00  0.00    -0.237 OA
ATOM     94  O   UNL A   1      45.663  37.676  26.579  1.00  0.00    -0.237 OA
ATOM     95  O   UNL A   1      43.226  37.742  26.836  1.00  0.00    -0.744 OA
ENDBRANCH  89  92
ENDBRANCH  62  85
ENDBRANCH  36  37
ENDBRANCH  28  31
ENDBRANCH  26  27
ENDBRANCH  25  26
ENDBRANCH  24  25
ENDBRANCH   1  24
TORSDOF 21
ENDMDL
MODEL 3
REMARK VINA RESULT:     -11.3      2.044      2.953
REMARK SMILES Cc1ccc(/C=C/C(=O)N[C@@H](CO)C(=O)NCCCCCCNC(=O)c2ccc(-c3c4nc(c(-c5cccc(S(=O)(=O)[O-])c5F)c5ccc([nH]5)c(-c5cccc(S(=O)(=O)[O-])c5F)c5nc(c(-c6cccc(S(=O)(=O)[O-])c6F)c6ccc3[nH]6)C=C5)C=C4)cc2)o1
REMARK SMILES IDX 19 1 18 2 17 3 16 4 14 5 15 6 11 8 10 9 8 10 9 11 7 13 6 14
REMARK SMILES IDX 5 15 1 16 2 17 3 18 89 19 4 20 12 21 13 22 20 24 21 25 22 26
REMARK SMILES IDX 23 27 24 28 25 30 26 31 27 32 88 33 28 34 87 35 29 36 30 37
REMARK SMILES IDX 31 38 81 39 32 40 86 41 80 42 82 43 33 44 85 45 79 46 78 47
REMARK SMILES IDX 34 49 66 50 46 51 65 52 47 53 50 54 64 55 83 56 48 57 49 58
REMARK SMILES IDX 63 60 84 61 51 62 35 63 36 64 44 65 37 66 39 67 45 68 38 69
REMARK SMILES IDX 40 70 41 71 42 72 43 73 67 74 68 75 76 76 69 77 71 78 77 79
REMARK SMILES IDX 70 80 72 81 73 82 74 83 75 84 52 85 53 86 61 87 54 88 56 89
REMARK SMILES IDX 62 90 55 91 57 92 58 93 59 94 60 95
REMARK H PARENT 16 7 10 12 13 23 23 29 82 48 50 59
REMARK Flexibility Score: inf
ROOT
ATOM      1  C   UNL A   1      31.020  27.155  26.462  1.00  0.00     0.002 C 
ENDROOT
BRANCH   1   2
ATOM      2  C   UNL A   1      31.560  26.448  25.218  1.00  0.00     0.021 C 
BRANCH   2   3
ATOM      3  C   UNL A   1      30.758  25.234  24.758  1.00  0.00     0.116 C 
BRANCH   3   4
ATOM      4  N   UNL A   1      30.068  24.572  25.849  1.00  0.00    -0.354 N 
ATOM      5  C   UNL A   1      30.414  23.469  26.569  1.00  0.00     0.244 C 
ATOM      6  O   UNL A   1      29.723  23.194  27.558  1.00  0.00    -0.273 OA
ATOM      7  H   UNL A   1      29.213  24.987  26.109  1.00  0.00     0.163 HD
BRANCH   5   8
ATOM      8  C   UNL A   1      31.618  22.577  26.204  1.00  0.00     0.197 C 
BRANCH   8   9
ATOM      9  N   UNL A   1      31.962  22.716  24.786  1.00  0.00    -0.339 N 
ATOM     10  C   UNL A   1      32.224  21.799  23.820  1.00  0.00     0.244 C 
ATOM     11  O   UNL A   1      32.388  22.184  22.665  1.00  0.00    -0.270 OA
ATOM     12  H   UNL A   1      32.012  23.649  24.476  1.00  0.00     0.164 HD
BRANCH  10  13
ATOM     13  C   UNL A   1      32.450  20.376  24.140  1.00  0.00     0.075 C 
ATOM     14  C   UNL A   1      33.646  19.807  24.338  1.00  0.00     0.053 C 
BRANCH  14  15
ATOM     15  C   UNL A   1      33.744  18.412  24.579  1.00  0.00     0.127 A 
ATOM     16  C   UNL A   1      32.252  15.395  25.836  1.00  0.00     0.087 C 
ATOM     17  C   UNL A   1      33.183  16.363  25.225  1.00  0.00     0.101 A 
ATOM     18  C   UNL A   1      34.465  16.268  24.741  1.00  0.00     0.046 A 
ATOM     19  O   UNL A   1      32.730  17.640  25.103  1.00  0.00    -0.462 OA
ATOM     20  C   UNL A   1      34.827  17.575  24.342  1.00  0.00     0.050 A 
ENDBRANCH  14  15
ENDBRANCH  10  13
ENDBRANCH   8   9
BRANCH   8  21
ATOM     21  C   UNL A   1      32.800  22.706  27.174  1.00  0.00     0.191 C 
BRANCH  21  22
ATOM     22  O   UNL A   1      32.612  22.052  28.420  1.00  0.00    -0.394 OA
ATOM     23  H   UNL A   1      31.678  21.811  28.521  1.00  0.00     0.210 HD
ENDBRANCH  21  22
ENDBRANCH   8  21
ENDBRANCH   5   8
ENDBRANCH   3   4
ENDBRANCH   2   3
ENDBRANCH   1   2
BRANCH   1  24
ATOM     24  C   UNL A   1      32.022  28.038  27.211  1.00  0.00     0.002 C 
BRANCH  24  25
ATOM     25  C   UNL A   1      33.494  27.848  26.832  1.00  0.00     0.021 C 
BRANCH  25  26
ATOM     26  C   UNL A   1      34.122  28.988  26.038  1.00  0.00     0.116 C 
BRANCH  26  27
ATOM     27  N   UNL A   1      33.884  30.286  26.644  1.00  0.00    -0.352 N 
ATOM     28  C   UNL A   1      34.569  30.918  27.650  1.00  0.00     0.251 C 
ATOM     29  H   UNL A   1      33.118  30.786  26.278  1.00  0.00     0.163 HD
ATOM     30  O   UNL A   1      34.115  31.953  28.131  1.00  0.00    -0.269 OA
BRANCH  28  31
ATOM     31  C   UNL A   1      35.835  30.354  28.170  1.00  0.00     0.039 A 
ATOM     32  C   UNL A   1      36.995  30.512  27.408  1.00  0.00     0.014 A 
ATOM     33  C   UNL A   1      35.884  29.648  29.376  1.00  0.00     0.014 A 
ATOM     34  C   UNL A   1      38.206  29.990  27.869  1.00  0.00     0.010 A 
ATOM     35  C   UNL A   1      37.107  29.189  29.869  1.00  0.00     0.010 A 
ATOM     36  C   UNL A   1      38.278  29.339  29.112  1.00  0.00    -0.014 A 
BRANCH  36  37
ATOM     37  C   UNL A   1      39.578  28.827  29.619  1.00  0.00     0.031 A 
ATOM     38  C   UNL A   1      40.287  29.512  30.757  1.00  0.00     0.074 A 
ATOM     39  C   UNL A   1      40.149  27.764  29.015  1.00  0.00     0.049 A 
ATOM     40  N   UNL A   1      41.400  29.171  31.357  1.00  0.00    -0.248 NA
ATOM     41  C   UNL A   1      39.689  30.754  31.276  1.00  0.00     0.031 C 
ATOM     42  C   UNL A   1      39.620  27.078  27.833  1.00  0.00     0.029 A 
ATOM     43  N   UNL A   1      41.307  27.085  29.301  1.00  0.00    -0.354 N 
ATOM     44  C   UNL A   1      41.654  30.169  32.291  1.00  0.00     0.074 A 
ATOM     45  C   UNL A   1      40.594  31.144  32.164  1.00  0.00     0.031 C 
ATOM     46  C   UNL A   1      40.448  26.075  27.500  1.00  0.00     0.029 A 
ATOM     47  C   UNL A   1      41.570  26.051  28.432  1.00  0.00     0.049 A 
ATOM     48  H   UNL A   1      41.895  27.317  30.056  1.00  0.00     0.167 HD
ATOM     49  C   UNL A   1      42.663  30.251  33.190  1.00  0.00     0.034 A 
ATOM     50  C   UNL A   1      42.595  25.177  28.396  1.00  0.00     0.034 A 
ATOM     51  C   UNL A   1      43.681  29.249  33.355  1.00  0.00     0.049 A 
ATOM     52  C   UNL A   1      43.641  25.235  29.476  1.00  0.00     0.074 A 
ATOM     53  C   UNL A   1      44.671  29.180  34.320  1.00  0.00     0.029 A 
ATOM     54  N   UNL A   1      43.848  28.147  32.533  1.00  0.00    -0.354 N 
ATOM     55  N   UNL A   1      43.743  26.067  30.484  1.00  0.00    -0.248 NA
ATOM     56  C   UNL A   1      44.685  24.201  29.444  1.00  0.00     0.031 C 
ATOM     57  C   UNL A   1      45.451  28.047  34.067  1.00  0.00     0.029 A 
ATOM     58  C   UNL A   1      44.931  27.398  32.960  1.00  0.00     0.049 A 
ATOM     59  H   UNL A   1      43.280  27.928  31.759  1.00  0.00     0.167 HD
ATOM     60  C   UNL A   1      44.840  25.638  31.222  1.00  0.00     0.074 A 
ATOM     61  C   UNL A   1      45.346  24.451  30.566  1.00  0.00     0.031 C 
ATOM     62  C   UNL A   1      45.393  26.188  32.331  1.00  0.00     0.034 A 
BRANCH  49  63
ATOM     63  C   UNL A   1      42.695  31.440  34.116  1.00  0.00     0.023 A 
ATOM     64  C   UNL A   1      43.258  32.653  33.672  1.00  0.00     0.012 A 
ATOM     65  C   UNL A   1      42.076  31.386  35.381  1.00  0.00     0.148 A 
ATOM     66  C   UNL A   1      43.223  33.788  34.480  1.00  0.00     0.002 A 
ATOM     67  C   UNL A   1      42.006  32.533  36.162  1.00  0.00     0.091 A 
ATOM     68  F   UNL A   1      41.563  30.217  35.791  1.00  0.00    -0.205 F 
ATOM     69  C   UNL A   1      42.587  33.733  35.717  1.00  0.00     0.022 A 
BRANCH  67  70
ATOM     70  S   UNL A   1      41.137  32.589  37.733  1.00  0.00     0.127 S 
ATOM     71  O   UNL A   1      41.922  31.656  38.539  1.00  0.00    -0.237 OA
ATOM     72  O   UNL A   1      41.283  33.995  38.113  1.00  0.00    -0.237 OA
ATOM     73  O   UNL A   1      39.770  32.171  37.455  1.00  0.00    -0.744 OA
ENDBRANCH  67  70
ENDBRANCH  49  63
BRANCH  50  74
ATOM     74  C   UNL A   1      42.646  24.125  27.341  1.00  0.00     0.023 A 
ATOM     75  C   UNL A   1      43.291  24.394  26.118  1.00  0.00     0.012 A 
ATOM     76  C   UNL A   1      42.062  22.860  27.543  1.00  0.00     0.148 A 
ATOM     77  C   UNL A   1      43.312  23.442  25.099  1.00  0.00     0.002 A 
ATOM     78  C   UNL A   1      42.137  21.895  26.545  1.00  0.00     0.091 A 
ATOM     79  F   UNL A   1      41.438  22.624  28.706  1.00  0.00    -0.205 F 
ATOM     80  C   UNL A   1      42.743  22.190  25.315  1.00  0.00     0.022 A 
BRANCH  78  81
ATOM     81  S   UNL A   1      41.554  20.216  26.804  1.00  0.00     0.127 S 
ATOM     82  O   UNL A   1      41.586  19.674  25.448  1.00  0.00    -0.237 OA
ATOM     83  O   UNL A   1      42.567  19.673  27.710  1.00  0.00    -0.237 OA
ATOM     84  O   UNL A   1      40.234  20.356  27.406  1.00  0.00    -0.744 OA
ENDBRANCH  78  81
ENDBRANCH  50  74
BRANCH  62  85
ATOM     85  C   UNL A   1      46.592  25.496  32.924  1.00  0.00     0.023 A 
ATOM     86  C   UNL A   1      46.423  24.596  33.995  1.00  0.00     0.012 A 
ATOM     87  C   UNL A   1      47.881  25.704  32.397  1.00  0.00     0.148 A 
ATOM     88  C   UNL A   1      47.522  23.954  34.565  1.00  0.00     0.002 A 
ATOM     89  C   UNL A   1      48.965  25.022  32.935  1.00  0.00     0.091 A 
ATOM     90  F   UNL A   1      48.030  26.578  31.389  1.00  0.00    -0.205 F 
ATOM     91  C   UNL A   1      48.791  24.160  34.028  1.00  0.00     0.022 A 
BRANCH  89  92
ATOM     92  S   UNL A   1      50.615  25.156  32.236  1.00  0.00     0.127 S 
ATOM     93  O   UNL A   1      50.811  26.603  32.207  1.00  0.00    -0.237 OA
ATOM     94  O   UNL A   1      51.433  24.450  33.223  1.00  0.00    -0.237 OA
ATOM     95  O   UNL A   1      50.546  24.500  30.937  1.00  0.00    -0.744 OA
ENDBRANCH  89  92
ENDBRANCH  62  85
ENDBRANCH  36  37
ENDBRANCH  28  31
ENDBRANCH  26  27
ENDBRANCH  25  26
ENDBRANCH  24  25
ENDBRANCH   1  24
TORSDOF 21
ENDMDL
