MODEL 1
REMARK VINA RESULT:     -11.7      0.000      0.000
REMARK SMILES Cc1c(Cl)cccc1S(=O)(=O)N[C@H]1C=C[C@@H](C(=O)NCCCCCCNC(=O)c2ccc(-c3c4nc(c(-c5cccc(S(=O)(=O)[O-])c5F)c5ccc([nH]5)c(-c5cccc(S(=O)(=O)[O-])c5F)c5nc(c(-c6cccc(S(=O)(=O)[O-])c6F)c6ccc3[nH]6)C=C5)C=C4)cc2)C1
REMARK SMILES IDX 22 1 21 2 20 3 19 4 17 5 18 6 16 8 13 9 14 10 92 11 15 12
REMARK SMILES IDX 12 13 9 15 10 16 11 17 8 18 1 19 2 20 3 21 4 22 5 23 7 24
REMARK SMILES IDX 6 25 23 26 24 27 25 28 26 29 27 30 28 32 29 33 30 34 91 35
REMARK SMILES IDX 31 36 90 37 32 38 33 39 34 40 84 41 35 42 89 43 83 44 85 45
REMARK SMILES IDX 36 46 88 47 82 48 81 49 37 51 69 52 49 53 68 54 50 55 53 56
REMARK SMILES IDX 67 57 86 58 51 59 52 60 66 62 87 63 54 64 38 65 39 66 47 67
REMARK SMILES IDX 40 68 42 69 48 70 41 71 43 72 44 73 45 74 46 75 70 76 71 77
REMARK SMILES IDX 79 78 72 79 74 80 80 81 73 82 75 83 76 84 77 85 78 86 55 87
REMARK SMILES IDX 56 88 64 89 57 90 59 91 65 92 58 93 60 94 61 95 62 96 63 97
REMARK H PARENT 19 7 12 14 26 31 85 50 53 61
REMARK Flexibility Score: inf
ROOT
ATOM      1  C   UNL A   1      32.977  29.308  26.579  1.00  0.00     0.002 C 
ENDROOT
BRANCH   1   2
ATOM      2  C   UNL A   1      33.705  28.517  25.487  1.00  0.00     0.021 C 
BRANCH   2   3
ATOM      3  C   UNL A   1      33.337  28.886  24.045  1.00  0.00     0.116 C 
BRANCH   3   4
ATOM      4  N   UNL A   1      33.765  27.897  23.064  1.00  0.00    -0.356 N 
ATOM      5  C   UNL A   1      33.107  26.999  22.284  1.00  0.00     0.226 C 
ATOM      6  O   UNL A   1      33.824  26.301  21.552  1.00  0.00    -0.274 OA
ATOM      7  H   UNL A   1      34.740  27.875  22.939  1.00  0.00     0.163 HD
BRANCH   5   8
ATOM      8  C   UNL A   1      31.589  26.743  22.279  1.00  0.00     0.103 C 
ATOM      9  C   UNL A   1      30.439  25.689  24.190  1.00  0.00     0.093 C 
ATOM     10  C   UNL A   1      30.071  27.134  24.016  1.00  0.00    -0.011 C 
ATOM     11  C   UNL A   1      31.161  25.386  22.875  1.00  0.00     0.042 C 
ATOM     12  C   UNL A   1      30.695  27.707  22.980  1.00  0.00    -0.016 C 
BRANCH   9  13
ATOM     13  N   UNL A   1      31.347  25.580  25.340  1.00  0.00    -0.204 NA
ATOM     14  H   UNL A   1      32.276  25.848  25.017  1.00  0.00     0.142 HD
BRANCH  13  15
ATOM     15  S   UNL A   1      31.501  24.092  26.109  1.00  0.00     0.241 S 
ATOM     16  O   UNL A   1      30.299  23.328  25.846  1.00  0.00    -0.207 OA
ATOM     17  O   UNL A   1      31.893  24.436  27.459  1.00  0.00    -0.207 OA
BRANCH  15  18
ATOM     18  C   UNL A   1      32.864  23.120  25.460  1.00  0.00     0.086 A 
ATOM     19  C   UNL A   1      34.739  24.886  25.367  1.00  0.00     0.047 C 
ATOM     20  C   UNL A   1      34.177  23.525  25.151  1.00  0.00    -0.012 A 
ATOM     21  C   UNL A   1      35.056  22.562  24.595  1.00  0.00     0.045 A 
ATOM     22  Cl  UNL A   1      36.680  22.968  24.125  1.00  0.00    -0.084 Cl
ATOM     23  C   UNL A   1      34.670  21.239  24.394  1.00  0.00     0.021 A 
ATOM     24  C   UNL A   1      32.497  21.769  25.260  1.00  0.00     0.022 A 
ATOM     25  C   UNL A   1      33.391  20.836  24.739  1.00  0.00     0.003 A 
ENDBRANCH  15  18
ENDBRANCH  13  15
ENDBRANCH   9  13
ENDBRANCH   5   8
ENDBRANCH   3   4
ENDBRANCH   2   3
ENDBRANCH   1   2
BRANCH   1  26
ATOM     26  C   UNL A   1      31.688  29.993  26.119  1.00  0.00     0.002 C 
BRANCH  26  27
ATOM     27  C   UNL A   1      31.656  31.515  26.298  1.00  0.00     0.021 C 
BRANCH  27  28
ATOM     28  C   UNL A   1      32.709  32.080  27.250  1.00  0.00     0.116 C 
BRANCH  28  29
ATOM     29  N   UNL A   1      32.561  33.515  27.431  1.00  0.00    -0.352 N 
ATOM     30  C   UNL A   1      33.180  34.324  28.353  1.00  0.00     0.251 C 
ATOM     31  H   UNL A   1      31.939  33.963  26.815  1.00  0.00     0.163 HD
ATOM     32  O   UNL A   1      32.788  35.474  28.531  1.00  0.00    -0.269 OA
BRANCH  30  33
ATOM     33  C   UNL A   1      34.313  33.794  29.143  1.00  0.00     0.039 A 
ATOM     34  C   UNL A   1      34.069  32.827  30.119  1.00  0.00     0.014 A 
ATOM     35  C   UNL A   1      35.615  34.249  28.909  1.00  0.00     0.014 A 
ATOM     36  C   UNL A   1      35.140  32.278  30.831  1.00  0.00     0.010 A 
ATOM     37  C   UNL A   1      36.686  33.657  29.574  1.00  0.00     0.010 A 
ATOM     38  C   UNL A   1      36.459  32.671  30.547  1.00  0.00    -0.014 A 
BRANCH  38  39
ATOM     39  C   UNL A   1      37.611  32.044  31.249  1.00  0.00     0.031 A 
ATOM     40  C   UNL A   1      38.372  30.913  30.613  1.00  0.00     0.074 A 
ATOM     41  C   UNL A   1      37.921  32.441  32.500  1.00  0.00     0.049 A 
ATOM     42  N   UNL A   1      39.389  30.237  31.083  1.00  0.00    -0.248 NA
ATOM     43  C   UNL A   1      37.918  30.465  29.286  1.00  0.00     0.031 C 
ATOM     44  C   UNL A   1      37.200  33.461  33.264  1.00  0.00     0.029 A 
ATOM     45  N   UNL A   1      38.903  32.013  33.359  1.00  0.00    -0.354 N 
ATOM     46  C   UNL A   1      39.672  29.263  30.132  1.00  0.00     0.074 A 
ATOM     47  C   UNL A   1      38.701  29.417  29.071  1.00  0.00     0.031 C 
ATOM     48  C   UNL A   1      37.762  33.579  34.478  1.00  0.00     0.029 A 
ATOM     49  C   UNL A   1      38.866  32.629  34.588  1.00  0.00     0.049 A 
ATOM     50  H   UNL A   1      39.569  31.331  33.118  1.00  0.00     0.167 HD
ATOM     51  C   UNL A   1      40.665  28.342  30.129  1.00  0.00     0.034 A 
ATOM     52  C   UNL A   1      39.631  32.449  35.683  1.00  0.00     0.034 A 
ATOM     53  C   UNL A   1      41.655  28.221  31.165  1.00  0.00     0.049 A 
ATOM     54  C   UNL A   1      40.766  31.463  35.630  1.00  0.00     0.074 A 
ATOM     55  C   UNL A   1      42.768  27.399  31.199  1.00  0.00     0.029 A 
ATOM     56  N   UNL A   1      41.648  28.930  32.356  1.00  0.00    -0.354 N 
ATOM     57  N   UNL A   1      41.135  30.684  34.643  1.00  0.00    -0.248 NA
ATOM     58  C   UNL A   1      41.615  31.360  36.825  1.00  0.00     0.031 C 
ATOM     59  C   UNL A   1      43.416  27.590  32.425  1.00  0.00     0.029 A 
ATOM     60  C   UNL A   1      42.724  28.553  33.141  1.00  0.00     0.049 A 
ATOM     61  H   UNL A   1      40.974  29.603  32.607  1.00  0.00     0.167 HD
ATOM     62  C   UNL A   1      42.274  30.020  35.086  1.00  0.00     0.074 A 
ATOM     63  C   UNL A   1      42.548  30.509  36.421  1.00  0.00     0.031 C 
ATOM     64  C   UNL A   1      43.015  29.077  34.451  1.00  0.00     0.034 A 
BRANCH  51  65
ATOM     65  C   UNL A   1      40.763  27.422  28.939  1.00  0.00     0.023 A 
ATOM     66  C   UNL A   1      39.873  26.335  28.826  1.00  0.00     0.012 A 
ATOM     67  C   UNL A   1      41.690  27.665  27.907  1.00  0.00     0.148 A 
ATOM     68  C   UNL A   1      39.928  25.481  27.723  1.00  0.00     0.002 A 
ATOM     69  C   UNL A   1      41.710  26.836  26.791  1.00  0.00     0.091 A 
ATOM     70  F   UNL A   1      42.543  28.691  28.041  1.00  0.00    -0.205 F 
ATOM     71  C   UNL A   1      40.839  25.738  26.703  1.00  0.00     0.022 A 
BRANCH  69  72
ATOM     72  S   UNL A   1      42.789  27.133  25.385  1.00  0.00     0.127 S 
ATOM     73  O   UNL A   1      44.084  27.312  26.042  1.00  0.00    -0.237 OA
ATOM     74  O   UNL A   1      42.658  25.888  24.627  1.00  0.00    -0.237 OA
ATOM     75  O   UNL A   1      42.259  28.311  24.714  1.00  0.00    -0.744 OA
ENDBRANCH  69  72
ENDBRANCH  51  65
BRANCH  52  76
ATOM     76  C   UNL A   1      39.384  33.272  36.901  1.00  0.00     0.023 A 
ATOM     77  C   UNL A   1      39.891  34.584  36.967  1.00  0.00     0.012 A 
ATOM     78  C   UNL A   1      38.613  32.779  37.971  1.00  0.00     0.148 A 
ATOM     79  C   UNL A   1      39.660  35.380  38.090  1.00  0.00     0.002 A 
ATOM     80  C   UNL A   1      38.337  33.597  39.061  1.00  0.00     0.091 A 
ATOM     81  F   UNL A   1      38.148  31.524  37.893  1.00  0.00    -0.205 F 
ATOM     82  C   UNL A   1      38.875  34.891  39.130  1.00  0.00     0.022 A 
BRANCH  80  83
ATOM     83  S   UNL A   1      37.221  33.100  40.378  1.00  0.00     0.127 S 
ATOM     84  O   UNL A   1      36.001  32.794  39.637  1.00  0.00    -0.237 OA
ATOM     85  O   UNL A   1      37.912  31.938  40.937  1.00  0.00    -0.237 OA
ATOM     86  O   UNL A   1      37.145  34.241  41.280  1.00  0.00    -0.744 OA
ENDBRANCH  80  83
ENDBRANCH  52  76
BRANCH  64  87
ATOM     87  C   UNL A   1      44.211  28.522  35.180  1.00  0.00     0.023 A 
ATOM     88  C   UNL A   1      45.487  29.073  34.951  1.00  0.00     0.012 A 
ATOM     89  C   UNL A   1      44.061  27.504  36.142  1.00  0.00     0.148 A 
ATOM     90  C   UNL A   1      46.601  28.596  35.641  1.00  0.00     0.002 A 
ATOM     91  C   UNL A   1      45.167  27.068  36.862  1.00  0.00     0.091 A 
ATOM     92  F   UNL A   1      42.841  26.979  36.334  1.00  0.00    -0.205 F 
ATOM     93  C   UNL A   1      46.439  27.603  36.605  1.00  0.00     0.022 A 
BRANCH  91  94
ATOM     94  S   UNL A   1      45.036  25.862  38.188  1.00  0.00     0.127 S 
ATOM     95  O   UNL A   1      46.398  25.855  38.720  1.00  0.00    -0.237 OA
ATOM     96  O   UNL A   1      44.039  26.471  39.068  1.00  0.00    -0.237 OA
ATOM     97  O   UNL A   1      44.604  24.620  37.558  1.00  0.00    -0.744 OA
ENDBRANCH  91  94
ENDBRANCH  64  87
ENDBRANCH  38  39
ENDBRANCH  30  33
ENDBRANCH  28  29
ENDBRANCH  27  28
ENDBRANCH  26  27
ENDBRANCH   1  26
TORSDOF 19
ENDMDL
MODEL 2
REMARK VINA RESULT:     -11.6      2.049      3.549
REMARK SMILES Cc1c(Cl)cccc1S(=O)(=O)N[C@H]1C=C[C@@H](C(=O)NCCCCCCNC(=O)c2ccc(-c3c4nc(c(-c5cccc(S(=O)(=O)[O-])c5F)c5ccc([nH]5)c(-c5cccc(S(=O)(=O)[O-])c5F)c5nc(c(-c6cccc(S(=O)(=O)[O-])c6F)c6ccc3[nH]6)C=C5)C=C4)cc2)C1
REMARK SMILES IDX 22 1 21 2 20 3 19 4 17 5 18 6 16 8 13 9 14 10 92 11 15 12
REMARK SMILES IDX 12 13 9 15 10 16 11 17 8 18 1 19 2 20 3 21 4 22 5 23 7 24
REMARK SMILES IDX 6 25 23 26 24 27 25 28 26 29 27 30 28 32 29 33 30 34 91 35
REMARK SMILES IDX 31 36 90 37 32 38 33 39 34 40 84 41 35 42 89 43 83 44 85 45
REMARK SMILES IDX 36 46 88 47 82 48 81 49 37 51 69 52 49 53 68 54 50 55 53 56
REMARK SMILES IDX 67 57 86 58 51 59 52 60 66 62 87 63 54 64 38 65 39 66 47 67
REMARK SMILES IDX 40 68 42 69 48 70 41 71 43 72 44 73 45 74 46 75 70 76 71 77
REMARK SMILES IDX 79 78 72 79 74 80 80 81 73 82 75 83 76 84 77 85 78 86 55 87
REMARK SMILES IDX 56 88 64 89 57 90 59 91 65 92 58 93 60 94 61 95 62 96 63 97
REMARK H PARENT 19 7 12 14 26 31 85 50 53 61
REMARK Flexibility Score: inf
ROOT
ATOM      1  C   UNL A   1      32.492  29.468  26.901  1.00  0.00     0.002 C 
ENDROOT
BRANCH   1   2
ATOM      2  C   UNL A   1      31.950  28.128  27.409  1.00  0.00     0.021 C 
BRANCH   2   3
ATOM      3  C   UNL A   1      31.339  27.213  26.340  1.00  0.00     0.116 C 
BRANCH   3   4
ATOM      4  N   UNL A   1      30.973  25.895  26.843  1.00  0.00    -0.356 N 
ATOM      5  C   UNL A   1      31.468  24.644  26.652  1.00  0.00     0.226 C 
ATOM      6  O   UNL A   1      30.880  23.738  27.260  1.00  0.00    -0.274 OA
ATOM      7  H   UNL A   1      30.200  25.916  27.452  1.00  0.00     0.163 HD
BRANCH   5   8
ATOM      8  C   UNL A   1      32.632  24.263  25.719  1.00  0.00     0.103 C 
ATOM      9  C   UNL A   1      33.267  25.661  23.789  1.00  0.00     0.093 C 
ATOM     10  C   UNL A   1      34.303  25.667  24.876  1.00  0.00    -0.011 C 
ATOM     11  C   UNL A   1      32.363  24.503  24.219  1.00  0.00     0.042 C 
ATOM     12  C   UNL A   1      33.959  24.909  25.924  1.00  0.00    -0.016 C 
BRANCH   9  13
ATOM     13  N   UNL A   1      32.553  26.944  23.826  1.00  0.00    -0.204 NA
ATOM     14  H   UNL A   1      31.754  26.826  24.447  1.00  0.00     0.142 HD
BRANCH  13  15
ATOM     15  S   UNL A   1      31.969  27.585  22.384  1.00  0.00     0.241 S 
ATOM     16  O   UNL A   1      31.767  26.490  21.460  1.00  0.00    -0.207 OA
ATOM     17  O   UNL A   1      32.888  28.663  22.085  1.00  0.00    -0.207 OA
BRANCH  15  18
ATOM     18  C   UNL A   1      30.369  28.376  22.581  1.00  0.00     0.086 A 
ATOM     19  C   UNL A   1      29.034  26.516  23.765  1.00  0.00     0.047 C 
ATOM     20  C   UNL A   1      29.185  27.859  23.141  1.00  0.00    -0.012 A 
ATOM     21  C   UNL A   1      28.029  28.680  23.128  1.00  0.00     0.045 A 
ATOM     22  Cl  UNL A   1      26.502  28.122  23.742  1.00  0.00    -0.084 Cl
ATOM     23  C   UNL A   1      28.052  29.978  22.624  1.00  0.00     0.021 A 
ATOM     24  C   UNL A   1      30.373  29.700  22.086  1.00  0.00     0.022 A 
ATOM     25  C   UNL A   1      29.230  30.496  22.112  1.00  0.00     0.003 A 
ENDBRANCH  15  18
ENDBRANCH  13  15
ENDBRANCH   9  13
ENDBRANCH   5   8
ENDBRANCH   3   4
ENDBRANCH   2   3
ENDBRANCH   1   2
BRANCH   1  26
ATOM     26  C   UNL A   1      31.495  30.290  26.081  1.00  0.00     0.002 C 
BRANCH  26  27
ATOM     27  C   UNL A   1      31.399  31.772  26.461  1.00  0.00     0.021 C 
BRANCH  27  28
ATOM     28  C   UNL A   1      32.669  32.371  27.064  1.00  0.00     0.116 C 
BRANCH  28  29
ATOM     29  N   UNL A   1      32.504  33.781  27.381  1.00  0.00    -0.352 N 
ATOM     30  C   UNL A   1      33.124  34.509  28.368  1.00  0.00     0.251 C 
ATOM     31  H   UNL A   1      31.869  34.277  26.816  1.00  0.00     0.163 HD
ATOM     32  O   UNL A   1      32.719  35.631  28.657  1.00  0.00    -0.269 OA
BRANCH  30  33
ATOM     33  C   UNL A   1      34.272  33.923  29.092  1.00  0.00     0.039 A 
ATOM     34  C   UNL A   1      34.035  33.029  30.138  1.00  0.00     0.014 A 
ATOM     35  C   UNL A   1      35.583  34.252  28.729  1.00  0.00     0.014 A 
ATOM     36  C   UNL A   1      35.114  32.427  30.791  1.00  0.00     0.010 A 
ATOM     37  C   UNL A   1      36.654  33.603  29.338  1.00  0.00     0.010 A 
ATOM     38  C   UNL A   1      36.432  32.689  30.380  1.00  0.00    -0.014 A 
BRANCH  38  39
ATOM     39  C   UNL A   1      37.584  32.002  31.021  1.00  0.00     0.031 A 
ATOM     40  C   UNL A   1      38.366  30.959  30.271  1.00  0.00     0.074 A 
ATOM     41  C   UNL A   1      37.875  32.259  32.312  1.00  0.00     0.049 A 
ATOM     42  N   UNL A   1      39.387  30.246  30.674  1.00  0.00    -0.248 NA
ATOM     43  C   UNL A   1      37.932  30.657  28.897  1.00  0.00     0.031 C 
ATOM     44  C   UNL A   1      37.133  33.178  33.177  1.00  0.00     0.029 A 
ATOM     45  N   UNL A   1      38.853  31.749  33.130  1.00  0.00    -0.354 N 
ATOM     46  C   UNL A   1      39.692  29.389  29.624  1.00  0.00     0.074 A 
ATOM     47  C   UNL A   1      38.731  29.649  28.575  1.00  0.00     0.031 C 
ATOM     48  C   UNL A   1      37.681  33.165  34.404  1.00  0.00     0.029 A 
ATOM     49  C   UNL A   1      38.796  32.223  34.419  1.00  0.00     0.049 A 
ATOM     50  H   UNL A   1      39.531  31.106  32.822  1.00  0.00     0.167 HD
ATOM     51  C   UNL A   1      40.698  28.485  29.529  1.00  0.00     0.034 A 
ATOM     52  C   UNL A   1      39.551  31.929  35.496  1.00  0.00     0.034 A 
ATOM     53  C   UNL A   1      41.679  28.261  30.557  1.00  0.00     0.049 A 
ATOM     54  C   UNL A   1      40.700  30.969  35.347  1.00  0.00     0.074 A 
ATOM     55  C   UNL A   1      42.801  27.452  30.512  1.00  0.00     0.029 A 
ATOM     56  N   UNL A   1      41.649  28.831  31.819  1.00  0.00    -0.354 N 
ATOM     57  N   UNL A   1      41.090  30.310  34.282  1.00  0.00    -0.248 NA
ATOM     58  C   UNL A   1      41.537  30.743  36.533  1.00  0.00     0.031 C 
ATOM     59  C   UNL A   1      43.434  27.513  31.759  1.00  0.00     0.029 A 
ATOM     60  C   UNL A   1      42.721  28.381  32.570  1.00  0.00     0.049 A 
ATOM     61  H   UNL A   1      40.964  29.463  32.137  1.00  0.00     0.167 HD
ATOM     62  C   UNL A   1      42.232  29.614  34.662  1.00  0.00     0.074 A 
ATOM     63  C   UNL A   1      42.486  29.953  36.047  1.00  0.00     0.031 C 
ATOM     64  C   UNL A   1      42.991  28.757  33.934  1.00  0.00     0.034 A 
BRANCH  51  65
ATOM     65  C   UNL A   1      40.820  27.706  28.245  1.00  0.00     0.023 A 
ATOM     66  C   UNL A   1      41.507  28.270  27.151  1.00  0.00     0.012 A 
ATOM     67  C   UNL A   1      40.311  26.396  28.139  1.00  0.00     0.148 A 
ATOM     68  C   UNL A   1      41.653  27.560  25.959  1.00  0.00     0.002 A 
ATOM     69  C   UNL A   1      40.500  25.678  26.963  1.00  0.00     0.091 A 
ATOM     70  F   UNL A   1      39.643  25.883  29.181  1.00  0.00    -0.205 F 
ATOM     71  C   UNL A   1      41.159  26.263  25.869  1.00  0.00     0.022 A 
BRANCH  69  72
ATOM     72  S   UNL A   1      39.973  23.970  26.778  1.00  0.00     0.127 S 
ATOM     73  O   UNL A   1      39.913  23.528  28.171  1.00  0.00    -0.237 OA
ATOM     74  O   UNL A   1      38.669  24.118  26.130  1.00  0.00    -0.237 OA
ATOM     75  O   UNL A   1      40.988  23.324  25.959  1.00  0.00    -0.744 OA
ENDBRANCH  69  72
ENDBRANCH  51  65
BRANCH  52  76
ATOM     76  C   UNL A   1      39.280  32.607  36.796  1.00  0.00     0.023 A 
ATOM     77  C   UNL A   1      39.915  33.831  37.086  1.00  0.00     0.012 A 
ATOM     78  C   UNL A   1      38.366  32.070  37.723  1.00  0.00     0.148 A 
ATOM     79  C   UNL A   1      39.666  34.492  38.289  1.00  0.00     0.002 A 
ATOM     80  C   UNL A   1      38.079  32.763  38.893  1.00  0.00     0.091 A 
ATOM     81  F   UNL A   1      37.782  30.899  37.432  1.00  0.00    -0.205 F 
ATOM     82  C   UNL A   1      38.741  33.966  39.186  1.00  0.00     0.022 A 
BRANCH  80  83
ATOM     83  S   UNL A   1      36.800  32.231  40.036  1.00  0.00     0.127 S 
ATOM     84  O   UNL A   1      35.629  32.164  39.167  1.00  0.00    -0.237 OA
ATOM     85  O   UNL A   1      37.313  30.935  40.481  1.00  0.00    -0.237 OA
ATOM     86  O   UNL A   1      36.757  33.246  41.080  1.00  0.00    -0.744 OA
ENDBRANCH  80  83
ENDBRANCH  52  76
BRANCH  64  87
ATOM     87  C   UNL A   1      44.187  28.138  34.610  1.00  0.00     0.023 A 
ATOM     88  C   UNL A   1      45.423  28.814  34.603  1.00  0.00     0.012 A 
ATOM     89  C   UNL A   1      44.069  26.922  35.313  1.00  0.00     0.148 A 
ATOM     90  C   UNL A   1      46.532  28.274  35.253  1.00  0.00     0.002 A 
ATOM     91  C   UNL A   1      45.165  26.414  36.000  1.00  0.00     0.091 A 
ATOM     92  F   UNL A   1      42.890  26.284  35.294  1.00  0.00    -0.205 F 
ATOM     93  C   UNL A   1      46.401  27.081  35.961  1.00  0.00     0.022 A 
BRANCH  91  94
ATOM     94  S   UNL A   1      45.062  24.936  37.016  1.00  0.00     0.127 S 
ATOM     95  O   UNL A   1      46.333  24.981  37.737  1.00  0.00    -0.237 OA
ATOM     96  O   UNL A   1      43.883  25.204  37.839  1.00  0.00    -0.237 OA
ATOM     97  O   UNL A   1      44.908  23.823  36.088  1.00  0.00    -0.744 OA
ENDBRANCH  91  94
ENDBRANCH  64  87
ENDBRANCH  38  39
ENDBRANCH  30  33
ENDBRANCH  28  29
ENDBRANCH  27  28
ENDBRANCH  26  27
ENDBRANCH   1  26
TORSDOF 19
ENDMDL
MODEL 3
REMARK VINA RESULT:     -11.6      2.047      3.618
REMARK SMILES Cc1c(Cl)cccc1S(=O)(=O)N[C@H]1C=C[C@@H](C(=O)NCCCCCCNC(=O)c2ccc(-c3c4nc(c(-c5cccc(S(=O)(=O)[O-])c5F)c5ccc([nH]5)c(-c5cccc(S(=O)(=O)[O-])c5F)c5nc(c(-c6cccc(S(=O)(=O)[O-])c6F)c6ccc3[nH]6)C=C5)C=C4)cc2)C1
REMARK SMILES IDX 22 1 21 2 20 3 19 4 17 5 18 6 16 8 13 9 14 10 92 11 15 12
REMARK SMILES IDX 12 13 9 15 10 16 11 17 8 18 1 19 2 20 3 21 4 22 5 23 7 24
REMARK SMILES IDX 6 25 23 26 24 27 25 28 26 29 27 30 28 32 29 33 30 34 91 35
REMARK SMILES IDX 31 36 90 37 32 38 33 39 34 40 84 41 35 42 89 43 83 44 85 45
REMARK SMILES IDX 36 46 88 47 82 48 81 49 37 51 69 52 49 53 68 54 50 55 53 56
REMARK SMILES IDX 67 57 86 58 51 59 52 60 66 62 87 63 54 64 38 65 39 66 47 67
REMARK SMILES IDX 40 68 42 69 48 70 41 71 43 72 44 73 45 74 46 75 70 76 71 77
REMARK SMILES IDX 79 78 72 79 74 80 80 81 73 82 75 83 76 84 77 85 78 86 55 87
REMARK SMILES IDX 56 88 64 89 57 90 59 91 65 92 58 93 60 94 61 95 62 96 63 97
REMARK H PARENT 19 7 12 14 26 31 85 50 53 61
REMARK Flexibility Score: inf
ROOT
ATOM      1  C   UNL A   1      32.683  29.084  27.042  1.00  0.00     0.002 C 
ENDROOT
BRANCH   1   2
ATOM      2  C   UNL A   1      31.741  27.970  27.514  1.00  0.00     0.021 C 
BRANCH   2   3
ATOM      3  C   UNL A   1      31.190  27.058  26.411  1.00  0.00     0.116 C 
BRANCH   3   4
ATOM      4  N   UNL A   1      30.876  25.712  26.873  1.00  0.00    -0.356 N 
ATOM      5  C   UNL A   1      31.428  24.489  26.654  1.00  0.00     0.226 C 
ATOM      6  O   UNL A   1      30.872  23.542  27.230  1.00  0.00    -0.274 OA
ATOM      7  H   UNL A   1      30.097  25.682  27.473  1.00  0.00     0.163 HD
BRANCH   5   8
ATOM      8  C   UNL A   1      32.618  24.184  25.726  1.00  0.00     0.103 C 
ATOM      9  C   UNL A   1      33.191  25.643  23.821  1.00  0.00     0.093 C 
ATOM     10  C   UNL A   1      34.217  25.688  24.917  1.00  0.00    -0.011 C 
ATOM     11  C   UNL A   1      32.348  24.433  24.227  1.00  0.00     0.042 C 
ATOM     12  C   UNL A   1      33.907  24.897  25.951  1.00  0.00    -0.016 C 
BRANCH   9  13
ATOM     13  N   UNL A   1      32.410  26.886  23.871  1.00  0.00    -0.204 NA
ATOM     14  H   UNL A   1      31.596  26.706  24.458  1.00  0.00     0.142 HD
BRANCH  13  15
ATOM     15  S   UNL A   1      31.846  27.543  22.429  1.00  0.00     0.241 S 
ATOM     16  O   UNL A   1      31.637  26.456  21.496  1.00  0.00    -0.207 OA
ATOM     17  O   UNL A   1      32.781  28.611  22.144  1.00  0.00    -0.207 OA
BRANCH  15  18
ATOM     18  C   UNL A   1      30.255  28.353  22.618  1.00  0.00     0.086 A 
ATOM     19  C   UNL A   1      28.886  26.504  23.779  1.00  0.00     0.047 C 
ATOM     20  C   UNL A   1      29.060  27.848  23.165  1.00  0.00    -0.012 A 
ATOM     21  C   UNL A   1      27.915  28.684  23.148  1.00  0.00     0.045 A 
ATOM     22  Cl  UNL A   1      26.375  28.142  23.746  1.00  0.00    -0.084 Cl
ATOM     23  C   UNL A   1      27.958  29.985  22.652  1.00  0.00     0.021 A 
ATOM     24  C   UNL A   1      30.280  29.680  22.131  1.00  0.00     0.022 A 
ATOM     25  C   UNL A   1      29.147  30.491  22.153  1.00  0.00     0.003 A 
ENDBRANCH  15  18
ENDBRANCH  13  15
ENDBRANCH   9  13
ENDBRANCH   5   8
ENDBRANCH   3   4
ENDBRANCH   2   3
ENDBRANCH   1   2
BRANCH   1  26
ATOM     26  C   UNL A   1      32.019  30.157  26.176  1.00  0.00     0.002 C 
BRANCH  26  27
ATOM     27  C   UNL A   1      31.773  31.500  26.871  1.00  0.00     0.021 C 
BRANCH  27  28
ATOM     28  C   UNL A   1      33.031  32.313  27.176  1.00  0.00     0.116 C 
BRANCH  28  29
ATOM     29  N   UNL A   1      32.713  33.682  27.553  1.00  0.00    -0.352 N 
ATOM     30  C   UNL A   1      33.187  34.401  28.623  1.00  0.00     0.251 C 
ATOM     31  H   UNL A   1      32.078  34.152  26.967  1.00  0.00     0.163 HD
ATOM     32  O   UNL A   1      32.660  35.463  28.938  1.00  0.00    -0.269 OA
BRANCH  30  33
ATOM     33  C   UNL A   1      34.329  33.877  29.403  1.00  0.00     0.039 A 
ATOM     34  C   UNL A   1      34.085  33.016  30.474  1.00  0.00     0.014 A 
ATOM     35  C   UNL A   1      35.640  34.233  29.068  1.00  0.00     0.014 A 
ATOM     36  C   UNL A   1      35.160  32.470  31.182  1.00  0.00     0.010 A 
ATOM     37  C   UNL A   1      36.710  33.639  29.734  1.00  0.00     0.010 A 
ATOM     38  C   UNL A   1      36.482  32.758  30.802  1.00  0.00    -0.014 A 
BRANCH  38  39
ATOM     39  C   UNL A   1      37.633  32.130  31.504  1.00  0.00     0.031 A 
ATOM     40  C   UNL A   1      38.419  31.027  30.848  1.00  0.00     0.074 A 
ATOM     41  C   UNL A   1      37.919  32.497  32.768  1.00  0.00     0.049 A 
ATOM     42  N   UNL A   1      39.439  30.353  31.314  1.00  0.00    -0.248 NA
ATOM     43  C   UNL A   1      37.989  30.608  29.504  1.00  0.00     0.031 C 
ATOM     44  C   UNL A   1      37.174  33.486  33.549  1.00  0.00     0.029 A 
ATOM     45  N   UNL A   1      38.896  32.061  33.630  1.00  0.00    -0.354 N 
ATOM     46  C   UNL A   1      39.749  29.409  30.343  1.00  0.00     0.074 A 
ATOM     47  C   UNL A   1      38.791  29.577  29.272  1.00  0.00     0.031 C 
ATOM     48  C   UNL A   1      37.717  33.579  34.774  1.00  0.00     0.029 A 
ATOM     49  C   UNL A   1      38.834  32.643  34.874  1.00  0.00     0.049 A 
ATOM     50  H   UNL A   1      39.575  31.394  33.380  1.00  0.00     0.167 HD
ATOM     51  C   UNL A   1      40.756  28.502  30.329  1.00  0.00     0.034 A 
ATOM     52  C   UNL A   1      39.586  32.444  35.974  1.00  0.00     0.034 A 
ATOM     53  C   UNL A   1      41.733  28.368  31.376  1.00  0.00     0.049 A 
ATOM     54  C   UNL A   1      40.736  31.476  35.912  1.00  0.00     0.074 A 
ATOM     55  C   UNL A   1      42.857  27.561  31.403  1.00  0.00     0.029 A 
ATOM     56  N   UNL A   1      41.699  29.045  32.584  1.00  0.00    -0.354 N 
ATOM     57  N   UNL A   1      41.130  30.729  34.909  1.00  0.00    -0.248 NA
ATOM     58  C   UNL A   1      41.570  31.354  37.116  1.00  0.00     0.031 C 
ATOM     59  C   UNL A   1      43.486  27.729  32.642  1.00  0.00     0.029 A 
ATOM     60  C   UNL A   1      42.770  28.662  33.374  1.00  0.00     0.049 A 
ATOM     61  H   UNL A   1      41.012  29.701  32.844  1.00  0.00     0.167 HD
ATOM     62  C   UNL A   1      42.271  30.070  35.351  1.00  0.00     0.074 A 
ATOM     63  C   UNL A   1      42.521  30.528  36.702  1.00  0.00     0.031 C 
ATOM     64  C   UNL A   1      43.035  29.155  34.701  1.00  0.00     0.034 A 
BRANCH  51  65
ATOM     65  C   UNL A   1      40.883  27.616  29.117  1.00  0.00     0.023 A 
ATOM     66  C   UNL A   1      40.108  26.441  29.029  1.00  0.00     0.012 A 
ATOM     67  C   UNL A   1      41.720  27.972  28.041  1.00  0.00     0.148 A 
ATOM     68  C   UNL A   1      40.192  25.616  27.908  1.00  0.00     0.002 A 
ATOM     69  C   UNL A   1      41.764  27.167  26.908  1.00  0.00     0.091 A 
ATOM     70  F   UNL A   1      42.466  29.080  28.150  1.00  0.00    -0.205 F 
ATOM     71  C   UNL A   1      41.011  25.983  26.845  1.00  0.00     0.022 A 
BRANCH  69  72
ATOM     72  S   UNL A   1      42.726  27.598  25.453  1.00  0.00     0.127 S 
ATOM     73  O   UNL A   1      42.540  26.412  24.616  1.00  0.00    -0.237 OA
ATOM     74  O   UNL A   1      42.038  28.796  24.972  1.00  0.00    -0.237 OA
ATOM     75  O   UNL A   1      44.085  27.825  25.923  1.00  0.00    -0.744 OA
ENDBRANCH  69  72
ENDBRANCH  51  65
BRANCH  52  76
ATOM     76  C   UNL A   1      39.309  33.231  37.210  1.00  0.00     0.023 A 
ATOM     77  C   UNL A   1      38.367  32.753  38.141  1.00  0.00     0.012 A 
ATOM     78  C   UNL A   1      40.007  34.423  37.488  1.00  0.00     0.148 A 
ATOM     79  C   UNL A   1      38.101  33.464  39.312  1.00  0.00     0.002 A 
ATOM     80  C   UNL A   1      39.780  35.095  38.684  1.00  0.00     0.091 A 
ATOM     81  F   UNL A   1      40.892  34.866  36.584  1.00  0.00    -0.205 F 
ATOM     82  C   UNL A   1      38.816  34.626  39.589  1.00  0.00     0.022 A 
BRANCH  80  83
ATOM     83  S   UNL A   1      40.753  36.519  39.185  1.00  0.00     0.127 S 
ATOM     84  O   UNL A   1      40.190  37.576  38.349  1.00  0.00    -0.237 OA
ATOM     85  O   UNL A   1      40.428  36.620  40.609  1.00  0.00    -0.237 OA
ATOM     86  O   UNL A   1      42.139  36.166  38.912  1.00  0.00    -0.744 OA
ENDBRANCH  80  83
ENDBRANCH  52  76
BRANCH  64  87
ATOM     87  C   UNL A   1      44.228  28.598  35.432  1.00  0.00     0.023 A 
ATOM     88  C   UNL A   1      45.509  29.131  35.187  1.00  0.00     0.012 A 
ATOM     89  C   UNL A   1      44.073  27.597  36.411  1.00  0.00     0.148 A 
ATOM     90  C   UNL A   1      46.622  28.652  35.879  1.00  0.00     0.002 A 
ATOM     91  C   UNL A   1      45.178  27.159  37.132  1.00  0.00     0.091 A 
ATOM     92  F   UNL A   1      42.849  27.088  36.618  1.00  0.00    -0.205 F 
ATOM     93  C   UNL A   1      46.455  27.676  36.859  1.00  0.00     0.022 A 
BRANCH  91  94
ATOM     94  S   UNL A   1      45.041  25.975  38.477  1.00  0.00     0.127 S 
ATOM     95  O   UNL A   1      44.595  24.775  37.773  1.00  0.00    -0.237 OA
ATOM     96  O   UNL A   1      46.414  25.914  38.979  1.00  0.00    -0.237 OA
ATOM     97  O   UNL A   1      44.082  26.544  39.415  1.00  0.00    -0.744 OA
ENDBRANCH  91  94
ENDBRANCH  64  87
ENDBRANCH  38  39
ENDBRANCH  30  33
ENDBRANCH  28  29
ENDBRANCH  27  28
ENDBRANCH  26  27
ENDBRANCH   1  26
TORSDOF 19
ENDMDL
