MODEL 1
REMARK VINA RESULT:     -12.4      0.000      0.000
REMARK SMILES O=C(NCCCCCCNC(=O)c1cc(-c2ccsc2)nc2ccccc12)c1ccc(-c2c3nc(c(-c4cccc(S(=O)(=O)[O-])c4F)c4ccc([nH]4)c(-c4cccc(S(=O)(=O)[O-])c4F)c4nc(c(-c5cccc(S(=O)(=O)[O-])c5F)c5ccc2[nH]5)C=C4)C=C3)cc1
REMARK SMILES IDX 5 1 4 2 3 3 1 4 2 5 28 7 29 8 90 9 30 10 89 11 31 12 32 13
REMARK SMILES IDX 33 14 83 15 34 16 88 17 82 18 84 19 35 20 87 21 81 22 80 23
REMARK SMILES IDX 36 25 68 26 48 27 67 28 49 29 52 30 66 31 85 32 50 33 51 34
REMARK SMILES IDX 65 36 86 37 53 38 37 39 38 40 46 41 39 42 41 43 47 44 40 45
REMARK SMILES IDX 42 46 43 47 44 48 45 49 69 50 70 51 78 52 71 53 73 54 79 55
REMARK SMILES IDX 72 56 74 57 75 58 76 59 77 60 54 61 55 62 63 63 56 64 58 65
REMARK SMILES IDX 64 66 57 67 59 68 60 69 61 70 62 71 6 72 7 73 8 74 9 75
REMARK SMILES IDX 10 76 11 77 12 79 13 80 14 81 27 82 15 83 22 84 26 85 21 86
REMARK SMILES IDX 23 87 25 88 24 89 16 90 17 91 20 92 18 93 19 94
REMARK H PARENT 3 6 84 24 52 35 10 78
REMARK Flexibility Score: inf
ROOT
ATOM      1  C   UNL A   1      31.494  31.906  26.586  1.00  0.00     0.021 C 
ENDROOT
BRANCH   1   2
ATOM      2  C   UNL A   1      32.758  32.509  27.187  1.00  0.00     0.116 C 
BRANCH   2   3
ATOM      3  N   UNL A   1      32.549  33.866  27.662  1.00  0.00    -0.352 N 
ATOM      4  O   UNL A   1      32.746  35.614  29.066  1.00  0.00    -0.269 OA
ATOM      5  C   UNL A   1      33.182  34.532  28.681  1.00  0.00     0.251 C 
ATOM      6  H   UNL A   1      31.857  34.379  27.186  1.00  0.00     0.163 HD
BRANCH   5   7
ATOM      7  C   UNL A   1      34.370  33.930  29.324  1.00  0.00     0.039 A 
ATOM      8  C   UNL A   1      34.228  32.986  30.346  1.00  0.00     0.014 A 
ATOM      9  C   UNL A   1      35.643  34.308  28.889  1.00  0.00     0.014 A 
ATOM     10  C   UNL A   1      35.352  32.512  31.015  1.00  0.00     0.010 A 
ATOM     11  C   UNL A   1      36.772  33.773  29.509  1.00  0.00     0.010 A 
ATOM     12  C   UNL A   1      36.636  32.889  30.593  1.00  0.00    -0.014 A 
BRANCH  12  13
ATOM     13  C   UNL A   1      37.834  32.292  31.232  1.00  0.00     0.031 A 
ATOM     14  C   UNL A   1      38.564  31.147  30.592  1.00  0.00     0.074 A 
ATOM     15  C   UNL A   1      38.223  32.755  32.435  1.00  0.00     0.049 A 
ATOM     16  N   UNL A   1      39.580  30.462  31.047  1.00  0.00    -0.248 NA
ATOM     17  C   UNL A   1      38.085  30.705  29.273  1.00  0.00     0.031 C 
ATOM     18  C   UNL A   1      37.560  33.832  33.173  1.00  0.00     0.029 A 
ATOM     19  N   UNL A   1      39.240  32.359  33.266  1.00  0.00    -0.354 N 
ATOM     20  C   UNL A   1      39.833  29.477  30.101  1.00  0.00     0.074 A 
ATOM     21  C   UNL A   1      38.861  29.654  29.042  1.00  0.00     0.031 C 
ATOM     22  C   UNL A   1      38.174  34.000  34.352  1.00  0.00     0.029 A 
ATOM     23  C   UNL A   1      39.237  33.008  34.477  1.00  0.00     0.049 A 
ATOM     24  H   UNL A   1      39.907  31.678  33.018  1.00  0.00     0.167 HD
ATOM     25  C   UNL A   1      40.793  28.520  30.110  1.00  0.00     0.034 A 
ATOM     26  C   UNL A   1      39.972  32.803  35.586  1.00  0.00     0.034 A 
ATOM     27  C   UNL A   1      41.764  28.367  31.161  1.00  0.00     0.049 A 
ATOM     28  C   UNL A   1      41.033  31.744  35.573  1.00  0.00     0.074 A 
ATOM     29  C   UNL A   1      42.830  27.485  31.224  1.00  0.00     0.029 A 
ATOM     30  N   UNL A   1      41.776  29.092  32.344  1.00  0.00    -0.354 N 
ATOM     31  N   UNL A   1      41.354  30.917  34.607  1.00  0.00    -0.248 NA
ATOM     32  C   UNL A   1      41.855  31.606  36.783  1.00  0.00     0.031 C 
ATOM     33  C   UNL A   1      43.460  27.651  32.461  1.00  0.00     0.029 A 
ATOM     34  C   UNL A   1      42.815  28.663  33.153  1.00  0.00     0.049 A 
ATOM     35  H   UNL A   1      41.138  29.806  32.574  1.00  0.00     0.167 HD
ATOM     36  C   UNL A   1      42.433  30.180  35.079  1.00  0.00     0.074 A 
ATOM     37  C   UNL A   1      42.718  30.668  36.413  1.00  0.00     0.031 C 
ATOM     38  C   UNL A   1      43.118  29.187  34.462  1.00  0.00     0.034 A 
BRANCH  25  39
ATOM     39  C   UNL A   1      40.845  27.570  28.942  1.00  0.00     0.023 A 
ATOM     40  C   UNL A   1      39.940  26.490  28.872  1.00  0.00     0.012 A 
ATOM     41  C   UNL A   1      41.762  27.767  27.890  1.00  0.00     0.148 A 
ATOM     42  C   UNL A   1      39.979  25.598  27.800  1.00  0.00     0.002 A 
ATOM     43  C   UNL A   1      41.764  26.901  26.804  1.00  0.00     0.091 A 
ATOM     44  F   UNL A   1      42.629  28.787  27.980  1.00  0.00    -0.205 F 
ATOM     45  C   UNL A   1      40.884  25.808  26.763  1.00  0.00     0.022 A 
BRANCH  43  46
ATOM     46  S   UNL A   1      42.838  27.139  25.384  1.00  0.00     0.127 S 
ATOM     47  O   UNL A   1      44.140  27.325  26.027  1.00  0.00    -0.237 OA
ATOM     48  O   UNL A   1      42.691  25.873  24.666  1.00  0.00    -0.237 OA
ATOM     49  O   UNL A   1      42.313  28.298  24.677  1.00  0.00    -0.744 OA
ENDBRANCH  43  46
ENDBRANCH  25  39
BRANCH  26  50
ATOM     50  C   UNL A   1      39.717  33.647  36.785  1.00  0.00     0.023 A 
ATOM     51  C   UNL A   1      40.052  35.014  36.761  1.00  0.00     0.012 A 
ATOM     52  C   UNL A   1      39.057  33.118  37.913  1.00  0.00     0.148 A 
ATOM     53  C   UNL A   1      39.744  35.837  37.844  1.00  0.00     0.002 A 
ATOM     54  C   UNL A   1      38.701  33.954  38.962  1.00  0.00     0.091 A 
ATOM     55  F   UNL A   1      38.753  31.812  37.913  1.00  0.00    -0.205 F 
ATOM     56  C   UNL A   1      39.058  35.311  38.937  1.00  0.00     0.022 A 
BRANCH  54  57
ATOM     57  S   UNL A   1      37.689  33.400  40.338  1.00  0.00     0.127 S 
ATOM     58  O   UNL A   1      36.427  33.084  39.673  1.00  0.00    -0.237 OA
ATOM     59  O   UNL A   1      38.443  32.240  40.814  1.00  0.00    -0.237 OA
ATOM     60  O   UNL A   1      37.645  34.516  41.273  1.00  0.00    -0.744 OA
ENDBRANCH  54  57
ENDBRANCH  26  50
BRANCH  38  61
ATOM     61  C   UNL A   1      44.280  28.574  35.197  1.00  0.00     0.023 A 
ATOM     62  C   UNL A   1      45.581  29.079  35.007  1.00  0.00     0.012 A 
ATOM     63  C   UNL A   1      44.061  27.565  36.157  1.00  0.00     0.148 A 
ATOM     64  C   UNL A   1      46.649  28.578  35.751  1.00  0.00     0.002 A 
ATOM     65  C   UNL A   1      45.120  27.107  36.929  1.00  0.00     0.091 A 
ATOM     66  F   UNL A   1      42.817  27.087  36.306  1.00  0.00    -0.205 F 
ATOM     67  C   UNL A   1      46.417  27.605  36.720  1.00  0.00     0.022 A 
BRANCH  65  68
ATOM     68  S   UNL A   1      44.902  25.931  38.269  1.00  0.00     0.127 S 
ATOM     69  O   UNL A   1      44.255  24.813  37.583  1.00  0.00    -0.237 OA
ATOM     70  O   UNL A   1      46.281  25.678  38.685  1.00  0.00    -0.237 OA
ATOM     71  O   UNL A   1      44.080  26.603  39.268  1.00  0.00    -0.744 OA
ENDBRANCH  65  68
ENDBRANCH  38  61
ENDBRANCH  12  13
ENDBRANCH   5   7
ENDBRANCH   2   3
ENDBRANCH   1   2
BRANCH   1  72
ATOM     72  C   UNL A   1      31.635  30.466  26.093  1.00  0.00     0.002 C 
BRANCH  72  73
ATOM     73  C   UNL A   1      31.730  29.399  27.189  1.00  0.00     0.002 C 
BRANCH  73  74
ATOM     74  C   UNL A   1      33.010  28.557  27.188  1.00  0.00     0.021 C 
BRANCH  74  75
ATOM     75  C   UNL A   1      32.927  27.255  26.400  1.00  0.00     0.116 C 
BRANCH  75  76
ATOM     76  N   UNL A   1      31.734  26.483  26.713  1.00  0.00    -0.352 N 
ATOM     77  C   UNL A   1      30.669  26.181  25.902  1.00  0.00     0.252 C 
ATOM     78  H   UNL A   1      31.683  26.131  27.630  1.00  0.00     0.163 HD
ATOM     79  O   UNL A   1      29.702  25.566  26.340  1.00  0.00    -0.269 OA
BRANCH  77  80
ATOM     80  C   UNL A   1      30.654  26.657  24.506  1.00  0.00     0.051 A 
ATOM     81  C   UNL A   1      29.942  27.830  24.270  1.00  0.00     0.043 A 
ATOM     82  C   UNL A   1      31.331  25.986  23.462  1.00  0.00     0.013 A 
ATOM     83  C   UNL A   1      29.957  28.334  22.987  1.00  0.00     0.073 A 
ATOM     84  C   UNL A   1      31.327  26.628  22.211  1.00  0.00     0.072 A 
ATOM     85  C   UNL A   1      32.003  24.745  23.597  1.00  0.00     0.011 A 
ATOM     86  N   UNL A   1      30.644  27.761  21.974  1.00  0.00    -0.248 NA
ATOM     87  C   UNL A   1      32.070  26.072  21.177  1.00  0.00     0.029 A 
ATOM     88  C   UNL A   1      32.739  24.207  22.545  1.00  0.00     0.001 A 
ATOM     89  C   UNL A   1      32.788  24.884  21.337  1.00  0.00     0.002 A 
BRANCH  83  90
ATOM     90  C   UNL A   1      29.183  29.513  22.633  1.00  0.00     0.011 A 
ATOM     91  C   UNL A   1      28.095  30.068  23.380  1.00  0.00     0.022 A 
ATOM     92  C   UNL A   1      29.421  30.235  21.480  1.00  0.00     0.075 A 
ATOM     93  C   UNL A   1      27.576  31.200  22.790  1.00  0.00     0.065 A 
ATOM     94  S   UNL A   1      28.371  31.580  21.325  1.00  0.00    -0.152 S 
ENDBRANCH  83  90
ENDBRANCH  77  80
ENDBRANCH  75  76
ENDBRANCH  74  75
ENDBRANCH  73  74
ENDBRANCH  72  73
ENDBRANCH   1  72
TORSDOF 17
ENDMDL
MODEL 2
REMARK VINA RESULT:     -12.4      6.624     11.751
REMARK SMILES O=C(NCCCCCCNC(=O)c1cc(-c2ccsc2)nc2ccccc12)c1ccc(-c2c3nc(c(-c4cccc(S(=O)(=O)[O-])c4F)c4ccc([nH]4)c(-c4cccc(S(=O)(=O)[O-])c4F)c4nc(c(-c5cccc(S(=O)(=O)[O-])c5F)c5ccc2[nH]5)C=C4)C=C3)cc1
REMARK SMILES IDX 5 1 4 2 3 3 1 4 2 5 28 7 29 8 90 9 30 10 89 11 31 12 32 13
REMARK SMILES IDX 33 14 83 15 34 16 88 17 82 18 84 19 35 20 87 21 81 22 80 23
REMARK SMILES IDX 36 25 68 26 48 27 67 28 49 29 52 30 66 31 85 32 50 33 51 34
REMARK SMILES IDX 65 36 86 37 53 38 37 39 38 40 46 41 39 42 41 43 47 44 40 45
REMARK SMILES IDX 42 46 43 47 44 48 45 49 69 50 70 51 78 52 71 53 73 54 79 55
REMARK SMILES IDX 72 56 74 57 75 58 76 59 77 60 54 61 55 62 63 63 56 64 58 65
REMARK SMILES IDX 64 66 57 67 59 68 60 69 61 70 62 71 6 72 7 73 8 74 9 75
REMARK SMILES IDX 10 76 11 77 12 79 13 80 14 81 27 82 15 83 22 84 26 85 21 86
REMARK SMILES IDX 23 87 25 88 24 89 16 90 17 91 20 92 18 93 19 94
REMARK H PARENT 3 6 84 24 52 35 10 78
REMARK Flexibility Score: inf
ROOT
ATOM      1  C   UNL A   1      38.115  19.938  24.965  1.00  0.00     0.021 C 
ENDROOT
BRANCH   1   2
ATOM      2  C   UNL A   1      39.096  20.128  26.114  1.00  0.00     0.116 C 
BRANCH   2   3
ATOM      3  N   UNL A   1      40.255  19.260  26.000  1.00  0.00    -0.352 N 
ATOM      4  O   UNL A   1      42.430  18.745  25.736  1.00  0.00    -0.269 OA
ATOM      5  C   UNL A   1      41.588  19.587  26.037  1.00  0.00     0.251 C 
ATOM      6  H   UNL A   1      40.057  18.303  25.878  1.00  0.00     0.163 HD
BRANCH   5   7
ATOM      7  C   UNL A   1      41.997  20.956  26.417  1.00  0.00     0.039 A 
ATOM      8  C   UNL A   1      42.253  21.280  27.752  1.00  0.00     0.014 A 
ATOM      9  C   UNL A   1      42.138  21.923  25.419  1.00  0.00     0.014 A 
ATOM     10  C   UNL A   1      42.529  22.597  28.107  1.00  0.00     0.010 A 
ATOM     11  C   UNL A   1      42.491  23.227  25.767  1.00  0.00     0.010 A 
ATOM     12  C   UNL A   1      42.666  23.581  27.115  1.00  0.00    -0.014 A 
BRANCH  12  13
ATOM     13  C   UNL A   1      43.075  24.958  27.487  1.00  0.00     0.031 A 
ATOM     14  C   UNL A   1      42.103  25.910  28.121  1.00  0.00     0.074 A 
ATOM     15  C   UNL A   1      44.323  25.364  27.187  1.00  0.00     0.049 A 
ATOM     16  N   UNL A   1      42.272  27.167  28.441  1.00  0.00    -0.248 NA
ATOM     17  C   UNL A   1      40.762  25.389  28.426  1.00  0.00     0.031 C 
ATOM     18  C   UNL A   1      45.337  24.539  26.527  1.00  0.00     0.029 A 
ATOM     19  N   UNL A   1      44.941  26.576  27.361  1.00  0.00    -0.354 N 
ATOM     20  C   UNL A   1      41.051  27.603  28.938  1.00  0.00     0.074 A 
ATOM     21  C   UNL A   1      40.146  26.474  28.877  1.00  0.00     0.031 C 
ATOM     22  C   UNL A   1      46.443  25.271  26.336  1.00  0.00     0.029 A 
ATOM     23  C   UNL A   1      46.198  26.630  26.808  1.00  0.00     0.049 A 
ATOM     24  H   UNL A   1      44.525  27.332  27.835  1.00  0.00     0.167 HD
ATOM     25  C   UNL A   1      40.718  28.829  29.409  1.00  0.00     0.034 A 
ATOM     26  C   UNL A   1      47.046  27.664  26.651  1.00  0.00     0.034 A 
ATOM     27  C   UNL A   1      41.633  29.938  29.481  1.00  0.00     0.049 A 
ATOM     28  C   UNL A   1      46.661  29.010  27.186  1.00  0.00     0.074 A 
ATOM     29  C   UNL A   1      41.420  31.195  30.020  1.00  0.00     0.029 A 
ATOM     30  N   UNL A   1      42.925  29.935  28.976  1.00  0.00    -0.354 N 
ATOM     31  N   UNL A   1      45.552  29.368  27.787  1.00  0.00    -0.248 NA
ATOM     32  C   UNL A   1      47.649  30.089  27.053  1.00  0.00     0.031 C 
ATOM     33  C   UNL A   1      42.568  31.963  29.805  1.00  0.00     0.029 A 
ATOM     34  C   UNL A   1      43.513  31.174  29.170  1.00  0.00     0.049 A 
ATOM     35  H   UNL A   1      43.359  29.165  28.542  1.00  0.00     0.167 HD
ATOM     36  C   UNL A   1      45.717  30.703  28.132  1.00  0.00     0.074 A 
ATOM     37  C   UNL A   1      47.040  31.088  27.682  1.00  0.00     0.031 C 
ATOM     38  C   UNL A   1      44.848  31.533  28.758  1.00  0.00     0.034 A 
BRANCH  25  39
ATOM     39  C   UNL A   1      39.306  29.033  29.894  1.00  0.00     0.023 A 
ATOM     40  C   UNL A   1      38.954  28.668  31.210  1.00  0.00     0.012 A 
ATOM     41  C   UNL A   1      38.335  29.626  29.063  1.00  0.00     0.148 A 
ATOM     42  C   UNL A   1      37.651  28.846  31.674  1.00  0.00     0.002 A 
ATOM     43  C   UNL A   1      37.050  29.842  29.547  1.00  0.00     0.091 A 
ATOM     44  F   UNL A   1      38.678  29.951  27.808  1.00  0.00    -0.205 F 
ATOM     45  C   UNL A   1      36.702  29.439  30.846  1.00  0.00     0.022 A 
BRANCH  43  46
ATOM     46  S   UNL A   1      35.784  30.673  28.581  1.00  0.00     0.127 S 
ATOM     47  O   UNL A   1      35.092  29.541  27.965  1.00  0.00    -0.237 OA
ATOM     48  O   UNL A   1      35.013  31.369  29.612  1.00  0.00    -0.237 OA
ATOM     49  O   UNL A   1      36.496  31.552  27.665  1.00  0.00    -0.744 OA
ENDBRANCH  43  46
ENDBRANCH  25  39
BRANCH  26  50
ATOM     50  C   UNL A   1      48.346  27.431  25.966  1.00  0.00     0.023 A 
ATOM     51  C   UNL A   1      49.438  26.924  26.694  1.00  0.00     0.012 A 
ATOM     52  C   UNL A   1      48.473  27.622  24.575  1.00  0.00     0.148 A 
ATOM     53  C   UNL A   1      50.638  26.622  26.051  1.00  0.00     0.002 A 
ATOM     54  C   UNL A   1      49.649  27.264  23.932  1.00  0.00     0.091 A 
ATOM     55  F   UNL A   1      47.419  28.110  23.905  1.00  0.00    -0.205 F 
ATOM     56  C   UNL A   1      50.740  26.779  24.670  1.00  0.00     0.022 A 
BRANCH  54  57
ATOM     57  S   UNL A   1      49.820  27.290  22.144  1.00  0.00     0.127 S 
ATOM     58  O   UNL A   1      51.197  26.837  21.969  1.00  0.00    -0.237 OA
ATOM     59  O   UNL A   1      48.797  26.328  21.733  1.00  0.00    -0.237 OA
ATOM     60  O   UNL A   1      49.552  28.663  21.740  1.00  0.00    -0.744 OA
ENDBRANCH  54  57
ENDBRANCH  26  50
BRANCH  38  61
ATOM     61  C   UNL A   1      45.301  32.941  29.041  1.00  0.00     0.023 A 
ATOM     62  C   UNL A   1      46.037  33.224  30.208  1.00  0.00     0.012 A 
ATOM     63  C   UNL A   1      45.086  33.961  28.092  1.00  0.00     0.148 A 
ATOM     64  C   UNL A   1      46.539  34.505  30.434  1.00  0.00     0.002 A 
ATOM     65  C   UNL A   1      45.631  35.220  28.300  1.00  0.00     0.091 A 
ATOM     66  F   UNL A   1      44.366  33.672  26.999  1.00  0.00    -0.205 F 
ATOM     67  C   UNL A   1      46.349  35.498  29.475  1.00  0.00     0.022 A 
BRANCH  65  68
ATOM     68  S   UNL A   1      45.526  36.532  27.077  1.00  0.00     0.127 S 
ATOM     69  O   UNL A   1      46.258  37.613  27.735  1.00  0.00    -0.237 OA
ATOM     70  O   UNL A   1      46.213  35.939  25.930  1.00  0.00    -0.237 OA
ATOM     71  O   UNL A   1      44.105  36.781  26.872  1.00  0.00    -0.744 OA
ENDBRANCH  65  68
ENDBRANCH  38  61
ENDBRANCH  12  13
ENDBRANCH   5   7
ENDBRANCH   2   3
ENDBRANCH   1   2
BRANCH   1  72
ATOM     72  C   UNL A   1      36.953  20.931  24.934  1.00  0.00     0.002 C 
BRANCH  72  73
ATOM     73  C   UNL A   1      37.295  22.333  24.422  1.00  0.00     0.002 C 
BRANCH  73  74
ATOM     74  C   UNL A   1      36.892  23.493  25.338  1.00  0.00     0.021 C 
BRANCH  74  75
ATOM     75  C   UNL A   1      35.479  24.023  25.128  1.00  0.00     0.116 C 
BRANCH  75  76
ATOM     76  N   UNL A   1      35.087  24.038  23.727  1.00  0.00    -0.352 N 
ATOM     77  C   UNL A   1      34.049  23.377  23.118  1.00  0.00     0.252 C 
ATOM     78  H   UNL A   1      35.641  24.596  23.135  1.00  0.00     0.163 HD
ATOM     79  O   UNL A   1      33.888  23.446  21.904  1.00  0.00    -0.269 OA
BRANCH  77  80
ATOM     80  C   UNL A   1      33.155  22.521  23.921  1.00  0.00     0.051 A 
ATOM     81  C   UNL A   1      33.427  21.156  23.885  1.00  0.00     0.043 A 
ATOM     82  C   UNL A   1      32.095  23.039  24.699  1.00  0.00     0.013 A 
ATOM     83  C   UNL A   1      32.647  20.334  24.670  1.00  0.00     0.073 A 
ATOM     84  C   UNL A   1      31.411  22.112  25.505  1.00  0.00     0.072 A 
ATOM     85  C   UNL A   1      31.697  24.400  24.723  1.00  0.00     0.011 A 
ATOM     86  N   UNL A   1      31.666  20.793  25.479  1.00  0.00    -0.248 NA
ATOM     87  C   UNL A   1      30.435  22.583  26.374  1.00  0.00     0.029 A 
ATOM     88  C   UNL A   1      30.713  24.846  25.602  1.00  0.00     0.001 A 
ATOM     89  C   UNL A   1      30.094  23.936  26.444  1.00  0.00     0.002 A 
BRANCH  83  90
ATOM     90  C   UNL A   1      32.811  18.889  24.641  1.00  0.00     0.011 A 
ATOM     91  C   UNL A   1      33.029  18.085  23.477  1.00  0.00     0.022 A 
ATOM     92  C   UNL A   1      32.752  18.115  25.784  1.00  0.00     0.075 A 
ATOM     93  C   UNL A   1      33.162  16.747  23.780  1.00  0.00     0.065 A 
ATOM     94  S   UNL A   1      32.993  16.451  25.456  1.00  0.00    -0.152 S 
ENDBRANCH  83  90
ENDBRANCH  77  80
ENDBRANCH  75  76
ENDBRANCH  74  75
ENDBRANCH  73  74
ENDBRANCH  72  73
ENDBRANCH   1  72
TORSDOF 17
ENDMDL
MODEL 3
REMARK VINA RESULT:     -12.3      1.313      1.655
REMARK SMILES O=C(NCCCCCCNC(=O)c1cc(-c2ccsc2)nc2ccccc12)c1ccc(-c2c3nc(c(-c4cccc(S(=O)(=O)[O-])c4F)c4ccc([nH]4)c(-c4cccc(S(=O)(=O)[O-])c4F)c4nc(c(-c5cccc(S(=O)(=O)[O-])c5F)c5ccc2[nH]5)C=C4)C=C3)cc1
REMARK SMILES IDX 5 1 4 2 3 3 1 4 2 5 28 7 29 8 90 9 30 10 89 11 31 12 32 13
REMARK SMILES IDX 33 14 83 15 34 16 88 17 82 18 84 19 35 20 87 21 81 22 80 23
REMARK SMILES IDX 36 25 68 26 48 27 67 28 49 29 52 30 66 31 85 32 50 33 51 34
REMARK SMILES IDX 65 36 86 37 53 38 37 39 38 40 46 41 39 42 41 43 47 44 40 45
REMARK SMILES IDX 42 46 43 47 44 48 45 49 69 50 70 51 78 52 71 53 73 54 79 55
REMARK SMILES IDX 72 56 74 57 75 58 76 59 77 60 54 61 55 62 63 63 56 64 58 65
REMARK SMILES IDX 64 66 57 67 59 68 60 69 61 70 62 71 6 72 7 73 8 74 9 75
REMARK SMILES IDX 10 76 11 77 12 79 13 80 14 81 27 82 15 83 22 84 26 85 21 86
REMARK SMILES IDX 23 87 25 88 24 89 16 90 17 91 20 92 18 93 19 94
REMARK H PARENT 3 6 84 24 52 35 10 78
REMARK Flexibility Score: inf
ROOT
ATOM      1  C   UNL A   1      31.429  31.736  26.641  1.00  0.00     0.021 C 
ENDROOT
BRANCH   1   2
ATOM      2  C   UNL A   1      32.741  32.476  26.869  1.00  0.00     0.116 C 
BRANCH   2   3
ATOM      3  N   UNL A   1      32.537  33.799  27.433  1.00  0.00    -0.352 N 
ATOM      4  O   UNL A   1      32.746  35.452  28.946  1.00  0.00    -0.269 OA
ATOM      5  C   UNL A   1      33.178  34.397  28.489  1.00  0.00     0.251 C 
ATOM      6  H   UNL A   1      31.841  34.342  26.998  1.00  0.00     0.163 HD
BRANCH   5   7
ATOM      7  C   UNL A   1      34.371  33.755  29.082  1.00  0.00     0.039 A 
ATOM      8  C   UNL A   1      34.239  32.662  29.943  1.00  0.00     0.014 A 
ATOM      9  C   UNL A   1      35.638  34.248  28.759  1.00  0.00     0.014 A 
ATOM     10  C   UNL A   1      35.361  32.139  30.579  1.00  0.00     0.010 A 
ATOM     11  C   UNL A   1      36.769  33.672  29.338  1.00  0.00     0.010 A 
ATOM     12  C   UNL A   1      36.639  32.630  30.270  1.00  0.00    -0.014 A 
BRANCH  12  13
ATOM     13  C   UNL A   1      37.842  31.992  30.861  1.00  0.00     0.031 A 
ATOM     14  C   UNL A   1      38.603  30.934  30.116  1.00  0.00     0.074 A 
ATOM     15  C   UNL A   1      38.208  32.336  32.110  1.00  0.00     0.049 A 
ATOM     16  N   UNL A   1      39.627  30.225  30.512  1.00  0.00    -0.248 NA
ATOM     17  C   UNL A   1      38.147  30.620  28.753  1.00  0.00     0.031 C 
ATOM     18  C   UNL A   1      37.515  33.319  32.946  1.00  0.00     0.029 A 
ATOM     19  N   UNL A   1      39.224  31.876  32.909  1.00  0.00    -0.354 N 
ATOM     20  C   UNL A   1      39.911  29.348  29.473  1.00  0.00     0.074 A 
ATOM     21  C   UNL A   1      38.947  29.614  28.425  1.00  0.00     0.031 C 
ATOM     22  C   UNL A   1      38.112  33.376  34.144  1.00  0.00     0.029 A 
ATOM     23  C   UNL A   1      39.194  32.398  34.181  1.00  0.00     0.049 A 
ATOM     24  H   UNL A   1      39.907  31.238  32.602  1.00  0.00     0.167 HD
ATOM     25  C   UNL A   1      40.889  28.414  29.396  1.00  0.00     0.034 A 
ATOM     26  C   UNL A   1      39.920  32.093  35.272  1.00  0.00     0.034 A 
ATOM     27  C   UNL A   1      41.852  28.171  30.439  1.00  0.00     0.049 A 
ATOM     28  C   UNL A   1      41.002  31.062  35.164  1.00  0.00     0.074 A 
ATOM     29  C   UNL A   1      42.935  27.309  30.426  1.00  0.00     0.029 A 
ATOM     30  N   UNL A   1      41.836  28.771  31.690  1.00  0.00    -0.354 N 
ATOM     31  N   UNL A   1      41.351  30.345  34.123  1.00  0.00    -0.248 NA
ATOM     32  C   UNL A   1      41.813  30.816  36.364  1.00  0.00     0.031 C 
ATOM     33  C   UNL A   1      43.548  27.358  31.681  1.00  0.00     0.029 A 
ATOM     34  C   UNL A   1      42.874  28.281  32.465  1.00  0.00     0.049 A 
ATOM     35  H   UNL A   1      41.181  29.445  31.983  1.00  0.00     0.167 HD
ATOM     36  C   UNL A   1      42.440  29.584  34.531  1.00  0.00     0.074 A 
ATOM     37  C   UNL A   1      42.700  29.937  35.912  1.00  0.00     0.031 C 
ATOM     38  C   UNL A   1      43.152  28.673  33.824  1.00  0.00     0.034 A 
BRANCH  25  39
ATOM     39  C   UNL A   1      40.974  27.590  28.138  1.00  0.00     0.023 A 
ATOM     40  C   UNL A   1      41.595  28.122  26.989  1.00  0.00     0.012 A 
ATOM     41  C   UNL A   1      40.477  26.271  28.102  1.00  0.00     0.148 A 
ATOM     42  C   UNL A   1      41.678  27.374  25.814  1.00  0.00     0.002 A 
ATOM     43  C   UNL A   1      40.604  25.517  26.942  1.00  0.00     0.091 A 
ATOM     44  F   UNL A   1      39.872  25.785  29.196  1.00  0.00    -0.205 F 
ATOM     45  C   UNL A   1      41.190  26.070  25.793  1.00  0.00     0.022 A 
BRANCH  43  46
ATOM     46  S   UNL A   1      40.078  23.801  26.848  1.00  0.00     0.127 S 
ATOM     47  O   UNL A   1      38.679  23.944  26.444  1.00  0.00    -0.237 OA
ATOM     48  O   UNL A   1      40.958  23.263  25.810  1.00  0.00    -0.237 OA
ATOM     49  O   UNL A   1      40.298  23.244  28.174  1.00  0.00    -0.744 OA
ENDBRANCH  43  46
ENDBRANCH  25  39
BRANCH  26  50
ATOM     50  C   UNL A   1      39.635  32.805  36.548  1.00  0.00     0.023 A 
ATOM     51  C   UNL A   1      40.235  34.052  36.801  1.00  0.00     0.012 A 
ATOM     52  C   UNL A   1      38.697  32.290  37.466  1.00  0.00     0.148 A 
ATOM     53  C   UNL A   1      39.914  34.770  37.953  1.00  0.00     0.002 A 
ATOM     54  C   UNL A   1      38.339  33.037  38.580  1.00  0.00     0.091 A 
ATOM     55  F   UNL A   1      38.143  31.098  37.204  1.00  0.00    -0.205 F 
ATOM     56  C   UNL A   1      38.958  34.271  38.834  1.00  0.00     0.022 A 
BRANCH  54  57
ATOM     57  S   UNL A   1      37.013  32.545  39.687  1.00  0.00     0.127 S 
ATOM     58  O   UNL A   1      37.454  31.217  40.109  1.00  0.00    -0.237 OA
ATOM     59  O   UNL A   1      37.089  33.577  40.721  1.00  0.00    -0.237 OA
ATOM     60  O   UNL A   1      35.796  32.579  38.889  1.00  0.00    -0.744 OA
ENDBRANCH  54  57
ENDBRANCH  26  50
BRANCH  38  61
ATOM     61  C   UNL A   1      44.318  28.010  34.508  1.00  0.00     0.023 A 
ATOM     62  C   UNL A   1      45.575  28.644  34.532  1.00  0.00     0.012 A 
ATOM     63  C   UNL A   1      44.134  26.806  35.218  1.00  0.00     0.148 A 
ATOM     64  C   UNL A   1      46.637  28.081  35.240  1.00  0.00     0.002 A 
ATOM     65  C   UNL A   1      45.181  26.278  35.961  1.00  0.00     0.091 A 
ATOM     66  F   UNL A   1      42.934  26.211  35.164  1.00  0.00    -0.205 F 
ATOM     67  C   UNL A   1      46.437  26.909  35.965  1.00  0.00     0.022 A 
BRANCH  65  68
ATOM     68  S   UNL A   1      44.990  24.830  37.007  1.00  0.00     0.127 S 
ATOM     69  O   UNL A   1      46.332  24.690  37.571  1.00  0.00    -0.237 OA
ATOM     70  O   UNL A   1      43.970  25.270  37.958  1.00  0.00    -0.237 OA
ATOM     71  O   UNL A   1      44.572  23.747  36.125  1.00  0.00    -0.744 OA
ENDBRANCH  65  68
ENDBRANCH  38  61
ENDBRANCH  12  13
ENDBRANCH   5   7
ENDBRANCH   2   3
ENDBRANCH   1   2
BRANCH   1  72
ATOM     72  C   UNL A   1      31.575  30.293  26.155  1.00  0.00     0.002 C 
BRANCH  72  73
ATOM     73  C   UNL A   1      31.701  29.235  27.255  1.00  0.00     0.002 C 
BRANCH  73  74
ATOM     74  C   UNL A   1      32.995  28.415  27.245  1.00  0.00     0.021 C 
BRANCH  74  75
ATOM     75  C   UNL A   1      32.924  27.103  26.471  1.00  0.00     0.116 C 
BRANCH  75  76
ATOM     76  N   UNL A   1      31.727  26.334  26.779  1.00  0.00    -0.352 N 
ATOM     77  C   UNL A   1      30.682  26.005  25.953  1.00  0.00     0.252 C 
ATOM     78  H   UNL A   1      31.657  26.007  27.704  1.00  0.00     0.163 HD
ATOM     79  O   UNL A   1      29.708  25.397  26.385  1.00  0.00    -0.269 OA
BRANCH  77  80
ATOM     80  C   UNL A   1      30.697  26.442  24.543  1.00  0.00     0.051 A 
ATOM     81  C   UNL A   1      29.971  27.595  24.256  1.00  0.00     0.043 A 
ATOM     82  C   UNL A   1      31.413  25.755  23.537  1.00  0.00     0.013 A 
ATOM     83  C   UNL A   1      30.012  28.063  22.961  1.00  0.00     0.073 A 
ATOM     84  C   UNL A   1      31.432  26.362  22.269  1.00  0.00     0.072 A 
ATOM     85  C   UNL A   1      32.103  24.530  23.725  1.00  0.00     0.011 A 
ATOM     86  N   UNL A   1      30.737  27.475  21.982  1.00  0.00    -0.248 NA
ATOM     87  C   UNL A   1      32.213  25.791  21.272  1.00  0.00     0.029 A 
ATOM     88  C   UNL A   1      32.877  23.977  22.708  1.00  0.00     0.001 A 
ATOM     89  C   UNL A   1      32.947  24.621  21.483  1.00  0.00     0.002 A 
BRANCH  83  90
ATOM     90  C   UNL A   1      29.228  29.218  22.553  1.00  0.00     0.011 A 
ATOM     91  C   UNL A   1      27.910  29.548  23.003  1.00  0.00     0.022 A 
ATOM     92  C   UNL A   1      29.693  30.141  21.637  1.00  0.00     0.075 A 
ATOM     93  C   UNL A   1      27.441  30.718  22.445  1.00  0.00     0.065 A 
ATOM     94  S   UNL A   1      28.568  31.403  21.356  1.00  0.00    -0.152 S 
ENDBRANCH  83  90
ENDBRANCH  77  80
ENDBRANCH  75  76
ENDBRANCH  74  75
ENDBRANCH  73  74
ENDBRANCH  72  73
ENDBRANCH   1  72
TORSDOF 17
ENDMDL
