MODEL 1
REMARK VINA RESULT:     -11.1      0.000      0.000
REMARK SMILES O=C(NCCCCCCNC(=O)[C@H]1CCCN(C(=O)C2CCN(S(=O)(=O)c3ccccc3)CC2)C1)c1ccc(-c2c3nc(c(-c4cccc(S(=O)(=O)[O-])c4F)c4ccc([nH]4)c(-c4cccc(S(=O)(=O)[O-])c4F)c4nc(c(-c5cccc(S(=O)(=O)[O-])c5F)c5ccc2[nH]5)C=C4)C=C3)cc1
REMARK SMILES IDX 7 1 6 2 5 3 4 4 3 5 1 6 2 7 36 9 37 10 98 11 38 12 97 13
REMARK SMILES IDX 39 14 40 15 41 16 91 17 42 18 96 19 90 20 92 21 43 22 95 23
REMARK SMILES IDX 89 24 88 25 44 27 76 28 56 29 75 30 57 31 60 32 74 33 93 34
REMARK SMILES IDX 58 35 59 36 73 38 94 39 61 40 45 41 46 42 54 43 47 44 49 45
REMARK SMILES IDX 55 46 48 47 50 48 51 49 52 50 53 51 77 52 78 53 86 54 79 55
REMARK SMILES IDX 81 56 87 57 80 58 82 59 83 60 84 61 85 62 62 63 63 64 71 65
REMARK SMILES IDX 64 66 66 67 72 68 65 69 67 70 68 71 69 72 70 73 8 74 9 75
REMARK SMILES IDX 10 76 11 77 12 79 13 80 14 81 35 82 15 83 17 84 16 85 18 86
REMARK SMILES IDX 19 87 20 88 21 89 34 90 22 91 33 92 23 93 24 94 25 95 26 96
REMARK SMILES IDX 27 97 28 98 32 99 29 100 31 101 30 102
REMARK H PARENT 3 8 92 26 60 37 10 78
REMARK Flexibility Score: inf
ROOT
ATOM      1  C   UNL A   1      40.842  22.812  26.839  1.00  0.00     0.002 C 
ENDROOT
BRANCH   1   2
ATOM      2  C   UNL A   1      41.422  21.832  27.864  1.00  0.00     0.002 C 
BRANCH   2   3
ATOM      3  C   UNL A   1      41.760  20.423  27.379  1.00  0.00     0.021 C 
BRANCH   3   4
ATOM      4  C   UNL A   1      41.625  20.159  25.884  1.00  0.00     0.116 C 
BRANCH   4   5
ATOM      5  N   UNL A   1      42.752  19.450  25.309  1.00  0.00    -0.352 N 
ATOM      6  O   UNL A   1      44.822  19.162  24.473  1.00  0.00    -0.269 OA
ATOM      7  C   UNL A   1      44.017  19.910  25.021  1.00  0.00     0.251 C 
ATOM      8  H   UNL A   1      42.589  18.503  25.094  1.00  0.00     0.163 HD
BRANCH   7   9
ATOM      9  C   UNL A   1      44.388  21.311  25.326  1.00  0.00     0.039 A 
ATOM     10  C   UNL A   1      45.069  21.643  26.500  1.00  0.00     0.014 A 
ATOM     11  C   UNL A   1      44.033  22.314  24.419  1.00  0.00     0.014 A 
ATOM     12  C   UNL A   1      45.251  22.981  26.838  1.00  0.00     0.010 A 
ATOM     13  C   UNL A   1      44.292  23.654  24.724  1.00  0.00     0.010 A 
ATOM     14  C   UNL A   1      44.863  24.003  25.956  1.00  0.00    -0.014 A 
BRANCH  14  15
ATOM     15  C   UNL A   1      45.106  25.422  26.327  1.00  0.00     0.031 A 
ATOM     16  C   UNL A   1      44.005  26.285  26.886  1.00  0.00     0.074 A 
ATOM     17  C   UNL A   1      46.343  25.932  26.166  1.00  0.00     0.049 A 
ATOM     18  N   UNL A   1      44.070  27.519  27.319  1.00  0.00    -0.248 NA
ATOM     19  C   UNL A   1      42.658  25.697  26.962  1.00  0.00     0.031 C 
ATOM     20  C   UNL A   1      47.478  25.212  25.584  1.00  0.00     0.029 A 
ATOM     21  N   UNL A   1      46.856  27.164  26.479  1.00  0.00    -0.354 N 
ATOM     22  C   UNL A   1      42.772  27.870  27.673  1.00  0.00     0.074 A 
ATOM     23  C   UNL A   1      41.937  26.719  27.403  1.00  0.00     0.031 C 
ATOM     24  C   UNL A   1      48.562  25.999  25.619  1.00  0.00     0.029 A 
ATOM     25  C   UNL A   1      48.194  27.292  26.184  1.00  0.00     0.049 A 
ATOM     26  H   UNL A   1      46.320  27.888  26.876  1.00  0.00     0.167 HD
ATOM     27  C   UNL A   1      42.320  29.038  28.193  1.00  0.00     0.034 A 
ATOM     28  C   UNL A   1      49.034  28.332  26.353  1.00  0.00     0.034 A 
ATOM     29  C   UNL A   1      43.162  30.161  28.512  1.00  0.00     0.049 A 
ATOM     30  C   UNL A   1      48.515  29.592  26.983  1.00  0.00     0.074 A 
ATOM     31  C   UNL A   1      42.811  31.355  29.118  1.00  0.00     0.029 A 
ATOM     32  N   UNL A   1      44.521  30.233  28.246  1.00  0.00    -0.354 N 
ATOM     33  N   UNL A   1      47.317  29.849  27.448  1.00  0.00    -0.248 NA
ATOM     34  C   UNL A   1      49.471  30.697  27.138  1.00  0.00     0.031 C 
ATOM     35  C   UNL A   1      43.956  32.153  29.210  1.00  0.00     0.029 A 
ATOM     36  C   UNL A   1      45.023  31.452  28.671  1.00  0.00     0.049 A 
ATOM     37  H   UNL A   1      45.051  29.522  27.819  1.00  0.00     0.167 HD
ATOM     38  C   UNL A   1      47.380  31.133  27.973  1.00  0.00     0.074 A 
ATOM     39  C   UNL A   1      48.742  31.591  27.793  1.00  0.00     0.031 C 
ATOM     40  C   UNL A   1      46.393  31.874  28.535  1.00  0.00     0.034 A 
BRANCH  27  41
ATOM     41  C   UNL A   1      40.849  29.150  28.499  1.00  0.00     0.023 A 
ATOM     42  C   UNL A   1      39.941  29.415  27.454  1.00  0.00     0.012 A 
ATOM     43  C   UNL A   1      40.358  28.923  29.800  1.00  0.00     0.148 A 
ATOM     44  C   UNL A   1      38.570  29.478  27.704  1.00  0.00     0.002 A 
ATOM     45  C   UNL A   1      38.987  28.951  30.034  1.00  0.00     0.091 A 
ATOM     46  F   UNL A   1      41.238  28.697  30.786  1.00  0.00    -0.205 F 
ATOM     47  C   UNL A   1      38.093  29.236  28.989  1.00  0.00     0.022 A 
BRANCH  45  48
ATOM     48  S   UNL A   1      38.279  28.579  31.643  1.00  0.00     0.127 S 
ATOM     49  O   UNL A   1      38.440  27.129  31.709  1.00  0.00    -0.237 OA
ATOM     50  O   UNL A   1      39.151  29.330  32.549  1.00  0.00    -0.237 OA
ATOM     51  O   UNL A   1      36.907  29.063  31.591  1.00  0.00    -0.744 OA
ENDBRANCH  45  48
ENDBRANCH  27  41
BRANCH  28  52
ATOM     52  C   UNL A   1      50.472  28.182  25.993  1.00  0.00     0.023 A 
ATOM     53  C   UNL A   1      50.892  28.511  24.690  1.00  0.00     0.012 A 
ATOM     54  C   UNL A   1      51.429  27.775  26.941  1.00  0.00     0.148 A 
ATOM     55  C   UNL A   1      52.237  28.421  24.333  1.00  0.00     0.002 A 
ATOM     56  C   UNL A   1      52.775  27.745  26.596  1.00  0.00     0.091 A 
ATOM     57  F   UNL A   1      51.007  27.445  28.171  1.00  0.00    -0.205 F 
ATOM     58  C   UNL A   1      53.179  28.053  25.289  1.00  0.00     0.022 A 
BRANCH  56  59
ATOM     59  S   UNL A   1      54.061  27.425  27.809  1.00  0.00     0.127 S 
ATOM     60  O   UNL A   1      53.857  26.008  28.096  1.00  0.00    -0.237 OA
ATOM     61  O   UNL A   1      55.277  27.734  27.056  1.00  0.00    -0.237 OA
ATOM     62  O   UNL A   1      53.791  28.345  28.906  1.00  0.00    -0.744 OA
ENDBRANCH  56  59
ENDBRANCH  28  52
BRANCH  40  63
ATOM     63  C   UNL A   1      46.754  33.253  29.016  1.00  0.00     0.023 A 
ATOM     64  C   UNL A   1      47.257  33.425  30.321  1.00  0.00     0.012 A 
ATOM     65  C   UNL A   1      46.650  34.366  28.162  1.00  0.00     0.148 A 
ATOM     66  C   UNL A   1      47.623  34.690  30.778  1.00  0.00     0.002 A 
ATOM     67  C   UNL A   1      47.057  35.618  28.610  1.00  0.00     0.091 A 
ATOM     68  F   UNL A   1      46.145  34.189  26.932  1.00  0.00    -0.205 F 
ATOM     69  C   UNL A   1      47.535  35.784  29.920  1.00  0.00     0.022 A 
BRANCH  67  70
ATOM     70  S   UNL A   1      47.055  37.057  27.534  1.00  0.00     0.127 S 
ATOM     71  O   UNL A   1      45.634  37.395  27.488  1.00  0.00    -0.237 OA
ATOM     72  O   UNL A   1      47.884  38.009  28.274  1.00  0.00    -0.237 OA
ATOM     73  O   UNL A   1      47.639  36.606  26.277  1.00  0.00    -0.744 OA
ENDBRANCH  67  70
ENDBRANCH  40  63
ENDBRANCH  14  15
ENDBRANCH   7   9
ENDBRANCH   4   5
ENDBRANCH   3   4
ENDBRANCH   2   3
ENDBRANCH   1   2
BRANCH   1  74
ATOM     74  C   UNL A   1      39.662  23.679  27.286  1.00  0.00     0.021 C 
BRANCH  74  75
ATOM     75  C   UNL A   1      38.355  23.453  26.542  1.00  0.00     0.116 C 
BRANCH  75  76
ATOM     76  N   UNL A   1      38.140  22.087  26.107  1.00  0.00    -0.356 N 
ATOM     77  C   UNL A   1      37.098  21.584  25.372  1.00  0.00     0.224 C 
ATOM     78  H   UNL A   1      38.832  21.438  26.372  1.00  0.00     0.163 HD
ATOM     79  O   UNL A   1      37.142  20.401  25.034  1.00  0.00    -0.275 OA
BRANCH  77  80
ATOM     80  C   UNL A   1      35.932  22.501  24.998  1.00  0.00     0.098 C 
ATOM     81  C   UNL A   1      36.042  22.893  23.516  1.00  0.00     0.017 C 
ATOM     82  C   UNL A   1      34.564  21.827  25.302  1.00  0.00     0.133 C 
ATOM     83  C   UNL A   1      34.822  23.665  23.076  1.00  0.00     0.022 C 
ATOM     84  N   UNL A   1      33.417  22.534  24.683  1.00  0.00    -0.342 N 
ATOM     85  C   UNL A   1      33.606  22.786  23.276  1.00  0.00     0.119 C 
BRANCH  84  86
ATOM     86  C   UNL A   1      32.265  22.795  25.402  1.00  0.00     0.225 C 
ATOM     87  O   UNL A   1      31.395  21.918  25.497  1.00  0.00    -0.275 OA
BRANCH  86  88
ATOM     88  C   UNL A   1      31.991  24.137  26.158  1.00  0.00     0.081 C 
ATOM     89  C   UNL A   1      30.604  24.762  26.129  1.00  0.00     0.030 C 
ATOM     90  C   UNL A   1      33.062  25.212  26.080  1.00  0.00     0.030 C 
ATOM     91  C   UNL A   1      30.362  25.950  25.201  1.00  0.00     0.103 C 
ATOM     92  C   UNL A   1      32.894  26.193  24.939  1.00  0.00     0.103 C 
ATOM     93  N   UNL A   1      31.548  26.797  24.805  1.00  0.00    -0.198 NA
BRANCH  93  94
ATOM     94  S   UNL A   1      31.191  27.555  23.260  1.00  0.00     0.243 S 
ATOM     95  O   UNL A   1      32.319  28.404  22.929  1.00  0.00    -0.207 OA
ATOM     96  O   UNL A   1      30.833  26.472  22.370  1.00  0.00    -0.207 OA
BRANCH  94  97
ATOM     97  C   UNL A   1      29.793  28.647  23.401  1.00  0.00     0.082 A 
ATOM     98  C   UNL A   1      28.526  28.143  23.087  1.00  0.00     0.022 A 
ATOM     99  C   UNL A   1      29.958  30.029  23.569  1.00  0.00     0.022 A 
ATOM    100  C   UNL A   1      27.433  29.007  22.986  1.00  0.00     0.001 A 
ATOM    101  C   UNL A   1      28.855  30.883  23.515  1.00  0.00     0.001 A 
ATOM    102  C   UNL A   1      27.595  30.372  23.218  1.00  0.00     0.000 A 
ENDBRANCH  94  97
ENDBRANCH  93  94
ENDBRANCH  86  88
ENDBRANCH  84  86
ENDBRANCH  77  80
ENDBRANCH  75  76
ENDBRANCH  74  75
ENDBRANCH   1  74
TORSDOF 20
ENDMDL
MODEL 2
REMARK VINA RESULT:     -10.8      1.389      7.373
REMARK SMILES O=C(NCCCCCCNC(=O)[C@H]1CCCN(C(=O)C2CCN(S(=O)(=O)c3ccccc3)CC2)C1)c1ccc(-c2c3nc(c(-c4cccc(S(=O)(=O)[O-])c4F)c4ccc([nH]4)c(-c4cccc(S(=O)(=O)[O-])c4F)c4nc(c(-c5cccc(S(=O)(=O)[O-])c5F)c5ccc2[nH]5)C=C4)C=C3)cc1
REMARK SMILES IDX 7 1 6 2 5 3 4 4 3 5 1 6 2 7 36 9 37 10 98 11 38 12 97 13
REMARK SMILES IDX 39 14 40 15 41 16 91 17 42 18 96 19 90 20 92 21 43 22 95 23
REMARK SMILES IDX 89 24 88 25 44 27 76 28 56 29 75 30 57 31 60 32 74 33 93 34
REMARK SMILES IDX 58 35 59 36 73 38 94 39 61 40 45 41 46 42 54 43 47 44 49 45
REMARK SMILES IDX 55 46 48 47 50 48 51 49 52 50 53 51 77 52 78 53 86 54 79 55
REMARK SMILES IDX 81 56 87 57 80 58 82 59 83 60 84 61 85 62 62 63 63 64 71 65
REMARK SMILES IDX 64 66 66 67 72 68 65 69 67 70 68 71 69 72 70 73 8 74 9 75
REMARK SMILES IDX 10 76 11 77 12 79 13 80 14 81 35 82 15 83 17 84 16 85 18 86
REMARK SMILES IDX 19 87 20 88 21 89 34 90 22 91 33 92 23 93 24 94 25 95 26 96
REMARK SMILES IDX 27 97 28 98 32 99 29 100 31 101 30 102
REMARK H PARENT 3 8 92 26 60 37 10 78
REMARK Flexibility Score: inf
ROOT
ATOM      1  C   UNL A   1      40.791  22.919  27.149  1.00  0.00     0.002 C 
ENDROOT
BRANCH   1   2
ATOM      2  C   UNL A   1      41.003  21.729  28.090  1.00  0.00     0.002 C 
BRANCH   2   3
ATOM      3  C   UNL A   1      41.345  20.381  27.457  1.00  0.00     0.021 C 
BRANCH   3   4
ATOM      4  C   UNL A   1      41.406  20.332  25.935  1.00  0.00     0.116 C 
BRANCH   4   5
ATOM      5  N   UNL A   1      42.674  19.863  25.412  1.00  0.00    -0.352 N 
ATOM      6  O   UNL A   1      44.839  19.962  24.803  1.00  0.00    -0.269 OA
ATOM      7  C   UNL A   1      43.884  20.514  25.343  1.00  0.00     0.251 C 
ATOM      8  H   UNL A   1      42.669  18.945  25.055  1.00  0.00     0.163 HD
BRANCH   7   9
ATOM      9  C   UNL A   1      44.021  21.890  25.873  1.00  0.00     0.039 A 
ATOM     10  C   UNL A   1      43.741  23.005  25.079  1.00  0.00     0.014 A 
ATOM     11  C   UNL A   1      44.451  22.064  27.192  1.00  0.00     0.014 A 
ATOM     12  C   UNL A   1      44.042  24.281  25.549  1.00  0.00     0.010 A 
ATOM     13  C   UNL A   1      44.674  23.352  27.689  1.00  0.00     0.010 A 
ATOM     14  C   UNL A   1      44.514  24.470  26.859  1.00  0.00    -0.014 A 
BRANCH  14  15
ATOM     15  C   UNL A   1      44.790  25.848  27.345  1.00  0.00     0.031 A 
ATOM     16  C   UNL A   1      46.173  26.439  27.282  1.00  0.00     0.074 A 
ATOM     17  C   UNL A   1      43.770  26.576  27.841  1.00  0.00     0.049 A 
ATOM     18  N   UNL A   1      46.565  27.646  27.603  1.00  0.00    -0.248 NA
ATOM     19  C   UNL A   1      47.259  25.567  26.806  1.00  0.00     0.031 C 
ATOM     20  C   UNL A   1      42.396  26.095  28.005  1.00  0.00     0.029 A 
ATOM     21  N   UNL A   1      43.724  27.870  28.292  1.00  0.00    -0.354 N 
ATOM     22  C   UNL A   1      47.942  27.665  27.416  1.00  0.00     0.074 A 
ATOM     23  C   UNL A   1      48.322  26.347  26.954  1.00  0.00     0.031 C 
ATOM     24  C   UNL A   1      41.635  27.090  28.481  1.00  0.00     0.029 A 
ATOM     25  C   UNL A   1      42.470  28.267  28.696  1.00  0.00     0.049 A 
ATOM     26  H   UNL A   1      44.512  28.459  28.324  1.00  0.00     0.167 HD
ATOM     27  C   UNL A   1      48.810  28.692  27.595  1.00  0.00     0.034 A 
ATOM     28  C   UNL A   1      42.037  29.446  29.182  1.00  0.00     0.034 A 
ATOM     29  C   UNL A   1      48.422  30.017  28.003  1.00  0.00     0.049 A 
ATOM     30  C   UNL A   1      43.011  30.580  29.317  1.00  0.00     0.074 A 
ATOM     31  C   UNL A   1      49.215  31.144  28.131  1.00  0.00     0.029 A 
ATOM     32  N   UNL A   1      47.134  30.392  28.353  1.00  0.00    -0.354 N 
ATOM     33  N   UNL A   1      44.280  30.620  28.991  1.00  0.00    -0.248 NA
ATOM     34  C   UNL A   1      42.488  31.842  29.858  1.00  0.00     0.031 C 
ATOM     35  C   UNL A   1      48.408  32.200  28.569  1.00  0.00     0.029 A 
ATOM     36  C   UNL A   1      47.110  31.733  28.703  1.00  0.00     0.049 A 
ATOM     37  H   UNL A   1      46.352  29.795  28.353  1.00  0.00     0.167 HD
ATOM     38  C   UNL A   1      44.702  31.914  29.264  1.00  0.00     0.074 A 
ATOM     39  C   UNL A   1      43.546  32.636  29.756  1.00  0.00     0.031 C 
ATOM     40  C   UNL A   1      45.941  32.452  29.138  1.00  0.00     0.034 A 
BRANCH  27  41
ATOM     41  C   UNL A   1      50.267  28.442  27.305  1.00  0.00     0.023 A 
ATOM     42  C   UNL A   1      51.141  28.124  28.364  1.00  0.00     0.012 A 
ATOM     43  C   UNL A   1      50.757  28.450  25.984  1.00  0.00     0.148 A 
ATOM     44  C   UNL A   1      52.484  27.842  28.116  1.00  0.00     0.002 A 
ATOM     45  C   UNL A   1      52.089  28.132  25.741  1.00  0.00     0.091 A 
ATOM     46  F   UNL A   1      49.917  28.778  24.992  1.00  0.00    -0.205 F 
ATOM     47  C   UNL A   1      52.955  27.837  26.806  1.00  0.00     0.022 A 
BRANCH  45  48
ATOM     48  S   UNL A   1      52.764  28.029  24.078  1.00  0.00     0.127 S 
ATOM     49  O   UNL A   1      54.141  27.617  24.344  1.00  0.00    -0.237 OA
ATOM     50  O   UNL A   1      51.928  26.995  23.465  1.00  0.00    -0.237 OA
ATOM     51  O   UNL A   1      52.599  29.356  23.503  1.00  0.00    -0.744 OA
ENDBRANCH  45  48
ENDBRANCH  27  41
BRANCH  28  52
ATOM     52  C   UNL A   1      40.592  29.626  29.495  1.00  0.00     0.023 A 
ATOM     53  C   UNL A   1      39.700  29.961  28.458  1.00  0.00     0.012 A 
ATOM     54  C   UNL A   1      40.088  29.412  30.792  1.00  0.00     0.148 A 
ATOM     55  C   UNL A   1      38.335  30.096  28.710  1.00  0.00     0.002 A 
ATOM     56  C   UNL A   1      38.720  29.490  31.024  1.00  0.00     0.091 A 
ATOM     57  F   UNL A   1      40.955  29.115  31.771  1.00  0.00    -0.205 F 
ATOM     58  C   UNL A   1      37.843  29.847  29.988  1.00  0.00     0.022 A 
BRANCH  56  59
ATOM     59  S   UNL A   1      37.996  29.039  32.605  1.00  0.00     0.127 S 
ATOM     60  O   UNL A   1      38.733  29.897  33.528  1.00  0.00    -0.237 OA
ATOM     61  O   UNL A   1      36.591  29.400  32.414  1.00  0.00    -0.237 OA
ATOM     62  O   UNL A   1      38.229  27.606  32.739  1.00  0.00    -0.744 OA
ENDBRANCH  56  59
ENDBRANCH  28  52
BRANCH  40  63
ATOM     63  C   UNL A   1      46.108  33.898  29.519  1.00  0.00     0.023 A 
ATOM     64  C   UNL A   1      46.413  34.235  30.852  1.00  0.00     0.012 A 
ATOM     65  C   UNL A   1      46.020  34.915  28.549  1.00  0.00     0.148 A 
ATOM     66  C   UNL A   1      46.599  35.567  31.221  1.00  0.00     0.002 A 
ATOM     67  C   UNL A   1      46.249  36.237  28.916  1.00  0.00     0.091 A 
ATOM     68  F   UNL A   1      45.704  34.578  27.290  1.00  0.00    -0.205 F 
ATOM     69  C   UNL A   1      46.529  36.566  30.252  1.00  0.00     0.022 A 
BRANCH  67  70
ATOM     70  S   UNL A   1      46.262  37.566  27.708  1.00  0.00     0.127 S 
ATOM     71  O   UNL A   1      47.316  37.131  26.795  1.00  0.00    -0.237 OA
ATOM     72  O   UNL A   1      44.909  37.503  27.152  1.00  0.00    -0.237 OA
ATOM     73  O   UNL A   1      46.540  38.780  28.464  1.00  0.00    -0.744 OA
ENDBRANCH  67  70
ENDBRANCH  40  63
ENDBRANCH  14  15
ENDBRANCH   7   9
ENDBRANCH   4   5
ENDBRANCH   3   4
ENDBRANCH   2   3
ENDBRANCH   1   2
BRANCH   1  74
ATOM     74  C   UNL A   1      39.490  23.711  27.300  1.00  0.00     0.021 C 
BRANCH  74  75
ATOM     75  C   UNL A   1      38.436  23.462  26.233  1.00  0.00     0.116 C 
BRANCH  75  76
ATOM     76  N   UNL A   1      38.458  22.128  25.666  1.00  0.00    -0.356 N 
ATOM     77  C   UNL A   1      37.469  21.485  24.967  1.00  0.00     0.224 C 
ATOM     78  H   UNL A   1      39.290  21.618  25.801  1.00  0.00     0.163 HD
ATOM     79  O   UNL A   1      37.716  20.375  24.497  1.00  0.00    -0.275 OA
BRANCH  77  80
ATOM     80  C   UNL A   1      36.110  22.166  24.792  1.00  0.00     0.098 C 
ATOM     81  C   UNL A   1      36.068  22.888  23.437  1.00  0.00     0.017 C 
ATOM     82  C   UNL A   1      34.947  21.143  24.922  1.00  0.00     0.133 C 
ATOM     83  C   UNL A   1      34.687  23.434  23.165  1.00  0.00     0.022 C 
ATOM     84  N   UNL A   1      33.644  21.683  24.462  1.00  0.00    -0.342 N 
ATOM     85  C   UNL A   1      33.714  22.275  23.149  1.00  0.00     0.119 C 
BRANCH  84  86
ATOM     86  C   UNL A   1      32.492  21.505  25.207  1.00  0.00     0.225 C 
ATOM     87  O   UNL A   1      31.976  20.380  25.270  1.00  0.00    -0.275 OA
BRANCH  86  88
ATOM     88  C   UNL A   1      31.800  22.640  26.031  1.00  0.00     0.081 C 
ATOM     89  C   UNL A   1      30.584  23.360  25.467  1.00  0.00     0.030 C 
ATOM     90  C   UNL A   1      32.701  23.612  26.772  1.00  0.00     0.030 C 
ATOM     91  C   UNL A   1      30.777  24.754  24.873  1.00  0.00     0.103 C 
ATOM     92  C   UNL A   1      33.077  24.852  25.987  1.00  0.00     0.103 C 
ATOM     93  N   UNL A   1      31.951  25.575  25.351  1.00  0.00    -0.198 NA
BRANCH  93  94
ATOM     94  S   UNL A   1      32.380  26.712  24.082  1.00  0.00     0.243 S 
ATOM     95  O   UNL A   1      33.571  27.414  24.521  1.00  0.00    -0.207 OA
ATOM     96  O   UNL A   1      32.425  25.933  22.863  1.00  0.00    -0.207 OA
BRANCH  94  97
ATOM     97  C   UNL A   1      31.125  27.960  23.902  1.00  0.00     0.082 A 
ATOM     98  C   UNL A   1      30.147  27.776  22.917  1.00  0.00     0.022 A 
ATOM     99  C   UNL A   1      31.236  29.207  24.532  1.00  0.00     0.022 A 
ATOM    100  C   UNL A   1      29.267  28.815  22.602  1.00  0.00     0.001 A 
ATOM    101  C   UNL A   1      30.325  30.225  24.247  1.00  0.00     0.001 A 
ATOM    102  C   UNL A   1      29.345  30.031  23.279  1.00  0.00     0.000 A 
ENDBRANCH  94  97
ENDBRANCH  93  94
ENDBRANCH  86  88
ENDBRANCH  84  86
ENDBRANCH  77  80
ENDBRANCH  75  76
ENDBRANCH  74  75
ENDBRANCH   1  74
TORSDOF 20
ENDMDL
MODEL 3
REMARK VINA RESULT:     -10.4      2.741      7.955
REMARK SMILES O=C(NCCCCCCNC(=O)[C@H]1CCCN(C(=O)C2CCN(S(=O)(=O)c3ccccc3)CC2)C1)c1ccc(-c2c3nc(c(-c4cccc(S(=O)(=O)[O-])c4F)c4ccc([nH]4)c(-c4cccc(S(=O)(=O)[O-])c4F)c4nc(c(-c5cccc(S(=O)(=O)[O-])c5F)c5ccc2[nH]5)C=C4)C=C3)cc1
REMARK SMILES IDX 7 1 6 2 5 3 4 4 3 5 1 6 2 7 36 9 37 10 98 11 38 12 97 13
REMARK SMILES IDX 39 14 40 15 41 16 91 17 42 18 96 19 90 20 92 21 43 22 95 23
REMARK SMILES IDX 89 24 88 25 44 27 76 28 56 29 75 30 57 31 60 32 74 33 93 34
REMARK SMILES IDX 58 35 59 36 73 38 94 39 61 40 45 41 46 42 54 43 47 44 49 45
REMARK SMILES IDX 55 46 48 47 50 48 51 49 52 50 53 51 77 52 78 53 86 54 79 55
REMARK SMILES IDX 81 56 87 57 80 58 82 59 83 60 84 61 85 62 62 63 63 64 71 65
REMARK SMILES IDX 64 66 66 67 72 68 65 69 67 70 68 71 69 72 70 73 8 74 9 75
REMARK SMILES IDX 10 76 11 77 12 79 13 80 14 81 35 82 15 83 17 84 16 85 18 86
REMARK SMILES IDX 19 87 20 88 21 89 34 90 22 91 33 92 23 93 24 94 25 95 26 96
REMARK SMILES IDX 27 97 28 98 32 99 29 100 31 101 30 102
REMARK H PARENT 3 8 92 26 60 37 10 78
REMARK Flexibility Score: inf
ROOT
ATOM      1  C   UNL A   1      40.981  24.088  26.762  1.00  0.00     0.002 C 
ENDROOT
BRANCH   1   2
ATOM      2  C   UNL A   1      41.407  23.215  27.947  1.00  0.00     0.002 C 
BRANCH   2   3
ATOM      3  C   UNL A   1      42.210  21.952  27.639  1.00  0.00     0.021 C 
BRANCH   3   4
ATOM      4  C   UNL A   1      42.535  21.683  26.175  1.00  0.00     0.116 C 
BRANCH   4   5
ATOM      5  N   UNL A   1      43.941  21.435  25.921  1.00  0.00    -0.352 N 
ATOM      6  O   UNL A   1      46.138  21.897  25.751  1.00  0.00    -0.269 OA
ATOM      7  C   UNL A   1      45.018  22.276  26.083  1.00  0.00     0.251 C 
ATOM      8  H   UNL A   1      44.157  20.535  25.585  1.00  0.00     0.163 HD
BRANCH   7   9
ATOM      9  C   UNL A   1      44.821  23.647  26.608  1.00  0.00     0.039 A 
ATOM     10  C   UNL A   1      44.406  24.691  25.776  1.00  0.00     0.014 A 
ATOM     11  C   UNL A   1      45.070  23.892  27.962  1.00  0.00     0.014 A 
ATOM     12  C   UNL A   1      44.395  25.997  26.260  1.00  0.00     0.010 A 
ATOM     13  C   UNL A   1      44.978  25.194  28.464  1.00  0.00     0.010 A 
ATOM     14  C   UNL A   1      44.683  26.265  27.608  1.00  0.00    -0.014 A 
BRANCH  14  15
ATOM     15  C   UNL A   1      44.625  27.665  28.104  1.00  0.00     0.031 A 
ATOM     16  C   UNL A   1      45.828  28.569  28.041  1.00  0.00     0.074 A 
ATOM     17  C   UNL A   1      43.464  28.127  28.608  1.00  0.00     0.049 A 
ATOM     18  N   UNL A   1      45.923  29.832  28.371  1.00  0.00    -0.248 NA
ATOM     19  C   UNL A   1      47.088  27.983  27.557  1.00  0.00     0.031 C 
ATOM     20  C   UNL A   1      42.244  27.332  28.772  1.00  0.00     0.029 A 
ATOM     21  N   UNL A   1      43.113  29.370  29.069  1.00  0.00    -0.354 N 
ATOM     22  C   UNL A   1      47.256  30.180  28.180  1.00  0.00     0.074 A 
ATOM     23  C   UNL A   1      47.936  28.993  27.707  1.00  0.00     0.031 C 
ATOM     24  C   UNL A   1      41.270  28.114  29.257  1.00  0.00     0.029 A 
ATOM     25  C   UNL A   1      41.802  29.454  29.479  1.00  0.00     0.049 A 
ATOM     26  H   UNL A   1      43.738  30.129  29.102  1.00  0.00     0.167 HD
ATOM     27  C   UNL A   1      47.855  31.382  28.365  1.00  0.00     0.034 A 
ATOM     28  C   UNL A   1      41.104  30.493  29.974  1.00  0.00     0.034 A 
ATOM     29  C   UNL A   1      47.165  32.574  28.782  1.00  0.00     0.049 A 
ATOM     30  C   UNL A   1      41.781  31.826  30.115  1.00  0.00     0.074 A 
ATOM     31  C   UNL A   1      47.667  33.857  28.917  1.00  0.00     0.029 A 
ATOM     32  N   UNL A   1      45.826  32.630  29.139  1.00  0.00    -0.354 N 
ATOM     33  N   UNL A   1      43.003  32.168  29.786  1.00  0.00    -0.248 NA
ATOM     34  C   UNL A   1      40.975  32.924  30.667  1.00  0.00     0.031 C 
ATOM     35  C   UNL A   1      46.634  34.688  29.364  1.00  0.00     0.029 A 
ATOM     36  C   UNL A   1      45.486  33.924  29.499  1.00  0.00     0.049 A 
ATOM     37  H   UNL A   1      45.208  31.864  29.137  1.00  0.00     0.167 HD
ATOM     38  C   UNL A   1      43.106  33.524  30.067  1.00  0.00     0.074 A 
ATOM     39  C   UNL A   1      41.814  33.947  30.568  1.00  0.00     0.031 C 
ATOM     40  C   UNL A   1      44.181  34.342  29.942  1.00  0.00     0.034 A 
BRANCH  27  41
ATOM     41  C   UNL A   1      49.328  31.487  28.069  1.00  0.00     0.023 A 
ATOM     42  C   UNL A   1      50.259  30.928  28.967  1.00  0.00     0.012 A 
ATOM     43  C   UNL A   1      49.790  32.073  26.873  1.00  0.00     0.148 A 
ATOM     44  C   UNL A   1      51.625  30.971  28.693  1.00  0.00     0.002 A 
ATOM     45  C   UNL A   1      51.151  32.080  26.589  1.00  0.00     0.091 A 
ATOM     46  F   UNL A   1      48.892  32.621  26.041  1.00  0.00    -0.205 F 
ATOM     47  C   UNL A   1      52.071  31.537  27.502  1.00  0.00     0.022 A 
BRANCH  45  48
ATOM     48  S   UNL A   1      51.808  32.722  25.044  1.00  0.00     0.127 S 
ATOM     49  O   UNL A   1      51.655  31.570  24.157  1.00  0.00    -0.237 OA
ATOM     50  O   UNL A   1      50.901  33.835  24.758  1.00  0.00    -0.237 OA
ATOM     51  O   UNL A   1      53.178  33.120  25.334  1.00  0.00    -0.744 OA
ENDBRANCH  45  48
ENDBRANCH  27  41
BRANCH  28  52
ATOM     52  C   UNL A   1      39.658  30.323  30.292  1.00  0.00     0.023 A 
ATOM     53  C   UNL A   1      39.277  30.004  31.610  1.00  0.00     0.012 A 
ATOM     54  C   UNL A   1      38.662  30.531  29.320  1.00  0.00     0.148 A 
ATOM     55  C   UNL A   1      37.930  29.879  31.949  1.00  0.00     0.002 A 
ATOM     56  C   UNL A   1      37.321  30.463  29.678  1.00  0.00     0.091 A 
ATOM     57  F   UNL A   1      39.045  30.813  28.066  1.00  0.00    -0.205 F 
ATOM     58  C   UNL A   1      36.953  30.122  30.988  1.00  0.00     0.022 A 
BRANCH  56  59
ATOM     59  S   UNL A   1      36.008  30.907  28.536  1.00  0.00     0.127 S 
ATOM     60  O   UNL A   1      36.496  32.171  27.993  1.00  0.00    -0.237 OA
ATOM     61  O   UNL A   1      36.024  29.784  27.597  1.00  0.00    -0.237 OA
ATOM     62  O   UNL A   1      34.801  30.983  29.349  1.00  0.00    -0.744 OA
ENDBRANCH  56  59
ENDBRANCH  28  52
BRANCH  40  63
ATOM     63  C   UNL A   1      44.001  35.783  30.333  1.00  0.00     0.023 A 
ATOM     64  C   UNL A   1      44.330  36.197  31.639  1.00  0.00     0.012 A 
ATOM     65  C   UNL A   1      43.563  36.737  29.395  1.00  0.00     0.148 A 
ATOM     66  C   UNL A   1      44.197  37.533  32.014  1.00  0.00     0.002 A 
ATOM     67  C   UNL A   1      43.473  38.075  29.764  1.00  0.00     0.091 A 
ATOM     68  F   UNL A   1      43.229  36.323  28.164  1.00  0.00    -0.205 F 
ATOM     69  C   UNL A   1      43.780  38.473  31.075  1.00  0.00     0.022 A 
BRANCH  67  70
ATOM     70  S   UNL A   1      43.028  39.354  28.584  1.00  0.00     0.127 S 
ATOM     71  O   UNL A   1      44.206  39.391  27.722  1.00  0.00    -0.237 OA
ATOM     72  O   UNL A   1      41.828  38.802  27.953  1.00  0.00    -0.237 OA
ATOM     73  O   UNL A   1      42.786  40.552  29.378  1.00  0.00    -0.744 OA
ENDBRANCH  67  70
ENDBRANCH  40  63
ENDBRANCH  14  15
ENDBRANCH   7   9
ENDBRANCH   4   5
ENDBRANCH   3   4
ENDBRANCH   2   3
ENDBRANCH   1   2
BRANCH   1  74
ATOM     74  C   UNL A   1      39.659  24.849  26.889  1.00  0.00     0.021 C 
BRANCH  74  75
ATOM     75  C   UNL A   1      38.398  24.002  26.818  1.00  0.00     0.116 C 
BRANCH  75  76
ATOM     76  N   UNL A   1      38.601  22.665  26.293  1.00  0.00    -0.356 N 
ATOM     77  C   UNL A   1      37.744  21.913  25.533  1.00  0.00     0.224 C 
ATOM     78  H   UNL A   1      39.464  22.245  26.510  1.00  0.00     0.163 HD
ATOM     79  O   UNL A   1      38.139  20.824  25.116  1.00  0.00    -0.275 OA
BRANCH  77  80
ATOM     80  C   UNL A   1      36.344  22.448  25.227  1.00  0.00     0.098 C 
ATOM     81  C   UNL A   1      36.355  23.170  23.870  1.00  0.00     0.017 C 
ATOM     82  C   UNL A   1      35.287  21.308  25.250  1.00  0.00     0.133 C 
ATOM     83  C   UNL A   1      34.957  23.569  23.466  1.00  0.00     0.022 C 
ATOM     84  N   UNL A   1      33.984  21.712  24.666  1.00  0.00    -0.342 N 
ATOM     85  C   UNL A   1      34.115  22.315  23.363  1.00  0.00     0.119 C 
BRANCH  84  86
ATOM     86  C   UNL A   1      32.792  21.411  25.299  1.00  0.00     0.225 C 
ATOM     87  O   UNL A   1      32.359  20.250  25.262  1.00  0.00    -0.275 OA
BRANCH  86  88
ATOM     88  C   UNL A   1      31.950  22.446  26.116  1.00  0.00     0.081 C 
ATOM     89  C   UNL A   1      30.745  23.124  25.478  1.00  0.00     0.030 C 
ATOM     90  C   UNL A   1      32.709  23.423  26.996  1.00  0.00     0.030 C 
ATOM     91  C   UNL A   1      30.898  24.562  24.987  1.00  0.00     0.103 C 
ATOM     92  C   UNL A   1      33.072  24.731  26.324  1.00  0.00     0.103 C 
ATOM     93  N   UNL A   1      31.964  25.422  25.624  1.00  0.00    -0.198 NA
BRANCH  93  94
ATOM     94  S   UNL A   1      32.432  26.662  24.469  1.00  0.00     0.243 S 
ATOM     95  O   UNL A   1      33.844  26.478  24.193  1.00  0.00    -0.207 OA
ATOM     96  O   UNL A   1      31.478  26.563  23.386  1.00  0.00    -0.207 OA
BRANCH  94  97
ATOM     97  C   UNL A   1      32.290  28.282  25.192  1.00  0.00     0.082 A 
ATOM     98  C   UNL A   1      32.854  28.493  26.456  1.00  0.00     0.022 A 
ATOM     99  C   UNL A   1      31.433  29.251  24.654  1.00  0.00     0.022 A 
ATOM    100  C   UNL A   1      32.596  29.679  27.149  1.00  0.00     0.001 A 
ATOM    101  C   UNL A   1      31.216  30.454  25.328  1.00  0.00     0.001 A 
ATOM    102  C   UNL A   1      31.792  30.665  26.577  1.00  0.00     0.000 A 
ENDBRANCH  94  97
ENDBRANCH  93  94
ENDBRANCH  86  88
ENDBRANCH  84  86
ENDBRANCH  77  80
ENDBRANCH  75  76
ENDBRANCH  74  75
ENDBRANCH   1  74
TORSDOF 20
ENDMDL
