MODEL 1
REMARK VINA RESULT:     -11.7      0.000      0.000
REMARK SMILES CC[C@@H](C)[C@H](NC(=O)[C@H](C)N1C(=O)N2CCC3=c4cc(OC)ccc4=N[C@@H]3[C@@]2(C)C1=O)C(=O)NCCCCCCNC(=O)c1ccc(-c2c3nc(c(-c4cccc(S(=O)(=O)[O-])c4F)c4ccc([nH]4)c(-c4cccc(S(=O)(=O)[O-])c4F)c4nc(c(-c5cccc(S(=O)(=O)[O-])c5F)c5ccc2[nH]5)C=C4)C=C3)cc1
REMARK SMILES IDX 37 1 36 2 35 3 34 4 32 5 33 6 5 8 3 9 4 10 2 11 1 12 6 13
REMARK SMILES IDX 7 14 8 16 9 17 10 18 11 19 12 20 30 21 14 22 13 23 28 24
REMARK SMILES IDX 31 25 15 26 27 27 29 28 16 29 17 30 26 31 18 32 25 33 19 34
REMARK SMILES IDX 24 35 20 36 23 37 21 38 22 39 38 40 39 41 40 42 41 43 42 44
REMARK SMILES IDX 43 46 44 47 45 48 106 49 46 50 105 51 47 52 48 53 49 54
REMARK SMILES IDX 99 55 50 56 104 57 98 58 100 59 51 60 103 61 97 62 96 63
REMARK SMILES IDX 52 65 84 66 64 67 83 68 65 69 68 70 82 71 101 72 66 73 67 74
REMARK SMILES IDX 81 76 102 77 69 78 53 79 54 80 62 81 55 82 57 83 63 84 56 85
REMARK SMILES IDX 58 86 59 87 60 88 61 89 85 90 86 91 94 92 87 93 89 94 95 95
REMARK SMILES IDX 88 96 90 97 91 98 92 99 93 100 70 101 71 102 79 103 72 104
REMARK SMILES IDX 74 105 80 106 73 107 75 108 76 109 77 110 78 111
REMARK H PARENT 34 7 6 15 41 45 100 64 68 75
REMARK Flexibility Score: inf
ROOT
ATOM      1  C   UNL A   1      32.025  30.272  26.859  1.00  0.00     0.002 C 
ENDROOT
BRANCH   1   2
ATOM      2  C   UNL A   1      31.751  28.779  26.651  1.00  0.00     0.021 C 
BRANCH   2   3
ATOM      3  C   UNL A   1      31.880  28.306  25.216  1.00  0.00     0.116 C 
BRANCH   3   4
ATOM      4  N   UNL A   1      33.186  28.607  24.709  1.00  0.00    -0.354 N 
ATOM      5  C   UNL A   1      33.650  28.500  23.438  1.00  0.00     0.242 C 
ATOM      6  O   UNL A   1      34.784  28.959  23.258  1.00  0.00    -0.273 OA
ATOM      7  H   UNL A   1      33.834  28.937  25.372  1.00  0.00     0.163 HD
BRANCH   5   8
ATOM      8  C   UNL A   1      32.721  28.092  22.234  1.00  0.00     0.174 C 
BRANCH   8   9
ATOM      9  C   UNL A   1      31.219  28.255  22.780  1.00  0.00     0.018 C 
ATOM     10  C   UNL A   1      30.333  27.041  22.514  1.00  0.00     0.010 C 
BRANCH   9  11
ATOM     11  C   UNL A   1      30.567  29.623  22.421  1.00  0.00     0.002 C 
ATOM     12  C   UNL A   1      29.144  29.893  22.891  1.00  0.00     0.004 C 
ENDBRANCH   9  11
ENDBRANCH   8   9
BRANCH   8  13
ATOM     13  N   UNL A   1      32.983  26.840  21.411  1.00  0.00    -0.342 N 
ATOM     14  C   UNL A   1      33.201  25.477  21.500  1.00  0.00     0.243 C 
ATOM     15  H   UNL A   1      33.005  27.094  20.459  1.00  0.00     0.164 HD
ATOM     16  O   UNL A   1      33.221  24.934  20.377  1.00  0.00    -0.273 OA
BRANCH  14  17
ATOM     17  C   UNL A   1      33.361  24.489  22.778  1.00  0.00     0.181 C 
ATOM     18  C   UNL A   1      33.325  23.044  22.281  1.00  0.00     0.042 C 
BRANCH  17  19
ATOM     19  N   UNL A   1      32.321  24.700  23.848  1.00  0.00    -0.250 N 
ATOM     20  C   UNL A   1      31.058  24.028  24.156  1.00  0.00     0.328 C 
ATOM     21  C   UNL A   1      32.925  25.043  25.004  1.00  0.00     0.259 C 
ATOM     22  N   UNL A   1      30.858  24.131  25.653  1.00  0.00    -0.307 N 
ATOM     23  O   UNL A   1      30.378  23.322  23.427  1.00  0.00    -0.248 OA
ATOM     24  C   UNL A   1      32.179  24.358  26.038  1.00  0.00     0.147 C 
ATOM     25  O   UNL A   1      34.004  25.577  25.211  1.00  0.00    -0.271 OA
ATOM     26  C   UNL A   1      30.258  23.152  26.806  1.00  0.00     0.127 C 
ATOM     27  C   UNL A   1      32.632  22.863  25.935  1.00  0.00     0.168 C 
ATOM     28  C   UNL A   1      32.154  25.317  27.239  1.00  0.00     0.048 C 
ATOM     29  C   UNL A   1      31.597  22.436  27.870  1.00  0.00     0.055 C 
ATOM     30  C   UNL A   1      33.086  22.357  27.200  1.00  0.00    -0.032 C 
ATOM     31  N   UNL A   1      32.926  21.933  24.789  1.00  0.00    -0.274 NA
ATOM     32  C   UNL A   1      34.102  21.541  26.765  1.00  0.00     0.005 A 
ATOM     33  C   UNL A   1      33.455  20.968  25.522  1.00  0.00     0.066 A 
ATOM     34  C   UNL A   1      35.361  22.137  25.995  1.00  0.00     0.056 A 
ATOM     35  C   UNL A   1      34.120  19.764  24.998  1.00  0.00     0.032 A 
ATOM     36  C   UNL A   1      35.739  21.496  24.827  1.00  0.00     0.119 A 
ATOM     37  C   UNL A   1      35.356  20.115  24.626  1.00  0.00     0.048 A 
BRANCH  36  38
ATOM     38  O   UNL A   1      36.002  22.173  23.659  1.00  0.00    -0.497 OA
ATOM     39  C   UNL A   1      36.689  23.443  23.603  1.00  0.00     0.278 C 
ENDBRANCH  36  38
ENDBRANCH  17  19
ENDBRANCH  14  17
ENDBRANCH   8  13
ENDBRANCH   5   8
ENDBRANCH   3   4
ENDBRANCH   2   3
ENDBRANCH   1   2
BRANCH   1  40
ATOM     40  C   UNL A   1      31.087  31.240  26.131  1.00  0.00     0.002 C 
BRANCH  40  41
ATOM     41  C   UNL A   1      31.252  32.718  26.481  1.00  0.00     0.021 C 
BRANCH  41  42
ATOM     42  C   UNL A   1      32.631  33.118  26.976  1.00  0.00     0.116 C 
BRANCH  42  43
ATOM     43  N   UNL A   1      32.638  34.365  27.711  1.00  0.00    -0.352 N 
ATOM     44  C   UNL A   1      33.517  34.761  28.710  1.00  0.00     0.251 C 
ATOM     45  H   UNL A   1      31.933  35.010  27.475  1.00  0.00     0.163 HD
ATOM     46  O   UNL A   1      33.368  35.788  29.302  1.00  0.00    -0.269 OA
BRANCH  44  47
ATOM     47  C   UNL A   1      34.614  33.817  29.042  1.00  0.00     0.039 A 
ATOM     48  C   UNL A   1      34.334  32.613  29.693  1.00  0.00     0.014 A 
ATOM     49  C   UNL A   1      35.929  34.225  28.819  1.00  0.00     0.014 A 
ATOM     50  C   UNL A   1      35.375  31.896  30.272  1.00  0.00     0.010 A 
ATOM     51  C   UNL A   1      36.975  33.456  29.331  1.00  0.00     0.010 A 
ATOM     52  C   UNL A   1      36.705  32.317  30.107  1.00  0.00    -0.014 A 
BRANCH  52  53
ATOM     53  C   UNL A   1      37.809  31.570  30.760  1.00  0.00     0.031 A 
ATOM     54  C   UNL A   1      38.179  31.842  32.193  1.00  0.00     0.074 A 
ATOM     55  C   UNL A   1      38.471  30.631  30.059  1.00  0.00     0.049 A 
ATOM     56  N   UNL A   1      39.169  31.353  32.893  1.00  0.00    -0.248 NA
ATOM     57  C   UNL A   1      37.327  32.785  32.938  1.00  0.00     0.031 C 
ATOM     58  C   UNL A   1      38.194  30.265  28.670  1.00  0.00     0.029 A 
ATOM     59  N   UNL A   1      39.512  29.816  30.421  1.00  0.00    -0.354 N 
ATOM     60  C   UNL A   1      39.087  31.953  34.144  1.00  0.00     0.074 A 
ATOM     61  C   UNL A   1      37.952  32.850  34.107  1.00  0.00     0.031 C 
ATOM     62  C   UNL A   1      39.023  29.279  28.304  1.00  0.00     0.029 A 
ATOM     63  C   UNL A   1      39.933  28.991  29.408  1.00  0.00     0.049 A 
ATOM     64  H   UNL A   1      39.918  29.822  31.318  1.00  0.00     0.167 HD
ATOM     65  C   UNL A   1      39.872  31.760  35.229  1.00  0.00     0.034 A 
ATOM     66  C   UNL A   1      40.954  28.115  29.357  1.00  0.00     0.034 A 
ATOM     67  C   UNL A   1      40.977  30.840  35.276  1.00  0.00     0.049 A 
ATOM     68  C   UNL A   1      41.832  27.941  30.559  1.00  0.00     0.074 A 
ATOM     69  C   UNL A   1      41.831  30.574  36.333  1.00  0.00     0.029 A 
ATOM     70  N   UNL A   1      41.377  30.029  34.226  1.00  0.00    -0.354 N 
ATOM     71  N   UNL A   1      41.734  28.510  31.736  1.00  0.00    -0.248 NA
ATOM     72  C   UNL A   1      42.955  27.004  30.431  1.00  0.00     0.031 C 
ATOM     73  C   UNL A   1      42.748  29.601  35.919  1.00  0.00     0.029 A 
ATOM     74  C   UNL A   1      42.459  29.255  34.609  1.00  0.00     0.049 A 
ATOM     75  H   UNL A   1      40.953  30.005  33.338  1.00  0.00     0.167 HD
ATOM     76  C   UNL A   1      42.779  28.000  32.492  1.00  0.00     0.074 A 
ATOM     77  C   UNL A   1      43.484  27.055  31.646  1.00  0.00     0.031 C 
ATOM     78  C   UNL A   1      43.134  28.302  33.766  1.00  0.00     0.034 A 
BRANCH  65  79
ATOM     79  C   UNL A   1      39.533  32.526  36.480  1.00  0.00     0.023 A 
ATOM     80  C   UNL A   1      40.181  33.752  36.732  1.00  0.00     0.012 A 
ATOM     81  C   UNL A   1      38.542  32.071  37.371  1.00  0.00     0.148 A 
ATOM     82  C   UNL A   1      39.865  34.503  37.864  1.00  0.00     0.002 A 
ATOM     83  C   UNL A   1      38.211  32.839  38.481  1.00  0.00     0.091 A 
ATOM     84  F   UNL A   1      37.951  30.893  37.122  1.00  0.00    -0.205 F 
ATOM     85  C   UNL A   1      38.875  34.051  38.732  1.00  0.00     0.022 A 
BRANCH  83  86
ATOM     86  S   UNL A   1      36.918  32.372  39.640  1.00  0.00     0.127 S 
ATOM     87  O   UNL A   1      37.373  31.050  40.068  1.00  0.00    -0.237 OA
ATOM     88  O   UNL A   1      37.028  33.415  40.660  1.00  0.00    -0.237 OA
ATOM     89  O   UNL A   1      35.675  32.388  38.882  1.00  0.00    -0.744 OA
ENDBRANCH  83  86
ENDBRANCH  65  79
BRANCH  66  90
ATOM     90  C   UNL A   1      41.149  27.322  28.116  1.00  0.00     0.023 A 
ATOM     91  C   UNL A   1      41.872  27.888  27.050  1.00  0.00     0.012 A 
ATOM     92  C   UNL A   1      40.743  25.975  28.044  1.00  0.00     0.148 A 
ATOM     93  C   UNL A   1      42.196  27.120  25.932  1.00  0.00     0.002 A 
ATOM     94  C   UNL A   1      41.107  25.205  26.946  1.00  0.00     0.091 A 
ATOM     95  F   UNL A   1      40.064  25.463  29.080  1.00  0.00    -0.205 F 
ATOM     96  C   UNL A   1      41.826  25.778  25.886  1.00  0.00     0.022 A 
BRANCH  94  97
ATOM     97  S   UNL A   1      40.782  23.442  26.847  1.00  0.00     0.127 S 
ATOM     98  O   UNL A   1      39.353  23.417  26.540  1.00  0.00    -0.237 OA
ATOM     99  O   UNL A   1      41.656  23.043  25.744  1.00  0.00    -0.237 OA
ATOM    100  O   UNL A   1      41.145  22.895  28.147  1.00  0.00    -0.744 OA
ENDBRANCH  94  97
ENDBRANCH  66  90
BRANCH  78 101
ATOM    101  C   UNL A   1      44.346  27.612  34.329  1.00  0.00     0.023 A 
ATOM    102  C   UNL A   1      45.610  28.218  34.185  1.00  0.00     0.012 A 
ATOM    103  C   UNL A   1      44.225  26.419  35.065  1.00  0.00     0.148 A 
ATOM    104  C   UNL A   1      46.741  27.635  34.754  1.00  0.00     0.002 A 
ATOM    105  C   UNL A   1      45.352  25.862  35.658  1.00  0.00     0.091 A 
ATOM    106  F   UNL A   1      43.014  25.856  35.175  1.00  0.00    -0.205 F 
ATOM    107  C   UNL A   1      46.611  26.464  35.498  1.00  0.00     0.022 A 
BRANCH 105 108
ATOM    108  S   UNL A   1      45.275  24.393  36.690  1.00  0.00     0.127 S 
ATOM    109  O   UNL A   1      44.363  24.821  37.749  1.00  0.00    -0.237 OA
ATOM    110  O   UNL A   1      44.721  23.398  35.771  1.00  0.00    -0.237 OA
ATOM    111  O   UNL A   1      46.643  24.128  37.115  1.00  0.00    -0.744 OA
ENDBRANCH 105 108
ENDBRANCH  78 101
ENDBRANCH  52  53
ENDBRANCH  44  47
ENDBRANCH  42  43
ENDBRANCH  41  42
ENDBRANCH  40  41
ENDBRANCH   1  40
TORSDOF 22
ENDMDL
MODEL 2
REMARK VINA RESULT:     -11.0      1.496      2.390
REMARK SMILES CC[C@@H](C)[C@H](NC(=O)[C@H](C)N1C(=O)N2CCC3=c4cc(OC)ccc4=N[C@@H]3[C@@]2(C)C1=O)C(=O)NCCCCCCNC(=O)c1ccc(-c2c3nc(c(-c4cccc(S(=O)(=O)[O-])c4F)c4ccc([nH]4)c(-c4cccc(S(=O)(=O)[O-])c4F)c4nc(c(-c5cccc(S(=O)(=O)[O-])c5F)c5ccc2[nH]5)C=C4)C=C3)cc1
REMARK SMILES IDX 37 1 36 2 35 3 34 4 32 5 33 6 5 8 3 9 4 10 2 11 1 12 6 13
REMARK SMILES IDX 7 14 8 16 9 17 10 18 11 19 12 20 30 21 14 22 13 23 28 24
REMARK SMILES IDX 31 25 15 26 27 27 29 28 16 29 17 30 26 31 18 32 25 33 19 34
REMARK SMILES IDX 24 35 20 36 23 37 21 38 22 39 38 40 39 41 40 42 41 43 42 44
REMARK SMILES IDX 43 46 44 47 45 48 106 49 46 50 105 51 47 52 48 53 49 54
REMARK SMILES IDX 99 55 50 56 104 57 98 58 100 59 51 60 103 61 97 62 96 63
REMARK SMILES IDX 52 65 84 66 64 67 83 68 65 69 68 70 82 71 101 72 66 73 67 74
REMARK SMILES IDX 81 76 102 77 69 78 53 79 54 80 62 81 55 82 57 83 63 84 56 85
REMARK SMILES IDX 58 86 59 87 60 88 61 89 85 90 86 91 94 92 87 93 89 94 95 95
REMARK SMILES IDX 88 96 90 97 91 98 92 99 93 100 70 101 71 102 79 103 72 104
REMARK SMILES IDX 74 105 80 106 73 107 75 108 76 109 77 110 78 111
REMARK H PARENT 34 7 6 15 41 45 100 64 68 75
REMARK Flexibility Score: inf
ROOT
ATOM      1  C   UNL A   1      32.345  30.052  27.121  1.00  0.00     0.002 C 
ENDROOT
BRANCH   1   2
ATOM      2  C   UNL A   1      31.753  28.651  27.295  1.00  0.00     0.021 C 
BRANCH   2   3
ATOM      3  C   UNL A   1      31.869  27.759  26.075  1.00  0.00     0.116 C 
BRANCH   3   4
ATOM      4  N   UNL A   1      33.020  28.119  25.303  1.00  0.00    -0.354 N 
ATOM      5  C   UNL A   1      33.172  28.126  23.954  1.00  0.00     0.242 C 
ATOM      6  O   UNL A   1      34.237  28.613  23.553  1.00  0.00    -0.273 OA
ATOM      7  H   UNL A   1      33.809  28.399  25.821  1.00  0.00     0.163 HD
BRANCH   5   8
ATOM      8  C   UNL A   1      31.984  27.809  22.971  1.00  0.00     0.174 C 
BRANCH   8   9
ATOM      9  C   UNL A   1      30.654  28.260  23.751  1.00  0.00     0.018 C 
ATOM     10  C   UNL A   1      29.508  27.259  23.643  1.00  0.00     0.010 C 
BRANCH   9  11
ATOM     11  C   UNL A   1      30.247  29.741  23.489  1.00  0.00     0.002 C 
ATOM     12  C   UNL A   1      28.807  30.037  23.091  1.00  0.00     0.004 C 
ENDBRANCH   9  11
ENDBRANCH   8   9
BRANCH   8  13
ATOM     13  N   UNL A   1      31.889  26.482  22.234  1.00  0.00    -0.342 N 
ATOM     14  C   UNL A   1      32.068  25.118  22.374  1.00  0.00     0.243 C 
ATOM     15  H   UNL A   1      31.585  26.660  21.314  1.00  0.00     0.164 HD
ATOM     16  O   UNL A   1      31.670  24.490  21.373  1.00  0.00    -0.273 OA
BRANCH  14  17
ATOM     17  C   UNL A   1      32.626  24.222  23.607  1.00  0.00     0.181 C 
ATOM     18  C   UNL A   1      31.696  24.414  24.805  1.00  0.00     0.042 C 
BRANCH  17  19
ATOM     19  N   UNL A   1      34.048  24.533  23.995  1.00  0.00    -0.250 N 
ATOM     20  C   UNL A   1      34.691  24.827  25.277  1.00  0.00     0.328 C 
ATOM     21  C   UNL A   1      34.893  23.797  23.243  1.00  0.00     0.259 C 
ATOM     22  N   UNL A   1      36.114  24.321  25.182  1.00  0.00    -0.307 N 
ATOM     23  O   UNL A   1      34.170  25.201  26.316  1.00  0.00    -0.248 OA
ATOM     24  C   UNL A   1      35.955  23.403  24.145  1.00  0.00     0.147 C 
ATOM     25  O   UNL A   1      34.749  23.301  22.136  1.00  0.00    -0.271 OA
ATOM     26  C   UNL A   1      37.152  23.603  26.209  1.00  0.00     0.127 C 
ATOM     27  C   UNL A   1      35.331  22.272  25.030  1.00  0.00     0.168 C 
ATOM     28  C   UNL A   1      37.243  23.424  23.305  1.00  0.00     0.048 C 
ATOM     29  C   UNL A   1      37.365  21.801  25.828  1.00  0.00     0.055 C 
ATOM     30  C   UNL A   1      36.138  21.084  25.020  1.00  0.00    -0.032 C 
ATOM     31  N   UNL A   1      33.986  22.066  25.673  1.00  0.00    -0.274 NA
ATOM     32  C   UNL A   1      35.145  20.136  25.058  1.00  0.00     0.005 A 
ATOM     33  C   UNL A   1      34.189  20.806  26.022  1.00  0.00     0.066 A 
ATOM     34  C   UNL A   1      34.080  20.016  23.881  1.00  0.00     0.056 A 
ATOM     35  C   UNL A   1      33.173  19.903  26.588  1.00  0.00     0.032 A 
ATOM     36  C   UNL A   1      32.748  19.934  24.249  1.00  0.00     0.119 A 
ATOM     37  C   UNL A   1      32.412  19.467  25.578  1.00  0.00     0.048 A 
BRANCH  36  38
ATOM     38  O   UNL A   1      31.768  20.704  23.669  1.00  0.00    -0.497 OA
ATOM     39  C   UNL A   1      31.788  21.124  22.286  1.00  0.00     0.278 C 
ENDBRANCH  36  38
ENDBRANCH  17  19
ENDBRANCH  14  17
ENDBRANCH   8  13
ENDBRANCH   5   8
ENDBRANCH   3   4
ENDBRANCH   2   3
ENDBRANCH   1   2
BRANCH   1  40
ATOM     40  C   UNL A   1      31.491  31.057  26.341  1.00  0.00     0.002 C 
BRANCH  40  41
ATOM     41  C   UNL A   1      31.464  32.481  26.893  1.00  0.00     0.021 C 
BRANCH  41  42
ATOM     42  C   UNL A   1      32.826  33.099  27.161  1.00  0.00     0.116 C 
BRANCH  42  43
ATOM     43  N   UNL A   1      32.756  34.343  27.898  1.00  0.00    -0.352 N 
ATOM     44  C   UNL A   1      33.561  34.756  28.951  1.00  0.00     0.251 C 
ATOM     45  H   UNL A   1      32.051  34.972  27.620  1.00  0.00     0.163 HD
ATOM     46  O   UNL A   1      33.351  35.777  29.535  1.00  0.00    -0.269 OA
BRANCH  44  47
ATOM     47  C   UNL A   1      34.659  33.838  29.347  1.00  0.00     0.039 A 
ATOM     48  C   UNL A   1      34.389  32.718  30.137  1.00  0.00     0.014 A 
ATOM     49  C   UNL A   1      35.969  34.198  29.035  1.00  0.00     0.014 A 
ATOM     50  C   UNL A   1      35.441  32.053  30.756  1.00  0.00     0.010 A 
ATOM     51  C   UNL A   1      37.025  33.475  29.594  1.00  0.00     0.010 A 
ATOM     52  C   UNL A   1      36.769  32.433  30.500  1.00  0.00    -0.014 A 
BRANCH  52  53
ATOM     53  C   UNL A   1      37.887  31.746  31.193  1.00  0.00     0.031 A 
ATOM     54  C   UNL A   1      38.302  32.160  32.579  1.00  0.00     0.074 A 
ATOM     55  C   UNL A   1      38.521  30.733  30.574  1.00  0.00     0.049 A 
ATOM     56  N   UNL A   1      39.310  31.735  33.297  1.00  0.00    -0.248 NA
ATOM     57  C   UNL A   1      37.481  33.183  33.248  1.00  0.00     0.031 C 
ATOM     58  C   UNL A   1      38.199  30.229  29.239  1.00  0.00     0.029 A 
ATOM     59  N   UNL A   1      39.567  29.949  30.987  1.00  0.00    -0.354 N 
ATOM     60  C   UNL A   1      39.270  32.462  34.481  1.00  0.00     0.074 A 
ATOM     61  C   UNL A   1      38.141  33.361  34.385  1.00  0.00     0.031 C 
ATOM     62  C   UNL A   1      39.010  29.202  28.952  1.00  0.00     0.029 A 
ATOM     63  C   UNL A   1      39.951  29.020  30.052  1.00  0.00     0.049 A 
ATOM     64  H   UNL A   1      40.000  30.043  31.866  1.00  0.00     0.167 HD
ATOM     65  C   UNL A   1      40.087  32.374  35.557  1.00  0.00     0.034 A 
ATOM     66  C   UNL A   1      40.964  28.133  30.062  1.00  0.00     0.034 A 
ATOM     67  C   UNL A   1      41.186  31.452  35.665  1.00  0.00     0.049 A 
ATOM     68  C   UNL A   1      41.876  28.075  31.249  1.00  0.00     0.074 A 
ATOM     69  C   UNL A   1      42.070  31.287  36.719  1.00  0.00     0.029 A 
ATOM     70  N   UNL A   1      41.548  30.533  34.693  1.00  0.00    -0.354 N 
ATOM     71  N   UNL A   1      41.819  28.763  32.363  1.00  0.00    -0.248 NA
ATOM     72  C   UNL A   1      42.989  27.118  31.185  1.00  0.00     0.031 C 
ATOM     73  C   UNL A   1      42.967  30.267  36.380  1.00  0.00     0.029 A 
ATOM     74  C   UNL A   1      42.636  29.792  35.121  1.00  0.00     0.049 A 
ATOM     75  H   UNL A   1      41.097  30.422  33.825  1.00  0.00     0.167 HD
ATOM     76  C   UNL A   1      42.883  28.323  33.137  1.00  0.00     0.074 A 
ATOM     77  C   UNL A   1      43.555  27.289  32.373  1.00  0.00     0.031 C 
ATOM     78  C   UNL A   1      43.278  28.750  34.362  1.00  0.00     0.034 A 
BRANCH  65  79
ATOM     79  C   UNL A   1      39.791  33.267  36.731  1.00  0.00     0.023 A 
ATOM     80  C   UNL A   1      40.240  34.603  36.708  1.00  0.00     0.012 A 
ATOM     81  C   UNL A   1      39.027  32.812  37.824  1.00  0.00     0.148 A 
ATOM     82  C   UNL A   1      39.953  35.467  37.764  1.00  0.00     0.002 A 
ATOM     83  C   UNL A   1      38.721  33.687  38.859  1.00  0.00     0.091 A 
ATOM     84  F   UNL A   1      38.626  31.533  37.834  1.00  0.00    -0.205 F 
ATOM     85  C   UNL A   1      39.187  35.012  38.834  1.00  0.00     0.022 A 
BRANCH  83  86
ATOM     86  S   UNL A   1      37.701  33.217  40.263  1.00  0.00     0.127 S 
ATOM     87  O   UNL A   1      38.395  32.022  40.741  1.00  0.00    -0.237 OA
ATOM     88  O   UNL A   1      37.823  34.384  41.137  1.00  0.00    -0.237 OA
ATOM     89  O   UNL A   1      36.365  32.991  39.731  1.00  0.00    -0.744 OA
ENDBRANCH  83  86
ENDBRANCH  65  79
BRANCH  66  90
ATOM     90  C   UNL A   1      41.116  27.215  28.904  1.00  0.00     0.023 A 
ATOM     91  C   UNL A   1      40.218  26.141  28.761  1.00  0.00     0.012 A 
ATOM     92  C   UNL A   1      42.051  27.481  27.884  1.00  0.00     0.148 A 
ATOM     93  C   UNL A   1      40.243  25.350  27.613  1.00  0.00     0.002 A 
ATOM     94  C   UNL A   1      42.041  26.714  26.726  1.00  0.00     0.091 A 
ATOM     95  F   UNL A   1      42.886  28.516  28.047  1.00  0.00    -0.205 F 
ATOM     96  C   UNL A   1      41.143  25.644  26.592  1.00  0.00     0.022 A 
BRANCH  94  97
ATOM     97  S   UNL A   1      43.077  27.086  25.307  1.00  0.00     0.127 S 
ATOM     98  O   UNL A   1      43.068  25.813  24.588  1.00  0.00    -0.237 OA
ATOM     99  O   UNL A   1      42.323  28.162  24.665  1.00  0.00    -0.237 OA
ATOM    100  O   UNL A   1      44.370  27.481  25.850  1.00  0.00    -0.744 OA
ENDBRANCH  94  97
ENDBRANCH  66  90
BRANCH  78 101
ATOM    101  C   UNL A   1      44.502  28.110  34.957  1.00  0.00     0.023 A 
ATOM    102  C   UNL A   1      45.761  28.701  34.739  1.00  0.00     0.012 A 
ATOM    103  C   UNL A   1      44.397  26.982  35.792  1.00  0.00     0.148 A 
ATOM    104  C   UNL A   1      46.904  28.168  35.333  1.00  0.00     0.002 A 
ATOM    105  C   UNL A   1      45.536  26.476  36.407  1.00  0.00     0.091 A 
ATOM    106  F   UNL A   1      43.189  26.430  35.971  1.00  0.00    -0.205 F 
ATOM    107  C   UNL A   1      46.790  27.063  36.173  1.00  0.00     0.022 A 
BRANCH 105 108
ATOM    108  S   UNL A   1      45.481  25.098  37.558  1.00  0.00     0.127 S 
ATOM    109  O   UNL A   1      46.888  24.964  37.930  1.00  0.00    -0.237 OA
ATOM    110  O   UNL A   1      44.615  25.615  38.619  1.00  0.00    -0.237 OA
ATOM    111  O   UNL A   1      44.923  23.975  36.816  1.00  0.00    -0.744 OA
ENDBRANCH 105 108
ENDBRANCH  78 101
ENDBRANCH  52  53
ENDBRANCH  44  47
ENDBRANCH  42  43
ENDBRANCH  41  42
ENDBRANCH  40  41
ENDBRANCH   1  40
TORSDOF 22
ENDMDL
MODEL 3
REMARK VINA RESULT:     -10.9      2.512      7.504
REMARK SMILES CC[C@@H](C)[C@H](NC(=O)[C@H](C)N1C(=O)N2CCC3=c4cc(OC)ccc4=N[C@@H]3[C@@]2(C)C1=O)C(=O)NCCCCCCNC(=O)c1ccc(-c2c3nc(c(-c4cccc(S(=O)(=O)[O-])c4F)c4ccc([nH]4)c(-c4cccc(S(=O)(=O)[O-])c4F)c4nc(c(-c5cccc(S(=O)(=O)[O-])c5F)c5ccc2[nH]5)C=C4)C=C3)cc1
REMARK SMILES IDX 37 1 36 2 35 3 34 4 32 5 33 6 5 8 3 9 4 10 2 11 1 12 6 13
REMARK SMILES IDX 7 14 8 16 9 17 10 18 11 19 12 20 30 21 14 22 13 23 28 24
REMARK SMILES IDX 31 25 15 26 27 27 29 28 16 29 17 30 26 31 18 32 25 33 19 34
REMARK SMILES IDX 24 35 20 36 23 37 21 38 22 39 38 40 39 41 40 42 41 43 42 44
REMARK SMILES IDX 43 46 44 47 45 48 106 49 46 50 105 51 47 52 48 53 49 54
REMARK SMILES IDX 99 55 50 56 104 57 98 58 100 59 51 60 103 61 97 62 96 63
REMARK SMILES IDX 52 65 84 66 64 67 83 68 65 69 68 70 82 71 101 72 66 73 67 74
REMARK SMILES IDX 81 76 102 77 69 78 53 79 54 80 62 81 55 82 57 83 63 84 56 85
REMARK SMILES IDX 58 86 59 87 60 88 61 89 85 90 86 91 94 92 87 93 89 94 95 95
REMARK SMILES IDX 88 96 90 97 91 98 92 99 93 100 70 101 71 102 79 103 72 104
REMARK SMILES IDX 74 105 80 106 73 107 75 108 76 109 77 110 78 111
REMARK H PARENT 34 7 6 15 41 45 100 64 68 75
REMARK Flexibility Score: inf
ROOT
ATOM      1  C   UNL A   1      34.540  31.885  28.877  1.00  0.00     0.002 C 
ENDROOT
BRANCH   1   2
ATOM      2  C   UNL A   1      35.688  30.927  28.543  1.00  0.00     0.021 C 
BRANCH   2   3
ATOM      3  C   UNL A   1      35.374  29.917  27.457  1.00  0.00     0.116 C 
BRANCH   3   4
ATOM      4  N   UNL A   1      34.283  29.079  27.858  1.00  0.00    -0.354 N 
ATOM      5  C   UNL A   1      33.136  28.798  27.189  1.00  0.00     0.242 C 
ATOM      6  O   UNL A   1      32.426  27.932  27.716  1.00  0.00    -0.273 OA
ATOM      7  H   UNL A   1      34.379  28.649  28.739  1.00  0.00     0.163 HD
BRANCH   5   8
ATOM      8  C   UNL A   1      32.866  29.314  25.727  1.00  0.00     0.174 C 
BRANCH   8   9
ATOM      9  C   UNL A   1      31.467  30.102  25.804  1.00  0.00     0.018 C 
ATOM     10  C   UNL A   1      30.762  30.237  24.457  1.00  0.00     0.010 C 
BRANCH   9  11
ATOM     11  C   UNL A   1      31.537  31.419  26.633  1.00  0.00     0.002 C 
ATOM     12  C   UNL A   1      30.936  32.684  26.035  1.00  0.00     0.004 C 
ENDBRANCH   9  11
ENDBRANCH   8   9
BRANCH   8  13
ATOM     13  N   UNL A   1      33.037  28.409  24.516  1.00  0.00    -0.342 N 
ATOM     14  C   UNL A   1      32.655  27.196  23.972  1.00  0.00     0.243 C 
ATOM     15  H   UNL A   1      33.648  28.852  23.883  1.00  0.00     0.164 HD
ATOM     16  O   UNL A   1      33.060  27.063  22.800  1.00  0.00    -0.273 OA
BRANCH  14  17
ATOM     17  C   UNL A   1      31.742  25.988  24.557  1.00  0.00     0.181 C 
ATOM     18  C   UNL A   1      30.332  26.524  24.805  1.00  0.00     0.042 C 
BRANCH  17  19
ATOM     19  N   UNL A   1      32.290  25.360  25.812  1.00  0.00    -0.250 N 
ATOM     20  C   UNL A   1      31.762  24.356  26.737  1.00  0.00     0.328 C 
ATOM     21  C   UNL A   1      33.620  25.174  25.681  1.00  0.00     0.259 C 
ATOM     22  N   UNL A   1      32.951  23.609  27.302  1.00  0.00    -0.307 N 
ATOM     23  O   UNL A   1      30.602  24.004  26.891  1.00  0.00    -0.248 OA
ATOM     24  C   UNL A   1      33.887  23.898  26.309  1.00  0.00     0.147 C 
ATOM     25  O   UNL A   1      34.440  25.751  24.983  1.00  0.00    -0.271 OA
ATOM     26  C   UNL A   1      33.252  22.064  27.713  1.00  0.00     0.127 C 
ATOM     27  C   UNL A   1      33.367  22.831  25.289  1.00  0.00     0.168 C 
ATOM     28  C   UNL A   1      35.256  24.048  26.992  1.00  0.00     0.048 C 
ATOM     29  C   UNL A   1      34.362  21.227  26.486  1.00  0.00     0.055 C 
ATOM     30  C   UNL A   1      34.375  21.858  24.977  1.00  0.00    -0.032 C 
ATOM     31  N   UNL A   1      32.162  22.738  24.392  1.00  0.00    -0.274 NA
ATOM     32  C   UNL A   1      34.088  21.651  23.650  1.00  0.00     0.005 A 
ATOM     33  C   UNL A   1      32.576  21.685  23.708  1.00  0.00     0.066 A 
ATOM     34  C   UNL A   1      34.204  22.833  22.592  1.00  0.00     0.056 A 
ATOM     35  C   UNL A   1      31.915  21.126  22.517  1.00  0.00     0.032 A 
ATOM     36  C   UNL A   1      33.135  23.009  21.730  1.00  0.00     0.119 A 
ATOM     37  C   UNL A   1      32.248  21.894  21.473  1.00  0.00     0.048 A 
BRANCH  36  38
ATOM     38  O   UNL A   1      32.562  24.237  21.496  1.00  0.00    -0.497 OA
ATOM     39  C   UNL A   1      32.641  24.932  20.231  1.00  0.00     0.278 C 
ENDBRANCH  36  38
ENDBRANCH  17  19
ENDBRANCH  14  17
ENDBRANCH   8  13
ENDBRANCH   5   8
ENDBRANCH   3   4
ENDBRANCH   2   3
ENDBRANCH   1   2
BRANCH   1  40
ATOM     40  C   UNL A   1      34.546  33.231  28.144  1.00  0.00     0.002 C 
BRANCH  40  41
ATOM     41  C   UNL A   1      33.358  34.148  28.425  1.00  0.00     0.021 C 
BRANCH  41  42
ATOM     42  C   UNL A   1      33.701  35.470  29.090  1.00  0.00     0.116 C 
BRANCH  42  43
ATOM     43  N   UNL A   1      32.995  35.686  30.335  1.00  0.00    -0.352 N 
ATOM     44  C   UNL A   1      33.290  35.158  31.585  1.00  0.00     0.251 C 
ATOM     45  H   UNL A   1      32.210  36.278  30.291  1.00  0.00     0.163 HD
ATOM     46  O   UNL A   1      32.580  35.347  32.528  1.00  0.00    -0.269 OA
BRANCH  44  47
ATOM     47  C   UNL A   1      34.501  34.303  31.675  1.00  0.00     0.039 A 
ATOM     48  C   UNL A   1      34.419  33.023  32.230  1.00  0.00     0.014 A 
ATOM     49  C   UNL A   1      35.732  34.858  31.329  1.00  0.00     0.014 A 
ATOM     50  C   UNL A   1      35.587  32.365  32.595  1.00  0.00     0.010 A 
ATOM     51  C   UNL A   1      36.902  34.156  31.623  1.00  0.00     0.010 A 
ATOM     52  C   UNL A   1      36.841  32.930  32.305  1.00  0.00    -0.014 A 
BRANCH  52  53
ATOM     53  C   UNL A   1      38.084  32.242  32.733  1.00  0.00     0.031 A 
ATOM     54  C   UNL A   1      38.703  31.169  31.878  1.00  0.00     0.074 A 
ATOM     55  C   UNL A   1      38.667  32.599  33.892  1.00  0.00     0.049 A 
ATOM     56  N   UNL A   1      39.731  30.404  32.136  1.00  0.00    -0.248 NA
ATOM     57  C   UNL A   1      38.089  30.923  30.562  1.00  0.00     0.031 C 
ATOM     58  C   UNL A   1      38.173  33.637  34.798  1.00  0.00     0.029 A 
ATOM     59  N   UNL A   1      39.799  32.128  34.505  1.00  0.00    -0.354 N 
ATOM     60  C   UNL A   1      39.865  29.560  31.040  1.00  0.00     0.074 A 
ATOM     61  C   UNL A   1      38.809  29.903  30.113  1.00  0.00     0.031 C 
ATOM     62  C   UNL A   1      39.012  33.745  35.837  1.00  0.00     0.029 A 
ATOM     63  C   UNL A   1      40.062  32.742  35.705  1.00  0.00     0.049 A 
ATOM     64  H   UNL A   1      40.367  31.421  34.123  1.00  0.00     0.167 HD
ATOM     65  C   UNL A   1      40.795  28.602  30.817  1.00  0.00     0.034 A 
ATOM     66  C   UNL A   1      41.026  32.509  36.615  1.00  0.00     0.034 A 
ATOM     67  C   UNL A   1      41.868  28.288  31.722  1.00  0.00     0.049 A 
ATOM     68  C   UNL A   1      42.026  31.422  36.364  1.00  0.00     0.074 A 
ATOM     69  C   UNL A   1      42.862  27.335  31.582  1.00  0.00     0.029 A 
ATOM     70  N   UNL A   1      42.095  28.926  32.932  1.00  0.00    -0.354 N 
ATOM     71  N   UNL A   1      42.143  30.640  35.318  1.00  0.00    -0.248 NA
ATOM     72  C   UNL A   1      43.027  31.186  37.412  1.00  0.00     0.031 C 
ATOM     73  C   UNL A   1      43.689  27.396  32.709  1.00  0.00     0.029 A 
ATOM     74  C   UNL A   1      43.216  28.394  33.547  1.00  0.00     0.049 A 
ATOM     75  H   UNL A   1      41.542  29.652  33.300  1.00  0.00     0.167 HD
ATOM     76  C   UNL A   1      43.232  29.820  35.577  1.00  0.00     0.074 A 
ATOM     77  C   UNL A   1      43.756  30.218  36.870  1.00  0.00     0.031 C 
ATOM     78  C   UNL A   1      43.740  28.816  34.820  1.00  0.00     0.034 A 
BRANCH  65  79
ATOM     79  C   UNL A   1      40.725  27.853  29.513  1.00  0.00     0.023 A 
ATOM     80  C   UNL A   1      39.766  26.832  29.359  1.00  0.00     0.012 A 
ATOM     81  C   UNL A   1      41.558  28.190  28.429  1.00  0.00     0.148 A 
ATOM     82  C   UNL A   1      39.651  26.141  28.153  1.00  0.00     0.002 A 
ATOM     83  C   UNL A   1      41.418  27.517  27.221  1.00  0.00     0.091 A 
ATOM     84  F   UNL A   1      42.477  29.151  28.604  1.00  0.00    -0.205 F 
ATOM     85  C   UNL A   1      40.470  26.490  27.082  1.00  0.00     0.022 A 
BRANCH  83  86
ATOM     86  S   UNL A   1      42.391  27.919  25.764  1.00  0.00     0.127 S 
ATOM     87  O   UNL A   1      43.751  27.890  26.303  1.00  0.00    -0.237 OA
ATOM     88  O   UNL A   1      42.069  26.812  24.863  1.00  0.00    -0.237 OA
ATOM     89  O   UNL A   1      41.926  29.224  25.316  1.00  0.00    -0.744 OA
ENDBRANCH  83  86
ENDBRANCH  65  79
BRANCH  66  90
ATOM     90  C   UNL A   1      41.084  33.371  37.824  1.00  0.00     0.023 A 
ATOM     91  C   UNL A   1      40.389  32.973  38.981  1.00  0.00     0.012 A 
ATOM     92  C   UNL A   1      41.928  34.498  37.872  1.00  0.00     0.148 A 
ATOM     93  C   UNL A   1      40.540  33.681  40.173  1.00  0.00     0.002 A 
ATOM     94  C   UNL A   1      42.105  35.173  39.074  1.00  0.00     0.091 A 
ATOM     95  F   UNL A   1      42.582  34.846  36.756  1.00  0.00    -0.205 F 
ATOM     96  C   UNL A   1      41.406  34.771  40.222  1.00  0.00     0.022 A 
BRANCH  94  97
ATOM     97  S   UNL A   1      43.287  36.511  39.270  1.00  0.00     0.127 S 
ATOM     98  O   UNL A   1      43.478  36.531  40.719  1.00  0.00    -0.237 OA
ATOM     99  O   UNL A   1      44.429  36.010  38.505  1.00  0.00    -0.237 OA
ATOM    100  O   UNL A   1      42.646  37.694  38.713  1.00  0.00    -0.744 OA
ENDBRANCH  94  97
ENDBRANCH  66  90
BRANCH  78 101
ATOM    101  C   UNL A   1      44.921  28.064  35.369  1.00  0.00     0.023 A 
ATOM    102  C   UNL A   1      46.217  28.571  35.156  1.00  0.00     0.012 A 
ATOM    103  C   UNL A   1      44.744  26.911  36.157  1.00  0.00     0.148 A 
ATOM    104  C   UNL A   1      47.325  27.931  35.709  1.00  0.00     0.002 A 
ATOM    105  C   UNL A   1      45.851  26.298  36.732  1.00  0.00     0.091 A 
ATOM    106  F   UNL A   1      43.501  26.441  36.332  1.00  0.00    -0.205 F 
ATOM    107  C   UNL A   1      47.142  26.802  36.503  1.00  0.00     0.022 A 
BRANCH 105 108
ATOM    108  S   UNL A   1      45.710  24.880  37.825  1.00  0.00     0.127 S 
ATOM    109  O   UNL A   1      44.738  25.356  38.808  1.00  0.00    -0.237 OA
ATOM    110  O   UNL A   1      45.208  23.842  36.923  1.00  0.00    -0.237 OA
ATOM    111  O   UNL A   1      47.050  24.635  38.342  1.00  0.00    -0.744 OA
ENDBRANCH 105 108
ENDBRANCH  78 101
ENDBRANCH  52  53
ENDBRANCH  44  47
ENDBRANCH  42  43
ENDBRANCH  41  42
ENDBRANCH  40  41
ENDBRANCH   1  40
TORSDOF 22
ENDMDL
