MODEL 1
REMARK VINA RESULT:     -11.3      0.000      0.000
REMARK SMILES CSc1ccccc1Sc1cc(C(=O)NCCCCCCNC(=O)c2ccc(-c3c4nc(c(-c5cccc(S(=O)(=O)[O-])c5F)c5ccc([nH]5)c(-c5cccc(S(=O)(=O)[O-])c5F)c5nc(c(-c6cccc(S(=O)(=O)[O-])c6F)c6ccc3[nH]6)C=C5)C=C4)cc2)c2ccccc2n1
REMARK SMILES IDX 18 1 17 2 16 3 15 4 13 5 14 6 12 8 10 9 11 10 94 11 93 12
REMARK SMILES IDX 88 13 92 14 89 15 91 16 90 17 9 18 8 19 3 20 4 21 5 22 7 23
REMARK SMILES IDX 6 24 2 25 1 26 19 27 20 28 21 29 22 30 23 31 24 33 25 34
REMARK SMILES IDX 26 35 87 36 27 37 86 38 28 39 29 40 30 41 80 42 31 43 85 44
REMARK SMILES IDX 79 45 81 46 32 47 84 48 78 49 77 50 33 52 65 53 45 54 64 55
REMARK SMILES IDX 46 56 49 57 63 58 82 59 47 60 48 61 62 63 83 64 50 65 34 66
REMARK SMILES IDX 35 67 43 68 36 69 38 70 44 71 37 72 39 73 40 74 41 75 42 76
REMARK SMILES IDX 66 77 67 78 75 79 68 80 70 81 76 82 69 83 71 84 72 85 73 86
REMARK SMILES IDX 74 87 51 88 52 89 60 90 53 91 55 92 61 93 54 94 56 95 57 96
REMARK SMILES IDX 58 97 59 98
REMARK H PARENT 15 7 22 32 81 51 49 62
REMARK Flexibility Score: inf
ROOT
ATOM      1  C   UNL A   1      31.079  26.512  25.787  1.00  0.00     0.002 C 
ENDROOT
BRANCH   1   2
ATOM      2  C   UNL A   1      31.941  25.740  24.775  1.00  0.00     0.021 C 
BRANCH   2   3
ATOM      3  C   UNL A   1      31.131  24.824  23.851  1.00  0.00     0.116 C 
BRANCH   3   4
ATOM      4  N   UNL A   1      31.975  24.377  22.754  1.00  0.00    -0.352 N 
ATOM      5  C   UNL A   1      33.119  23.639  22.610  1.00  0.00     0.252 C 
ATOM      6  O   UNL A   1      33.534  23.560  21.453  1.00  0.00    -0.269 OA
ATOM      7  H   UNL A   1      31.633  24.687  21.884  1.00  0.00     0.163 HD
BRANCH   5   8
ATOM      8  C   UNL A   1      33.800  22.892  23.713  1.00  0.00     0.051 A 
ATOM      9  C   UNL A   1      35.512  22.563  25.306  1.00  0.00     0.102 A 
ATOM     10  C   UNL A   1      34.993  23.323  24.272  1.00  0.00     0.050 A 
ATOM     11  N   UNL A   1      34.741  21.764  26.054  1.00  0.00    -0.241 NA
ATOM     12  C   UNL A   1      33.781  21.151  25.386  1.00  0.00     0.072 A 
ATOM     13  C   UNL A   1      33.344  21.602  24.125  1.00  0.00     0.013 A 
ATOM     14  C   UNL A   1      33.380  19.931  25.894  1.00  0.00     0.029 A 
ATOM     15  C   UNL A   1      32.638  20.665  23.332  1.00  0.00     0.011 A 
ATOM     16  C   UNL A   1      32.716  19.016  25.088  1.00  0.00     0.002 A 
ATOM     17  C   UNL A   1      32.383  19.370  23.789  1.00  0.00     0.001 A 
BRANCH   9  18
ATOM     18  S   UNL A   1      37.077  21.755  24.826  1.00  0.00    -0.069 SA
BRANCH  18  19
ATOM     19  C   UNL A   1      38.242  22.611  25.852  1.00  0.00     0.027 A 
ATOM     20  C   UNL A   1      39.366  21.981  26.411  1.00  0.00     0.021 A 
ATOM     21  C   UNL A   1      40.160  22.718  27.305  1.00  0.00     0.016 A 
ATOM     22  C   UNL A   1      39.857  24.044  27.628  1.00  0.00     0.001 A 
ATOM     23  C   UNL A   1      37.959  23.958  26.158  1.00  0.00     0.016 A 
ATOM     24  C   UNL A   1      38.767  24.673  27.039  1.00  0.00     0.001 A 
BRANCH  20  25
ATOM     25  S   UNL A   1      39.987  20.349  25.968  1.00  0.00    -0.128 SA
ATOM     26  C   UNL A   1      41.486  20.164  26.977  1.00  0.00     0.091 C 
ENDBRANCH  20  25
ENDBRANCH  18  19
ENDBRANCH   9  18
ENDBRANCH   5   8
ENDBRANCH   3   4
ENDBRANCH   2   3
ENDBRANCH   1   2
BRANCH   1  27
ATOM     27  C   UNL A   1      31.651  27.868  26.220  1.00  0.00     0.002 C 
BRANCH  27  28
ATOM     28  C   UNL A   1      33.149  27.866  26.533  1.00  0.00     0.021 C 
BRANCH  28  29
ATOM     29  C   UNL A   1      33.940  28.976  25.845  1.00  0.00     0.116 C 
BRANCH  29  30
ATOM     30  N   UNL A   1      33.520  30.297  26.290  1.00  0.00    -0.352 N 
ATOM     31  C   UNL A   1      33.990  31.048  27.336  1.00  0.00     0.251 C 
ATOM     32  H   UNL A   1      32.796  30.709  25.766  1.00  0.00     0.163 HD
ATOM     33  O   UNL A   1      33.371  32.048  27.702  1.00  0.00    -0.269 OA
BRANCH  31  34
ATOM     34  C   UNL A   1      35.229  30.647  28.034  1.00  0.00     0.039 A 
ATOM     35  C   UNL A   1      36.321  31.518  28.031  1.00  0.00     0.014 A 
ATOM     36  C   UNL A   1      35.309  29.418  28.696  1.00  0.00     0.014 A 
ATOM     37  C   UNL A   1      37.470  31.184  28.752  1.00  0.00     0.010 A 
ATOM     38  C   UNL A   1      36.427  29.121  29.470  1.00  0.00     0.010 A 
ATOM     39  C   UNL A   1      37.517  30.002  29.511  1.00  0.00    -0.014 A 
BRANCH  39  40
ATOM     40  C   UNL A   1      38.676  29.702  30.391  1.00  0.00     0.031 A 
ATOM     41  C   UNL A   1      38.818  30.373  31.729  1.00  0.00     0.074 A 
ATOM     42  C   UNL A   1      39.648  28.885  29.940  1.00  0.00     0.049 A 
ATOM     43  N   UNL A   1      39.785  30.265  32.604  1.00  0.00    -0.248 NA
ATOM     44  C   UNL A   1      37.750  31.304  32.128  1.00  0.00     0.031 C 
ATOM     45  C   UNL A   1      39.664  28.237  28.626  1.00  0.00     0.029 A 
ATOM     46  N   UNL A   1      40.826  28.483  30.521  1.00  0.00    -0.354 N 
ATOM     47  C   UNL A   1      39.461  31.133  33.640  1.00  0.00     0.074 A 
ATOM     48  C   UNL A   1      38.221  31.783  33.271  1.00  0.00     0.031 C 
ATOM     49  C   UNL A   1      40.789  27.517  28.504  1.00  0.00     0.029 A 
ATOM     50  C   UNL A   1      41.594  27.681  29.711  1.00  0.00     0.049 A 
ATOM     51  H   UNL A   1      41.094  28.744  31.432  1.00  0.00     0.167 HD
ATOM     52  C   UNL A   1      40.120  31.349  34.803  1.00  0.00     0.034 A 
ATOM     53  C   UNL A   1      42.816  27.147  29.908  1.00  0.00     0.034 A 
ATOM     54  C   UNL A   1      41.337  30.679  35.177  1.00  0.00     0.049 A 
ATOM     55  C   UNL A   1      43.519  27.394  31.214  1.00  0.00     0.074 A 
ATOM     56  C   UNL A   1      42.029  30.760  36.373  1.00  0.00     0.029 A 
ATOM     57  N   UNL A   1      42.056  29.824  34.358  1.00  0.00    -0.354 N 
ATOM     58  N   UNL A   1      43.112  28.081  32.253  1.00  0.00    -0.248 NA
ATOM     59  C   UNL A   1      44.838  26.770  31.385  1.00  0.00     0.031 C 
ATOM     60  C   UNL A   1      43.187  29.983  36.262  1.00  0.00     0.029 A 
ATOM     61  C   UNL A   1      43.198  29.390  35.010  1.00  0.00     0.049 A 
ATOM     62  H   UNL A   1      41.794  29.562  33.445  1.00  0.00     0.167 HD
ATOM     63  C   UNL A   1      44.111  27.952  33.210  1.00  0.00     0.074 A 
ATOM     64  C   UNL A   1      45.129  27.095  32.638  1.00  0.00     0.031 C 
ATOM     65  C   UNL A   1      44.188  28.508  34.444  1.00  0.00     0.034 A 
BRANCH  52  66
ATOM     66  C   UNL A   1      39.517  32.325  35.781  1.00  0.00     0.023 A 
ATOM     67  C   UNL A   1      38.495  31.897  36.653  1.00  0.00     0.012 A 
ATOM     68  C   UNL A   1      40.006  33.642  35.885  1.00  0.00     0.148 A 
ATOM     69  C   UNL A   1      37.944  32.773  37.587  1.00  0.00     0.002 A 
ATOM     70  C   UNL A   1      39.485  34.496  36.850  1.00  0.00     0.091 A 
ATOM     71  F   UNL A   1      40.966  34.037  35.036  1.00  0.00    -0.205 F 
ATOM     72  C   UNL A   1      38.446  34.068  37.693  1.00  0.00     0.022 A 
BRANCH  70  73
ATOM     73  S   UNL A   1      40.115  36.156  37.122  1.00  0.00     0.127 S 
ATOM     74  O   UNL A   1      39.983  36.743  35.789  1.00  0.00    -0.237 OA
ATOM     75  O   UNL A   1      39.177  36.681  38.114  1.00  0.00    -0.237 OA
ATOM     76  O   UNL A   1      41.480  35.995  37.600  1.00  0.00    -0.744 OA
ENDBRANCH  70  73
ENDBRANCH  52  66
BRANCH  53  77
ATOM     77  C   UNL A   1      43.434  26.294  28.854  1.00  0.00     0.023 A 
ATOM     78  C   UNL A   1      43.168  24.911  28.837  1.00  0.00     0.012 A 
ATOM     79  C   UNL A   1      44.259  26.847  27.856  1.00  0.00     0.148 A 
ATOM     80  C   UNL A   1      43.740  24.089  27.865  1.00  0.00     0.002 A 
ATOM     81  C   UNL A   1      44.777  26.033  26.856  1.00  0.00     0.091 A 
ATOM     82  F   UNL A   1      44.508  28.164  27.896  1.00  0.00    -0.205 F 
ATOM     83  C   UNL A   1      44.535  24.650  26.869  1.00  0.00     0.022 A 
BRANCH  81  84
ATOM     84  S   UNL A   1      45.697  26.689  25.460  1.00  0.00     0.127 S 
ATOM     85  O   UNL A   1      44.766  27.678  24.926  1.00  0.00    -0.237 OA
ATOM     86  O   UNL A   1      46.881  27.246  26.116  1.00  0.00    -0.237 OA
ATOM     87  O   UNL A   1      45.971  25.548  24.598  1.00  0.00    -0.744 OA
ENDBRANCH  81  84
ENDBRANCH  53  77
BRANCH  65  88
ATOM     88  C   UNL A   1      45.410  28.200  35.272  1.00  0.00     0.023 A 
ATOM     89  C   UNL A   1      46.594  28.936  35.071  1.00  0.00     0.012 A 
ATOM     90  C   UNL A   1      45.364  27.229  36.293  1.00  0.00     0.148 A 
ATOM     91  C   UNL A   1      47.724  28.688  35.849  1.00  0.00     0.002 A 
ATOM     92  C   UNL A   1      46.478  27.024  37.099  1.00  0.00     0.091 A 
ATOM     93  F   UNL A   1      44.233  26.529  36.459  1.00  0.00    -0.205 F 
ATOM     94  C   UNL A   1      47.663  27.741  36.869  1.00  0.00     0.022 A 
BRANCH  92  95
ATOM     95  S   UNL A   1      46.465  25.895  38.496  1.00  0.00     0.127 S 
ATOM     96  O   UNL A   1      46.902  24.646  37.873  1.00  0.00    -0.237 OA
ATOM     97  O   UNL A   1      47.448  26.504  39.393  1.00  0.00    -0.237 OA
ATOM     98  O   UNL A   1      45.100  25.893  39.003  1.00  0.00    -0.744 OA
ENDBRANCH  92  95
ENDBRANCH  65  88
ENDBRANCH  39  40
ENDBRANCH  31  34
ENDBRANCH  29  30
ENDBRANCH  28  29
ENDBRANCH  27  28
ENDBRANCH   1  27
TORSDOF 19
ENDMDL
MODEL 2
REMARK VINA RESULT:     -11.2      1.945      7.575
REMARK SMILES CSc1ccccc1Sc1cc(C(=O)NCCCCCCNC(=O)c2ccc(-c3c4nc(c(-c5cccc(S(=O)(=O)[O-])c5F)c5ccc([nH]5)c(-c5cccc(S(=O)(=O)[O-])c5F)c5nc(c(-c6cccc(S(=O)(=O)[O-])c6F)c6ccc3[nH]6)C=C5)C=C4)cc2)c2ccccc2n1
REMARK SMILES IDX 18 1 17 2 16 3 15 4 13 5 14 6 12 8 10 9 11 10 94 11 93 12
REMARK SMILES IDX 88 13 92 14 89 15 91 16 90 17 9 18 8 19 3 20 4 21 5 22 7 23
REMARK SMILES IDX 6 24 2 25 1 26 19 27 20 28 21 29 22 30 23 31 24 33 25 34
REMARK SMILES IDX 26 35 87 36 27 37 86 38 28 39 29 40 30 41 80 42 31 43 85 44
REMARK SMILES IDX 79 45 81 46 32 47 84 48 78 49 77 50 33 52 65 53 45 54 64 55
REMARK SMILES IDX 46 56 49 57 63 58 82 59 47 60 48 61 62 63 83 64 50 65 34 66
REMARK SMILES IDX 35 67 43 68 36 69 38 70 44 71 37 72 39 73 40 74 41 75 42 76
REMARK SMILES IDX 66 77 67 78 75 79 68 80 70 81 76 82 69 83 71 84 72 85 73 86
REMARK SMILES IDX 74 87 51 88 52 89 60 90 53 91 55 92 61 93 54 94 56 95 57 96
REMARK SMILES IDX 58 97 59 98
REMARK H PARENT 15 7 22 32 81 51 49 62
REMARK Flexibility Score: inf
ROOT
ATOM      1  C   UNL A   1      31.023  26.933  24.996  1.00  0.00     0.002 C 
ENDROOT
BRANCH   1   2
ATOM      2  C   UNL A   1      31.750  26.329  23.783  1.00  0.00     0.021 C 
BRANCH   2   3
ATOM      3  C   UNL A   1      31.191  24.969  23.349  1.00  0.00     0.116 C 
BRANCH   3   4
ATOM      4  N   UNL A   1      32.044  24.406  22.312  1.00  0.00    -0.352 N 
ATOM      5  C   UNL A   1      33.201  23.677  22.256  1.00  0.00     0.252 C 
ATOM      6  O   UNL A   1      33.617  23.466  21.116  1.00  0.00    -0.269 OA
ATOM      7  H   UNL A   1      31.696  24.603  21.412  1.00  0.00     0.163 HD
BRANCH   5   8
ATOM      8  C   UNL A   1      33.894  23.081  23.441  1.00  0.00     0.051 A 
ATOM      9  C   UNL A   1      35.641  22.944  25.023  1.00  0.00     0.102 A 
ATOM     10  C   UNL A   1      35.112  23.558  23.902  1.00  0.00     0.050 A 
ATOM     11  N   UNL A   1      34.874  22.282  25.899  1.00  0.00    -0.241 NA
ATOM     12  C   UNL A   1      33.882  21.604  25.350  1.00  0.00     0.072 A 
ATOM     13  C   UNL A   1      33.422  21.878  24.047  1.00  0.00     0.013 A 
ATOM     14  C   UNL A   1      33.469  20.482  26.041  1.00  0.00     0.029 A 
ATOM     15  C   UNL A   1      32.673  20.853  23.417  1.00  0.00     0.011 A 
ATOM     16  C   UNL A   1      32.762  19.477  25.393  1.00  0.00     0.002 A 
ATOM     17  C   UNL A   1      32.402  19.646  24.064  1.00  0.00     0.001 A 
BRANCH   9  18
ATOM     18  S   UNL A   1      37.175  22.034  24.629  1.00  0.00    -0.069 SA
BRANCH  18  19
ATOM     19  C   UNL A   1      38.317  22.763  25.772  1.00  0.00     0.027 A 
ATOM     20  C   UNL A   1      39.342  22.028  26.392  1.00  0.00     0.021 A 
ATOM     21  C   UNL A   1      40.117  22.672  27.370  1.00  0.00     0.016 A 
ATOM     22  C   UNL A   1      39.892  24.008  27.718  1.00  0.00     0.001 A 
ATOM     23  C   UNL A   1      38.116  24.117  26.106  1.00  0.00     0.016 A 
ATOM     24  C   UNL A   1      38.904  24.739  27.071  1.00  0.00     0.001 A 
BRANCH  20  25
ATOM     25  S   UNL A   1      39.869  20.367  25.937  1.00  0.00    -0.128 SA
ATOM     26  C   UNL A   1      41.284  20.044  27.029  1.00  0.00     0.091 C 
ENDBRANCH  20  25
ENDBRANCH  18  19
ENDBRANCH   9  18
ENDBRANCH   5   8
ENDBRANCH   3   4
ENDBRANCH   2   3
ENDBRANCH   1   2
BRANCH   1  27
ATOM     27  C   UNL A   1      31.942  27.398  26.133  1.00  0.00     0.002 C 
BRANCH  27  28
ATOM     28  C   UNL A   1      33.440  27.300  25.832  1.00  0.00     0.021 C 
BRANCH  28  29
ATOM     29  C   UNL A   1      34.081  28.613  25.389  1.00  0.00     0.116 C 
BRANCH  29  30
ATOM     30  N   UNL A   1      33.246  29.761  25.713  1.00  0.00    -0.352 N 
ATOM     31  C   UNL A   1      33.353  30.643  26.756  1.00  0.00     0.251 C 
ATOM     32  H   UNL A   1      32.499  29.927  25.093  1.00  0.00     0.163 HD
ATOM     33  O   UNL A   1      32.431  31.424  26.998  1.00  0.00    -0.269 OA
BRANCH  31  34
ATOM     34  C   UNL A   1      34.565  30.646  27.600  1.00  0.00     0.039 A 
ATOM     35  C   UNL A   1      34.878  29.505  28.341  1.00  0.00     0.014 A 
ATOM     36  C   UNL A   1      35.394  31.771  27.653  1.00  0.00     0.014 A 
ATOM     37  C   UNL A   1      36.062  29.467  29.082  1.00  0.00     0.010 A 
ATOM     38  C   UNL A   1      36.606  31.705  28.334  1.00  0.00     0.010 A 
ATOM     39  C   UNL A   1      36.955  30.551  29.052  1.00  0.00    -0.014 A 
BRANCH  39  40
ATOM     40  C   UNL A   1      38.280  30.472  29.721  1.00  0.00     0.031 A 
ATOM     41  C   UNL A   1      39.410  29.700  29.099  1.00  0.00     0.074 A 
ATOM     42  C   UNL A   1      38.433  31.027  30.939  1.00  0.00     0.049 A 
ATOM     43  N   UNL A   1      40.614  29.487  29.564  1.00  0.00    -0.248 NA
ATOM     44  C   UNL A   1      39.149  29.064  27.797  1.00  0.00     0.031 C 
ATOM     45  C   UNL A   1      37.387  31.733  31.683  1.00  0.00     0.029 A 
ATOM     46  N   UNL A   1      39.518  31.061  31.781  1.00  0.00    -0.354 N 
ATOM     47  C   UNL A   1      41.244  28.671  28.632  1.00  0.00     0.074 A 
ATOM     48  C   UNL A   1      40.278  28.402  27.588  1.00  0.00     0.031 C 
ATOM     49  C   UNL A   1      37.881  32.134  32.865  1.00  0.00     0.029 A 
ATOM     50  C   UNL A   1      39.263  31.681  32.982  1.00  0.00     0.049 A 
ATOM     51  H   UNL A   1      40.394  30.677  31.547  1.00  0.00     0.167 HD
ATOM     52  C   UNL A   1      42.518  28.209  28.632  1.00  0.00     0.034 A 
ATOM     53  C   UNL A   1      40.048  31.854  34.064  1.00  0.00     0.034 A 
ATOM     54  C   UNL A   1      43.482  28.503  29.658  1.00  0.00     0.049 A 
ATOM     55  C   UNL A   1      41.461  31.342  34.031  1.00  0.00     0.074 A 
ATOM     56  C   UNL A   1      44.823  28.162  29.701  1.00  0.00     0.029 A 
ATOM     57  N   UNL A   1      43.209  29.188  30.832  1.00  0.00    -0.354 N 
ATOM     58  N   UNL A   1      42.092  30.721  33.064  1.00  0.00    -0.248 NA
ATOM     59  C   UNL A   1      42.281  31.579  35.228  1.00  0.00     0.031 C 
ATOM     60  C   UNL A   1      45.350  28.607  30.917  1.00  0.00     0.029 A 
ATOM     61  C   UNL A   1      44.347  29.257  31.618  1.00  0.00     0.049 A 
ATOM     62  H   UNL A   1      42.333  29.571  31.072  1.00  0.00     0.167 HD
ATOM     63  C   UNL A   1      43.387  30.515  33.525  1.00  0.00     0.074 A 
ATOM     64  C   UNL A   1      43.459  31.105  34.846  1.00  0.00     0.031 C 
ATOM     65  C   UNL A   1      44.418  29.878  32.917  1.00  0.00     0.034 A 
BRANCH  52  66
ATOM     66  C   UNL A   1      42.960  27.367  27.462  1.00  0.00     0.023 A 
ATOM     67  C   UNL A   1      43.305  27.990  26.246  1.00  0.00     0.012 A 
ATOM     68  C   UNL A   1      43.098  25.971  27.586  1.00  0.00     0.148 A 
ATOM     69  C   UNL A   1      43.747  27.235  25.160  1.00  0.00     0.002 A 
ATOM     70  C   UNL A   1      43.583  25.229  26.515  1.00  0.00     0.091 A 
ATOM     71  F   UNL A   1      42.748  25.393  28.745  1.00  0.00    -0.205 F 
ATOM     72  C   UNL A   1      43.896  25.857  25.299  1.00  0.00     0.022 A 
BRANCH  70  73
ATOM     73  S   UNL A   1      43.887  23.462  26.616  1.00  0.00     0.127 S 
ATOM     74  O   UNL A   1      43.419  23.158  27.967  1.00  0.00    -0.237 OA
ATOM     75  O   UNL A   1      43.035  22.944  25.545  1.00  0.00    -0.237 OA
ATOM     76  O   UNL A   1      45.316  23.286  26.396  1.00  0.00    -0.744 OA
ENDBRANCH  70  73
ENDBRANCH  52  66
BRANCH  53  77
ATOM     77  C   UNL A   1      39.523  32.579  35.255  1.00  0.00     0.023 A 
ATOM     78  C   UNL A   1      39.667  33.978  35.335  1.00  0.00     0.012 A 
ATOM     79  C   UNL A   1      38.861  31.896  36.294  1.00  0.00     0.148 A 
ATOM     80  C   UNL A   1      39.191  34.680  36.443  1.00  0.00     0.002 A 
ATOM     81  C   UNL A   1      38.336  32.609  37.365  1.00  0.00     0.091 A 
ATOM     82  F   UNL A   1      38.744  30.564  36.204  1.00  0.00    -0.205 F 
ATOM     83  C   UNL A   1      38.516  33.998  37.452  1.00  0.00     0.022 A 
BRANCH  81  84
ATOM     84  S   UNL A   1      37.337  31.832  38.641  1.00  0.00     0.127 S 
ATOM     85  O   UNL A   1      36.150  32.682  38.650  1.00  0.00    -0.237 OA
ATOM     86  O   UNL A   1      37.134  30.492  38.088  1.00  0.00    -0.237 OA
ATOM     87  O   UNL A   1      38.148  31.865  39.850  1.00  0.00    -0.744 OA
ENDBRANCH  81  84
ENDBRANCH  53  77
BRANCH  65  88
ATOM     88  C   UNL A   1      45.724  29.793  33.666  1.00  0.00     0.023 A 
ATOM     89  C   UNL A   1      46.681  30.816  33.517  1.00  0.00     0.012 A 
ATOM     90  C   UNL A   1      45.973  28.737  34.565  1.00  0.00     0.148 A 
ATOM     91  C   UNL A   1      47.881  30.772  34.225  1.00  0.00     0.002 A 
ATOM     92  C   UNL A   1      47.149  28.727  35.306  1.00  0.00     0.091 A 
ATOM     93  F   UNL A   1      45.057  27.766  34.680  1.00  0.00    -0.205 F 
ATOM     94  C   UNL A   1      48.110  29.735  35.127  1.00  0.00     0.022 A 
BRANCH  92  95
ATOM     95  S   UNL A   1      47.491  27.487  36.559  1.00  0.00     0.127 S 
ATOM     96  O   UNL A   1      46.162  27.261  37.124  1.00  0.00    -0.237 OA
ATOM     97  O   UNL A   1      48.011  26.377  35.760  1.00  0.00    -0.237 OA
ATOM     98  O   UNL A   1      48.459  28.086  37.468  1.00  0.00    -0.744 OA
ENDBRANCH  92  95
ENDBRANCH  65  88
ENDBRANCH  39  40
ENDBRANCH  31  34
ENDBRANCH  29  30
ENDBRANCH  28  29
ENDBRANCH  27  28
ENDBRANCH   1  27
TORSDOF 19
ENDMDL
MODEL 3
REMARK VINA RESULT:     -11.1      2.449      4.460
REMARK SMILES CSc1ccccc1Sc1cc(C(=O)NCCCCCCNC(=O)c2ccc(-c3c4nc(c(-c5cccc(S(=O)(=O)[O-])c5F)c5ccc([nH]5)c(-c5cccc(S(=O)(=O)[O-])c5F)c5nc(c(-c6cccc(S(=O)(=O)[O-])c6F)c6ccc3[nH]6)C=C5)C=C4)cc2)c2ccccc2n1
REMARK SMILES IDX 18 1 17 2 16 3 15 4 13 5 14 6 12 8 10 9 11 10 94 11 93 12
REMARK SMILES IDX 88 13 92 14 89 15 91 16 90 17 9 18 8 19 3 20 4 21 5 22 7 23
REMARK SMILES IDX 6 24 2 25 1 26 19 27 20 28 21 29 22 30 23 31 24 33 25 34
REMARK SMILES IDX 26 35 87 36 27 37 86 38 28 39 29 40 30 41 80 42 31 43 85 44
REMARK SMILES IDX 79 45 81 46 32 47 84 48 78 49 77 50 33 52 65 53 45 54 64 55
REMARK SMILES IDX 46 56 49 57 63 58 82 59 47 60 48 61 62 63 83 64 50 65 34 66
REMARK SMILES IDX 35 67 43 68 36 69 38 70 44 71 37 72 39 73 40 74 41 75 42 76
REMARK SMILES IDX 66 77 67 78 75 79 68 80 70 81 76 82 69 83 71 84 72 85 73 86
REMARK SMILES IDX 74 87 51 88 52 89 60 90 53 91 55 92 61 93 54 94 56 95 57 96
REMARK SMILES IDX 58 97 59 98
REMARK H PARENT 15 7 22 32 81 51 49 62
REMARK Flexibility Score: inf
ROOT
ATOM      1  C   UNL A   1      33.966  31.322  27.729  1.00  0.00     0.002 C 
ENDROOT
BRANCH   1   2
ATOM      2  C   UNL A   1      35.079  30.273  27.576  1.00  0.00     0.021 C 
BRANCH   2   3
ATOM      3  C   UNL A   1      34.568  28.895  27.141  1.00  0.00     0.116 C 
BRANCH   3   4
ATOM      4  N   UNL A   1      33.261  28.657  27.736  1.00  0.00    -0.352 N 
ATOM      5  C   UNL A   1      32.098  28.033  27.375  1.00  0.00     0.252 C 
ATOM      6  O   UNL A   1      31.188  28.133  28.198  1.00  0.00    -0.269 OA
ATOM      7  H   UNL A   1      33.198  29.047  28.638  1.00  0.00     0.163 HD
BRANCH   5   8
ATOM      8  C   UNL A   1      31.918  27.206  26.140  1.00  0.00     0.051 A 
ATOM      9  C   UNL A   1      32.294  25.304  24.793  1.00  0.00     0.102 A 
ATOM     10  C   UNL A   1      32.561  25.991  25.964  1.00  0.00     0.050 A 
ATOM     11  N   UNL A   1      31.171  25.507  24.092  1.00  0.00    -0.241 NA
ATOM     12  C   UNL A   1      30.765  26.763  24.066  1.00  0.00     0.072 A 
ATOM     13  C   UNL A   1      31.212  27.712  25.007  1.00  0.00     0.013 A 
ATOM     14  C   UNL A   1      30.049  27.140  22.946  1.00  0.00     0.029 A 
ATOM     15  C   UNL A   1      31.057  29.074  24.648  1.00  0.00     0.011 A 
ATOM     16  C   UNL A   1      29.938  28.479  22.599  1.00  0.00     0.002 A 
ATOM     17  C   UNL A   1      30.483  29.446  23.431  1.00  0.00     0.001 A 
BRANCH   9  18
ATOM     18  S   UNL A   1      33.767  25.211  23.717  1.00  0.00    -0.069 SA
BRANCH  18  19
ATOM     19  C   UNL A   1      34.615  23.816  24.407  1.00  0.00     0.027 A 
ATOM     20  C   UNL A   1      34.119  22.505  24.312  1.00  0.00     0.021 A 
ATOM     21  C   UNL A   1      34.806  21.487  24.995  1.00  0.00     0.016 A 
ATOM     22  C   UNL A   1      35.958  21.758  25.741  1.00  0.00     0.001 A 
ATOM     23  C   UNL A   1      35.793  24.076  25.136  1.00  0.00     0.016 A 
ATOM     24  C   UNL A   1      36.465  23.050  25.796  1.00  0.00     0.001 A 
BRANCH  20  25
ATOM     25  S   UNL A   1      32.760  21.967  23.260  1.00  0.00    -0.128 SA
ATOM     26  C   UNL A   1      32.446  20.258  23.790  1.00  0.00     0.091 C 
ENDBRANCH  20  25
ENDBRANCH  18  19
ENDBRANCH   9  18
ENDBRANCH   5   8
ENDBRANCH   3   4
ENDBRANCH   2   3
ENDBRANCH   1   2
BRANCH   1  27
ATOM     27  C   UNL A   1      34.455  32.744  28.033  1.00  0.00     0.002 C 
BRANCH  27  28
ATOM     28  C   UNL A   1      33.350  33.797  28.143  1.00  0.00     0.021 C 
BRANCH  28  29
ATOM     29  C   UNL A   1      33.824  35.161  28.639  1.00  0.00     0.116 C 
BRANCH  29  30
ATOM     30  N   UNL A   1      33.212  35.519  29.911  1.00  0.00    -0.352 N 
ATOM     31  C   UNL A   1      33.474  35.032  31.165  1.00  0.00     0.251 C 
ATOM     32  H   UNL A   1      32.512  36.208  29.862  1.00  0.00     0.163 HD
ATOM     33  O   UNL A   1      32.709  35.289  32.097  1.00  0.00    -0.269 OA
BRANCH  31  34
ATOM     34  C   UNL A   1      34.662  34.184  31.395  1.00  0.00     0.039 A 
ATOM     35  C   UNL A   1      35.932  34.726  31.189  1.00  0.00     0.014 A 
ATOM     36  C   UNL A   1      34.521  32.860  31.820  1.00  0.00     0.014 A 
ATOM     37  C   UNL A   1      37.064  33.960  31.477  1.00  0.00     0.010 A 
ATOM     38  C   UNL A   1      35.647  32.123  32.174  1.00  0.00     0.010 A 
ATOM     39  C   UNL A   1      36.931  32.666  32.010  1.00  0.00    -0.014 A 
BRANCH  39  40
ATOM     40  C   UNL A   1      38.120  31.893  32.451  1.00  0.00     0.031 A 
ATOM     41  C   UNL A   1      38.822  32.229  33.738  1.00  0.00     0.074 A 
ATOM     42  C   UNL A   1      38.620  30.940  31.640  1.00  0.00     0.049 A 
ATOM     43  N   UNL A   1      39.898  31.691  34.252  1.00  0.00    -0.248 NA
ATOM     44  C   UNL A   1      38.258  33.326  34.541  1.00  0.00     0.031 C 
ATOM     45  C   UNL A   1      38.077  30.577  30.329  1.00  0.00     0.029 A 
ATOM     46  N   UNL A   1      39.715  30.123  31.782  1.00  0.00    -0.354 N 
ATOM     47  C   UNL A   1      40.158  32.400  35.419  1.00  0.00     0.074 A 
ATOM     48  C   UNL A   1      39.143  33.427  35.522  1.00  0.00     0.031 C 
ATOM     49  C   UNL A   1      38.834  29.609  29.791  1.00  0.00     0.029 A 
ATOM     50  C   UNL A   1      39.938  29.309  30.696  1.00  0.00     0.049 A 
ATOM     51  H   UNL A   1      40.285  30.120  32.584  1.00  0.00     0.167 HD
ATOM     52  C   UNL A   1      41.136  32.197  36.334  1.00  0.00     0.034 A 
ATOM     53  C   UNL A   1      40.929  28.429  30.448  1.00  0.00     0.034 A 
ATOM     54  C   UNL A   1      42.125  31.157  36.241  1.00  0.00     0.049 A 
ATOM     55  C   UNL A   1      41.994  28.216  31.487  1.00  0.00     0.074 A 
ATOM     56  C   UNL A   1      43.098  30.811  37.163  1.00  0.00     0.029 A 
ATOM     57  N   UNL A   1      42.285  30.308  35.157  1.00  0.00    -0.354 N 
ATOM     58  N   UNL A   1      42.122  28.777  32.665  1.00  0.00    -0.248 NA
ATOM     59  C   UNL A   1      43.037  27.228  31.176  1.00  0.00     0.031 C 
ATOM     60  C   UNL A   1      43.869  29.779  36.619  1.00  0.00     0.029 A 
ATOM     61  C   UNL A   1      43.356  29.457  35.374  1.00  0.00     0.049 A 
ATOM     62  H   UNL A   1      41.719  30.309  34.350  1.00  0.00     0.167 HD
ATOM     63  C   UNL A   1      43.243  28.194  33.245  1.00  0.00     0.074 A 
ATOM     64  C   UNL A   1      43.739  27.213  32.301  1.00  0.00     0.031 C 
ATOM     65  C   UNL A   1      43.820  28.460  34.442  1.00  0.00     0.034 A 
BRANCH  52  66
ATOM     66  C   UNL A   1      41.163  33.096  37.544  1.00  0.00     0.023 A 
ATOM     67  C   UNL A   1      40.339  32.803  38.649  1.00  0.00     0.012 A 
ATOM     68  C   UNL A   1      42.049  34.190  37.615  1.00  0.00     0.148 A 
ATOM     69  C   UNL A   1      40.370  33.602  39.792  1.00  0.00     0.002 A 
ATOM     70  C   UNL A   1      42.108  34.954  38.774  1.00  0.00     0.091 A 
ATOM     71  F   UNL A   1      42.812  34.465  36.546  1.00  0.00    -0.205 F 
ATOM     72  C   UNL A   1      41.261  34.670  39.858  1.00  0.00     0.022 A 
BRANCH  70  73
ATOM     73  S   UNL A   1      43.277  36.301  38.991  1.00  0.00     0.127 S 
ATOM     74  O   UNL A   1      43.048  36.667  40.388  1.00  0.00    -0.237 OA
ATOM     75  O   UNL A   1      44.557  35.640  38.737  1.00  0.00    -0.237 OA
ATOM     76  O   UNL A   1      42.909  37.314  38.012  1.00  0.00    -0.744 OA
ENDBRANCH  70  73
ENDBRANCH  52  66
BRANCH  53  77
ATOM     77  C   UNL A   1      40.935  27.655  29.175  1.00  0.00     0.023 A 
ATOM     78  C   UNL A   1      40.056  26.566  29.020  1.00  0.00     0.012 A 
ATOM     79  C   UNL A   1      41.786  28.008  28.108  1.00  0.00     0.148 A 
ATOM     80  C   UNL A   1      40.047  25.821  27.840  1.00  0.00     0.002 A 
ATOM     81  C   UNL A   1      41.729  27.300  26.915  1.00  0.00     0.091 A 
ATOM     82  F   UNL A   1      42.623  29.042  28.280  1.00  0.00    -0.205 F 
ATOM     83  C   UNL A   1      40.875  26.194  26.784  1.00  0.00     0.022 A 
BRANCH  81  84
ATOM     84  S   UNL A   1      42.659  27.792  25.459  1.00  0.00     0.127 S 
ATOM     85  O   UNL A   1      42.508  26.622  24.598  1.00  0.00    -0.237 OA
ATOM     86  O   UNL A   1      41.926  28.980  25.022  1.00  0.00    -0.237 OA
ATOM     87  O   UNL A   1      44.011  28.060  25.928  1.00  0.00    -0.744 OA
ENDBRANCH  81  84
ENDBRANCH  53  77
BRANCH  65  88
ATOM     88  C   UNL A   1      45.051  27.671  34.813  1.00  0.00     0.023 A 
ATOM     89  C   UNL A   1      46.327  28.216  34.573  1.00  0.00     0.012 A 
ATOM     90  C   UNL A   1      44.941  26.424  35.459  1.00  0.00     0.148 A 
ATOM     91  C   UNL A   1      47.477  27.516  34.939  1.00  0.00     0.002 A 
ATOM     92  C   UNL A   1      46.090  25.756  35.867  1.00  0.00     0.091 A 
ATOM     93  F   UNL A   1      43.717  25.915  35.664  1.00  0.00    -0.205 F 
ATOM     94  C   UNL A   1      47.358  26.293  35.595  1.00  0.00     0.022 A 
BRANCH  92  95
ATOM     95  S   UNL A   1      46.037  24.222  36.801  1.00  0.00     0.127 S 
ATOM     96  O   UNL A   1      45.503  23.289  35.810  1.00  0.00    -0.237 OA
ATOM     97  O   UNL A   1      47.446  24.016  37.135  1.00  0.00    -0.237 OA
ATOM     98  O   UNL A   1      45.172  24.475  37.946  1.00  0.00    -0.744 OA
ENDBRANCH  92  95
ENDBRANCH  65  88
ENDBRANCH  39  40
ENDBRANCH  31  34
ENDBRANCH  29  30
ENDBRANCH  28  29
ENDBRANCH  27  28
ENDBRANCH   1  27
TORSDOF 19
ENDMDL
