MODEL 1
REMARK VINA RESULT:      -8.6      0.000      0.000
REMARK SMILES O=C(NCCCCCCNC(=O)c1ccc(-c2c3nc(c(-c4cccc(S(=O)(=O)[O-])c4F)c4ccc([nH]4)c(-c4cccc(S(=O)(=O)[O-])c4F)c4nc(c(-c5cccc(S(=O)(=O)[O-])c5F)c5ccc2[nH]5)C=C4)C=C3)cc1)c1ccc(/C=C/c2ccnc(-c3cccc([N+](=O)[O-])c3)[n+]2[O-])cc1
REMARK SMILES IDX 6 1 5 2 4 3 3 4 1 5 2 6 76 8 77 9 99 10 78 11 98 12 79 13
REMARK SMILES IDX 80 14 81 15 82 16 83 17 96 18 84 19 86 20 97 21 85 22 87 23
REMARK SMILES IDX 88 24 95 25 89 26 91 27 90 28 92 29 93 30 94 31 7 32 8 33
REMARK SMILES IDX 9 34 10 35 11 36 12 38 13 39 14 40 75 41 15 42 74 43 16 44
REMARK SMILES IDX 17 45 18 46 68 47 19 48 73 49 67 50 69 51 20 52 72 53 66 54
REMARK SMILES IDX 65 55 21 57 53 58 33 59 52 60 34 61 37 62 51 63 70 64 35 65
REMARK SMILES IDX 36 66 50 68 71 69 38 70 22 71 23 72 31 73 24 74 26 75 32 76
REMARK SMILES IDX 25 77 27 78 28 79 29 80 30 81 54 82 55 83 63 84 56 85 58 86
REMARK SMILES IDX 64 87 57 88 59 89 60 90 61 91 62 92 39 93 40 94 48 95 41 96
REMARK SMILES IDX 43 97 49 98 42 99 44 100 45 101 46 102 47 103
REMARK H PARENT 3 7 10 37 69 56 37 67
REMARK Flexibility Score: inf
ROOT
ATOM      1  C   UNL A   1      36.312  33.359  33.834  1.00  0.00     0.002 C 
ENDROOT
BRANCH   1   2
ATOM      2  C   UNL A   1      36.986  32.663  35.020  1.00  0.00     0.021 C 
BRANCH   2   3
ATOM      3  C   UNL A   1      38.470  32.978  35.198  1.00  0.00     0.116 C 
BRANCH   3   4
ATOM      4  N   UNL A   1      38.705  34.398  35.414  1.00  0.00    -0.352 N 
ATOM      5  O   UNL A   1      39.774  36.374  35.138  1.00  0.00    -0.269 OA
ATOM      6  C   UNL A   1      39.566  35.229  34.745  1.00  0.00     0.251 C 
ATOM      7  H   UNL A   1      38.177  34.816  36.133  1.00  0.00     0.163 HD
BRANCH   6   8
ATOM      8  C   UNL A   1      40.256  34.728  33.542  1.00  0.00     0.039 A 
ATOM      9  C   UNL A   1      41.635  34.509  33.563  1.00  0.00     0.014 A 
ATOM     10  C   UNL A   1      39.518  34.486  32.386  1.00  0.00     0.014 A 
ATOM     11  C   UNL A   1      42.290  34.107  32.398  1.00  0.00     0.009 A 
ATOM     12  C   UNL A   1      40.180  34.079  31.223  1.00  0.00     0.009 A 
ATOM     13  C   UNL A   1      41.575  33.899  31.209  1.00  0.00    -0.025 A 
BRANCH  13  14
ATOM     14  C   UNL A   1      42.215  33.524  29.936  1.00  0.00     0.012 C 
ATOM     15  C   UNL A   1      43.362  32.838  29.801  1.00  0.00     0.053 C 
BRANCH  15  16
ATOM     16  C   UNL A   1      43.990  32.516  28.505  1.00  0.00     0.134 A 
ATOM     17  C   UNL A   1      43.821  33.413  27.447  1.00  0.00     0.100 A 
ATOM     18  N   UNL A   1      44.697  31.319  28.305  1.00  0.00    -0.228 N 
ATOM     19  C   UNL A   1      44.399  33.109  26.238  1.00  0.00     0.259 A 
ATOM     20  C   UNL A   1      45.212  31.071  27.029  1.00  0.00     0.333 A 
ATOM     21  O   UNL A   1      44.864  30.474  29.256  1.00  0.00    -0.710 OA
ATOM     22  N   UNL A   1      45.094  31.980  26.012  1.00  0.00    -0.049 NA
BRANCH  20  23
ATOM     23  C   UNL A   1      45.843  29.788  26.720  1.00  0.00     0.076 A 
ATOM     24  C   UNL A   1      45.073  28.652  26.413  1.00  0.00     0.017 A 
ATOM     25  C   UNL A   1      47.244  29.662  26.737  1.00  0.00     0.102 A 
ATOM     26  C   UNL A   1      45.681  27.432  26.098  1.00  0.00     0.008 A 
ATOM     27  C   UNL A   1      47.850  28.438  26.432  1.00  0.00     0.270 A 
ATOM     28  C   UNL A   1      47.072  27.321  26.105  1.00  0.00     0.085 A 
BRANCH  27  29
ATOM     29  N   UNL A   1      49.313  28.325  26.462  1.00  0.00     0.062 N 
ATOM     30  O   UNL A   1      49.838  27.983  27.532  1.00  0.00    -0.258 OA
ATOM     31  O   UNL A   1      49.934  28.594  25.426  1.00  0.00    -0.258 OA
ENDBRANCH  27  29
ENDBRANCH  20  23
ENDBRANCH  15  16
ENDBRANCH  13  14
ENDBRANCH   6   8
ENDBRANCH   3   4
ENDBRANCH   2   3
ENDBRANCH   1   2
BRANCH   1  32
ATOM     32  C   UNL A   1      36.187  32.519  32.560  1.00  0.00     0.002 C 
BRANCH  32  33
ATOM     33  C   UNL A   1      34.911  32.741  31.745  1.00  0.00     0.021 C 
BRANCH  33  34
ATOM     34  C   UNL A   1      35.108  33.426  30.396  1.00  0.00     0.116 C 
BRANCH  34  35
ATOM     35  N   UNL A   1      34.425  32.736  29.312  1.00  0.00    -0.352 N 
ATOM     36  C   UNL A   1      34.830  31.642  28.586  1.00  0.00     0.251 C 
ATOM     37  H   UNL A   1      33.549  33.106  29.063  1.00  0.00     0.163 HD
ATOM     38  O   UNL A   1      34.183  31.286  27.605  1.00  0.00    -0.269 OA
BRANCH  36  39
ATOM     39  C   UNL A   1      36.057  30.908  28.971  1.00  0.00     0.039 A 
ATOM     40  C   UNL A   1      37.288  31.347  28.477  1.00  0.00     0.014 A 
ATOM     41  C   UNL A   1      35.997  29.789  29.807  1.00  0.00     0.014 A 
ATOM     42  C   UNL A   1      38.464  30.702  28.870  1.00  0.00     0.010 A 
ATOM     43  C   UNL A   1      37.174  29.190  30.249  1.00  0.00     0.010 A 
ATOM     44  C   UNL A   1      38.420  29.637  29.783  1.00  0.00    -0.014 A 
BRANCH  44  45
ATOM     45  C   UNL A   1      39.663  28.989  30.276  1.00  0.00     0.031 A 
ATOM     46  C   UNL A   1      40.373  29.529  31.488  1.00  0.00     0.074 A 
ATOM     47  C   UNL A   1      40.206  27.973  29.575  1.00  0.00     0.049 A 
ATOM     48  N   UNL A   1      41.495  29.132  32.031  1.00  0.00    -0.248 NA
ATOM     49  C   UNL A   1      39.757  30.682  32.165  1.00  0.00     0.031 C 
ATOM     50  C   UNL A   1      39.657  27.409  28.340  1.00  0.00     0.029 A 
ATOM     51  N   UNL A   1      41.355  27.251  29.785  1.00  0.00    -0.354 N 
ATOM     52  C   UNL A   1      41.741  30.009  33.081  1.00  0.00     0.074 A 
ATOM     53  C   UNL A   1      40.664  30.973  33.087  1.00  0.00     0.031 C 
ATOM     54  C   UNL A   1      40.466  26.428  27.905  1.00  0.00     0.029 A 
ATOM     55  C   UNL A   1      41.603  26.310  28.813  1.00  0.00     0.049 A 
ATOM     56  H   UNL A   1      41.945  27.393  30.560  1.00  0.00     0.167 HD
ATOM     57  C   UNL A   1      42.758  29.996  33.976  1.00  0.00     0.034 A 
ATOM     58  C   UNL A   1      42.632  25.452  28.665  1.00  0.00     0.034 A 
ATOM     59  C   UNL A   1      43.795  29.001  34.003  1.00  0.00     0.049 A 
ATOM     60  C   UNL A   1      43.720  25.428  29.706  1.00  0.00     0.074 A 
ATOM     61  C   UNL A   1      44.803  28.836  34.938  1.00  0.00     0.029 A 
ATOM     62  N   UNL A   1      43.964  28.005  33.054  1.00  0.00    -0.354 N 
ATOM     63  N   UNL A   1      43.836  26.148  30.795  1.00  0.00    -0.248 NA
ATOM     64  C   UNL A   1      44.799  24.448  29.517  1.00  0.00     0.031 C 
ATOM     65  C   UNL A   1      45.593  27.751  34.541  1.00  0.00     0.029 A 
ATOM     66  C   UNL A   1      45.066  27.230  33.372  1.00  0.00     0.049 A 
ATOM     67  H   UNL A   1      43.385  27.869  32.270  1.00  0.00     0.167 HD
ATOM     68  C   UNL A   1      44.977  25.683  31.440  1.00  0.00     0.074 A 
ATOM     69  C   UNL A   1      45.505  24.606  30.629  1.00  0.00     0.031 C 
ATOM     70  C   UNL A   1      45.545  26.119  32.591  1.00  0.00     0.034 A 
BRANCH  57  71
ATOM     71  C   UNL A   1      42.773  31.061  35.041  1.00  0.00     0.023 A 
ATOM     72  C   UNL A   1      41.838  31.002  36.094  1.00  0.00     0.012 A 
ATOM     73  C   UNL A   1      43.755  32.070  35.044  1.00  0.00     0.148 A 
ATOM     74  C   UNL A   1      41.860  31.950  37.117  1.00  0.00     0.002 A 
ATOM     75  C   UNL A   1      43.798  32.985  36.090  1.00  0.00     0.091 A 
ATOM     76  F   UNL A   1      44.624  32.123  34.023  1.00  0.00    -0.205 F 
ATOM     77  C   UNL A   1      42.845  32.933  37.120  1.00  0.00     0.022 A 
BRANCH  75  78
ATOM     78  S   UNL A   1      45.075  34.241  36.229  1.00  0.00     0.127 S 
ATOM     79  O   UNL A   1      44.788  35.085  35.070  1.00  0.00    -0.237 OA
ATOM     80  O   UNL A   1      44.767  34.854  37.521  1.00  0.00    -0.237 OA
ATOM     81  O   UNL A   1      46.345  33.528  36.184  1.00  0.00    -0.744 OA
ENDBRANCH  75  78
ENDBRANCH  57  71
BRANCH  58  82
ATOM     82  C   UNL A   1      42.643  24.485  27.531  1.00  0.00     0.023 A 
ATOM     83  C   UNL A   1      43.230  24.869  26.309  1.00  0.00     0.012 A 
ATOM     84  C   UNL A   1      42.101  23.192  27.654  1.00  0.00     0.148 A 
ATOM     85  C   UNL A   1      43.244  23.997  25.220  1.00  0.00     0.002 A 
ATOM     86  C   UNL A   1      42.167  22.308  26.582  1.00  0.00     0.091 A 
ATOM     87  F   UNL A   1      41.533  22.847  28.819  1.00  0.00    -0.205 F 
ATOM     88  C   UNL A   1      42.722  22.715  25.358  1.00  0.00     0.022 A 
BRANCH  86  89
ATOM     89  S   UNL A   1      41.636  20.596  26.715  1.00  0.00     0.127 S 
ATOM     90  O   UNL A   1      40.261  20.743  27.186  1.00  0.00    -0.237 OA
ATOM     91  O   UNL A   1      41.767  20.127  25.335  1.00  0.00    -0.237 OA
ATOM     92  O   UNL A   1      42.565  19.972  27.646  1.00  0.00    -0.744 OA
ENDBRANCH  86  89
ENDBRANCH  58  82
BRANCH  70  93
ATOM     93  C   UNL A   1      46.784  25.411  33.073  1.00  0.00     0.023 A 
ATOM     94  C   UNL A   1      48.054  25.893  32.701  1.00  0.00     0.012 A 
ATOM     95  C   UNL A   1      46.690  24.320  33.959  1.00  0.00     0.148 A 
ATOM     96  C   UNL A   1      49.212  25.281  33.179  1.00  0.00     0.002 A 
ATOM     97  C   UNL A   1      47.848  23.744  34.468  1.00  0.00     0.091 A 
ATOM     98  F   UNL A   1      45.472  23.862  34.286  1.00  0.00    -0.205 F 
ATOM     99  C   UNL A   1      49.110  24.216  34.071  1.00  0.00     0.022 A 
BRANCH  97 100
ATOM    100  S   UNL A   1      47.809  22.433  35.696  1.00  0.00     0.127 S 
ATOM    101  O   UNL A   1      47.034  21.403  35.008  1.00  0.00    -0.237 OA
ATOM    102  O   UNL A   1      49.228  22.119  35.864  1.00  0.00    -0.237 OA
ATOM    103  O   UNL A   1      47.177  23.010  36.876  1.00  0.00    -0.744 OA
ENDBRANCH  97 100
ENDBRANCH  70  93
ENDBRANCH  44  45
ENDBRANCH  36  39
ENDBRANCH  34  35
ENDBRANCH  33  34
ENDBRANCH  32  33
ENDBRANCH   1  32
TORSDOF 20
ENDMDL
MODEL 2
REMARK VINA RESULT:      -8.5      0.720      7.373
REMARK SMILES O=C(NCCCCCCNC(=O)c1ccc(-c2c3nc(c(-c4cccc(S(=O)(=O)[O-])c4F)c4ccc([nH]4)c(-c4cccc(S(=O)(=O)[O-])c4F)c4nc(c(-c5cccc(S(=O)(=O)[O-])c5F)c5ccc2[nH]5)C=C4)C=C3)cc1)c1ccc(/C=C/c2ccnc(-c3cccc([N+](=O)[O-])c3)[n+]2[O-])cc1
REMARK SMILES IDX 6 1 5 2 4 3 3 4 1 5 2 6 76 8 77 9 99 10 78 11 98 12 79 13
REMARK SMILES IDX 80 14 81 15 82 16 83 17 96 18 84 19 86 20 97 21 85 22 87 23
REMARK SMILES IDX 88 24 95 25 89 26 91 27 90 28 92 29 93 30 94 31 7 32 8 33
REMARK SMILES IDX 9 34 10 35 11 36 12 38 13 39 14 40 75 41 15 42 74 43 16 44
REMARK SMILES IDX 17 45 18 46 68 47 19 48 73 49 67 50 69 51 20 52 72 53 66 54
REMARK SMILES IDX 65 55 21 57 53 58 33 59 52 60 34 61 37 62 51 63 70 64 35 65
REMARK SMILES IDX 36 66 50 68 71 69 38 70 22 71 23 72 31 73 24 74 26 75 32 76
REMARK SMILES IDX 25 77 27 78 28 79 29 80 30 81 54 82 55 83 63 84 56 85 58 86
REMARK SMILES IDX 64 87 57 88 59 89 60 90 61 91 62 92 39 93 40 94 48 95 41 96
REMARK SMILES IDX 43 97 49 98 42 99 44 100 45 101 46 102 47 103
REMARK H PARENT 3 7 10 37 69 56 37 67
REMARK Flexibility Score: inf
ROOT
ATOM      1  C   UNL A   1      36.280  33.301  33.827  1.00  0.00     0.002 C 
ENDROOT
BRANCH   1   2
ATOM      2  C   UNL A   1      36.874  32.715  35.112  1.00  0.00     0.021 C 
BRANCH   2   3
ATOM      3  C   UNL A   1      38.353  33.020  35.339  1.00  0.00     0.116 C 
BRANCH   3   4
ATOM      4  N   UNL A   1      38.593  34.441  35.545  1.00  0.00    -0.352 N 
ATOM      5  O   UNL A   1      39.675  36.410  35.266  1.00  0.00    -0.269 OA
ATOM      6  C   UNL A   1      39.467  35.262  34.880  1.00  0.00     0.251 C 
ATOM      7  H   UNL A   1      38.057  34.868  36.253  1.00  0.00     0.163 HD
BRANCH   6   8
ATOM      8  C   UNL A   1      40.170  34.746  33.692  1.00  0.00     0.039 A 
ATOM      9  C   UNL A   1      41.544  34.502  33.739  1.00  0.00     0.014 A 
ATOM     10  C   UNL A   1      39.451  34.516  32.522  1.00  0.00     0.014 A 
ATOM     11  C   UNL A   1      42.214  34.086  32.588  1.00  0.00     0.009 A 
ATOM     12  C   UNL A   1      40.127  34.095  31.373  1.00  0.00     0.009 A 
ATOM     13  C   UNL A   1      41.519  33.890  31.386  1.00  0.00    -0.025 A 
BRANCH  13  14
ATOM     14  C   UNL A   1      42.176  33.500  30.126  1.00  0.00     0.012 C 
ATOM     15  C   UNL A   1      43.290  32.758  30.013  1.00  0.00     0.053 C 
BRANCH  15  16
ATOM     16  C   UNL A   1      43.939  32.424  28.730  1.00  0.00     0.134 A 
ATOM     17  C   UNL A   1      43.861  33.351  27.688  1.00  0.00     0.100 A 
ATOM     18  N   UNL A   1      44.577  31.189  28.527  1.00  0.00    -0.228 N 
ATOM     19  C   UNL A   1      44.458  33.034  26.491  1.00  0.00     0.259 A 
ATOM     20  C   UNL A   1      45.117  30.935  27.263  1.00  0.00     0.333 A 
ATOM     21  O   UNL A   1      44.660  30.316  29.464  1.00  0.00    -0.710 OA
ATOM     22  N   UNL A   1      45.089  31.869  26.263  1.00  0.00    -0.049 NA
BRANCH  20  23
ATOM     23  C   UNL A   1      45.676  29.621  26.946  1.00  0.00     0.076 A 
ATOM     24  C   UNL A   1      44.856  28.563  26.514  1.00  0.00     0.017 A 
ATOM     25  C   UNL A   1      47.057  29.385  27.080  1.00  0.00     0.102 A 
ATOM     26  C   UNL A   1      45.399  27.315  26.193  1.00  0.00     0.008 A 
ATOM     27  C   UNL A   1      47.596  28.131  26.767  1.00  0.00     0.270 A 
ATOM     28  C   UNL A   1      46.771  27.094  26.317  1.00  0.00     0.085 A 
BRANCH  27  29
ATOM     29  N   UNL A   1      49.038  27.903  26.921  1.00  0.00     0.062 N 
ATOM     30  O   UNL A   1      49.711  28.815  27.423  1.00  0.00    -0.258 OA
ATOM     31  O   UNL A   1      49.496  26.823  26.525  1.00  0.00    -0.258 OA
ENDBRANCH  27  29
ENDBRANCH  20  23
ENDBRANCH  15  16
ENDBRANCH  13  14
ENDBRANCH   6   8
ENDBRANCH   3   4
ENDBRANCH   2   3
ENDBRANCH   1   2
BRANCH   1  32
ATOM     32  C   UNL A   1      36.239  32.352  32.627  1.00  0.00     0.002 C 
BRANCH  32  33
ATOM     33  C   UNL A   1      34.954  32.392  31.797  1.00  0.00     0.021 C 
BRANCH  33  34
ATOM     34  C   UNL A   1      35.107  32.939  30.380  1.00  0.00     0.116 C 
BRANCH  34  35
ATOM     35  N   UNL A   1      34.408  32.135  29.391  1.00  0.00    -0.352 N 
ATOM     36  C   UNL A   1      34.859  31.053  28.672  1.00  0.00     0.251 C 
ATOM     37  H   UNL A   1      33.479  32.403  29.209  1.00  0.00     0.163 HD
ATOM     38  O   UNL A   1      34.168  30.589  27.768  1.00  0.00    -0.269 OA
BRANCH  36  39
ATOM     39  C   UNL A   1      36.184  30.464  28.970  1.00  0.00     0.039 A 
ATOM     40  C   UNL A   1      37.313  30.987  28.332  1.00  0.00     0.014 A 
ATOM     41  C   UNL A   1      36.316  29.399  29.866  1.00  0.00     0.014 A 
ATOM     42  C   UNL A   1      38.579  30.482  28.638  1.00  0.00     0.010 A 
ATOM     43  C   UNL A   1      37.584  28.943  30.218  1.00  0.00     0.010 A 
ATOM     44  C   UNL A   1      38.729  29.476  29.606  1.00  0.00    -0.014 A 
BRANCH  44  45
ATOM     45  C   UNL A   1      40.072  28.981  30.005  1.00  0.00     0.031 A 
ATOM     46  C   UNL A   1      40.716  27.844  29.257  1.00  0.00     0.074 A 
ATOM     47  C   UNL A   1      40.671  29.492  31.099  1.00  0.00     0.049 A 
ATOM     48  N   UNL A   1      41.854  27.243  29.493  1.00  0.00    -0.248 NA
ATOM     49  C   UNL A   1      39.974  27.291  28.112  1.00  0.00     0.031 C 
ATOM     50  C   UNL A   1      40.115  30.543  31.955  1.00  0.00     0.029 A 
ATOM     51  N   UNL A   1      41.867  29.179  31.696  1.00  0.00    -0.354 N 
ATOM     52  C   UNL A   1      41.945  26.219  28.558  1.00  0.00     0.074 A 
ATOM     53  C   UNL A   1      40.736  26.264  27.765  1.00  0.00     0.031 C 
ATOM     54  C   UNL A   1      40.969  30.789  32.963  1.00  0.00     0.029 A 
ATOM     55  C   UNL A   1      42.119  29.897  32.842  1.00  0.00     0.049 A 
ATOM     56  H   UNL A   1      42.487  28.503  31.338  1.00  0.00     0.167 HD
ATOM     57  C   UNL A   1      42.954  25.337  28.360  1.00  0.00     0.034 A 
ATOM     58  C   UNL A   1      43.156  29.843  33.701  1.00  0.00     0.034 A 
ATOM     59  C   UNL A   1      44.179  25.333  29.112  1.00  0.00     0.049 A 
ATOM     60  C   UNL A   1      44.287  28.888  33.424  1.00  0.00     0.074 A 
ATOM     61  C   UNL A   1      45.307  24.556  28.912  1.00  0.00     0.029 A 
ATOM     62  N   UNL A   1      44.439  26.139  30.209  1.00  0.00    -0.354 N 
ATOM     63  N   UNL A   1      44.435  28.052  32.425  1.00  0.00    -0.248 NA
ATOM     64  C   UNL A   1      45.410  28.895  34.372  1.00  0.00     0.031 C 
ATOM     65  C   UNL A   1      46.241  24.879  29.903  1.00  0.00     0.029 A 
ATOM     66  C   UNL A   1      45.702  25.870  30.706  1.00  0.00     0.049 A 
ATOM     67  H   UNL A   1      43.816  26.805  30.581  1.00  0.00     0.167 HD
ATOM     68  C   UNL A   1      45.681  27.463  32.602  1.00  0.00     0.074 A 
ATOM     69  C   UNL A   1      46.256  28.053  33.794  1.00  0.00     0.031 C 
ATOM     70  C   UNL A   1      46.290  26.509  31.855  1.00  0.00     0.034 A 
BRANCH  57  71
ATOM     71  C   UNL A   1      42.805  24.333  27.248  1.00  0.00     0.023 A 
ATOM     72  C   UNL A   1      43.349  24.617  25.979  1.00  0.00     0.012 A 
ATOM     73  C   UNL A   1      42.198  23.082  27.476  1.00  0.00     0.148 A 
ATOM     74  C   UNL A   1      43.265  23.684  24.945  1.00  0.00     0.002 A 
ATOM     75  C   UNL A   1      42.156  22.142  26.453  1.00  0.00     0.091 A 
ATOM     76  F   UNL A   1      41.668  22.839  28.683  1.00  0.00    -0.205 F 
ATOM     77  C   UNL A   1      42.679  22.445  25.186  1.00  0.00     0.022 A 
BRANCH  75  78
ATOM     78  S   UNL A   1      41.495  20.487  26.684  1.00  0.00     0.127 S 
ATOM     79  O   UNL A   1      40.076  20.763  26.903  1.00  0.00    -0.237 OA
ATOM     80  O   UNL A   1      41.802  19.850  25.403  1.00  0.00    -0.237 OA
ATOM     81  O   UNL A   1      42.206  19.927  27.825  1.00  0.00    -0.744 OA
ENDBRANCH  75  78
ENDBRANCH  57  71
BRANCH  58  82
ATOM     82  C   UNL A   1      43.217  30.778  34.861  1.00  0.00     0.023 A 
ATOM     83  C   UNL A   1      42.453  30.493  36.010  1.00  0.00     0.012 A 
ATOM     84  C   UNL A   1      44.032  31.925  34.847  1.00  0.00     0.148 A 
ATOM     85  C   UNL A   1      42.471  31.353  37.109  1.00  0.00     0.002 A 
ATOM     86  C   UNL A   1      44.088  32.749  35.966  1.00  0.00     0.091 A 
ATOM     87  F   UNL A   1      44.741  32.189  33.740  1.00  0.00    -0.205 F 
ATOM     88  C   UNL A   1      43.294  32.475  37.091  1.00  0.00     0.022 A 
BRANCH  86  89
ATOM     89  S   UNL A   1      45.218  34.141  36.077  1.00  0.00     0.127 S 
ATOM     90  O   UNL A   1      44.699  35.035  35.045  1.00  0.00    -0.237 OA
ATOM     91  O   UNL A   1      45.007  34.599  37.451  1.00  0.00    -0.237 OA
ATOM     92  O   UNL A   1      46.543  33.588  35.832  1.00  0.00    -0.744 OA
ENDBRANCH  86  89
ENDBRANCH  58  82
BRANCH  70  93
ATOM     93  C   UNL A   1      47.666  26.062  32.274  1.00  0.00     0.023 A 
ATOM     94  C   UNL A   1      48.801  26.717  31.758  1.00  0.00     0.012 A 
ATOM     95  C   UNL A   1      47.829  25.049  33.239  1.00  0.00     0.148 A 
ATOM     96  C   UNL A   1      50.080  26.349  32.174  1.00  0.00     0.002 A 
ATOM     97  C   UNL A   1      49.105  24.719  33.683  1.00  0.00     0.091 A 
ATOM     98  F   UNL A   1      46.737  24.423  33.703  1.00  0.00    -0.205 F 
ATOM     99  C   UNL A   1      50.232  25.360  33.144  1.00  0.00     0.022 A 
BRANCH  97 100
ATOM    100  S   UNL A   1      49.386  23.528  34.998  1.00  0.00     0.127 S 
ATOM    101  O   UNL A   1      48.695  22.348  34.484  1.00  0.00    -0.237 OA
ATOM    102  O   UNL A   1      50.845  23.422  35.018  1.00  0.00    -0.237 OA
ATOM    103  O   UNL A   1      48.810  24.117  36.200  1.00  0.00    -0.744 OA
ENDBRANCH  97 100
ENDBRANCH  70  93
ENDBRANCH  44  45
ENDBRANCH  36  39
ENDBRANCH  34  35
ENDBRANCH  33  34
ENDBRANCH  32  33
ENDBRANCH   1  32
TORSDOF 20
ENDMDL
MODEL 3
REMARK VINA RESULT:      -8.3      5.965     10.788
REMARK SMILES O=C(NCCCCCCNC(=O)c1ccc(-c2c3nc(c(-c4cccc(S(=O)(=O)[O-])c4F)c4ccc([nH]4)c(-c4cccc(S(=O)(=O)[O-])c4F)c4nc(c(-c5cccc(S(=O)(=O)[O-])c5F)c5ccc2[nH]5)C=C4)C=C3)cc1)c1ccc(/C=C/c2ccnc(-c3cccc([N+](=O)[O-])c3)[n+]2[O-])cc1
REMARK SMILES IDX 6 1 5 2 4 3 3 4 1 5 2 6 76 8 77 9 99 10 78 11 98 12 79 13
REMARK SMILES IDX 80 14 81 15 82 16 83 17 96 18 84 19 86 20 97 21 85 22 87 23
REMARK SMILES IDX 88 24 95 25 89 26 91 27 90 28 92 29 93 30 94 31 7 32 8 33
REMARK SMILES IDX 9 34 10 35 11 36 12 38 13 39 14 40 75 41 15 42 74 43 16 44
REMARK SMILES IDX 17 45 18 46 68 47 19 48 73 49 67 50 69 51 20 52 72 53 66 54
REMARK SMILES IDX 65 55 21 57 53 58 33 59 52 60 34 61 37 62 51 63 70 64 35 65
REMARK SMILES IDX 36 66 50 68 71 69 38 70 22 71 23 72 31 73 24 74 26 75 32 76
REMARK SMILES IDX 25 77 27 78 28 79 29 80 30 81 54 82 55 83 63 84 56 85 58 86
REMARK SMILES IDX 64 87 57 88 59 89 60 90 61 91 62 92 39 93 40 94 48 95 41 96
REMARK SMILES IDX 43 97 49 98 42 99 44 100 45 101 46 102 47 103
REMARK H PARENT 3 7 10 37 69 56 37 67
REMARK Flexibility Score: inf
ROOT
ATOM      1  C   UNL A   1      33.884  34.079  29.200  1.00  0.00     0.002 C 
ENDROOT
BRANCH   1   2
ATOM      2  C   UNL A   1      34.527  33.203  28.120  1.00  0.00     0.021 C 
BRANCH   2   3
ATOM      3  C   UNL A   1      33.827  31.870  27.866  1.00  0.00     0.116 C 
BRANCH   3   4
ATOM      4  N   UNL A   1      32.517  32.048  27.257  1.00  0.00    -0.352 N 
ATOM      5  O   UNL A   1      30.801  31.532  25.873  1.00  0.00    -0.269 OA
ATOM      6  C   UNL A   1      31.834  31.184  26.440  1.00  0.00     0.251 C 
ATOM      7  H   UNL A   1      32.062  32.898  27.460  1.00  0.00     0.163 HD
BRANCH   6   8
ATOM      8  C   UNL A   1      32.362  29.823  26.236  1.00  0.00     0.039 A 
ATOM      9  C   UNL A   1      32.114  28.824  27.180  1.00  0.00     0.014 A 
ATOM     10  C   UNL A   1      33.119  29.549  25.100  1.00  0.00     0.014 A 
ATOM     11  C   UNL A   1      32.681  27.560  27.017  1.00  0.00     0.009 A 
ATOM     12  C   UNL A   1      33.682  28.279  24.940  1.00  0.00     0.009 A 
ATOM     13  C   UNL A   1      33.484  27.273  25.902  1.00  0.00    -0.025 A 
BRANCH  13  14
ATOM     14  C   UNL A   1      34.151  25.975  25.699  1.00  0.00     0.012 C 
ATOM     15  C   UNL A   1      33.567  24.767  25.768  1.00  0.00     0.053 C 
BRANCH  15  16
ATOM     16  C   UNL A   1      34.282  23.488  25.597  1.00  0.00     0.134 A 
ATOM     17  C   UNL A   1      35.660  23.466  25.820  1.00  0.00     0.100 A 
ATOM     18  N   UNL A   1      33.620  22.326  25.169  1.00  0.00    -0.228 N 
ATOM     19  C   UNL A   1      36.327  22.275  25.652  1.00  0.00     0.259 A 
ATOM     20  C   UNL A   1      34.385  21.171  24.980  1.00  0.00     0.333 A 
ATOM     21  O   UNL A   1      32.355  22.316  24.952  1.00  0.00    -0.710 OA
ATOM     22  N   UNL A   1      35.726  21.139  25.257  1.00  0.00    -0.049 NA
BRANCH  20  23
ATOM     23  C   UNL A   1      33.783  19.965  24.412  1.00  0.00     0.076 A 
ATOM     24  C   UNL A   1      32.807  20.044  23.402  1.00  0.00     0.017 A 
ATOM     25  C   UNL A   1      34.162  18.693  24.877  1.00  0.00     0.102 A 
ATOM     26  C   UNL A   1      32.248  18.888  22.848  1.00  0.00     0.008 A 
ATOM     27  C   UNL A   1      33.594  17.538  24.327  1.00  0.00     0.270 A 
ATOM     28  C   UNL A   1      32.640  17.631  23.307  1.00  0.00     0.085 A 
BRANCH  27  29
ATOM     29  N   UNL A   1      33.998  16.220  24.831  1.00  0.00     0.062 N 
ATOM     30  O   UNL A   1      35.198  16.051  25.093  1.00  0.00    -0.258 OA
ATOM     31  O   UNL A   1      33.122  15.353  24.947  1.00  0.00    -0.258 OA
ENDBRANCH  27  29
ENDBRANCH  20  23
ENDBRANCH  15  16
ENDBRANCH  13  14
ENDBRANCH   6   8
ENDBRANCH   3   4
ENDBRANCH   2   3
ENDBRANCH   1   2
BRANCH   1  32
ATOM     32  C   UNL A   1      34.587  34.073  30.560  1.00  0.00     0.002 C 
BRANCH  32  33
ATOM     33  C   UNL A   1      35.817  33.168  30.662  1.00  0.00     0.021 C 
BRANCH  33  34
ATOM     34  C   UNL A   1      36.293  32.870  32.081  1.00  0.00     0.116 C 
BRANCH  34  35
ATOM     35  N   UNL A   1      36.188  31.460  32.422  1.00  0.00    -0.352 N 
ATOM     36  C   UNL A   1      37.080  30.440  32.190  1.00  0.00     0.251 C 
ATOM     37  H   UNL A   1      35.360  31.198  32.884  1.00  0.00     0.163 HD
ATOM     38  O   UNL A   1      36.752  29.279  32.420  1.00  0.00    -0.269 OA
BRANCH  36  39
ATOM     39  C   UNL A   1      38.422  30.737  31.642  1.00  0.00     0.039 A 
ATOM     40  C   UNL A   1      38.606  30.709  30.257  1.00  0.00     0.014 A 
ATOM     41  C   UNL A   1      39.497  31.035  32.485  1.00  0.00     0.014 A 
ATOM     42  C   UNL A   1      39.851  31.039  29.714  1.00  0.00     0.010 A 
ATOM     43  C   UNL A   1      40.717  31.427  31.940  1.00  0.00     0.010 A 
ATOM     44  C   UNL A   1      40.909  31.430  30.551  1.00  0.00    -0.014 A 
BRANCH  44  45
ATOM     45  C   UNL A   1      42.217  31.861  29.991  1.00  0.00     0.031 A 
ATOM     46  C   UNL A   1      42.489  33.319  29.732  1.00  0.00     0.074 A 
ATOM     47  C   UNL A   1      43.123  30.932  29.627  1.00  0.00     0.049 A 
ATOM     48  N   UNL A   1      43.545  33.878  29.199  1.00  0.00    -0.248 NA
ATOM     49  C   UNL A   1      41.427  34.272  30.094  1.00  0.00     0.031 C 
ATOM     50  C   UNL A   1      42.947  29.483  29.754  1.00  0.00     0.029 A 
ATOM     51  N   UNL A   1      44.362  31.065  29.051  1.00  0.00    -0.354 N 
ATOM     52  C   UNL A   1      43.259  35.235  29.121  1.00  0.00     0.074 A 
ATOM     53  C   UNL A   1      41.922  35.415  29.641  1.00  0.00     0.031 C 
ATOM     54  C   UNL A   1      44.038  28.863  29.274  1.00  0.00     0.029 A 
ATOM     55  C   UNL A   1      44.979  29.865  28.781  1.00  0.00     0.049 A 
ATOM     56  H   UNL A   1      44.772  31.937  28.849  1.00  0.00     0.167 HD
ATOM     57  C   UNL A   1      44.049  36.245  28.681  1.00  0.00     0.034 A 
ATOM     58  C   UNL A   1      46.165  29.600  28.200  1.00  0.00     0.034 A 
ATOM     59  C   UNL A   1      45.399  36.069  28.220  1.00  0.00     0.049 A 
ATOM     60  C   UNL A   1      47.042  30.746  27.769  1.00  0.00     0.074 A 
ATOM     61  C   UNL A   1      46.318  37.041  27.863  1.00  0.00     0.029 A 
ATOM     62  N   UNL A   1      46.025  34.845  28.047  1.00  0.00    -0.354 N 
ATOM     63  N   UNL A   1      46.825  32.035  27.874  1.00  0.00    -0.248 NA
ATOM     64  C   UNL A   1      48.342  30.402  27.174  1.00  0.00     0.031 C 
ATOM     65  C   UNL A   1      47.493  36.402  27.455  1.00  0.00     0.029 A 
ATOM     66  C   UNL A   1      47.313  35.034  27.576  1.00  0.00     0.049 A 
ATOM     67  H   UNL A   1      45.614  33.970  28.232  1.00  0.00     0.167 HD
ATOM     68  C   UNL A   1      47.974  32.654  27.395  1.00  0.00     0.074 A 
ATOM     69  C   UNL A   1      48.892  31.599  27.019  1.00  0.00     0.031 C 
ATOM     70  C   UNL A   1      48.241  33.977  27.266  1.00  0.00     0.034 A 
BRANCH  57  71
ATOM     71  C   UNL A   1      43.495  37.645  28.728  1.00  0.00     0.023 A 
ATOM     72  C   UNL A   1      43.813  38.480  29.818  1.00  0.00     0.012 A 
ATOM     73  C   UNL A   1      42.728  38.158  27.664  1.00  0.00     0.148 A 
ATOM     74  C   UNL A   1      43.350  39.795  29.864  1.00  0.00     0.002 A 
ATOM     75  C   UNL A   1      42.307  39.482  27.696  1.00  0.00     0.091 A 
ATOM     76  F   UNL A   1      42.418  37.342  26.646  1.00  0.00    -0.205 F 
ATOM     77  C   UNL A   1      42.608  40.298  28.799  1.00  0.00     0.022 A 
BRANCH  75  78
ATOM     78  S   UNL A   1      41.415  40.249  26.339  1.00  0.00     0.127 S 
ATOM     79  O   UNL A   1      42.506  40.831  25.559  1.00  0.00    -0.237 OA
ATOM     80  O   UNL A   1      40.762  39.101  25.710  1.00  0.00    -0.237 OA
ATOM     81  O   UNL A   1      40.502  41.206  26.949  1.00  0.00    -0.744 OA
ENDBRANCH  75  78
ENDBRANCH  57  71
BRANCH  58  82
ATOM     82  C   UNL A   1      46.635  28.191  28.064  1.00  0.00     0.023 A 
ATOM     83  C   UNL A   1      47.362  27.607  29.121  1.00  0.00     0.012 A 
ATOM     84  C   UNL A   1      46.354  27.423  26.919  1.00  0.00     0.148 A 
ATOM     85  C   UNL A   1      47.832  26.297  29.023  1.00  0.00     0.002 A 
ATOM     86  C   UNL A   1      46.779  26.101  26.850  1.00  0.00     0.091 A 
ATOM     87  F   UNL A   1      45.673  27.999  25.917  1.00  0.00    -0.205 F 
ATOM     88  C   UNL A   1      47.534  25.541  27.893  1.00  0.00     0.022 A 
BRANCH  86  89
ATOM     89  S   UNL A   1      46.326  25.017  25.490  1.00  0.00     0.127 S 
ATOM     90  O   UNL A   1      44.881  25.218  25.413  1.00  0.00    -0.237 OA
ATOM     91  O   UNL A   1      47.087  25.586  24.378  1.00  0.00    -0.237 OA
ATOM     92  O   UNL A   1      46.763  23.686  25.890  1.00  0.00    -0.744 OA
ENDBRANCH  86  89
ENDBRANCH  58  82
BRANCH  70  93
ATOM     93  C   UNL A   1      49.591  34.371  26.727  1.00  0.00     0.023 A 
ATOM     94  C   UNL A   1      49.762  34.566  25.343  1.00  0.00     0.012 A 
ATOM     95  C   UNL A   1      50.666  34.628  27.601  1.00  0.00     0.148 A 
ATOM     96  C   UNL A   1      50.993  34.980  24.833  1.00  0.00     0.002 A 
ATOM     97  C   UNL A   1      51.876  35.085  27.090  1.00  0.00     0.091 A 
ATOM     98  F   UNL A   1      50.489  34.417  28.914  1.00  0.00    -0.205 F 
ATOM     99  C   UNL A   1      52.044  35.250  25.706  1.00  0.00     0.022 A 
BRANCH  97 100
ATOM    100  S   UNL A   1      53.250  35.551  28.149  1.00  0.00     0.127 S 
ATOM    101  O   UNL A   1      54.295  35.842  27.170  1.00  0.00    -0.237 OA
ATOM    102  O   UNL A   1      52.723  36.724  28.847  1.00  0.00    -0.237 OA
ATOM    103  O   UNL A   1      53.499  34.401  29.009  1.00  0.00    -0.744 OA
ENDBRANCH  97 100
ENDBRANCH  70  93
ENDBRANCH  44  45
ENDBRANCH  36  39
ENDBRANCH  34  35
ENDBRANCH  33  34
ENDBRANCH  32  33
ENDBRANCH   1  32
TORSDOF 20
ENDMDL
