MODEL 1
REMARK VINA RESULT:     -12.2      0.000      0.000
REMARK SMILES O=C(Cn1nc(-c2ccco2)ccc1=O)N[C@@H](C(=O)NCCCCCCNC(=O)c1ccc(-c2c3nc(c(-c4cccc(S(=O)(=O)[O-])c4F)c4ccc([nH]4)c(-c4cccc(S(=O)(=O)[O-])c4F)c4nc(c(-c5cccc(S(=O)(=O)[O-])c5F)c5ccc2[nH]5)C=C4)C=C3)cc1)c1ccccc1
REMARK SMILES IDX 23 1 22 2 21 3 20 4 18 5 19 6 17 8 16 9 1 10 2 11 3 13 4 14
REMARK SMILES IDX 5 15 14 16 6 17 13 18 15 19 12 20 7 21 8 22 11 23 9 24 10 25
REMARK SMILES IDX 93 26 94 27 98 28 95 29 97 30 96 31 24 32 25 33 26 34 27 35
REMARK SMILES IDX 28 36 29 38 30 39 31 40 92 41 32 42 91 43 33 44 34 45 35 46
REMARK SMILES IDX 85 47 36 48 90 49 84 50 86 51 37 52 89 53 83 54 82 55 38 57
REMARK SMILES IDX 70 58 50 59 69 60 51 61 54 62 68 63 87 64 52 65 53 66 67 68
REMARK SMILES IDX 88 69 55 70 39 71 40 72 48 73 41 74 43 75 49 76 42 77 44 78
REMARK SMILES IDX 45 79 46 80 47 81 71 82 72 83 80 84 73 85 75 86 81 87 74 88
REMARK SMILES IDX 76 89 77 90 78 91 79 92 56 93 57 94 65 95 58 96 60 97 66 98
REMARK SMILES IDX 59 99 61 100 62 101 63 102 64 103
REMARK H PARENT 20 7 16 12 27 37 86 56 54 67
REMARK Flexibility Score: inf
ROOT
ATOM      1  C   UNL A   1      33.687  30.098  26.870  1.00  0.00     0.002 C 
ENDROOT
BRANCH   1   2
ATOM      2  C   UNL A   1      34.058  28.612  27.005  1.00  0.00     0.021 C 
BRANCH   2   3
ATOM      3  C   UNL A   1      33.530  27.735  25.866  1.00  0.00     0.116 C 
BRANCH   3   4
ATOM      4  N   UNL A   1      33.413  28.519  24.651  1.00  0.00    -0.354 N 
ATOM      5  C   UNL A   1      32.420  28.492  23.711  1.00  0.00     0.247 C 
ATOM      6  O   UNL A   1      32.699  28.942  22.596  1.00  0.00    -0.272 OA
ATOM      7  H   UNL A   1      34.146  29.152  24.480  1.00  0.00     0.163 HD
BRANCH   5   8
ATOM      8  C   UNL A   1      31.037  27.874  24.065  1.00  0.00     0.202 C 
BRANCH   8   9
ATOM      9  N   UNL A   1      30.976  26.571  23.407  1.00  0.00    -0.339 N 
ATOM     10  O   UNL A   1      30.739  25.358  25.334  1.00  0.00    -0.273 OA
ATOM     11  C   UNL A   1      30.875  25.391  24.113  1.00  0.00     0.242 C 
ATOM     12  H   UNL A   1      31.008  26.534  22.424  1.00  0.00     0.164 HD
BRANCH  11  13
ATOM     13  C   UNL A   1      30.990  24.124  23.270  1.00  0.00     0.248 C 
BRANCH  13  14
ATOM     14  N   UNL A   1      32.238  23.383  23.389  1.00  0.00    -0.220 N 
ATOM     15  N   UNL A   1      32.181  22.060  23.777  1.00  0.00    -0.166 NA
ATOM     16  C   UNL A   1      33.415  24.036  23.045  1.00  0.00     0.267 A 
ATOM     17  C   UNL A   1      33.306  21.448  23.990  1.00  0.00     0.126 A 
ATOM     18  C   UNL A   1      34.667  23.295  23.299  1.00  0.00     0.076 A 
ATOM     19  O   UNL A   1      33.476  25.161  22.558  1.00  0.00    -0.268 OA
ATOM     20  C   UNL A   1      34.636  22.054  23.789  1.00  0.00     0.040 A 
BRANCH  17  21
ATOM     21  C   UNL A   1      33.280  20.080  24.430  1.00  0.00     0.154 A 
ATOM     22  C   UNL A   1      34.279  19.136  24.565  1.00  0.00     0.052 A 
ATOM     23  O   UNL A   1      32.078  19.533  24.782  1.00  0.00    -0.463 OA
ATOM     24  C   UNL A   1      33.651  17.948  25.013  1.00  0.00     0.043 A 
ATOM     25  C   UNL A   1      32.309  18.232  25.099  1.00  0.00     0.196 A 
ENDBRANCH  17  21
ENDBRANCH  13  14
ENDBRANCH  11  13
ENDBRANCH   8   9
BRANCH   8  26
ATOM     26  C   UNL A   1      29.887  28.806  23.688  1.00  0.00    -0.016 A 
ATOM     27  C   UNL A   1      28.720  28.267  23.111  1.00  0.00     0.006 A 
ATOM     28  C   UNL A   1      29.947  30.196  23.857  1.00  0.00     0.006 A 
ATOM     29  C   UNL A   1      27.638  29.079  22.768  1.00  0.00     0.000 A 
ATOM     30  C   UNL A   1      28.865  31.009  23.509  1.00  0.00     0.000 A 
ATOM     31  C   UNL A   1      27.709  30.452  22.974  1.00  0.00     0.000 A 
ENDBRANCH   8  26
ENDBRANCH   5   8
ENDBRANCH   3   4
ENDBRANCH   2   3
ENDBRANCH   1   2
BRANCH   1  32
ATOM     32  C   UNL A   1      32.184  30.401  26.894  1.00  0.00     0.002 C 
BRANCH  32  33
ATOM     33  C   UNL A   1      31.829  31.887  26.919  1.00  0.00     0.021 C 
BRANCH  33  34
ATOM     34  C   UNL A   1      32.973  32.801  27.342  1.00  0.00     0.116 C 
BRANCH  34  35
ATOM     35  N   UNL A   1      32.521  34.144  27.673  1.00  0.00    -0.352 N 
ATOM     36  C   UNL A   1      32.989  34.981  28.666  1.00  0.00     0.251 C 
ATOM     37  H   UNL A   1      31.790  34.501  27.118  1.00  0.00     0.163 HD
ATOM     38  O   UNL A   1      32.425  36.027  28.921  1.00  0.00    -0.269 OA
BRANCH  36  39
ATOM     39  C   UNL A   1      34.175  34.542  29.436  1.00  0.00     0.039 A 
ATOM     40  C   UNL A   1      35.453  34.712  28.898  1.00  0.00     0.014 A 
ATOM     41  C   UNL A   1      33.992  33.864  30.641  1.00  0.00     0.014 A 
ATOM     42  C   UNL A   1      36.529  34.052  29.479  1.00  0.00     0.010 A 
ATOM     43  C   UNL A   1      35.091  33.264  31.263  1.00  0.00     0.010 A 
ATOM     44  C   UNL A   1      36.357  33.304  30.656  1.00  0.00    -0.014 A 
BRANCH  44  45
ATOM     45  C   UNL A   1      37.508  32.553  31.220  1.00  0.00     0.031 A 
ATOM     46  C   UNL A   1      37.952  32.775  32.642  1.00  0.00     0.074 A 
ATOM     47  C   UNL A   1      38.132  31.636  30.457  1.00  0.00     0.049 A 
ATOM     48  N   UNL A   1      38.936  32.205  33.292  1.00  0.00    -0.248 NA
ATOM     49  C   UNL A   1      37.205  33.761  33.441  1.00  0.00     0.031 C 
ATOM     50  C   UNL A   1      37.803  31.339  29.061  1.00  0.00     0.029 A 
ATOM     51  N   UNL A   1      39.164  30.780  30.746  1.00  0.00    -0.354 N 
ATOM     52  C   UNL A   1      38.956  32.794  34.551  1.00  0.00     0.074 A 
ATOM     53  C   UNL A   1      37.884  33.765  34.581  1.00  0.00     0.031 C 
ATOM     54  C   UNL A   1      38.591  30.345  28.626  1.00  0.00     0.029 A 
ATOM     55  C   UNL A   1      39.515  29.970  29.693  1.00  0.00     0.049 A 
ATOM     56  H   UNL A   1      39.609  30.748  31.622  1.00  0.00     0.167 HD
ATOM     57  C   UNL A   1      39.780  32.536  35.593  1.00  0.00     0.034 A 
ATOM     58  C   UNL A   1      40.480  29.036  29.587  1.00  0.00     0.034 A 
ATOM     59  C   UNL A   1      40.801  31.523  35.589  1.00  0.00     0.049 A 
ATOM     60  C   UNL A   1      41.361  28.751  30.766  1.00  0.00     0.074 A 
ATOM     61  C   UNL A   1      41.646  31.155  36.622  1.00  0.00     0.029 A 
ATOM     62  N   UNL A   1      41.110  30.712  34.509  1.00  0.00    -0.354 N 
ATOM     63  N   UNL A   1      41.315  29.270  31.969  1.00  0.00    -0.248 NA
ATOM     64  C   UNL A   1      42.420  27.750  30.581  1.00  0.00     0.031 C 
ATOM     65  C   UNL A   1      42.468  30.121  36.166  1.00  0.00     0.029 A 
ATOM     66  C   UNL A   1      42.134  29.846  34.850  1.00  0.00     0.049 A 
ATOM     67  H   UNL A   1      40.668  30.749  33.631  1.00  0.00     0.167 HD
ATOM     68  C   UNL A   1      42.333  28.655  32.686  1.00  0.00     0.074 A 
ATOM     69  C   UNL A   1      42.964  27.707  31.791  1.00  0.00     0.031 C 
ATOM     70  C   UNL A   1      42.723  28.878  33.964  1.00  0.00     0.034 A 
BRANCH  57  71
ATOM     71  C   UNL A   1      39.590  33.320  36.862  1.00  0.00     0.023 A 
ATOM     72  C   UNL A   1      40.153  34.607  36.965  1.00  0.00     0.012 A 
ATOM     73  C   UNL A   1      38.763  32.836  37.895  1.00  0.00     0.148 A 
ATOM     74  C   UNL A   1      39.900  35.401  38.082  1.00  0.00     0.002 A 
ATOM     75  C   UNL A   1      38.495  33.644  38.994  1.00  0.00     0.091 A 
ATOM     76  F   UNL A   1      38.250  31.604  37.775  1.00  0.00    -0.205 F 
ATOM     77  C   UNL A   1      39.065  34.925  39.090  1.00  0.00     0.022 A 
BRANCH  75  78
ATOM     78  S   UNL A   1      37.391  33.150  40.322  1.00  0.00     0.127 S 
ATOM     79  O   UNL A   1      36.159  32.863  39.588  1.00  0.00    -0.237 OA
ATOM     80  O   UNL A   1      38.068  31.970  40.860  1.00  0.00    -0.237 OA
ATOM     81  O   UNL A   1      37.318  34.285  41.232  1.00  0.00    -0.744 OA
ENDBRANCH  75  78
ENDBRANCH  57  71
BRANCH  58  82
ATOM     82  C   UNL A   1      40.617  28.280  28.314  1.00  0.00     0.023 A 
ATOM     83  C   UNL A   1      41.238  28.896  27.212  1.00  0.00     0.012 A 
ATOM     84  C   UNL A   1      40.221  26.932  28.223  1.00  0.00     0.148 A 
ATOM     85  C   UNL A   1      41.460  28.180  26.035  1.00  0.00     0.002 A 
ATOM     86  C   UNL A   1      40.486  26.212  27.065  1.00  0.00     0.091 A 
ATOM     87  F   UNL A   1      39.623  26.375  29.285  1.00  0.00    -0.205 F 
ATOM     88  C   UNL A   1      41.097  26.837  25.967  1.00  0.00     0.022 A 
BRANCH  86  89
ATOM     89  S   UNL A   1      40.170  24.450  26.930  1.00  0.00     0.127 S 
ATOM     90  O   UNL A   1      40.489  23.986  28.277  1.00  0.00    -0.237 OA
ATOM     91  O   UNL A   1      38.748  24.425  26.590  1.00  0.00    -0.237 OA
ATOM     92  O   UNL A   1      41.051  23.969  25.874  1.00  0.00    -0.744 OA
ENDBRANCH  86  89
ENDBRANCH  58  82
BRANCH  70  93
ATOM     93  C   UNL A   1      43.894  28.092  34.485  1.00  0.00     0.023 A 
ATOM     94  C   UNL A   1      45.174  28.675  34.458  1.00  0.00     0.012 A 
ATOM     95  C   UNL A   1      43.710  26.837  35.098  1.00  0.00     0.148 A 
ATOM     96  C   UNL A   1      46.262  28.016  35.026  1.00  0.00     0.002 A 
ATOM     97  C   UNL A   1      44.794  26.199  35.690  1.00  0.00     0.091 A 
ATOM     98  F   UNL A   1      42.482  26.300  35.098  1.00  0.00    -0.205 F 
ATOM     99  C   UNL A   1      46.071  26.786  35.652  1.00  0.00     0.022 A 
BRANCH  97 100
ATOM    100  S   UNL A   1      44.634  24.648  36.578  1.00  0.00     0.127 S 
ATOM    101  O   UNL A   1      43.915  23.823  35.609  1.00  0.00    -0.237 OA
ATOM    102  O   UNL A   1      46.030  24.264  36.790  1.00  0.00    -0.237 OA
ATOM    103  O   UNL A   1      43.900  24.956  37.799  1.00  0.00    -0.744 OA
ENDBRANCH  97 100
ENDBRANCH  70  93
ENDBRANCH  44  45
ENDBRANCH  36  39
ENDBRANCH  34  35
ENDBRANCH  33  34
ENDBRANCH  32  33
ENDBRANCH   1  32
TORSDOF 21
ENDMDL
MODEL 2
REMARK VINA RESULT:     -12.2      1.984      2.393
REMARK SMILES O=C(Cn1nc(-c2ccco2)ccc1=O)N[C@@H](C(=O)NCCCCCCNC(=O)c1ccc(-c2c3nc(c(-c4cccc(S(=O)(=O)[O-])c4F)c4ccc([nH]4)c(-c4cccc(S(=O)(=O)[O-])c4F)c4nc(c(-c5cccc(S(=O)(=O)[O-])c5F)c5ccc2[nH]5)C=C4)C=C3)cc1)c1ccccc1
REMARK SMILES IDX 23 1 22 2 21 3 20 4 18 5 19 6 17 8 16 9 1 10 2 11 3 13 4 14
REMARK SMILES IDX 5 15 14 16 6 17 13 18 15 19 12 20 7 21 8 22 11 23 9 24 10 25
REMARK SMILES IDX 93 26 94 27 98 28 95 29 97 30 96 31 24 32 25 33 26 34 27 35
REMARK SMILES IDX 28 36 29 38 30 39 31 40 92 41 32 42 91 43 33 44 34 45 35 46
REMARK SMILES IDX 85 47 36 48 90 49 84 50 86 51 37 52 89 53 83 54 82 55 38 57
REMARK SMILES IDX 70 58 50 59 69 60 51 61 54 62 68 63 87 64 52 65 53 66 67 68
REMARK SMILES IDX 88 69 55 70 39 71 40 72 48 73 41 74 43 75 49 76 42 77 44 78
REMARK SMILES IDX 45 79 46 80 47 81 71 82 72 83 80 84 73 85 75 86 81 87 74 88
REMARK SMILES IDX 76 89 77 90 78 91 79 92 56 93 57 94 65 95 58 96 60 97 66 98
REMARK SMILES IDX 59 99 61 100 62 101 63 102 64 103
REMARK H PARENT 20 7 16 12 27 37 86 56 54 67
REMARK Flexibility Score: inf
ROOT
ATOM      1  C   UNL A   1      32.389  30.247  26.633  1.00  0.00     0.002 C 
ENDROOT
BRANCH   1   2
ATOM      2  C   UNL A   1      31.772  29.056  27.383  1.00  0.00     0.021 C 
BRANCH   2   3
ATOM      3  C   UNL A   1      32.497  27.729  27.144  1.00  0.00     0.116 C 
BRANCH   3   4
ATOM      4  N   UNL A   1      33.208  27.773  25.881  1.00  0.00    -0.354 N 
ATOM      5  C   UNL A   1      32.982  27.040  24.749  1.00  0.00     0.247 C 
ATOM      6  O   UNL A   1      33.916  26.956  23.946  1.00  0.00    -0.272 OA
ATOM      7  H   UNL A   1      33.952  28.415  25.833  1.00  0.00     0.163 HD
BRANCH   5   8
ATOM      8  C   UNL A   1      31.614  26.328  24.548  1.00  0.00     0.202 C 
BRANCH   8   9
ATOM      9  N   UNL A   1      31.868  25.147  23.727  1.00  0.00    -0.339 N 
ATOM     10  O   UNL A   1      30.946  23.650  25.194  1.00  0.00    -0.273 OA
ATOM     11  C   UNL A   1      31.547  23.873  24.145  1.00  0.00     0.242 C 
ATOM     12  H   UNL A   1      32.284  25.264  22.842  1.00  0.00     0.164 HD
BRANCH  11  13
ATOM     13  C   UNL A   1      32.035  22.752  23.230  1.00  0.00     0.248 C 
BRANCH  13  14
ATOM     14  N   UNL A   1      33.109  21.919  23.751  1.00  0.00    -0.220 N 
ATOM     15  N   UNL A   1      32.857  20.579  23.963  1.00  0.00    -0.166 NA
ATOM     16  C   UNL A   1      34.351  22.510  23.948  1.00  0.00     0.267 A 
ATOM     17  C   UNL A   1      33.787  19.876  24.535  1.00  0.00     0.126 A 
ATOM     18  C   UNL A   1      35.377  21.666  24.593  1.00  0.00     0.076 A 
ATOM     19  O   UNL A   1      34.640  23.659  23.628  1.00  0.00    -0.268 OA
ATOM     20  C   UNL A   1      35.112  20.400  24.918  1.00  0.00     0.040 A 
BRANCH  17  21
ATOM     21  C   UNL A   1      33.539  18.485  24.803  1.00  0.00     0.154 A 
ATOM     22  C   UNL A   1      34.209  17.340  24.420  1.00  0.00     0.052 A 
ATOM     23  O   UNL A   1      32.449  18.152  25.556  1.00  0.00    -0.463 OA
ATOM     24  C   UNL A   1      33.482  16.250  24.958  1.00  0.00     0.043 A 
ATOM     25  C   UNL A   1      32.404  16.795  25.613  1.00  0.00     0.196 A 
ENDBRANCH  17  21
ENDBRANCH  13  14
ENDBRANCH  11  13
ENDBRANCH   8   9
BRANCH   8  26
ATOM     26  C   UNL A   1      30.565  27.270  23.959  1.00  0.00    -0.016 A 
ATOM     27  C   UNL A   1      29.227  26.840  23.860  1.00  0.00     0.006 A 
ATOM     28  C   UNL A   1      30.877  28.547  23.473  1.00  0.00     0.006 A 
ATOM     29  C   UNL A   1      28.233  27.675  23.346  1.00  0.00     0.000 A 
ATOM     30  C   UNL A   1      29.882  29.380  22.954  1.00  0.00     0.000 A 
ATOM     31  C   UNL A   1      28.561  28.949  22.898  1.00  0.00     0.000 A 
ENDBRANCH   8  26
ENDBRANCH   5   8
ENDBRANCH   3   4
ENDBRANCH   2   3
ENDBRANCH   1   2
BRANCH   1  32
ATOM     32  C   UNL A   1      31.381  31.240  26.041  1.00  0.00     0.002 C 
BRANCH  32  33
ATOM     33  C   UNL A   1      31.404  32.631  26.672  1.00  0.00     0.021 C 
BRANCH  33  34
ATOM     34  C   UNL A   1      32.759  33.046  27.232  1.00  0.00     0.116 C 
BRANCH  34  35
ATOM     35  N   UNL A   1      32.706  34.322  27.932  1.00  0.00    -0.352 N 
ATOM     36  C   UNL A   1      33.511  34.763  28.964  1.00  0.00     0.251 C 
ATOM     37  H   UNL A   1      32.010  34.949  27.630  1.00  0.00     0.163 HD
ATOM     38  O   UNL A   1      33.267  35.799  29.549  1.00  0.00    -0.269 OA
BRANCH  36  39
ATOM     39  C   UNL A   1      34.655  33.911  29.359  1.00  0.00     0.039 A 
ATOM     40  C   UNL A   1      34.446  32.817  30.203  1.00  0.00     0.014 A 
ATOM     41  C   UNL A   1      35.945  34.278  28.974  1.00  0.00     0.014 A 
ATOM     42  C   UNL A   1      35.538  32.198  30.799  1.00  0.00     0.010 A 
ATOM     43  C   UNL A   1      37.040  33.603  29.518  1.00  0.00     0.010 A 
ATOM     44  C   UNL A   1      36.847  32.597  30.479  1.00  0.00    -0.014 A 
BRANCH  44  45
ATOM     45  C   UNL A   1      37.995  31.965  31.178  1.00  0.00     0.031 A 
ATOM     46  C   UNL A   1      38.382  32.394  32.569  1.00  0.00     0.074 A 
ATOM     47  C   UNL A   1      38.668  30.970  30.570  1.00  0.00     0.049 A 
ATOM     48  N   UNL A   1      39.356  31.948  33.324  1.00  0.00    -0.248 NA
ATOM     49  C   UNL A   1      37.583  33.459  33.199  1.00  0.00     0.031 C 
ATOM     50  C   UNL A   1      38.397  30.474  29.220  1.00  0.00     0.029 A 
ATOM     51  N   UNL A   1      39.709  30.192  31.008  1.00  0.00    -0.354 N 
ATOM     52  C   UNL A   1      39.316  32.705  34.489  1.00  0.00     0.074 A 
ATOM     53  C   UNL A   1      38.220  33.639  34.349  1.00  0.00     0.031 C 
ATOM     54  C   UNL A   1      39.225  29.454  28.952  1.00  0.00     0.029 A 
ATOM     55  C   UNL A   1      40.118  29.256  30.090  1.00  0.00     0.049 A 
ATOM     56  H   UNL A   1      40.124  30.295  31.895  1.00  0.00     0.167 HD
ATOM     57  C   UNL A   1      40.108  32.617  35.582  1.00  0.00     0.034 A 
ATOM     58  C   UNL A   1      41.108  28.345  30.146  1.00  0.00     0.034 A 
ATOM     59  C   UNL A   1      41.152  31.643  35.752  1.00  0.00     0.049 A 
ATOM     60  C   UNL A   1      41.954  28.251  31.381  1.00  0.00     0.074 A 
ATOM     61  C   UNL A   1      41.968  31.446  36.853  1.00  0.00     0.029 A 
ATOM     62  N   UNL A   1      41.520  30.701  34.806  1.00  0.00    -0.354 N 
ATOM     63  N   UNL A   1      41.851  28.929  32.499  1.00  0.00    -0.248 NA
ATOM     64  C   UNL A   1      43.043  27.265  31.370  1.00  0.00     0.031 C 
ATOM     65  C   UNL A   1      42.831  30.383  36.571  1.00  0.00     0.029 A 
ATOM     66  C   UNL A   1      42.551  29.920  35.297  1.00  0.00     0.049 A 
ATOM     67  H   UNL A   1      41.109  30.603  33.917  1.00  0.00     0.167 HD
ATOM     68  C   UNL A   1      42.857  28.448  33.326  1.00  0.00     0.074 A 
ATOM     69  C   UNL A   1      43.543  27.405  32.592  1.00  0.00     0.031 C 
ATOM     70  C   UNL A   1      43.196  28.856  34.573  1.00  0.00     0.034 A 
BRANCH  57  71
ATOM     71  C   UNL A   1      39.853  33.562  36.724  1.00  0.00     0.023 A 
ATOM     72  C   UNL A   1      38.730  33.356  37.548  1.00  0.00     0.012 A 
ATOM     73  C   UNL A   1      40.778  34.573  37.047  1.00  0.00     0.148 A 
ATOM     74  C   UNL A   1      38.528  34.147  38.678  1.00  0.00     0.002 A 
ATOM     75  C   UNL A   1      40.584  35.341  38.190  1.00  0.00     0.091 A 
ATOM     76  F   UNL A   1      41.832  34.755  36.239  1.00  0.00    -0.205 F 
ATOM     77  C   UNL A   1      39.459  35.131  39.004  1.00  0.00     0.022 A 
BRANCH  75  78
ATOM     78  S   UNL A   1      41.749  36.598  38.730  1.00  0.00     0.127 S 
ATOM     79  O   UNL A   1      40.922  37.393  39.638  1.00  0.00    -0.237 OA
ATOM     80  O   UNL A   1      42.780  35.797  39.389  1.00  0.00    -0.237 OA
ATOM     81  O   UNL A   1      42.186  37.290  37.525  1.00  0.00    -0.744 OA
ENDBRANCH  75  78
ENDBRANCH  57  71
BRANCH  58  82
ATOM     82  C   UNL A   1      41.310  27.425  28.995  1.00  0.00     0.023 A 
ATOM     83  C   UNL A   1      40.506  26.275  28.885  1.00  0.00     0.012 A 
ATOM     84  C   UNL A   1      42.224  27.733  27.970  1.00  0.00     0.148 A 
ATOM     85  C   UNL A   1      40.612  25.443  27.771  1.00  0.00     0.002 A 
ATOM     86  C   UNL A   1      42.291  26.925  26.842  1.00  0.00     0.091 A 
ATOM     87  F   UNL A   1      42.982  28.829  28.106  1.00  0.00    -0.205 F 
ATOM     88  C   UNL A   1      41.493  25.775  26.744  1.00  0.00     0.022 A 
BRANCH  86  89
ATOM     89  S   UNL A   1      43.303  27.340  25.417  1.00  0.00     0.127 S 
ATOM     90  O   UNL A   1      43.621  26.019  24.883  1.00  0.00    -0.237 OA
ATOM     91  O   UNL A   1      42.372  28.126  24.606  1.00  0.00    -0.237 OA
ATOM     92  O   UNL A   1      44.432  28.097  25.940  1.00  0.00    -0.744 OA
ENDBRANCH  86  89
ENDBRANCH  58  82
BRANCH  70  93
ATOM     93  C   UNL A   1      44.365  28.185  35.235  1.00  0.00     0.023 A 
ATOM     94  C   UNL A   1      45.670  28.579  34.883  1.00  0.00     0.012 A 
ATOM     95  C   UNL A   1      44.174  27.255  36.276  1.00  0.00     0.148 A 
ATOM     96  C   UNL A   1      46.772  28.050  35.551  1.00  0.00     0.002 A 
ATOM     97  C   UNL A   1      45.277  26.754  36.958  1.00  0.00     0.091 A 
ATOM     98  F   UNL A   1      42.922  26.888  36.583  1.00  0.00    -0.205 F 
ATOM     99  C   UNL A   1      46.576  27.148  36.594  1.00  0.00     0.022 A 
BRANCH  97 100
ATOM    100  S   UNL A   1      45.122  25.644  38.361  1.00  0.00     0.127 S 
ATOM    101  O   UNL A   1      46.503  25.572  38.837  1.00  0.00    -0.237 OA
ATOM    102  O   UNL A   1      44.211  26.378  39.240  1.00  0.00    -0.237 OA
ATOM    103  O   UNL A   1      44.580  24.399  37.832  1.00  0.00    -0.744 OA
ENDBRANCH  97 100
ENDBRANCH  70  93
ENDBRANCH  44  45
ENDBRANCH  36  39
ENDBRANCH  34  35
ENDBRANCH  33  34
ENDBRANCH  32  33
ENDBRANCH   1  32
TORSDOF 21
ENDMDL
MODEL 3
REMARK VINA RESULT:     -12.1      1.628      4.571
REMARK SMILES O=C(Cn1nc(-c2ccco2)ccc1=O)N[C@@H](C(=O)NCCCCCCNC(=O)c1ccc(-c2c3nc(c(-c4cccc(S(=O)(=O)[O-])c4F)c4ccc([nH]4)c(-c4cccc(S(=O)(=O)[O-])c4F)c4nc(c(-c5cccc(S(=O)(=O)[O-])c5F)c5ccc2[nH]5)C=C4)C=C3)cc1)c1ccccc1
REMARK SMILES IDX 23 1 22 2 21 3 20 4 18 5 19 6 17 8 16 9 1 10 2 11 3 13 4 14
REMARK SMILES IDX 5 15 14 16 6 17 13 18 15 19 12 20 7 21 8 22 11 23 9 24 10 25
REMARK SMILES IDX 93 26 94 27 98 28 95 29 97 30 96 31 24 32 25 33 26 34 27 35
REMARK SMILES IDX 28 36 29 38 30 39 31 40 92 41 32 42 91 43 33 44 34 45 35 46
REMARK SMILES IDX 85 47 36 48 90 49 84 50 86 51 37 52 89 53 83 54 82 55 38 57
REMARK SMILES IDX 70 58 50 59 69 60 51 61 54 62 68 63 87 64 52 65 53 66 67 68
REMARK SMILES IDX 88 69 55 70 39 71 40 72 48 73 41 74 43 75 49 76 42 77 44 78
REMARK SMILES IDX 45 79 46 80 47 81 71 82 72 83 80 84 73 85 75 86 81 87 74 88
REMARK SMILES IDX 76 89 77 90 78 91 79 92 56 93 57 94 65 95 58 96 60 97 66 98
REMARK SMILES IDX 59 99 61 100 62 101 63 102 64 103
REMARK H PARENT 20 7 16 12 27 37 86 56 54 67
REMARK Flexibility Score: inf
ROOT
ATOM      1  C   UNL A   1      31.304  28.990  25.385  1.00  0.00     0.002 C 
ENDROOT
BRANCH   1   2
ATOM      2  C   UNL A   1      31.579  28.073  26.587  1.00  0.00     0.021 C 
BRANCH   2   3
ATOM      3  C   UNL A   1      32.995  27.488  26.610  1.00  0.00     0.116 C 
BRANCH   3   4
ATOM      4  N   UNL A   1      32.940  26.071  26.909  1.00  0.00    -0.354 N 
ATOM      5  C   UNL A   1      33.258  25.015  26.101  1.00  0.00     0.247 C 
ATOM      6  O   UNL A   1      32.784  23.917  26.408  1.00  0.00    -0.272 OA
ATOM      7  H   UNL A   1      32.632  25.838  27.814  1.00  0.00     0.163 HD
BRANCH   5   8
ATOM      8  C   UNL A   1      34.141  25.245  24.840  1.00  0.00     0.202 C 
BRANCH   8   9
ATOM      9  N   UNL A   1      33.231  25.383  23.706  1.00  0.00    -0.339 N 
ATOM     10  O   UNL A   1      33.815  27.542  23.213  1.00  0.00    -0.273 OA
ATOM     11  C   UNL A   1      33.107  26.560  22.998  1.00  0.00     0.242 C 
ATOM     12  H   UNL A   1      32.686  24.609  23.438  1.00  0.00     0.164 HD
BRANCH  11  13
ATOM     13  C   UNL A   1      31.992  26.570  21.955  1.00  0.00     0.248 C 
BRANCH  13  14
ATOM     14  N   UNL A   1      30.701  27.073  22.400  1.00  0.00    -0.220 N 
ATOM     15  N   UNL A   1      30.310  28.332  21.991  1.00  0.00    -0.166 NA
ATOM     16  C   UNL A   1      29.905  26.229  23.164  1.00  0.00     0.267 A 
ATOM     17  C   UNL A   1      29.210  28.810  22.489  1.00  0.00     0.126 A 
ATOM     18  C   UNL A   1      28.661  26.818  23.700  1.00  0.00     0.076 A 
ATOM     19  O   UNL A   1      30.165  25.056  23.416  1.00  0.00    -0.268 OA
ATOM     20  C   UNL A   1      28.325  28.077  23.413  1.00  0.00     0.040 A 
BRANCH  17  21
ATOM     21  C   UNL A   1      28.796  30.134  22.110  1.00  0.00     0.154 A 
ATOM     22  C   UNL A   1      28.665  31.301  22.837  1.00  0.00     0.052 A 
ATOM     23  O   UNL A   1      28.432  30.356  20.812  1.00  0.00    -0.463 OA
ATOM     24  C   UNL A   1      28.185  32.284  21.935  1.00  0.00     0.043 A 
ATOM     25  C   UNL A   1      28.031  31.650  20.725  1.00  0.00     0.196 A 
ENDBRANCH  17  21
ENDBRANCH  13  14
ENDBRANCH  11  13
ENDBRANCH   8   9
BRANCH   8  26
ATOM     26  C   UNL A   1      35.177  24.135  24.664  1.00  0.00    -0.016 A 
ATOM     27  C   UNL A   1      35.381  23.577  23.387  1.00  0.00     0.006 A 
ATOM     28  C   UNL A   1      35.919  23.611  25.731  1.00  0.00     0.006 A 
ATOM     29  C   UNL A   1      36.330  22.575  23.176  1.00  0.00     0.000 A 
ATOM     30  C   UNL A   1      36.865  22.604  25.520  1.00  0.00     0.000 A 
ATOM     31  C   UNL A   1      37.077  22.092  24.244  1.00  0.00     0.000 A 
ENDBRANCH   8  26
ENDBRANCH   5   8
ENDBRANCH   3   4
ENDBRANCH   2   3
ENDBRANCH   1   2
BRANCH   1  32
ATOM     32  C   UNL A   1      31.574  30.481  25.626  1.00  0.00     0.002 C 
BRANCH  32  33
ATOM     33  C   UNL A   1      31.964  30.839  27.060  1.00  0.00     0.021 C 
BRANCH  33  34
ATOM     34  C   UNL A   1      33.147  31.793  27.171  1.00  0.00     0.116 C 
BRANCH  34  35
ATOM     35  N   UNL A   1      32.733  33.174  27.370  1.00  0.00    -0.352 N 
ATOM     36  C   UNL A   1      33.199  34.078  28.304  1.00  0.00     0.251 C 
ATOM     37  H   UNL A   1      32.034  33.506  26.761  1.00  0.00     0.163 HD
ATOM     38  O   UNL A   1      32.665  35.160  28.449  1.00  0.00    -0.269 OA
BRANCH  36  39
ATOM     39  C   UNL A   1      34.342  33.668  29.151  1.00  0.00     0.039 A 
ATOM     40  C   UNL A   1      35.616  34.181  28.891  1.00  0.00     0.014 A 
ATOM     41  C   UNL A   1      34.152  32.689  30.127  1.00  0.00     0.014 A 
ATOM     42  C   UNL A   1      36.722  33.588  29.488  1.00  0.00     0.010 A 
ATOM     43  C   UNL A   1      35.263  32.149  30.780  1.00  0.00     0.010 A 
ATOM     44  C   UNL A   1      36.560  32.552  30.424  1.00  0.00    -0.014 A 
BRANCH  44  45
ATOM     45  C   UNL A   1      37.760  31.891  30.997  1.00  0.00     0.031 A 
ATOM     46  C   UNL A   1      38.162  32.128  32.429  1.00  0.00     0.074 A 
ATOM     47  C   UNL A   1      38.469  31.039  30.233  1.00  0.00     0.049 A 
ATOM     48  N   UNL A   1      39.179  31.631  33.089  1.00  0.00    -0.248 NA
ATOM     49  C   UNL A   1      37.323  33.038  33.228  1.00  0.00     0.031 C 
ATOM     50  C   UNL A   1      38.189  30.736  28.828  1.00  0.00     0.029 A 
ATOM     51  N   UNL A   1      39.564  30.266  30.528  1.00  0.00    -0.354 N 
ATOM     52  C   UNL A   1      39.130  32.202  34.355  1.00  0.00     0.074 A 
ATOM     53  C   UNL A   1      37.981  33.080  34.380  1.00  0.00     0.031 C 
ATOM     54  C   UNL A   1      39.063  29.817  28.394  1.00  0.00     0.029 A 
ATOM     55  C   UNL A   1      39.997  29.504  29.471  1.00  0.00     0.049 A 
ATOM     56  H   UNL A   1      39.996  30.259  31.412  1.00  0.00     0.167 HD
ATOM     57  C   UNL A   1      39.956  31.997  35.407  1.00  0.00     0.034 A 
ATOM     58  C   UNL A   1      41.037  28.654  29.370  1.00  0.00     0.034 A 
ATOM     59  C   UNL A   1      41.056  31.072  35.408  1.00  0.00     0.049 A 
ATOM     60  C   UNL A   1      41.920  28.426  30.560  1.00  0.00     0.074 A 
ATOM     61  C   UNL A   1      41.912  30.759  36.451  1.00  0.00     0.029 A 
ATOM     62  N   UNL A   1      41.449  30.305  34.323  1.00  0.00    -0.354 N 
ATOM     63  N   UNL A   1      41.812  28.921  31.768  1.00  0.00    -0.248 NA
ATOM     64  C   UNL A   1      43.061  27.517  30.379  1.00  0.00     0.031 C 
ATOM     65  C   UNL A   1      42.824  29.803  35.995  1.00  0.00     0.029 A 
ATOM     66  C   UNL A   1      42.535  29.520  34.670  1.00  0.00     0.049 A 
ATOM     67  H   UNL A   1      41.019  30.317  33.438  1.00  0.00     0.167 HD
ATOM     68  C   UNL A   1      42.866  28.381  32.495  1.00  0.00     0.074 A 
ATOM     69  C   UNL A   1      43.587  27.501  31.598  1.00  0.00     0.031 C 
ATOM     70  C   UNL A   1      43.216  28.617  33.782  1.00  0.00     0.034 A 
BRANCH  57  71
ATOM     71  C   UNL A   1      39.681  32.744  36.683  1.00  0.00     0.023 A 
ATOM     72  C   UNL A   1      40.333  33.971  36.914  1.00  0.00     0.012 A 
ATOM     73  C   UNL A   1      38.700  32.295  37.588  1.00  0.00     0.148 A 
ATOM     74  C   UNL A   1      40.016  34.740  38.033  1.00  0.00     0.002 A 
ATOM     75  C   UNL A   1      38.370  33.080  38.688  1.00  0.00     0.091 A 
ATOM     76  F   UNL A   1      38.103  31.119  37.349  1.00  0.00    -0.205 F 
ATOM     77  C   UNL A   1      39.029  34.300  38.912  1.00  0.00     0.022 A 
BRANCH  75  78
ATOM     78  S   UNL A   1      37.078  32.634  39.853  1.00  0.00     0.127 S 
ATOM     79  O   UNL A   1      37.125  33.756  40.789  1.00  0.00    -0.237 OA
ATOM     80  O   UNL A   1      35.892  32.603  38.997  1.00  0.00    -0.237 OA
ATOM     81  O   UNL A   1      37.464  31.345  40.412  1.00  0.00    -0.744 OA
ENDBRANCH  75  78
ENDBRANCH  57  71
BRANCH  58  82
ATOM     82  C   UNL A   1      41.256  27.930  28.089  1.00  0.00     0.023 A 
ATOM     83  C   UNL A   1      41.805  28.621  26.994  1.00  0.00     0.012 A 
ATOM     84  C   UNL A   1      41.012  26.547  27.985  1.00  0.00     0.148 A 
ATOM     85  C   UNL A   1      42.104  27.946  25.810  1.00  0.00     0.002 A 
ATOM     86  C   UNL A   1      41.355  25.873  26.820  1.00  0.00     0.091 A 
ATOM     87  F   UNL A   1      40.480  25.917  29.041  1.00  0.00    -0.205 F 
ATOM     88  C   UNL A   1      41.892  26.572  25.728  1.00  0.00     0.022 A 
BRANCH  86  89
ATOM     89  S   UNL A   1      41.235  24.087  26.667  1.00  0.00     0.127 S 
ATOM     90  O   UNL A   1      41.623  23.648  28.004  1.00  0.00    -0.237 OA
ATOM     91  O   UNL A   1      39.820  23.908  26.345  1.00  0.00    -0.237 OA
ATOM     92  O   UNL A   1      42.149  23.720  25.594  1.00  0.00    -0.744 OA
ENDBRANCH  86  89
ENDBRANCH  58  82
BRANCH  70  93
ATOM     93  C   UNL A   1      44.439  27.923  34.312  1.00  0.00     0.023 A 
ATOM     94  C   UNL A   1      45.677  28.589  34.264  1.00  0.00     0.012 A 
ATOM     95  C   UNL A   1      44.342  26.672  34.953  1.00  0.00     0.148 A 
ATOM     96  C   UNL A   1      46.810  28.016  34.840  1.00  0.00     0.002 A 
ATOM     97  C   UNL A   1      45.469  26.122  35.552  1.00  0.00     0.091 A 
ATOM     98  F   UNL A   1      43.153  26.055  34.974  1.00  0.00    -0.205 F 
ATOM     99  C   UNL A   1      46.704  26.790  35.493  1.00  0.00     0.022 A 
BRANCH  97 100
ATOM    100  S   UNL A   1      45.417  24.583  36.476  1.00  0.00     0.127 S 
ATOM    101  O   UNL A   1      44.423  24.888  37.504  1.00  0.00    -0.237 OA
ATOM    102  O   UNL A   1      44.972  23.626  35.462  1.00  0.00    -0.237 OA
ATOM    103  O   UNL A   1      46.771  24.360  36.965  1.00  0.00    -0.744 OA
ENDBRANCH  97 100
ENDBRANCH  70  93
ENDBRANCH  44  45
ENDBRANCH  36  39
ENDBRANCH  34  35
ENDBRANCH  33  34
ENDBRANCH  32  33
ENDBRANCH   1  32
TORSDOF 21
ENDMDL
