MODEL 1
REMARK VINA RESULT:     -12.5      0.000      0.000
REMARK SMILES Cc1ncc(CC(=O)N2CCc3c(c(C(=O)NCCCCCCNC(=O)c4ccc(-c5c6nc(c(-c7cccc(S(=O)(=O)[O-])c7F)c7ccc([nH]7)c(-c7cccc(S(=O)(=O)[O-])c7F)c7nc(c(-c8cccc(S(=O)(=O)[O-])c8F)c8ccc5[nH]8)C=C7)C=C6)cc4)nn3CC3CC3)C2)c(=O)[nH]1
REMARK SMILES IDX 20 1 19 2 18 3 17 4 15 5 16 6 14 8 9 9 10 10 96 11 11 12
REMARK SMILES IDX 13 13 12 14 91 15 90 16 7 17 8 18 6 19 5 20 1 21 2 22 3 23
REMARK SMILES IDX 99 24 4 25 97 26 98 28 92 29 93 30 94 31 95 32 21 33 22 34
REMARK SMILES IDX 23 35 24 36 25 37 26 39 27 40 28 41 89 42 29 43 88 44 30 45
REMARK SMILES IDX 31 46 32 47 82 48 33 49 87 50 81 51 83 52 34 53 86 54 80 55
REMARK SMILES IDX 79 56 35 58 67 59 47 60 66 61 48 62 51 63 65 64 84 65 49 66
REMARK SMILES IDX 50 67 64 69 85 70 52 71 36 72 37 73 45 74 38 75 40 76 46 77
REMARK SMILES IDX 39 78 41 79 42 80 43 81 44 82 68 83 69 84 77 85 70 86 72 87
REMARK SMILES IDX 78 88 71 89 73 90 74 91 75 92 76 93 53 94 54 95 62 96 55 97
REMARK SMILES IDX 57 98 63 99 56 100 58 101 59 102 60 103 61 104
REMARK H PARENT 17 7 99 27 24 38 83 57 51 68
REMARK Flexibility Score: inf
ROOT
ATOM      1  C   UNL A   1      38.506  22.254  25.791  1.00  0.00     0.002 C 
ENDROOT
BRANCH   1   2
ATOM      2  C   UNL A   1      37.751  23.562  26.032  1.00  0.00     0.021 C 
BRANCH   2   3
ATOM      3  C   UNL A   1      36.258  23.529  25.711  1.00  0.00     0.116 C 
BRANCH   3   4
ATOM      4  N   UNL A   1      35.437  23.186  26.864  1.00  0.00    -0.351 N 
ATOM      5  C   UNL A   1      34.286  22.428  26.956  1.00  0.00     0.272 C 
ATOM      6  O   UNL A   1      33.787  22.296  28.078  1.00  0.00    -0.267 OA
ATOM      7  H   UNL A   1      35.754  23.557  27.719  1.00  0.00     0.163 HD
BRANCH   5   8
ATOM      8  C   UNL A   1      33.657  21.819  25.767  1.00  0.00     0.155 A 
ATOM      9  N   UNL A   1      32.337  24.068  23.010  1.00  0.00    -0.338 N 
ATOM     10  C   UNL A   1      32.718  23.137  21.931  1.00  0.00     0.126 C 
ATOM     11  C   UNL A   1      33.165  23.956  24.237  1.00  0.00     0.159 C 
ATOM     12  C   UNL A   1      32.409  21.679  22.317  1.00  0.00     0.078 C 
ATOM     13  C   UNL A   1      33.219  22.496  24.590  1.00  0.00     0.026 A 
ATOM     14  C   UNL A   1      32.872  21.485  23.712  1.00  0.00     0.046 A 
ATOM     15  N   UNL A   1      33.047  20.311  24.371  1.00  0.00    -0.268 N 
ATOM     16  N   UNL A   1      33.377  20.504  25.660  1.00  0.00    -0.167 NA
BRANCH   9  17
ATOM     17  C   UNL A   1      31.307  24.991  22.993  1.00  0.00     0.227 C 
ATOM     18  O   UNL A   1      30.144  24.642  23.233  1.00  0.00    -0.275 OA
BRANCH  17  19
ATOM     19  C   UNL A   1      31.524  26.394  22.387  1.00  0.00     0.143 C 
BRANCH  19  20
ATOM     20  C   UNL A   1      31.661  27.588  23.265  1.00  0.00     0.045 A 
ATOM     21  C   UNL A   1      31.621  30.771  26.045  1.00  0.00     0.087 C 
ATOM     22  C   UNL A   1      31.714  29.654  25.047  1.00  0.00     0.105 A 
ATOM     23  N   UNL A   1      32.583  28.708  25.188  1.00  0.00    -0.243 NA
ATOM     24  N   UNL A   1      30.825  29.708  24.009  1.00  0.00    -0.311 N 
ATOM     25  C   UNL A   1      32.535  27.687  24.278  1.00  0.00     0.123 A 
ATOM     26  C   UNL A   1      30.777  28.748  23.044  1.00  0.00     0.254 A 
ATOM     27  H   UNL A   1      30.199  30.465  23.959  1.00  0.00     0.171 HD
ATOM     28  O   UNL A   1      30.033  28.837  22.067  1.00  0.00    -0.269 OA
ENDBRANCH  19  20
ENDBRANCH  17  19
ENDBRANCH   9  17
BRANCH  15  29
ATOM     29  C   UNL A   1      32.842  18.957  23.873  1.00  0.00     0.148 C 
BRANCH  29  30
ATOM     30  C   UNL A   1      33.963  17.993  24.146  1.00  0.00     0.011 C 
ATOM     31  C   UNL A   1      33.813  16.658  24.845  1.00  0.00     0.006 C 
ATOM     32  C   UNL A   1      34.034  16.703  23.360  1.00  0.00     0.006 C 
ENDBRANCH  29  30
ENDBRANCH  15  29
ENDBRANCH   5   8
ENDBRANCH   3   4
ENDBRANCH   2   3
ENDBRANCH   1   2
BRANCH   1  33
ATOM     33  C   UNL A   1      37.773  21.184  24.966  1.00  0.00     0.002 C 
BRANCH  33  34
ATOM     34  C   UNL A   1      38.497  19.845  24.762  1.00  0.00     0.021 C 
BRANCH  34  35
ATOM     35  C   UNL A   1      39.122  19.270  26.024  1.00  0.00     0.116 C 
BRANCH  35  36
ATOM     36  N   UNL A   1      40.497  18.810  25.818  1.00  0.00    -0.352 N 
ATOM     37  C   UNL A   1      41.654  19.563  25.817  1.00  0.00     0.251 C 
ATOM     38  H   UNL A   1      40.611  17.844  25.659  1.00  0.00     0.163 HD
ATOM     39  O   UNL A   1      42.673  19.149  25.272  1.00  0.00    -0.269 OA
BRANCH  37  40
ATOM     40  C   UNL A   1      41.650  20.873  26.492  1.00  0.00     0.039 A 
ATOM     41  C   UNL A   1      41.207  21.020  27.810  1.00  0.00     0.014 A 
ATOM     42  C   UNL A   1      42.118  21.971  25.775  1.00  0.00     0.014 A 
ATOM     43  C   UNL A   1      41.313  22.267  28.420  1.00  0.00     0.010 A 
ATOM     44  C   UNL A   1      42.378  23.149  26.421  1.00  0.00     0.010 A 
ATOM     45  C   UNL A   1      41.918  23.324  27.720  1.00  0.00    -0.014 A 
BRANCH  45  46
ATOM     46  C   UNL A   1      42.213  24.590  28.376  1.00  0.00     0.031 A 
ATOM     47  C   UNL A   1      41.172  25.629  28.158  1.00  0.00     0.074 A 
ATOM     48  C   UNL A   1      43.202  24.720  29.289  1.00  0.00     0.049 A 
ATOM     49  N   UNL A   1      41.286  26.721  27.477  1.00  0.00    -0.248 NA
ATOM     50  C   UNL A   1      39.793  25.343  28.591  1.00  0.00     0.031 C 
ATOM     51  C   UNL A   1      44.078  23.667  29.817  1.00  0.00     0.029 A 
ATOM     52  N   UNL A   1      43.525  25.789  30.069  1.00  0.00    -0.354 N 
ATOM     53  C   UNL A   1      40.074  27.387  27.642  1.00  0.00     0.074 A 
ATOM     54  C   UNL A   1      39.137  26.397  28.100  1.00  0.00     0.031 C 
ATOM     55  C   UNL A   1      44.613  24.071  30.989  1.00  0.00     0.029 A 
ATOM     56  C   UNL A   1      44.251  25.457  31.212  1.00  0.00     0.049 A 
ATOM     57  H   UNL A   1      43.269  26.713  29.845  1.00  0.00     0.167 HD
ATOM     58  C   UNL A   1      40.031  28.748  27.689  1.00  0.00     0.034 A 
ATOM     59  C   UNL A   1      44.480  26.246  32.294  1.00  0.00     0.034 A 
ATOM     60  C   UNL A   1      41.262  29.322  27.196  1.00  0.00     0.049 A 
ATOM     61  C   UNL A   1      44.261  27.646  31.863  1.00  0.00     0.074 A 
ATOM     62  C   UNL A   1      41.999  29.199  26.033  1.00  0.00     0.029 A 
ATOM     63  N   UNL A   1      42.124  29.841  28.133  1.00  0.00    -0.354 N 
ATOM     64  N   UNL A   1      45.021  28.254  30.995  1.00  0.00    -0.248 NA
ATOM     65  C   UNL A   1      42.931  28.206  32.037  1.00  0.00     0.031 C 
ATOM     66  C   UNL A   1      43.357  29.168  26.467  1.00  0.00     0.029 A 
ATOM     67  C   UNL A   1      43.377  29.371  27.847  1.00  0.00     0.049 A 
ATOM     68  H   UNL A   1      41.884  30.442  28.875  1.00  0.00     0.167 HD
ATOM     69  C   UNL A   1      44.124  28.929  30.178  1.00  0.00     0.074 A 
ATOM     70  C   UNL A   1      42.868  28.954  30.932  1.00  0.00     0.031 C 
ATOM     71  C   UNL A   1      44.386  29.126  28.853  1.00  0.00     0.034 A 
BRANCH  58  72
ATOM     72  C   UNL A   1      39.085  29.560  28.554  1.00  0.00     0.023 A 
ATOM     73  C   UNL A   1      39.263  29.463  29.955  1.00  0.00     0.012 A 
ATOM     74  C   UNL A   1      37.883  30.156  28.106  1.00  0.00     0.148 A 
ATOM     75  C   UNL A   1      38.265  29.854  30.853  1.00  0.00     0.002 A 
ATOM     76  C   UNL A   1      36.927  30.617  29.006  1.00  0.00     0.091 A 
ATOM     77  F   UNL A   1      37.577  30.173  26.809  1.00  0.00    -0.205 F 
ATOM     78  C   UNL A   1      37.096  30.434  30.378  1.00  0.00     0.022 A 
BRANCH  76  79
ATOM     79  S   UNL A   1      35.416  31.417  28.447  1.00  0.00     0.127 S 
ATOM     80  O   UNL A   1      34.711  30.303  27.819  1.00  0.00    -0.237 OA
ATOM     81  O   UNL A   1      34.843  31.882  29.711  1.00  0.00    -0.237 OA
ATOM     82  O   UNL A   1      35.840  32.488  27.555  1.00  0.00    -0.744 OA
ENDBRANCH  76  79
ENDBRANCH  58  72
BRANCH  59  83
ATOM     83  C   UNL A   1      44.628  25.880  33.726  1.00  0.00     0.023 A 
ATOM     84  C   UNL A   1      45.911  25.644  34.262  1.00  0.00     0.012 A 
ATOM     85  C   UNL A   1      43.552  26.032  34.630  1.00  0.00     0.148 A 
ATOM     86  C   UNL A   1      46.120  25.595  35.647  1.00  0.00     0.002 A 
ATOM     87  C   UNL A   1      43.762  25.973  36.005  1.00  0.00     0.091 A 
ATOM     88  F   UNL A   1      42.339  26.330  34.146  1.00  0.00    -0.205 F 
ATOM     89  C   UNL A   1      45.047  25.766  36.519  1.00  0.00     0.022 A 
BRANCH  87  90
ATOM     90  S   UNL A   1      42.424  26.211  37.185  1.00  0.00     0.127 S 
ATOM     91  O   UNL A   1      41.610  25.015  36.966  1.00  0.00    -0.237 OA
ATOM     92  O   UNL A   1      43.140  26.237  38.457  1.00  0.00    -0.237 OA
ATOM     93  O   UNL A   1      41.773  27.457  36.801  1.00  0.00    -0.744 OA
ENDBRANCH  87  90
ENDBRANCH  59  83
BRANCH  71  94
ATOM     94  C   UNL A   1      45.774  28.835  28.340  1.00  0.00     0.023 A 
ATOM     95  C   UNL A   1      46.152  27.576  27.827  1.00  0.00     0.012 A 
ATOM     96  C   UNL A   1      46.657  29.917  28.199  1.00  0.00     0.148 A 
ATOM     97  C   UNL A   1      47.392  27.401  27.203  1.00  0.00     0.002 A 
ATOM     98  C   UNL A   1      47.866  29.752  27.536  1.00  0.00     0.091 A 
ATOM     99  F   UNL A   1      46.283  31.107  28.691  1.00  0.00    -0.205 F 
ATOM    100  C   UNL A   1      48.242  28.493  27.043  1.00  0.00     0.022 A 
BRANCH  98 101
ATOM    101  S   UNL A   1      48.937  31.148  27.189  1.00  0.00     0.127 S 
ATOM    102  O   UNL A   1      49.389  31.524  28.526  1.00  0.00    -0.237 OA
ATOM    103  O   UNL A   1      49.968  30.550  26.338  1.00  0.00    -0.237 OA
ATOM    104  O   UNL A   1      48.104  32.133  26.509  1.00  0.00    -0.744 OA
ENDBRANCH  98 101
ENDBRANCH  71  94
ENDBRANCH  45  46
ENDBRANCH  37  40
ENDBRANCH  35  36
ENDBRANCH  34  35
ENDBRANCH  33  34
ENDBRANCH   1  33
TORSDOF 21
ENDMDL
MODEL 2
REMARK VINA RESULT:     -12.5      2.509      6.287
REMARK SMILES Cc1ncc(CC(=O)N2CCc3c(c(C(=O)NCCCCCCNC(=O)c4ccc(-c5c6nc(c(-c7cccc(S(=O)(=O)[O-])c7F)c7ccc([nH]7)c(-c7cccc(S(=O)(=O)[O-])c7F)c7nc(c(-c8cccc(S(=O)(=O)[O-])c8F)c8ccc5[nH]8)C=C7)C=C6)cc4)nn3CC3CC3)C2)c(=O)[nH]1
REMARK SMILES IDX 20 1 19 2 18 3 17 4 15 5 16 6 14 8 9 9 10 10 96 11 11 12
REMARK SMILES IDX 13 13 12 14 91 15 90 16 7 17 8 18 6 19 5 20 1 21 2 22 3 23
REMARK SMILES IDX 99 24 4 25 97 26 98 28 92 29 93 30 94 31 95 32 21 33 22 34
REMARK SMILES IDX 23 35 24 36 25 37 26 39 27 40 28 41 89 42 29 43 88 44 30 45
REMARK SMILES IDX 31 46 32 47 82 48 33 49 87 50 81 51 83 52 34 53 86 54 80 55
REMARK SMILES IDX 79 56 35 58 67 59 47 60 66 61 48 62 51 63 65 64 84 65 49 66
REMARK SMILES IDX 50 67 64 69 85 70 52 71 36 72 37 73 45 74 38 75 40 76 46 77
REMARK SMILES IDX 39 78 41 79 42 80 43 81 44 82 68 83 69 84 77 85 70 86 72 87
REMARK SMILES IDX 78 88 71 89 73 90 74 91 75 92 76 93 53 94 54 95 62 96 55 97
REMARK SMILES IDX 57 98 63 99 56 100 58 101 59 102 60 103 61 104
REMARK H PARENT 17 7 99 27 24 38 83 57 51 68
REMARK Flexibility Score: inf
ROOT
ATOM      1  C   UNL A   1      40.086  21.820  26.223  1.00  0.00     0.002 C 
ENDROOT
BRANCH   1   2
ATOM      2  C   UNL A   1      38.579  21.604  26.078  1.00  0.00     0.021 C 
BRANCH   2   3
ATOM      3  C   UNL A   1      37.753  22.867  25.845  1.00  0.00     0.116 C 
BRANCH   3   4
ATOM      4  N   UNL A   1      37.478  23.115  24.437  1.00  0.00    -0.351 N 
ATOM      5  C   UNL A   1      36.384  22.785  23.660  1.00  0.00     0.272 C 
ATOM      6  O   UNL A   1      36.413  23.124  22.473  1.00  0.00    -0.267 OA
ATOM      7  H   UNL A   1      38.190  23.597  23.958  1.00  0.00     0.163 HD
BRANCH   5   8
ATOM      8  C   UNL A   1      35.235  22.038  24.211  1.00  0.00     0.155 A 
ATOM      9  N   UNL A   1      32.068  23.916  25.129  1.00  0.00    -0.338 N 
ATOM     10  C   UNL A   1      31.176  22.820  24.706  1.00  0.00     0.126 C 
ATOM     11  C   UNL A   1      33.376  23.947  24.427  1.00  0.00     0.159 C 
ATOM     12  C   UNL A   1      31.732  21.451  25.137  1.00  0.00     0.078 C 
ATOM     13  C   UNL A   1      33.936  22.554  24.495  1.00  0.00     0.026 A 
ATOM     14  C   UNL A   1      33.180  21.442  24.820  1.00  0.00     0.046 A 
ATOM     15  N   UNL A   1      34.013  20.371  24.778  1.00  0.00    -0.268 N 
ATOM     16  N   UNL A   1      35.288  20.736  24.559  1.00  0.00    -0.167 NA
BRANCH   9  17
ATOM     17  C   UNL A   1      31.816  24.874  26.094  1.00  0.00     0.227 C 
ATOM     18  O   UNL A   1      31.646  24.547  27.276  1.00  0.00    -0.275 OA
BRANCH  17  19
ATOM     19  C   UNL A   1      31.443  26.315  25.689  1.00  0.00     0.143 C 
BRANCH  19  20
ATOM     20  C   UNL A   1      32.291  27.465  26.105  1.00  0.00     0.045 A 
ATOM     21  C   UNL A   1      34.980  30.364  27.596  1.00  0.00     0.087 C 
ATOM     22  C   UNL A   1      34.016  29.381  27.001  1.00  0.00     0.105 A 
ATOM     23  N   UNL A   1      34.208  28.896  25.817  1.00  0.00    -0.243 NA
ATOM     24  N   UNL A   1      32.953  29.037  27.789  1.00  0.00    -0.311 N 
ATOM     25  C   UNL A   1      33.325  27.940  25.394  1.00  0.00     0.123 A 
ATOM     26  C   UNL A   1      32.014  28.136  27.389  1.00  0.00     0.254 A 
ATOM     27  H   UNL A   1      32.865  29.455  28.676  1.00  0.00     0.171 HD
ATOM     28  O   UNL A   1      31.014  27.886  28.063  1.00  0.00    -0.269 OA
ENDBRANCH  19  20
ENDBRANCH  17  19
ENDBRANCH   9  17
BRANCH  15  29
ATOM     29  C   UNL A   1      33.693  18.969  25.018  1.00  0.00     0.148 C 
BRANCH  29  30
ATOM     30  C   UNL A   1      34.621  17.978  24.372  1.00  0.00     0.011 C 
ATOM     31  C   UNL A   1      34.585  16.480  24.591  1.00  0.00     0.006 C 
ATOM     32  C   UNL A   1      34.084  17.058  23.298  1.00  0.00     0.006 C 
ENDBRANCH  29  30
ENDBRANCH  15  29
ENDBRANCH   5   8
ENDBRANCH   3   4
ENDBRANCH   2   3
ENDBRANCH   1   2
BRANCH   1  33
ATOM     33  C   UNL A   1      40.887  20.657  26.830  1.00  0.00     0.002 C 
BRANCH  33  34
ATOM     34  C   UNL A   1      41.448  19.613  25.854  1.00  0.00     0.021 C 
BRANCH  34  35
ATOM     35  C   UNL A   1      42.882  19.193  26.139  1.00  0.00     0.116 C 
BRANCH  35  36
ATOM     36  N   UNL A   1      43.704  19.124  24.929  1.00  0.00    -0.352 N 
ATOM     37  C   UNL A   1      44.219  20.172  24.192  1.00  0.00     0.251 C 
ATOM     38  H   UNL A   1      43.916  18.220  24.600  1.00  0.00     0.163 HD
ATOM     39  O   UNL A   1      44.559  20.011  23.023  1.00  0.00    -0.269 OA
BRANCH  37  40
ATOM     40  C   UNL A   1      44.365  21.490  24.835  1.00  0.00     0.039 A 
ATOM     41  C   UNL A   1      43.430  22.511  24.641  1.00  0.00     0.014 A 
ATOM     42  C   UNL A   1      45.469  21.686  25.662  1.00  0.00     0.014 A 
ATOM     43  C   UNL A   1      43.578  23.701  25.347  1.00  0.00     0.010 A 
ATOM     44  C   UNL A   1      45.523  22.783  26.479  1.00  0.00     0.010 A 
ATOM     45  C   UNL A   1      44.621  23.821  26.280  1.00  0.00    -0.014 A 
BRANCH  45  46
ATOM     46  C   UNL A   1      44.710  24.971  27.168  1.00  0.00     0.031 A 
ATOM     47  C   UNL A   1      45.827  25.894  26.836  1.00  0.00     0.074 A 
ATOM     48  C   UNL A   1      43.728  25.290  28.041  1.00  0.00     0.049 A 
ATOM     49  N   UNL A   1      46.892  26.117  27.533  1.00  0.00    -0.248 NA
ATOM     50  C   UNL A   1      45.858  26.505  25.496  1.00  0.00     0.031 C 
ATOM     51  C   UNL A   1      42.430  24.622  28.214  1.00  0.00     0.029 A 
ATOM     52  N   UNL A   1      43.604  26.383  28.845  1.00  0.00    -0.354 N 
ATOM     53  C   UNL A   1      47.581  27.112  26.844  1.00  0.00     0.074 A 
ATOM     54  C   UNL A   1      47.045  27.116  25.510  1.00  0.00     0.031 C 
ATOM     55  C   UNL A   1      41.572  25.460  28.834  1.00  0.00     0.029 A 
ATOM     56  C   UNL A   1      42.294  26.648  29.243  1.00  0.00     0.049 A 
ATOM     57  H   UNL A   1      44.371  26.934  29.120  1.00  0.00     0.167 HD
ATOM     58  C   UNL A   1      48.304  28.050  27.519  1.00  0.00     0.034 A 
ATOM     59  C   UNL A   1      41.827  27.791  29.808  1.00  0.00     0.034 A 
ATOM     60  C   UNL A   1      48.530  27.642  28.886  1.00  0.00     0.049 A 
ATOM     61  C   UNL A   1      42.995  28.504  30.373  1.00  0.00     0.074 A 
ATOM     62  C   UNL A   1      49.063  26.522  29.495  1.00  0.00     0.029 A 
ATOM     63  N   UNL A   1      47.789  28.278  29.855  1.00  0.00    -0.354 N 
ATOM     64  N   UNL A   1      43.697  28.048  31.373  1.00  0.00    -0.248 NA
ATOM     65  C   UNL A   1      43.665  29.480  29.528  1.00  0.00     0.031 C 
ATOM     66  C   UNL A   1      48.216  26.282  30.617  1.00  0.00     0.029 A 
ATOM     67  C   UNL A   1      47.283  27.316  30.686  1.00  0.00     0.049 A 
ATOM     68  H   UNL A   1      47.649  29.249  29.935  1.00  0.00     0.167 HD
ATOM     69  C   UNL A   1      45.012  28.285  30.996  1.00  0.00     0.074 A 
ATOM     70  C   UNL A   1      44.926  29.265  29.910  1.00  0.00     0.031 C 
ATOM     71  C   UNL A   1      46.018  27.443  31.375  1.00  0.00     0.034 A 
BRANCH  58  72
ATOM     72  C   UNL A   1      48.449  29.502  27.105  1.00  0.00     0.023 A 
ATOM     73  C   UNL A   1      49.751  30.054  27.165  1.00  0.00     0.012 A 
ATOM     74  C   UNL A   1      47.380  30.415  26.953  1.00  0.00     0.148 A 
ATOM     75  C   UNL A   1      49.967  31.435  27.165  1.00  0.00     0.002 A 
ATOM     76  C   UNL A   1      47.606  31.785  26.873  1.00  0.00     0.091 A 
ATOM     77  F   UNL A   1      46.116  29.994  27.016  1.00  0.00    -0.205 F 
ATOM     78  C   UNL A   1      48.893  32.303  27.017  1.00  0.00     0.022 A 
BRANCH  76  79
ATOM     79  S   UNL A   1      46.256  32.951  26.636  1.00  0.00     0.127 S 
ATOM     80  O   UNL A   1      46.978  34.160  26.253  1.00  0.00    -0.237 OA
ATOM     81  O   UNL A   1      45.499  32.311  25.560  1.00  0.00    -0.237 OA
ATOM     82  O   UNL A   1      45.551  33.005  27.911  1.00  0.00    -0.744 OA
ENDBRANCH  76  79
ENDBRANCH  58  72
BRANCH  59  83
ATOM     83  C   UNL A   1      40.497  28.440  29.684  1.00  0.00     0.023 A 
ATOM     84  C   UNL A   1      39.846  28.476  28.434  1.00  0.00     0.012 A 
ATOM     85  C   UNL A   1      39.743  28.778  30.831  1.00  0.00     0.148 A 
ATOM     86  C   UNL A   1      38.487  28.803  28.333  1.00  0.00     0.002 A 
ATOM     87  C   UNL A   1      38.395  29.111  30.726  1.00  0.00     0.091 A 
ATOM     88  F   UNL A   1      40.320  28.679  32.036  1.00  0.00    -0.205 F 
ATOM     89  C   UNL A   1      37.759  29.113  29.479  1.00  0.00     0.022 A 
BRANCH  87  90
ATOM     90  S   UNL A   1      37.393  29.497  32.170  1.00  0.00     0.127 S 
ATOM     91  O   UNL A   1      36.076  29.726  31.574  1.00  0.00    -0.237 OA
ATOM     92  O   UNL A   1      37.503  28.271  32.955  1.00  0.00    -0.237 OA
ATOM     93  O   UNL A   1      37.995  30.683  32.766  1.00  0.00    -0.744 OA
ENDBRANCH  87  90
ENDBRANCH  59  83
BRANCH  71  94
ATOM     94  C   UNL A   1      45.729  26.399  32.424  1.00  0.00     0.023 A 
ATOM     95  C   UNL A   1      45.208  25.125  32.113  1.00  0.00     0.012 A 
ATOM     96  C   UNL A   1      46.177  26.646  33.731  1.00  0.00     0.148 A 
ATOM     97  C   UNL A   1      45.119  24.130  33.091  1.00  0.00     0.002 A 
ATOM     98  C   UNL A   1      46.134  25.641  34.688  1.00  0.00     0.091 A 
ATOM     99  F   UNL A   1      46.671  27.862  34.011  1.00  0.00    -0.205 F 
ATOM    100  C   UNL A   1      45.598  24.383  34.375  1.00  0.00     0.022 A 
BRANCH  98 101
ATOM    101  S   UNL A   1      46.853  25.871  36.315  1.00  0.00     0.127 S 
ATOM    102  O   UNL A   1      46.072  26.991  36.836  1.00  0.00    -0.237 OA
ATOM    103  O   UNL A   1      46.587  24.585  36.961  1.00  0.00    -0.237 OA
ATOM    104  O   UNL A   1      48.268  26.143  36.093  1.00  0.00    -0.744 OA
ENDBRANCH  98 101
ENDBRANCH  71  94
ENDBRANCH  45  46
ENDBRANCH  37  40
ENDBRANCH  35  36
ENDBRANCH  34  35
ENDBRANCH  33  34
ENDBRANCH   1  33
TORSDOF 21
ENDMDL
MODEL 3
REMARK VINA RESULT:     -12.4      2.227      2.591
REMARK SMILES Cc1ncc(CC(=O)N2CCc3c(c(C(=O)NCCCCCCNC(=O)c4ccc(-c5c6nc(c(-c7cccc(S(=O)(=O)[O-])c7F)c7ccc([nH]7)c(-c7cccc(S(=O)(=O)[O-])c7F)c7nc(c(-c8cccc(S(=O)(=O)[O-])c8F)c8ccc5[nH]8)C=C7)C=C6)cc4)nn3CC3CC3)C2)c(=O)[nH]1
REMARK SMILES IDX 20 1 19 2 18 3 17 4 15 5 16 6 14 8 9 9 10 10 96 11 11 12
REMARK SMILES IDX 13 13 12 14 91 15 90 16 7 17 8 18 6 19 5 20 1 21 2 22 3 23
REMARK SMILES IDX 99 24 4 25 97 26 98 28 92 29 93 30 94 31 95 32 21 33 22 34
REMARK SMILES IDX 23 35 24 36 25 37 26 39 27 40 28 41 89 42 29 43 88 44 30 45
REMARK SMILES IDX 31 46 32 47 82 48 33 49 87 50 81 51 83 52 34 53 86 54 80 55
REMARK SMILES IDX 79 56 35 58 67 59 47 60 66 61 48 62 51 63 65 64 84 65 49 66
REMARK SMILES IDX 50 67 64 69 85 70 52 71 36 72 37 73 45 74 38 75 40 76 46 77
REMARK SMILES IDX 39 78 41 79 42 80 43 81 44 82 68 83 69 84 77 85 70 86 72 87
REMARK SMILES IDX 78 88 71 89 73 90 74 91 75 92 76 93 53 94 54 95 62 96 55 97
REMARK SMILES IDX 57 98 63 99 56 100 58 101 59 102 60 103 61 104
REMARK H PARENT 17 7 99 27 24 38 83 57 51 68
REMARK Flexibility Score: inf
ROOT
ATOM      1  C   UNL A   1      38.314  22.270  25.799  1.00  0.00     0.002 C 
ENDROOT
BRANCH   1   2
ATOM      2  C   UNL A   1      37.575  23.592  26.019  1.00  0.00     0.021 C 
BRANCH   2   3
ATOM      3  C   UNL A   1      36.070  23.554  25.763  1.00  0.00     0.116 C 
BRANCH   3   4
ATOM      4  N   UNL A   1      35.303  23.165  26.937  1.00  0.00    -0.351 N 
ATOM      5  C   UNL A   1      34.201  22.340  27.062  1.00  0.00     0.272 C 
ATOM      6  O   UNL A   1      33.743  22.180  28.197  1.00  0.00    -0.267 OA
ATOM      7  H   UNL A   1      35.621  23.554  27.784  1.00  0.00     0.163 HD
BRANCH   5   8
ATOM      8  C   UNL A   1      33.577  21.694  25.890  1.00  0.00     0.155 A 
ATOM      9  N   UNL A   1      32.168  23.859  23.110  1.00  0.00    -0.338 N 
ATOM     10  C   UNL A   1      32.562  22.919  22.042  1.00  0.00     0.126 C 
ATOM     11  C   UNL A   1      33.011  23.789  24.328  1.00  0.00     0.159 C 
ATOM     12  C   UNL A   1      32.297  21.461  22.457  1.00  0.00     0.078 C 
ATOM     13  C   UNL A   1      33.108  22.338  24.706  1.00  0.00     0.026 A 
ATOM     14  C   UNL A   1      32.779  21.303  23.850  1.00  0.00     0.046 A 
ATOM     15  N   UNL A   1      32.993  20.146  24.527  1.00  0.00    -0.268 N 
ATOM     16  N   UNL A   1      33.331  20.370  25.808  1.00  0.00    -0.167 NA
BRANCH   9  17
ATOM     17  C   UNL A   1      31.114  24.753  23.087  1.00  0.00     0.227 C 
ATOM     18  O   UNL A   1      29.959  24.373  23.322  1.00  0.00    -0.275 OA
BRANCH  17  19
ATOM     19  C   UNL A   1      31.295  26.161  22.483  1.00  0.00     0.143 C 
BRANCH  19  20
ATOM     20  C   UNL A   1      31.539  27.339  23.359  1.00  0.00     0.045 A 
ATOM     21  C   UNL A   1      31.728  30.584  26.061  1.00  0.00     0.087 C 
ATOM     22  C   UNL A   1      31.741  29.428  25.104  1.00  0.00     0.105 A 
ATOM     23  N   UNL A   1      32.354  28.328  25.400  1.00  0.00    -0.243 NA
ATOM     24  N   UNL A   1      31.065  29.619  23.931  1.00  0.00    -0.311 N 
ATOM     25  C   UNL A   1      32.237  27.300  24.505  1.00  0.00     0.123 A 
ATOM     26  C   UNL A   1      30.971  28.647  22.981  1.00  0.00     0.254 A 
ATOM     27  H   UNL A   1      30.632  30.487  23.768  1.00  0.00     0.171 HD
ATOM     28  O   UNL A   1      30.433  28.844  21.892  1.00  0.00    -0.269 OA
ENDBRANCH  19  20
ENDBRANCH  17  19
ENDBRANCH   9  17
BRANCH  15  29
ATOM     29  C   UNL A   1      32.818  18.778  24.055  1.00  0.00     0.148 C 
BRANCH  29  30
ATOM     30  C   UNL A   1      34.070  17.946  24.015  1.00  0.00     0.011 C 
ATOM     31  C   UNL A   1      34.246  16.605  24.696  1.00  0.00     0.006 C 
ATOM     32  C   UNL A   1      34.081  16.670  23.204  1.00  0.00     0.006 C 
ENDBRANCH  29  30
ENDBRANCH  15  29
ENDBRANCH   5   8
ENDBRANCH   3   4
ENDBRANCH   2   3
ENDBRANCH   1   2
BRANCH   1  33
ATOM     33  C   UNL A   1      37.597  21.223  24.933  1.00  0.00     0.002 C 
BRANCH  33  34
ATOM     34  C   UNL A   1      38.371  19.935  24.614  1.00  0.00     0.021 C 
BRANCH  34  35
ATOM     35  C   UNL A   1      38.934  19.223  25.835  1.00  0.00     0.116 C 
BRANCH  35  36
ATOM     36  N   UNL A   1      40.302  18.742  25.631  1.00  0.00    -0.352 N 
ATOM     37  C   UNL A   1      41.473  19.472  25.671  1.00  0.00     0.251 C 
ATOM     38  H   UNL A   1      40.399  17.781  25.440  1.00  0.00     0.163 HD
ATOM     39  O   UNL A   1      42.493  19.057  25.126  1.00  0.00    -0.269 OA
BRANCH  37  40
ATOM     40  C   UNL A   1      41.486  20.758  26.392  1.00  0.00     0.039 A 
ATOM     41  C   UNL A   1      41.026  20.868  27.708  1.00  0.00     0.014 A 
ATOM     42  C   UNL A   1      41.988  21.870  25.720  1.00  0.00     0.014 A 
ATOM     43  C   UNL A   1      41.148  22.091  28.362  1.00  0.00     0.010 A 
ATOM     44  C   UNL A   1      42.262  23.019  26.412  1.00  0.00     0.010 A 
ATOM     45  C   UNL A   1      41.785  23.158  27.709  1.00  0.00    -0.014 A 
BRANCH  45  46
ATOM     46  C   UNL A   1      42.096  24.395  28.413  1.00  0.00     0.031 A 
ATOM     47  C   UNL A   1      41.040  25.434  28.282  1.00  0.00     0.074 A 
ATOM     48  C   UNL A   1      43.116  24.490  29.295  1.00  0.00     0.049 A 
ATOM     49  N   UNL A   1      41.123  26.557  27.650  1.00  0.00    -0.248 NA
ATOM     50  C   UNL A   1      39.680  25.117  28.751  1.00  0.00     0.031 C 
ATOM     51  C   UNL A   1      44.019  23.420  29.740  1.00  0.00     0.029 A 
ATOM     52  N   UNL A   1      43.461  25.523  30.112  1.00  0.00    -0.354 N 
ATOM     53  C   UNL A   1      39.913  27.205  27.891  1.00  0.00     0.074 A 
ATOM     54  C   UNL A   1      39.000  26.188  28.335  1.00  0.00     0.031 C 
ATOM     55  C   UNL A   1      44.593  23.773  30.910  1.00  0.00     0.029 A 
ATOM     56  C   UNL A   1      44.231  25.143  31.212  1.00  0.00     0.049 A 
ATOM     57  H   UNL A   1      43.191  26.454  29.942  1.00  0.00     0.167 HD
ATOM     58  C   UNL A   1      39.863  28.562  28.004  1.00  0.00     0.034 A 
ATOM     59  C   UNL A   1      44.494  25.882  32.320  1.00  0.00     0.034 A 
ATOM     60  C   UNL A   1      41.072  29.168  27.494  1.00  0.00     0.049 A 
ATOM     61  C   UNL A   1      44.251  27.299  31.964  1.00  0.00     0.074 A 
ATOM     62  C   UNL A   1      41.766  29.107  26.301  1.00  0.00     0.029 A 
ATOM     63  N   UNL A   1      41.964  29.650  28.423  1.00  0.00    -0.354 N 
ATOM     64  N   UNL A   1      44.974  27.954  31.099  1.00  0.00    -0.248 NA
ATOM     65  C   UNL A   1      42.924  27.839  32.213  1.00  0.00     0.031 C 
ATOM     66  C   UNL A   1      43.139  29.066  26.683  1.00  0.00     0.029 A 
ATOM     67  C   UNL A   1      43.209  29.205  28.069  1.00  0.00     0.049 A 
ATOM     68  H   UNL A   1      41.747  30.213  29.201  1.00  0.00     0.167 HD
ATOM     69  C   UNL A   1      44.043  28.659  30.349  1.00  0.00     0.074 A 
ATOM     70  C   UNL A   1      42.816  28.638  31.148  1.00  0.00     0.031 C 
ATOM     71  C   UNL A   1      44.255  28.920  29.025  1.00  0.00     0.034 A 
BRANCH  58  72
ATOM     72  C   UNL A   1      38.944  29.325  28.940  1.00  0.00     0.023 A 
ATOM     73  C   UNL A   1      38.361  30.511  28.432  1.00  0.00     0.012 A 
ATOM     74  C   UNL A   1      38.855  29.122  30.337  1.00  0.00     0.148 A 
ATOM     75  C   UNL A   1      37.804  31.477  29.275  1.00  0.00     0.002 A 
ATOM     76  C   UNL A   1      38.228  30.049  31.163  1.00  0.00     0.091 A 
ATOM     77  F   UNL A   1      39.486  28.099  30.914  1.00  0.00    -0.205 F 
ATOM     78  C   UNL A   1      37.736  31.246  30.642  1.00  0.00     0.022 A 
BRANCH  76  79
ATOM     79  S   UNL A   1      38.072  29.779  32.934  1.00  0.00     0.127 S 
ATOM     80  O   UNL A   1      37.267  30.928  33.336  1.00  0.00    -0.237 OA
ATOM     81  O   UNL A   1      37.381  28.490  32.976  1.00  0.00    -0.237 OA
ATOM     82  O   UNL A   1      39.434  29.742  33.452  1.00  0.00    -0.744 OA
ENDBRANCH  76  79
ENDBRANCH  58  72
BRANCH  59  83
ATOM     83  C   UNL A   1      44.696  25.451  33.727  1.00  0.00     0.023 A 
ATOM     84  C   UNL A   1      43.588  25.330  34.591  1.00  0.00     0.012 A 
ATOM     85  C   UNL A   1      45.925  24.893  34.147  1.00  0.00     0.148 A 
ATOM     86  C   UNL A   1      43.692  24.651  35.812  1.00  0.00     0.002 A 
ATOM     87  C   UNL A   1      46.026  24.227  35.366  1.00  0.00     0.091 A 
ATOM     88  F   UNL A   1      46.971  24.931  33.311  1.00  0.00    -0.205 F 
ATOM     89  C   UNL A   1      44.908  24.093  36.197  1.00  0.00     0.022 A 
BRANCH  87  90
ATOM     90  S   UNL A   1      47.562  23.463  35.910  1.00  0.00     0.127 S 
ATOM     91  O   UNL A   1      48.462  24.613  35.990  1.00  0.00    -0.237 OA
ATOM     92  O   UNL A   1      47.180  22.895  37.199  1.00  0.00    -0.237 OA
ATOM     93  O   UNL A   1      47.914  22.498  34.875  1.00  0.00    -0.744 OA
ENDBRANCH  87  90
ENDBRANCH  59  83
BRANCH  71  94
ATOM     94  C   UNL A   1      45.626  28.665  28.449  1.00  0.00     0.023 A 
ATOM     95  C   UNL A   1      46.702  29.564  28.608  1.00  0.00     0.012 A 
ATOM     96  C   UNL A   1      45.877  27.398  27.901  1.00  0.00     0.148 A 
ATOM     97  C   UNL A   1      47.995  29.209  28.211  1.00  0.00     0.002 A 
ATOM     98  C   UNL A   1      47.169  27.030  27.553  1.00  0.00     0.091 A 
ATOM     99  F   UNL A   1      44.843  26.555  27.757  1.00  0.00    -0.205 F 
ATOM    100  C   UNL A   1      48.232  27.935  27.698  1.00  0.00     0.022 A 
BRANCH  98 101
ATOM    101  S   UNL A   1      47.550  25.363  27.010  1.00  0.00     0.127 S 
ATOM    102  O   UNL A   1      46.950  24.554  28.069  1.00  0.00    -0.237 OA
ATOM    103  O   UNL A   1      46.865  25.288  25.718  1.00  0.00    -0.237 OA
ATOM    104  O   UNL A   1      49.004  25.295  26.916  1.00  0.00    -0.744 OA
ENDBRANCH  98 101
ENDBRANCH  71  94
ENDBRANCH  45  46
ENDBRANCH  37  40
ENDBRANCH  35  36
ENDBRANCH  34  35
ENDBRANCH  33  34
ENDBRANCH   1  33
TORSDOF 21
ENDMDL
