MODEL 1
REMARK VINA RESULT:      -9.8      0.000      0.000
REMARK SMILES COC[C@@H](C)N(C)c1nc(C(C)C)c(C(=O)NCCCCCCNC(=O)c2ccc(-c3c4nc(c(-c5cccc(S(=O)(=O)[O-])c5F)c5ccc([nH]5)c(-c5cccc(S(=O)(=O)[O-])c5F)c5nc(c(-c6cccc(S(=O)(=O)[O-])c6F)c6ccc3[nH]6)C=C5)C=C4)cc2)s1
REMARK SMILES IDX 20 1 19 2 18 3 17 4 15 5 16 6 14 8 8 9 9 10 90 11 10 12 6 13
REMARK SMILES IDX 7 14 4 15 5 16 3 17 2 18 1 19 11 20 12 21 13 22 21 23 22 24
REMARK SMILES IDX 23 25 24 26 25 27 26 29 27 30 28 31 89 32 29 33 88 34 30 35
REMARK SMILES IDX 31 36 32 37 82 38 33 39 87 40 81 41 83 42 34 43 86 44 80 45
REMARK SMILES IDX 79 46 35 48 67 49 47 50 66 51 48 52 51 53 65 54 84 55 49 56
REMARK SMILES IDX 50 57 64 59 85 60 52 61 36 62 37 63 45 64 38 65 40 66 46 67
REMARK SMILES IDX 39 68 41 69 42 70 43 71 44 72 68 73 69 74 77 75 70 76 72 77
REMARK SMILES IDX 78 78 71 79 73 80 74 81 75 82 76 83 53 84 54 85 62 86 55 87
REMARK SMILES IDX 57 88 63 89 56 90 58 91 59 92 60 93 61 94
REMARK H PARENT 17 7 24 28 83 47 51 58
REMARK Flexibility Score: inf
ROOT
ATOM      1  C   UNL A   1      37.333  21.758  24.914  1.00  0.00     0.002 C 
ENDROOT
BRANCH   1   2
ATOM      2  C   UNL A   1      36.064  22.608  24.954  1.00  0.00     0.021 C 
BRANCH   2   3
ATOM      3  C   UNL A   1      34.812  21.878  24.469  1.00  0.00     0.116 C 
BRANCH   3   4
ATOM      4  N   UNL A   1      34.391  22.320  23.168  1.00  0.00    -0.351 N 
ATOM      5  C   UNL A   1      33.743  23.412  22.660  1.00  0.00     0.263 C 
ATOM      6  O   UNL A   1      33.691  23.344  21.421  1.00  0.00    -0.268 OA
ATOM      7  H   UNL A   1      34.631  21.674  22.465  1.00  0.00     0.163 HD
BRANCH   5   8
ATOM      8  C   UNL A   1      33.182  24.550  23.394  1.00  0.00     0.117 A 
ATOM      9  C   UNL A   1      32.647  26.965  23.763  1.00  0.00     0.186 A 
ATOM     10  N   UNL A   1      32.365  26.232  24.799  1.00  0.00    -0.224 NA
ATOM     11  S   UNL A   1      33.308  26.060  22.480  1.00  0.00    -0.091 S 
ATOM     12  C   UNL A   1      32.517  24.868  24.582  1.00  0.00     0.069 A 
BRANCH   9  13
ATOM     13  N   UNL A   1      32.441  28.312  23.745  1.00  0.00    -0.346 N 
ATOM     14  C   UNL A   1      33.291  29.182  22.959  1.00  0.00     0.146 C 
BRANCH  13  15
ATOM     15  C   UNL A   1      31.313  28.897  24.501  1.00  0.00     0.107 C 
ATOM     16  C   UNL A   1      30.243  29.383  23.519  1.00  0.00     0.033 C 
BRANCH  15  17
ATOM     17  C   UNL A   1      31.750  29.976  25.522  1.00  0.00     0.184 C 
BRANCH  17  18
ATOM     18  O   UNL A   1      32.646  29.470  26.521  1.00  0.00    -0.383 OA
ATOM     19  C   UNL A   1      33.311  30.494  27.256  1.00  0.00     0.194 C 
ENDBRANCH  17  18
ENDBRANCH  15  17
ENDBRANCH  13  15
ENDBRANCH   9  13
BRANCH  12  20
ATOM     20  C   UNL A   1      31.879  24.096  25.708  1.00  0.00     0.034 C 
ATOM     21  C   UNL A   1      31.283  25.009  26.782  1.00  0.00     0.014 C 
ATOM     22  C   UNL A   1      31.051  22.891  25.253  1.00  0.00     0.014 C 
ENDBRANCH  12  20
ENDBRANCH   5   8
ENDBRANCH   3   4
ENDBRANCH   2   3
ENDBRANCH   1   2
BRANCH   1  23
ATOM     23  C   UNL A   1      37.111  20.243  24.817  1.00  0.00     0.002 C 
BRANCH  23  24
ATOM     24  C   UNL A   1      38.333  19.364  25.101  1.00  0.00     0.021 C 
BRANCH  24  25
ATOM     25  C   UNL A   1      39.428  20.016  25.943  1.00  0.00     0.116 C 
BRANCH  25  26
ATOM     26  N   UNL A   1      40.636  19.208  25.995  1.00  0.00    -0.352 N 
ATOM     27  C   UNL A   1      41.952  19.582  26.083  1.00  0.00     0.251 C 
ATOM     28  H   UNL A   1      40.485  18.235  25.962  1.00  0.00     0.163 HD
ATOM     29  O   UNL A   1      42.830  18.739  25.910  1.00  0.00    -0.269 OA
BRANCH  27  30
ATOM     30  C   UNL A   1      42.323  20.983  26.376  1.00  0.00     0.039 A 
ATOM     31  C   UNL A   1      42.446  21.381  27.710  1.00  0.00     0.014 A 
ATOM     32  C   UNL A   1      42.496  21.916  25.349  1.00  0.00     0.014 A 
ATOM     33  C   UNL A   1      42.788  22.701  28.015  1.00  0.00     0.010 A 
ATOM     34  C   UNL A   1      42.901  23.215  25.652  1.00  0.00     0.010 A 
ATOM     35  C   UNL A   1      43.041  23.624  26.987  1.00  0.00    -0.014 A 
BRANCH  35  36
ATOM     36  C   UNL A   1      43.451  25.019  27.290  1.00  0.00     0.031 A 
ATOM     37  C   UNL A   1      44.902  25.415  27.221  1.00  0.00     0.074 A 
ATOM     38  C   UNL A   1      42.528  25.908  27.705  1.00  0.00     0.049 A 
ATOM     39  N   UNL A   1      45.458  26.563  27.507  1.00  0.00    -0.248 NA
ATOM     40  C   UNL A   1      45.858  24.377  26.799  1.00  0.00     0.031 C 
ATOM     41  C   UNL A   1      41.103  25.625  27.886  1.00  0.00     0.029 A 
ATOM     42  N   UNL A   1      42.655  27.222  28.081  1.00  0.00    -0.354 N 
ATOM     43  C   UNL A   1      46.824  26.380  27.337  1.00  0.00     0.074 A 
ATOM     44  C   UNL A   1      47.019  24.999  26.951  1.00  0.00     0.031 C 
ATOM     45  C   UNL A   1      40.488  26.729  28.340  1.00  0.00     0.029 A 
ATOM     46  C   UNL A   1      41.477  27.790  28.508  1.00  0.00     0.049 A 
ATOM     47  H   UNL A   1      43.508  27.712  28.049  1.00  0.00     0.167 HD
ATOM     48  C   UNL A   1      47.825  27.284  27.461  1.00  0.00     0.034 A 
ATOM     49  C   UNL A   1      41.222  29.023  28.988  1.00  0.00     0.034 A 
ATOM     50  C   UNL A   1      47.623  28.668  27.797  1.00  0.00     0.049 A 
ATOM     51  C   UNL A   1      42.345  30.022  29.070  1.00  0.00     0.074 A 
ATOM     52  C   UNL A   1      48.561  29.684  27.859  1.00  0.00     0.029 A 
ATOM     53  N   UNL A   1      46.400  29.233  28.128  1.00  0.00    -0.354 N 
ATOM     54  N   UNL A   1      43.607  29.872  28.748  1.00  0.00    -0.248 NA
ATOM     55  C   UNL A   1      42.003  31.370  29.545  1.00  0.00     0.031 C 
ATOM     56  C   UNL A   1      47.907  30.860  28.244  1.00  0.00     0.029 A 
ATOM     57  C   UNL A   1      46.559  30.580  28.402  1.00  0.00     0.049 A 
ATOM     58  H   UNL A   1      45.546  28.745  28.163  1.00  0.00     0.167 HD
ATOM     59  C   UNL A   1      44.201  31.112  28.947  1.00  0.00     0.074 A 
ATOM     60  C   UNL A   1      43.156  32.009  29.396  1.00  0.00     0.031 C 
ATOM     61  C   UNL A   1      45.498  31.473  28.790  1.00  0.00     0.034 A 
BRANCH  48  62
ATOM     62  C   UNL A   1      49.229  26.823  27.170  1.00  0.00     0.023 A 
ATOM     63  C   UNL A   1      49.882  25.974  28.087  1.00  0.00     0.012 A 
ATOM     64  C   UNL A   1      49.876  27.169  25.968  1.00  0.00     0.148 A 
ATOM     65  C   UNL A   1      51.168  25.501  27.827  1.00  0.00     0.002 A 
ATOM     66  C   UNL A   1      51.142  26.660  25.697  1.00  0.00     0.091 A 
ATOM     67  F   UNL A   1      49.248  27.993  25.117  1.00  0.00    -0.205 F 
ATOM     68  C   UNL A   1      51.792  25.835  26.630  1.00  0.00     0.022 A 
BRANCH  66  69
ATOM     69  S   UNL A   1      51.999  26.967  24.148  1.00  0.00     0.127 S 
ATOM     70  O   UNL A   1      50.949  26.681  23.170  1.00  0.00    -0.237 OA
ATOM     71  O   UNL A   1      52.350  28.383  24.266  1.00  0.00    -0.237 OA
ATOM     72  O   UNL A   1      53.135  26.059  24.130  1.00  0.00    -0.744 OA
ENDBRANCH  66  69
ENDBRANCH  48  62
BRANCH  49  73
ATOM     73  C   UNL A   1      39.830  29.404  29.363  1.00  0.00     0.023 A 
ATOM     74  C   UNL A   1      38.897  29.693  28.349  1.00  0.00     0.012 A 
ATOM     75  C   UNL A   1      39.421  29.457  30.709  1.00  0.00     0.148 A 
ATOM     76  C   UNL A   1      37.590  30.061  28.669  1.00  0.00     0.002 A 
ATOM     77  C   UNL A   1      38.102  29.770  31.018  1.00  0.00     0.091 A 
ATOM     78  F   UNL A   1      40.326  29.192  31.661  1.00  0.00    -0.205 F 
ATOM     79  C   UNL A   1      37.189  30.090  30.001  1.00  0.00     0.022 A 
BRANCH  77  80
ATOM     80  S   UNL A   1      37.470  29.697  32.699  1.00  0.00     0.127 S 
ATOM     81  O   UNL A   1      37.511  28.261  32.972  1.00  0.00    -0.237 OA
ATOM     82  O   UNL A   1      38.457  30.492  33.432  1.00  0.00    -0.237 OA
ATOM     83  O   UNL A   1      36.145  30.297  32.644  1.00  0.00    -0.744 OA
ENDBRANCH  77  80
ENDBRANCH  49  73
BRANCH  61  84
ATOM     84  C   UNL A   1      45.865  32.906  29.073  1.00  0.00     0.023 A 
ATOM     85  C   UNL A   1      46.442  33.249  30.311  1.00  0.00     0.012 A 
ATOM     86  C   UNL A   1      45.712  33.898  28.083  1.00  0.00     0.148 A 
ATOM     87  C   UNL A   1      46.833  34.561  30.571  1.00  0.00     0.002 A 
ATOM     88  C   UNL A   1      46.148  35.193  28.332  1.00  0.00     0.091 A 
ATOM     89  F   UNL A   1      45.143  33.555  26.917  1.00  0.00    -0.205 F 
ATOM     90  C   UNL A   1      46.698  35.529  29.579  1.00  0.00     0.022 A 
BRANCH  88  91
ATOM     91  S   UNL A   1      46.100  36.481  27.080  1.00  0.00     0.127 S 
ATOM     92  O   UNL A   1      46.737  37.597  27.776  1.00  0.00    -0.237 OA
ATOM     93  O   UNL A   1      46.902  35.897  26.003  1.00  0.00    -0.237 OA
ATOM     94  O   UNL A   1      44.694  36.667  26.750  1.00  0.00    -0.744 OA
ENDBRANCH  88  91
ENDBRANCH  61  84
ENDBRANCH  35  36
ENDBRANCH  27  30
ENDBRANCH  25  26
ENDBRANCH  24  25
ENDBRANCH  23  24
ENDBRANCH   1  23
TORSDOF 21
ENDMDL
MODEL 2
REMARK VINA RESULT:      -9.8      2.339      2.953
REMARK SMILES COC[C@@H](C)N(C)c1nc(C(C)C)c(C(=O)NCCCCCCNC(=O)c2ccc(-c3c4nc(c(-c5cccc(S(=O)(=O)[O-])c5F)c5ccc([nH]5)c(-c5cccc(S(=O)(=O)[O-])c5F)c5nc(c(-c6cccc(S(=O)(=O)[O-])c6F)c6ccc3[nH]6)C=C5)C=C4)cc2)s1
REMARK SMILES IDX 20 1 19 2 18 3 17 4 15 5 16 6 14 8 8 9 9 10 90 11 10 12 6 13
REMARK SMILES IDX 7 14 4 15 5 16 3 17 2 18 1 19 11 20 12 21 13 22 21 23 22 24
REMARK SMILES IDX 23 25 24 26 25 27 26 29 27 30 28 31 89 32 29 33 88 34 30 35
REMARK SMILES IDX 31 36 32 37 82 38 33 39 87 40 81 41 83 42 34 43 86 44 80 45
REMARK SMILES IDX 79 46 35 48 67 49 47 50 66 51 48 52 51 53 65 54 84 55 49 56
REMARK SMILES IDX 50 57 64 59 85 60 52 61 36 62 37 63 45 64 38 65 40 66 46 67
REMARK SMILES IDX 39 68 41 69 42 70 43 71 44 72 68 73 69 74 77 75 70 76 72 77
REMARK SMILES IDX 78 78 71 79 73 80 74 81 75 82 76 83 53 84 54 85 62 86 55 87
REMARK SMILES IDX 57 88 63 89 56 90 58 91 59 92 60 93 61 94
REMARK H PARENT 17 7 24 28 83 47 51 58
REMARK Flexibility Score: inf
ROOT
ATOM      1  C   UNL A   1      35.769  21.431  24.674  1.00  0.00     0.002 C 
ENDROOT
BRANCH   1   2
ATOM      2  C   UNL A   1      35.454  22.358  25.848  1.00  0.00     0.021 C 
BRANCH   2   3
ATOM      3  C   UNL A   1      34.613  21.706  26.944  1.00  0.00     0.116 C 
BRANCH   3   4
ATOM      4  N   UNL A   1      33.289  21.375  26.493  1.00  0.00    -0.351 N 
ATOM      5  C   UNL A   1      32.313  21.993  25.761  1.00  0.00     0.263 C 
ATOM      6  O   UNL A   1      31.355  21.224  25.584  1.00  0.00    -0.268 OA
ATOM      7  H   UNL A   1      33.015  20.475  26.785  1.00  0.00     0.163 HD
BRANCH   5   8
ATOM      8  C   UNL A   1      32.326  23.350  25.206  1.00  0.00     0.117 A 
ATOM      9  C   UNL A   1      32.037  25.833  25.289  1.00  0.00     0.186 A 
ATOM     10  N   UNL A   1      32.257  25.400  24.082  1.00  0.00    -0.224 NA
ATOM     11  S   UNL A   1      31.997  24.577  26.439  1.00  0.00    -0.091 S 
ATOM     12  C   UNL A   1      32.562  24.046  24.018  1.00  0.00     0.069 A 
BRANCH   9  13
ATOM     13  N   UNL A   1      31.844  27.153  25.566  1.00  0.00    -0.346 N 
ATOM     14  C   UNL A   1      31.442  27.582  26.890  1.00  0.00     0.146 C 
BRANCH  13  15
ATOM     15  C   UNL A   1      32.085  28.170  24.521  1.00  0.00     0.107 C 
ATOM     16  C   UNL A   1      33.549  28.618  24.579  1.00  0.00     0.033 C 
BRANCH  15  17
ATOM     17  C   UNL A   1      31.078  29.346  24.561  1.00  0.00     0.184 C 
BRANCH  17  18
ATOM     18  O   UNL A   1      30.384  29.529  23.320  1.00  0.00    -0.383 OA
ATOM     19  C   UNL A   1      30.094  28.307  22.646  1.00  0.00     0.194 C 
ENDBRANCH  17  18
ENDBRANCH  15  17
ENDBRANCH  13  15
ENDBRANCH   9  13
BRANCH  12  20
ATOM     20  C   UNL A   1      33.102  23.708  22.651  1.00  0.00     0.034 C 
ATOM     21  C   UNL A   1      32.708  22.301  22.196  1.00  0.00     0.014 C 
ATOM     22  C   UNL A   1      32.994  24.846  21.633  1.00  0.00     0.014 C 
ENDBRANCH  12  20
ENDBRANCH   5   8
ENDBRANCH   3   4
ENDBRANCH   2   3
ENDBRANCH   1   2
BRANCH   1  23
ATOM     23  C   UNL A   1      36.417  20.091  25.046  1.00  0.00     0.002 C 
BRANCH  23  24
ATOM     24  C   UNL A   1      37.912  19.958  24.737  1.00  0.00     0.021 C 
BRANCH  24  25
ATOM     25  C   UNL A   1      38.853  20.572  25.772  1.00  0.00     0.116 C 
BRANCH  25  26
ATOM     26  N   UNL A   1      39.979  19.703  26.075  1.00  0.00    -0.352 N 
ATOM     27  C   UNL A   1      41.266  20.010  26.433  1.00  0.00     0.251 C 
ATOM     28  H   UNL A   1      39.787  18.740  26.013  1.00  0.00     0.163 HD
ATOM     29  O   UNL A   1      42.115  19.120  26.447  1.00  0.00    -0.269 OA
BRANCH  27  30
ATOM     30  C   UNL A   1      41.643  21.394  26.793  1.00  0.00     0.039 A 
ATOM     31  C   UNL A   1      41.854  22.321  25.769  1.00  0.00     0.014 A 
ATOM     32  C   UNL A   1      41.840  21.767  28.126  1.00  0.00     0.014 A 
ATOM     33  C   UNL A   1      42.218  23.633  26.081  1.00  0.00     0.010 A 
ATOM     34  C   UNL A   1      42.138  23.092  28.439  1.00  0.00     0.010 A 
ATOM     35  C   UNL A   1      42.341  24.036  27.420  1.00  0.00    -0.014 A 
BRANCH  35  36
ATOM     36  C   UNL A   1      42.681  25.437  27.775  1.00  0.00     0.031 A 
ATOM     37  C   UNL A   1      44.110  25.909  27.718  1.00  0.00     0.074 A 
ATOM     38  C   UNL A   1      41.716  26.262  28.226  1.00  0.00     0.049 A 
ATOM     39  N   UNL A   1      44.608  27.073  28.047  1.00  0.00    -0.248 NA
ATOM     40  C   UNL A   1      45.116  24.938  27.255  1.00  0.00     0.031 C 
ATOM     41  C   UNL A   1      40.308  25.900  28.398  1.00  0.00     0.029 A 
ATOM     42  N   UNL A   1      41.777  27.566  28.652  1.00  0.00    -0.354 N 
ATOM     43  C   UNL A   1      45.981  26.966  27.867  1.00  0.00     0.074 A 
ATOM     44  C   UNL A   1      46.244  25.612  27.429  1.00  0.00     0.031 C 
ATOM     45  C   UNL A   1      39.640  26.953  28.896  1.00  0.00     0.029 A 
ATOM     46  C   UNL A   1      40.574  28.056  29.102  1.00  0.00     0.049 A 
ATOM     47  H   UNL A   1      42.605  28.099  28.637  1.00  0.00     0.167 HD
ATOM     48  C   UNL A   1      46.936  27.914  28.024  1.00  0.00     0.034 A 
ATOM     49  C   UNL A   1      40.259  29.256  29.629  1.00  0.00     0.034 A 
ATOM     50  C   UNL A   1      46.665  29.272  28.412  1.00  0.00     0.049 A 
ATOM     51  C   UNL A   1      41.330  30.306  29.748  1.00  0.00     0.074 A 
ATOM     52  C   UNL A   1      47.550  30.331  28.511  1.00  0.00     0.029 A 
ATOM     53  N   UNL A   1      45.416  29.761  28.767  1.00  0.00    -0.354 N 
ATOM     54  N   UNL A   1      42.597  30.233  29.417  1.00  0.00    -0.248 NA
ATOM     55  C   UNL A   1      40.922  31.617  30.274  1.00  0.00     0.031 C 
ATOM     56  C   UNL A   1      46.839  31.456  28.942  1.00  0.00     0.029 A 
ATOM     57  C   UNL A   1      45.508  31.102  29.092  1.00  0.00     0.049 A 
ATOM     58  H   UNL A   1      44.588  29.229  28.785  1.00  0.00     0.167 HD
ATOM     59  C   UNL A   1      43.128  31.494  29.662  1.00  0.00     0.074 A 
ATOM     60  C   UNL A   1      42.041  32.319  30.147  1.00  0.00     0.031 C 
ATOM     61  C   UNL A   1      44.405  31.926  29.517  1.00  0.00     0.034 A 
BRANCH  48  62
ATOM     62  C   UNL A   1      48.360  27.536  27.712  1.00  0.00     0.023 A 
ATOM     63  C   UNL A   1      49.142  26.909  28.704  1.00  0.00     0.012 A 
ATOM     64  C   UNL A   1      48.904  27.735  26.428  1.00  0.00     0.148 A 
ATOM     65  C   UNL A   1      50.452  26.514  28.433  1.00  0.00     0.002 A 
ATOM     66  C   UNL A   1      50.196  27.302  26.154  1.00  0.00     0.091 A 
ATOM     67  F   UNL A   1      48.153  28.351  25.504  1.00  0.00    -0.205 F 
ATOM     68  C   UNL A   1      50.974  26.701  27.158  1.00  0.00     0.022 A 
BRANCH  66  69
ATOM     69  S   UNL A   1      50.934  27.425  24.520  1.00  0.00     0.127 S 
ATOM     70  O   UNL A   1      52.191  26.700  24.711  1.00  0.00    -0.237 OA
ATOM     71  O   UNL A   1      49.953  26.731  23.686  1.00  0.00    -0.237 OA
ATOM     72  O   UNL A   1      51.070  28.847  24.246  1.00  0.00    -0.744 OA
ENDBRANCH  66  69
ENDBRANCH  48  62
BRANCH  49  73
ATOM     73  C   UNL A   1      38.852  29.551  30.021  1.00  0.00     0.023 A 
ATOM     74  C   UNL A   1      38.411  29.218  31.317  1.00  0.00     0.012 A 
ATOM     75  C   UNL A   1      37.958  30.179  29.133  1.00  0.00     0.148 A 
ATOM     76  C   UNL A   1      37.097  29.473  31.710  1.00  0.00     0.002 A 
ATOM     77  C   UNL A   1      36.666  30.481  29.550  1.00  0.00     0.091 A 
ATOM     78  F   UNL A   1      38.389  30.476  27.899  1.00  0.00    -0.205 F 
ATOM     79  C   UNL A   1      36.228  30.113  30.832  1.00  0.00     0.022 A 
BRANCH  77  80
ATOM     80  S   UNL A   1      35.527  31.425  28.529  1.00  0.00     0.127 S 
ATOM     81  O   UNL A   1      34.546  31.876  29.515  1.00  0.00    -0.237 OA
ATOM     82  O   UNL A   1      36.394  32.478  27.997  1.00  0.00    -0.237 OA
ATOM     83  O   UNL A   1      35.039  30.492  27.525  1.00  0.00    -0.744 OA
ENDBRANCH  77  80
ENDBRANCH  49  73
BRANCH  61  84
ATOM     84  C   UNL A   1      44.700  33.364  29.853  1.00  0.00     0.023 A 
ATOM     85  C   UNL A   1      44.593  34.351  28.854  1.00  0.00     0.012 A 
ATOM     86  C   UNL A   1      45.005  33.746  31.174  1.00  0.00     0.148 A 
ATOM     87  C   UNL A   1      44.813  35.693  29.158  1.00  0.00     0.002 A 
ATOM     88  C   UNL A   1      45.176  35.091  31.480  1.00  0.00     0.091 A 
ATOM     89  F   UNL A   1      45.121  32.789  32.107  1.00  0.00    -0.205 F 
ATOM     90  C   UNL A   1      45.092  36.064  30.472  1.00  0.00     0.022 A 
BRANCH  88  91
ATOM     91  S   UNL A   1      45.445  35.669  33.160  1.00  0.00     0.127 S 
ATOM     92  O   UNL A   1      44.268  35.144  33.848  1.00  0.00    -0.237 OA
ATOM     93  O   UNL A   1      46.704  35.011  33.516  1.00  0.00    -0.237 OA
ATOM     94  O   UNL A   1      45.528  37.121  33.076  1.00  0.00    -0.744 OA
ENDBRANCH  88  91
ENDBRANCH  61  84
ENDBRANCH  35  36
ENDBRANCH  27  30
ENDBRANCH  25  26
ENDBRANCH  24  25
ENDBRANCH  23  24
ENDBRANCH   1  23
TORSDOF 21
ENDMDL
MODEL 3
REMARK VINA RESULT:      -9.8      1.751      7.668
REMARK SMILES COC[C@@H](C)N(C)c1nc(C(C)C)c(C(=O)NCCCCCCNC(=O)c2ccc(-c3c4nc(c(-c5cccc(S(=O)(=O)[O-])c5F)c5ccc([nH]5)c(-c5cccc(S(=O)(=O)[O-])c5F)c5nc(c(-c6cccc(S(=O)(=O)[O-])c6F)c6ccc3[nH]6)C=C5)C=C4)cc2)s1
REMARK SMILES IDX 20 1 19 2 18 3 17 4 15 5 16 6 14 8 8 9 9 10 90 11 10 12 6 13
REMARK SMILES IDX 7 14 4 15 5 16 3 17 2 18 1 19 11 20 12 21 13 22 21 23 22 24
REMARK SMILES IDX 23 25 24 26 25 27 26 29 27 30 28 31 89 32 29 33 88 34 30 35
REMARK SMILES IDX 31 36 32 37 82 38 33 39 87 40 81 41 83 42 34 43 86 44 80 45
REMARK SMILES IDX 79 46 35 48 67 49 47 50 66 51 48 52 51 53 65 54 84 55 49 56
REMARK SMILES IDX 50 57 64 59 85 60 52 61 36 62 37 63 45 64 38 65 40 66 46 67
REMARK SMILES IDX 39 68 41 69 42 70 43 71 44 72 68 73 69 74 77 75 70 76 72 77
REMARK SMILES IDX 78 78 71 79 73 80 74 81 75 82 76 83 53 84 54 85 62 86 55 87
REMARK SMILES IDX 57 88 63 89 56 90 58 91 59 92 60 93 61 94
REMARK H PARENT 17 7 24 28 83 47 51 58
REMARK Flexibility Score: inf
ROOT
ATOM      1  C   UNL A   1      37.186  21.915  24.585  1.00  0.00     0.002 C 
ENDROOT
BRANCH   1   2
ATOM      2  C   UNL A   1      35.979  22.852  24.575  1.00  0.00     0.021 C 
BRANCH   2   3
ATOM      3  C   UNL A   1      34.662  22.171  24.945  1.00  0.00     0.116 C 
BRANCH   3   4
ATOM      4  N   UNL A   1      33.821  21.948  23.801  1.00  0.00    -0.351 N 
ATOM      5  C   UNL A   1      32.626  22.434  23.346  1.00  0.00     0.263 C 
ATOM      6  O   UNL A   1      32.363  21.956  22.231  1.00  0.00    -0.268 OA
ATOM      7  H   UNL A   1      34.202  21.277  23.190  1.00  0.00     0.163 HD
BRANCH   5   8
ATOM      8  C   UNL A   1      31.736  23.396  24.003  1.00  0.00     0.117 A 
ATOM      9  C   UNL A   1      30.374  25.488  24.146  1.00  0.00     0.186 A 
ATOM     10  N   UNL A   1      30.452  24.869  25.287  1.00  0.00    -0.224 NA
ATOM     11  S   UNL A   1      31.235  24.694  22.909  1.00  0.00    -0.091 S 
ATOM     12  C   UNL A   1      31.081  23.633  25.214  1.00  0.00     0.069 A 
BRANCH   9  13
ATOM     13  N   UNL A   1      29.685  26.654  23.994  1.00  0.00    -0.346 N 
ATOM     14  C   UNL A   1      28.239  26.656  23.910  1.00  0.00     0.146 C 
BRANCH  13  15
ATOM     15  C   UNL A   1      30.411  27.942  23.956  1.00  0.00     0.107 C 
ATOM     16  C   UNL A   1      30.757  28.286  22.504  1.00  0.00     0.033 C 
BRANCH  15  17
ATOM     17  C   UNL A   1      31.631  27.989  24.909  1.00  0.00     0.184 C 
BRANCH  17  18
ATOM     18  O   UNL A   1      32.883  28.036  24.212  1.00  0.00    -0.383 OA
ATOM     19  C   UNL A   1      33.763  26.968  24.553  1.00  0.00     0.194 C 
ENDBRANCH  17  18
ENDBRANCH  15  17
ENDBRANCH  13  15
ENDBRANCH   9  13
BRANCH  12  20
ATOM     20  C   UNL A   1      30.848  22.865  26.491  1.00  0.00     0.034 C 
ATOM     21  C   UNL A   1      32.074  22.864  27.406  1.00  0.00     0.014 C 
ATOM     22  C   UNL A   1      29.479  23.108  27.129  1.00  0.00     0.014 C 
ENDBRANCH  12  20
ENDBRANCH   5   8
ENDBRANCH   3   4
ENDBRANCH   2   3
ENDBRANCH   1   2
BRANCH   1  23
ATOM     23  C   UNL A   1      36.860  20.418  24.645  1.00  0.00     0.002 C 
BRANCH  23  24
ATOM     24  C   UNL A   1      38.016  19.493  25.039  1.00  0.00     0.021 C 
BRANCH  24  25
ATOM     25  C   UNL A   1      39.154  20.157  25.812  1.00  0.00     0.116 C 
BRANCH  25  26
ATOM     26  N   UNL A   1      40.303  19.278  25.963  1.00  0.00    -0.352 N 
ATOM     27  C   UNL A   1      41.627  19.573  26.161  1.00  0.00     0.251 C 
ATOM     28  H   UNL A   1      40.097  18.317  25.917  1.00  0.00     0.163 HD
ATOM     29  O   UNL A   1      42.464  18.679  26.061  1.00  0.00    -0.269 OA
BRANCH  27  30
ATOM     30  C   UNL A   1      42.055  20.951  26.485  1.00  0.00     0.039 A 
ATOM     31  C   UNL A   1      42.211  21.869  25.443  1.00  0.00     0.014 A 
ATOM     32  C   UNL A   1      42.355  21.326  27.798  1.00  0.00     0.014 A 
ATOM     33  C   UNL A   1      42.622  23.175  25.721  1.00  0.00     0.010 A 
ATOM     34  C   UNL A   1      42.701  22.646  28.082  1.00  0.00     0.010 A 
ATOM     35  C   UNL A   1      42.849  23.581  27.046  1.00  0.00    -0.014 A 
BRANCH  35  36
ATOM     36  C   UNL A   1      43.241  24.977  27.367  1.00  0.00     0.031 A 
ATOM     37  C   UNL A   1      42.237  25.931  27.956  1.00  0.00     0.074 A 
ATOM     38  C   UNL A   1      44.478  25.409  27.052  1.00  0.00     0.049 A 
ATOM     39  N   UNL A   1      42.375  27.199  28.245  1.00  0.00    -0.248 NA
ATOM     40  C   UNL A   1      40.892  25.398  28.234  1.00  0.00     0.031 C 
ATOM     41  C   UNL A   1      45.516  24.603  26.408  1.00  0.00     0.029 A 
ATOM     42  N   UNL A   1      45.062  26.642  27.202  1.00  0.00    -0.354 N 
ATOM     43  C   UNL A   1      41.133  27.624  28.703  1.00  0.00     0.074 A 
ATOM     44  C   UNL A   1      40.243  26.486  28.624  1.00  0.00     0.031 C 
ATOM     45  C   UNL A   1      46.608  25.361  26.216  1.00  0.00     0.029 A 
ATOM     46  C   UNL A   1      46.340  26.713  26.698  1.00  0.00     0.049 A 
ATOM     47  H   UNL A   1      44.609  27.405  27.630  1.00  0.00     0.167 HD
ATOM     48  C   UNL A   1      40.772  28.842  29.173  1.00  0.00     0.034 A 
ATOM     49  C   UNL A   1      47.196  27.750  26.624  1.00  0.00     0.034 A 
ATOM     50  C   UNL A   1      41.672  29.957  29.295  1.00  0.00     0.049 A 
ATOM     51  C   UNL A   1      46.786  29.080  27.197  1.00  0.00     0.074 A 
ATOM     52  C   UNL A   1      41.427  31.204  29.842  1.00  0.00     0.029 A 
ATOM     53  N   UNL A   1      42.990  29.962  28.864  1.00  0.00    -0.354 N 
ATOM     54  N   UNL A   1      45.657  29.416  27.775  1.00  0.00    -0.248 NA
ATOM     55  C   UNL A   1      47.778  30.163  27.145  1.00  0.00     0.031 C 
ATOM     56  C   UNL A   1      42.593  31.969  29.727  1.00  0.00     0.029 A 
ATOM     57  C   UNL A   1      43.570  31.191  29.125  1.00  0.00     0.049 A 
ATOM     58  H   UNL A   1      43.445  29.203  28.433  1.00  0.00     0.167 HD
ATOM     59  C   UNL A   1      45.816  30.734  28.184  1.00  0.00     0.074 A 
ATOM     60  C   UNL A   1      47.158  31.129  27.810  1.00  0.00     0.031 C 
ATOM     61  C   UNL A   1      44.926  31.551  28.799  1.00  0.00     0.034 A 
BRANCH  48  62
ATOM     62  C   UNL A   1      39.355  29.018  29.653  1.00  0.00     0.023 A 
ATOM     63  C   UNL A   1      39.016  28.626  30.964  1.00  0.00     0.012 A 
ATOM     64  C   UNL A   1      38.381  29.630  28.841  1.00  0.00     0.148 A 
ATOM     65  C   UNL A   1      37.721  28.811  31.448  1.00  0.00     0.002 A 
ATOM     66  C   UNL A   1      37.104  29.849  29.345  1.00  0.00     0.091 A 
ATOM     67  F   UNL A   1      38.717  29.979  27.590  1.00  0.00    -0.205 F 
ATOM     68  C   UNL A   1      36.770  29.431  30.645  1.00  0.00     0.022 A 
BRANCH  66  69
ATOM     69  S   UNL A   1      35.828  30.710  28.418  1.00  0.00     0.127 S 
ATOM     70  O   UNL A   1      35.314  29.638  27.563  1.00  0.00    -0.237 OA
ATOM     71  O   UNL A   1      34.911  31.135  29.476  1.00  0.00    -0.237 OA
ATOM     72  O   UNL A   1      36.500  31.796  27.721  1.00  0.00    -0.744 OA
ENDBRANCH  66  69
ENDBRANCH  48  62
BRANCH  49  73
ATOM     73  C   UNL A   1      48.555  27.555  26.044  1.00  0.00     0.023 A 
ATOM     74  C   UNL A   1      48.720  27.582  24.646  1.00  0.00     0.012 A 
ATOM     75  C   UNL A   1      49.684  27.367  26.865  1.00  0.00     0.148 A 
ATOM     76  C   UNL A   1      49.978  27.393  24.073  1.00  0.00     0.002 A 
ATOM     77  C   UNL A   1      50.943  27.235  26.289  1.00  0.00     0.091 A 
ATOM     78  F   UNL A   1      49.507  27.329  28.192  1.00  0.00    -0.205 F 
ATOM     79  C   UNL A   1      51.090  27.230  24.893  1.00  0.00     0.022 A 
BRANCH  77  80
ATOM     80  S   UNL A   1      52.443  27.156  27.276  1.00  0.00     0.127 S 
ATOM     81  O   UNL A   1      52.358  25.813  27.845  1.00  0.00    -0.237 OA
ATOM     82  O   UNL A   1      53.485  27.331  26.263  1.00  0.00    -0.237 OA
ATOM     83  O   UNL A   1      52.344  28.257  28.223  1.00  0.00    -0.744 OA
ENDBRANCH  77  80
ENDBRANCH  49  73
BRANCH  61  84
ATOM     84  C   UNL A   1      45.376  32.947  29.140  1.00  0.00     0.023 A 
ATOM     85  C   UNL A   1      45.982  33.202  30.385  1.00  0.00     0.012 A 
ATOM     86  C   UNL A   1      45.270  33.988  28.195  1.00  0.00     0.148 A 
ATOM     87  C   UNL A   1      46.450  34.477  30.697  1.00  0.00     0.002 A 
ATOM     88  C   UNL A   1      45.782  35.245  28.495  1.00  0.00     0.091 A 
ATOM     89  F   UNL A   1      44.673  33.729  27.022  1.00  0.00    -0.205 F 
ATOM     90  C   UNL A   1      46.362  35.494  29.749  1.00  0.00     0.022 A 
BRANCH  88  91
ATOM     91  S   UNL A   1      45.797  36.587  27.301  1.00  0.00     0.127 S 
ATOM     92  O   UNL A   1      46.469  35.966  26.162  1.00  0.00    -0.237 OA
ATOM     93  O   UNL A   1      44.369  36.841  27.102  1.00  0.00    -0.237 OA
ATOM     94  O   UNL A   1      46.520  37.681  27.936  1.00  0.00    -0.744 OA
ENDBRANCH  88  91
ENDBRANCH  61  84
ENDBRANCH  35  36
ENDBRANCH  27  30
ENDBRANCH  25  26
ENDBRANCH  24  25
ENDBRANCH  23  24
ENDBRANCH   1  23
TORSDOF 21
ENDMDL
