MODEL 1
REMARK VINA RESULT:     -10.8      0.000      0.000
REMARK SMILES C/C=C/C[C@H](Cc1cccc(F)c1)C(=O)NCCCCCCNC(=O)c1ccc(-c2c3nc(c(-c4cccc(S(=O)(=O)[O-])c4F)c4ccc([nH]4)c(-c4cccc(S(=O)(=O)[O-])c4F)c4nc(c(-c5cccc(S(=O)(=O)[O-])c5F)c5ccc2[nH]5)C=C4)C=C3)cc1
REMARK SMILES IDX 20 1 19 2 18 3 17 4 16 5 14 6 15 7 5 9 4 10 3 11 1 12 2 13
REMARK SMILES IDX 6 14 7 15 8 16 13 17 9 18 11 19 10 20 12 21 21 22 22 23
REMARK SMILES IDX 23 24 24 25 25 27 26 28 27 29 88 30 28 31 87 32 29 33 30 34
REMARK SMILES IDX 31 35 81 36 32 37 86 38 80 39 82 40 33 41 85 42 79 43 78 44
REMARK SMILES IDX 34 46 66 47 46 48 65 49 47 50 50 51 64 52 83 53 48 54 49 55
REMARK SMILES IDX 63 57 84 58 51 59 35 60 36 61 44 62 37 63 39 64 45 65 38 66
REMARK SMILES IDX 40 67 41 68 42 69 43 70 67 71 68 72 76 73 69 74 71 75 77 76
REMARK SMILES IDX 70 77 72 78 73 79 74 80 75 81 52 82 53 83 61 84 54 85 56 86
REMARK SMILES IDX 62 87 55 88 57 89 58 90 59 91 60 92
REMARK H PARENT 16 8 23 26 82 45 50 56
REMARK Flexibility Score: inf
ROOT
ATOM      1  C   UNL A   1      34.128  21.477  24.312  1.00  0.00     0.002 C 
ENDROOT
BRANCH   1   2
ATOM      2  C   UNL A   1      33.077  22.081  23.373  1.00  0.00     0.002 C 
BRANCH   2   3
ATOM      3  C   UNL A   1      33.560  23.214  22.464  1.00  0.00     0.021 C 
BRANCH   3   4
ATOM      4  C   UNL A   1      32.549  24.329  22.247  1.00  0.00     0.116 C 
BRANCH   4   5
ATOM      5  N   UNL A   1      33.142  25.546  21.731  1.00  0.00    -0.356 N 
ATOM      6  C   UNL A   1      33.362  26.739  22.343  1.00  0.00     0.223 C 
ATOM      7  O   UNL A   1      34.069  27.561  21.747  1.00  0.00    -0.275 OA
ATOM      8  H   UNL A   1      33.429  25.502  20.791  1.00  0.00     0.163 HD
BRANCH   6   9
ATOM      9  C   UNL A   1      32.770  27.096  23.705  1.00  0.00     0.086 C 
BRANCH   9  10
ATOM     10  C   UNL A   1      32.550  28.629  23.845  1.00  0.00     0.040 C 
BRANCH  10  11
ATOM     11  C   UNL A   1      31.139  29.119  23.630  1.00  0.00    -0.031 C 
ATOM     12  C   UNL A   1      29.268  29.848  22.111  1.00  0.00     0.035 C 
ATOM     13  C   UNL A   1      30.565  29.168  22.415  1.00  0.00    -0.035 C 
ENDBRANCH  10  11
ENDBRANCH   9  10
BRANCH   9  14
ATOM     14  C   UNL A   1      33.387  26.434  24.960  1.00  0.00     0.049 C 
BRANCH  14  15
ATOM     15  C   UNL A   1      32.681  25.289  25.671  1.00  0.00    -0.044 A 
ATOM     16  C   UNL A   1      31.303  25.033  25.598  1.00  0.00     0.004 A 
ATOM     17  C   UNL A   1      33.460  24.416  26.451  1.00  0.00     0.043 A 
ATOM     18  C   UNL A   1      30.743  23.885  26.172  1.00  0.00     0.003 A 
ATOM     19  C   UNL A   1      32.887  23.300  27.058  1.00  0.00     0.123 A 
ATOM     20  C   UNL A   1      31.539  23.011  26.902  1.00  0.00     0.039 A 
ATOM     21  F   UNL A   1      33.651  22.485  27.798  1.00  0.00    -0.207 F 
ENDBRANCH  14  15
ENDBRANCH   9  14
ENDBRANCH   6   9
ENDBRANCH   4   5
ENDBRANCH   3   4
ENDBRANCH   2   3
ENDBRANCH   1   2
BRANCH   1  22
ATOM     22  C   UNL A   1      35.485  22.183  24.349  1.00  0.00     0.021 C 
BRANCH  22  23
ATOM     23  C   UNL A   1      36.245  22.062  25.663  1.00  0.00     0.116 C 
BRANCH  23  24
ATOM     24  N   UNL A   1      37.286  21.049  25.608  1.00  0.00    -0.352 N 
ATOM     25  C   UNL A   1      38.630  21.165  25.860  1.00  0.00     0.251 C 
ATOM     26  H   UNL A   1      36.984  20.148  25.351  1.00  0.00     0.163 HD
ATOM     27  O   UNL A   1      39.386  20.233  25.592  1.00  0.00    -0.269 OA
BRANCH  25  28
ATOM     28  C   UNL A   1      39.169  22.417  26.431  1.00  0.00     0.039 A 
ATOM     29  C   UNL A   1      40.216  22.340  27.352  1.00  0.00     0.014 A 
ATOM     30  C   UNL A   1      38.658  23.661  26.050  1.00  0.00     0.014 A 
ATOM     31  C   UNL A   1      40.804  23.512  27.830  1.00  0.00     0.010 A 
ATOM     32  C   UNL A   1      39.292  24.827  26.469  1.00  0.00     0.010 A 
ATOM     33  C   UNL A   1      40.377  24.764  27.355  1.00  0.00    -0.014 A 
BRANCH  33  34
ATOM     34  C   UNL A   1      41.100  26.010  27.715  1.00  0.00     0.031 A 
ATOM     35  C   UNL A   1      40.417  27.102  28.486  1.00  0.00     0.074 A 
ATOM     36  C   UNL A   1      42.356  26.190  27.262  1.00  0.00     0.049 A 
ATOM     37  N   UNL A   1      40.880  28.274  28.837  1.00  0.00    -0.248 NA
ATOM     38  C   UNL A   1      39.026  26.857  28.899  1.00  0.00     0.031 C 
ATOM     39  C   UNL A   1      43.103  25.227  26.449  1.00  0.00     0.029 A 
ATOM     40  N   UNL A   1      43.219  27.247  27.400  1.00  0.00    -0.354 N 
ATOM     41  C   UNL A   1      39.837  28.914  29.494  1.00  0.00     0.074 A 
ATOM     42  C   UNL A   1      38.702  28.017  29.454  1.00  0.00     0.031 C 
ATOM     43  C   UNL A   1      44.315  25.729  26.178  1.00  0.00     0.029 A 
ATOM     44  C   UNL A   1      44.420  27.064  26.758  1.00  0.00     0.049 A 
ATOM     45  H   UNL A   1      42.998  28.060  27.909  1.00  0.00     0.167 HD
ATOM     46  C   UNL A   1      39.833  30.128  30.095  1.00  0.00     0.034 A 
ATOM     47  C   UNL A   1      45.490  27.876  26.643  1.00  0.00     0.034 A 
ATOM     48  C   UNL A   1      40.969  31.011  30.135  1.00  0.00     0.049 A 
ATOM     49  C   UNL A   1      45.467  29.216  27.320  1.00  0.00     0.074 A 
ATOM     50  C   UNL A   1      41.079  32.241  30.761  1.00  0.00     0.029 A 
ATOM     51  N   UNL A   1      42.186  30.769  29.516  1.00  0.00    -0.354 N 
ATOM     52  N   UNL A   1      44.509  29.763  28.028  1.00  0.00    -0.248 NA
ATOM     53  C   UNL A   1      46.681  30.036  27.215  1.00  0.00     0.031 C 
ATOM     54  C   UNL A   1      42.352  32.756  30.491  1.00  0.00     0.029 A 
ATOM     55  C   UNL A   1      43.052  31.826  29.740  1.00  0.00     0.049 A 
ATOM     56  H   UNL A   1      42.403  29.963  28.994  1.00  0.00     0.167 HD
ATOM     57  C   UNL A   1      45.017  30.970  28.491  1.00  0.00     0.074 A 
ATOM     58  C   UNL A   1      46.370  31.073  27.984  1.00  0.00     0.031 C 
ATOM     59  C   UNL A   1      44.414  31.904  29.266  1.00  0.00     0.034 A 
BRANCH  46  60
ATOM     60  C   UNL A   1      38.568  30.553  30.801  1.00  0.00     0.023 A 
ATOM     61  C   UNL A   1      38.402  30.258  32.171  1.00  0.00     0.012 A 
ATOM     62  C   UNL A   1      37.571  31.291  30.133  1.00  0.00     0.148 A 
ATOM     63  C   UNL A   1      37.250  30.651  32.852  1.00  0.00     0.002 A 
ATOM     64  C   UNL A   1      36.449  31.724  30.831  1.00  0.00     0.091 A 
ATOM     65  F   UNL A   1      37.731  31.546  28.827  1.00  0.00    -0.205 F 
ATOM     66  C   UNL A   1      36.280  31.392  32.186  1.00  0.00     0.022 A 
BRANCH  64  67
ATOM     67  S   UNL A   1      35.187  32.765  30.086  1.00  0.00     0.127 S 
ATOM     68  O   UNL A   1      34.675  31.896  29.028  1.00  0.00    -0.237 OA
ATOM     69  O   UNL A   1      34.264  32.977  31.201  1.00  0.00    -0.237 OA
ATOM     70  O   UNL A   1      35.875  33.965  29.632  1.00  0.00    -0.744 OA
ENDBRANCH  64  67
ENDBRANCH  46  60
BRANCH  47  71
ATOM     71  C   UNL A   1      46.699  27.377  25.930  1.00  0.00     0.023 A 
ATOM     72  C   UNL A   1      46.887  27.719  24.578  1.00  0.00     0.012 A 
ATOM     73  C   UNL A   1      47.710  26.671  26.611  1.00  0.00     0.148 A 
ATOM     74  C   UNL A   1      48.062  27.365  23.914  1.00  0.00     0.002 A 
ATOM     75  C   UNL A   1      48.901  26.373  25.961  1.00  0.00     0.091 A 
ATOM     76  F   UNL A   1      47.505  26.358  27.900  1.00  0.00    -0.205 F 
ATOM     77  C   UNL A   1      49.073  26.706  24.608  1.00  0.00     0.022 A 
BRANCH  75  78
ATOM     78  S   UNL A   1      50.315  25.660  26.809  1.00  0.00     0.127 S 
ATOM     79  O   UNL A   1      51.281  25.525  25.721  1.00  0.00    -0.237 OA
ATOM     80  O   UNL A   1      50.629  26.703  27.787  1.00  0.00    -0.237 OA
ATOM     81  O   UNL A   1      49.846  24.409  27.386  1.00  0.00    -0.744 OA
ENDBRANCH  75  78
ENDBRANCH  47  71
BRANCH  59  82
ATOM     82  C   UNL A   1      45.215  33.116  29.670  1.00  0.00     0.023 A 
ATOM     83  C   UNL A   1      46.015  33.084  30.829  1.00  0.00     0.012 A 
ATOM     84  C   UNL A   1      45.251  34.253  28.837  1.00  0.00     0.148 A 
ATOM     85  C   UNL A   1      46.819  34.174  31.164  1.00  0.00     0.002 A 
ATOM     86  C   UNL A   1      46.094  35.312  29.148  1.00  0.00     0.091 A 
ATOM     87  F   UNL A   1      44.466  34.273  27.750  1.00  0.00    -0.205 F 
ATOM     88  C   UNL A   1      46.869  35.280  30.319  1.00  0.00     0.022 A 
BRANCH  86  89
ATOM     89  S   UNL A   1      46.308  36.726  28.061  1.00  0.00     0.127 S 
ATOM     90  O   UNL A   1      46.696  36.081  26.807  1.00  0.00    -0.237 OA
ATOM     91  O   UNL A   1      44.970  37.317  28.055  1.00  0.00    -0.237 OA
ATOM     92  O   UNL A   1      47.333  37.557  28.678  1.00  0.00    -0.744 OA
ENDBRANCH  86  89
ENDBRANCH  59  82
ENDBRANCH  33  34
ENDBRANCH  25  28
ENDBRANCH  23  24
ENDBRANCH  22  23
ENDBRANCH   1  22
TORSDOF 20
ENDMDL
MODEL 2
REMARK VINA RESULT:     -10.7      0.855      7.852
REMARK SMILES C/C=C/C[C@H](Cc1cccc(F)c1)C(=O)NCCCCCCNC(=O)c1ccc(-c2c3nc(c(-c4cccc(S(=O)(=O)[O-])c4F)c4ccc([nH]4)c(-c4cccc(S(=O)(=O)[O-])c4F)c4nc(c(-c5cccc(S(=O)(=O)[O-])c5F)c5ccc2[nH]5)C=C4)C=C3)cc1
REMARK SMILES IDX 20 1 19 2 18 3 17 4 16 5 14 6 15 7 5 9 4 10 3 11 1 12 2 13
REMARK SMILES IDX 6 14 7 15 8 16 13 17 9 18 11 19 10 20 12 21 21 22 22 23
REMARK SMILES IDX 23 24 24 25 25 27 26 28 27 29 88 30 28 31 87 32 29 33 30 34
REMARK SMILES IDX 31 35 81 36 32 37 86 38 80 39 82 40 33 41 85 42 79 43 78 44
REMARK SMILES IDX 34 46 66 47 46 48 65 49 47 50 50 51 64 52 83 53 48 54 49 55
REMARK SMILES IDX 63 57 84 58 51 59 35 60 36 61 44 62 37 63 39 64 45 65 38 66
REMARK SMILES IDX 40 67 41 68 42 69 43 70 67 71 68 72 76 73 69 74 71 75 77 76
REMARK SMILES IDX 70 77 72 78 73 79 74 80 75 81 52 82 53 83 61 84 54 85 56 86
REMARK SMILES IDX 62 87 55 88 57 89 58 90 59 91 60 92
REMARK H PARENT 16 8 23 26 82 45 50 56
REMARK Flexibility Score: inf
ROOT
ATOM      1  C   UNL A   1      34.826  20.788  24.675  1.00  0.00     0.002 C 
ENDROOT
BRANCH   1   2
ATOM      2  C   UNL A   1      34.088  21.849  23.850  1.00  0.00     0.002 C 
BRANCH   2   3
ATOM      3  C   UNL A   1      32.570  21.684  23.745  1.00  0.00     0.021 C 
BRANCH   3   4
ATOM      4  C   UNL A   1      31.907  22.561  22.694  1.00  0.00     0.116 C 
BRANCH   4   5
ATOM      5  N   UNL A   1      32.806  23.537  22.114  1.00  0.00    -0.356 N 
ATOM      6  C   UNL A   1      32.832  24.889  22.246  1.00  0.00     0.223 C 
ATOM      7  O   UNL A   1      33.825  25.483  21.809  1.00  0.00    -0.275 OA
ATOM      8  H   UNL A   1      33.506  23.163  21.531  1.00  0.00     0.163 HD
BRANCH   6   9
ATOM      9  C   UNL A   1      31.699  25.683  22.893  1.00  0.00     0.086 C 
BRANCH   9  10
ATOM     10  C   UNL A   1      31.276  26.892  22.010  1.00  0.00     0.040 C 
BRANCH  10  11
ATOM     11  C   UNL A   1      30.942  28.166  22.744  1.00  0.00    -0.031 C 
ATOM     12  C   UNL A   1      29.364  30.056  23.269  1.00  0.00     0.035 C 
ATOM     13  C   UNL A   1      29.705  28.694  22.755  1.00  0.00    -0.035 C 
ENDBRANCH  10  11
ENDBRANCH   9  10
BRANCH   9  14
ATOM     14  C   UNL A   1      31.813  26.016  24.399  1.00  0.00     0.049 C 
BRANCH  14  15
ATOM     15  C   UNL A   1      31.832  24.913  25.448  1.00  0.00    -0.044 A 
ATOM     16  C   UNL A   1      30.707  24.179  25.854  1.00  0.00     0.004 A 
ATOM     17  C   UNL A   1      33.062  24.596  26.049  1.00  0.00     0.043 A 
ATOM     18  C   UNL A   1      30.822  23.092  26.728  1.00  0.00     0.003 A 
ATOM     19  C   UNL A   1      33.161  23.540  26.953  1.00  0.00     0.123 A 
ATOM     20  C   UNL A   1      32.056  22.766  27.277  1.00  0.00     0.039 A 
ATOM     21  F   UNL A   1      34.345  23.258  27.514  1.00  0.00    -0.207 F 
ENDBRANCH  14  15
ENDBRANCH   9  14
ENDBRANCH   6   9
ENDBRANCH   4   5
ENDBRANCH   3   4
ENDBRANCH   2   3
ENDBRANCH   1   2
BRANCH   1  22
ATOM     22  C   UNL A   1      35.910  21.304  25.623  1.00  0.00     0.021 C 
BRANCH  22  23
ATOM     23  C   UNL A   1      37.285  21.494  24.997  1.00  0.00     0.116 C 
BRANCH  23  24
ATOM     24  N   UNL A   1      38.242  20.498  25.449  1.00  0.00    -0.352 N 
ATOM     25  C   UNL A   1      39.438  20.669  26.099  1.00  0.00     0.251 C 
ATOM     26  H   UNL A   1      37.996  19.563  25.262  1.00  0.00     0.163 HD
ATOM     27  O   UNL A   1      40.197  19.713  26.247  1.00  0.00    -0.269 OA
BRANCH  25  28
ATOM     28  C   UNL A   1      39.823  22.006  26.597  1.00  0.00     0.039 A 
ATOM     29  C   UNL A   1      40.827  22.100  27.563  1.00  0.00     0.014 A 
ATOM     30  C   UNL A   1      39.211  23.162  26.104  1.00  0.00     0.014 A 
ATOM     31  C   UNL A   1      41.273  23.356  27.978  1.00  0.00     0.010 A 
ATOM     32  C   UNL A   1      39.706  24.413  26.462  1.00  0.00     0.010 A 
ATOM     33  C   UNL A   1      40.748  24.522  27.394  1.00  0.00    -0.014 A 
BRANCH  33  34
ATOM     34  C   UNL A   1      41.327  25.857  27.690  1.00  0.00     0.031 A 
ATOM     35  C   UNL A   1      42.747  26.179  27.327  1.00  0.00     0.074 A 
ATOM     36  C   UNL A   1      40.587  26.752  28.374  1.00  0.00     0.049 A 
ATOM     37  N   UNL A   1      43.428  27.271  27.561  1.00  0.00    -0.248 NA
ATOM     38  C   UNL A   1      43.511  25.132  26.631  1.00  0.00     0.031 C 
ATOM     39  C   UNL A   1      39.216  26.530  28.839  1.00  0.00     0.029 A 
ATOM     40  N   UNL A   1      40.888  28.015  28.818  1.00  0.00    -0.354 N 
ATOM     41  C   UNL A   1      44.703  27.040  27.059  1.00  0.00     0.074 A 
ATOM     42  C   UNL A   1      44.713  25.686  26.547  1.00  0.00     0.031 C 
ATOM     43  C   UNL A   1      38.788  27.625  29.482  1.00  0.00     0.029 A 
ATOM     44  C   UNL A   1      39.864  28.610  29.516  1.00  0.00     0.049 A 
ATOM     45  H   UNL A   1      41.754  28.453  28.652  1.00  0.00     0.167 HD
ATOM     46  C   UNL A   1      45.759  27.886  27.007  1.00  0.00     0.034 A 
ATOM     47  C   UNL A   1      39.794  29.812  30.121  1.00  0.00     0.034 A 
ATOM     48  C   UNL A   1      45.737  29.233  27.513  1.00  0.00     0.049 A 
ATOM     49  C   UNL A   1      40.975  30.737  30.050  1.00  0.00     0.074 A 
ATOM     50  C   UNL A   1      46.741  30.185  27.464  1.00  0.00     0.029 A 
ATOM     51  N   UNL A   1      44.665  29.819  28.169  1.00  0.00    -0.354 N 
ATOM     52  N   UNL A   1      42.138  30.542  29.479  1.00  0.00    -0.248 NA
ATOM     53  C   UNL A   1      40.824  32.059  30.673  1.00  0.00     0.031 C 
ATOM     54  C   UNL A   1      46.287  31.333  28.122  1.00  0.00     0.029 A 
ATOM     55  C   UNL A   1      44.982  31.116  28.536  1.00  0.00     0.049 A 
ATOM     56  H   UNL A   1      43.804  29.377  28.348  1.00  0.00     0.167 HD
ATOM     57  C   UNL A   1      42.844  31.729  29.632  1.00  0.00     0.074 A 
ATOM     58  C   UNL A   1      41.974  32.639  30.350  1.00  0.00     0.031 C 
ATOM     59  C   UNL A   1      44.097  32.032  29.214  1.00  0.00     0.034 A 
BRANCH  46  60
ATOM     60  C   UNL A   1      47.019  27.390  26.339  1.00  0.00     0.023 A 
ATOM     61  C   UNL A   1      47.231  27.656  24.969  1.00  0.00     0.012 A 
ATOM     62  C   UNL A   1      48.017  26.715  27.069  1.00  0.00     0.148 A 
ATOM     63  C   UNL A   1      48.391  27.221  24.329  1.00  0.00     0.002 A 
ATOM     64  C   UNL A   1      49.194  26.331  26.437  1.00  0.00     0.091 A 
ATOM     65  F   UNL A   1      47.794  26.450  28.364  1.00  0.00    -0.205 F 
ATOM     66  C   UNL A   1      49.377  26.570  25.064  1.00  0.00     0.022 A 
BRANCH  64  67
ATOM     67  S   UNL A   1      50.563  25.570  27.317  1.00  0.00     0.127 S 
ATOM     68  O   UNL A   1      50.753  26.501  28.428  1.00  0.00    -0.237 OA
ATOM     69  O   UNL A   1      50.002  24.273  27.698  1.00  0.00    -0.237 OA
ATOM     70  O   UNL A   1      51.662  25.499  26.364  1.00  0.00    -0.744 OA
ENDBRANCH  64  67
ENDBRANCH  46  60
BRANCH  47  71
ATOM     71  C   UNL A   1      38.512  30.224  30.757  1.00  0.00     0.023 A 
ATOM     72  C   UNL A   1      38.325  29.998  32.134  1.00  0.00     0.012 A 
ATOM     73  C   UNL A   1      37.534  30.938  30.037  1.00  0.00     0.148 A 
ATOM     74  C   UNL A   1      37.186  30.474  32.783  1.00  0.00     0.002 A 
ATOM     75  C   UNL A   1      36.431  31.458  30.701  1.00  0.00     0.091 A 
ATOM     76  F   UNL A   1      37.736  31.140  28.726  1.00  0.00    -0.205 F 
ATOM     77  C   UNL A   1      36.247  31.214  32.071  1.00  0.00     0.022 A 
BRANCH  75  78
ATOM     78  S   UNL A   1      35.246  32.548  29.903  1.00  0.00     0.127 S 
ATOM     79  O   UNL A   1      34.683  31.678  28.873  1.00  0.00    -0.237 OA
ATOM     80  O   UNL A   1      34.341  32.860  31.010  1.00  0.00    -0.237 OA
ATOM     81  O   UNL A   1      36.015  33.681  29.410  1.00  0.00    -0.744 OA
ENDBRANCH  75  78
ENDBRANCH  47  71
BRANCH  59  82
ATOM     82  C   UNL A   1      44.612  33.426  29.471  1.00  0.00     0.023 A 
ATOM     83  C   UNL A   1      45.272  33.729  30.678  1.00  0.00     0.012 A 
ATOM     84  C   UNL A   1      44.528  34.410  28.464  1.00  0.00     0.148 A 
ATOM     85  C   UNL A   1      45.818  34.995  30.887  1.00  0.00     0.002 A 
ATOM     86  C   UNL A   1      45.121  35.651  28.658  1.00  0.00     0.091 A 
ATOM     87  F   UNL A   1      43.876  34.110  27.331  1.00  0.00    -0.205 F 
ATOM     88  C   UNL A   1      45.755  35.950  29.875  1.00  0.00     0.022 A 
BRANCH  86  89
ATOM     89  S   UNL A   1      45.187  36.900  27.369  1.00  0.00     0.127 S 
ATOM     90  O   UNL A   1      43.768  37.107  27.082  1.00  0.00    -0.237 OA
ATOM     91  O   UNL A   1      45.841  38.016  28.053  1.00  0.00    -0.237 OA
ATOM     92  O   UNL A   1      45.964  36.317  26.283  1.00  0.00    -0.744 OA
ENDBRANCH  86  89
ENDBRANCH  59  82
ENDBRANCH  33  34
ENDBRANCH  25  28
ENDBRANCH  23  24
ENDBRANCH  22  23
ENDBRANCH   1  22
TORSDOF 20
ENDMDL
MODEL 3
REMARK VINA RESULT:     -10.7      5.244      8.380
REMARK SMILES C/C=C/C[C@H](Cc1cccc(F)c1)C(=O)NCCCCCCNC(=O)c1ccc(-c2c3nc(c(-c4cccc(S(=O)(=O)[O-])c4F)c4ccc([nH]4)c(-c4cccc(S(=O)(=O)[O-])c4F)c4nc(c(-c5cccc(S(=O)(=O)[O-])c5F)c5ccc2[nH]5)C=C4)C=C3)cc1
REMARK SMILES IDX 20 1 19 2 18 3 17 4 16 5 14 6 15 7 5 9 4 10 3 11 1 12 2 13
REMARK SMILES IDX 6 14 7 15 8 16 13 17 9 18 11 19 10 20 12 21 21 22 22 23
REMARK SMILES IDX 23 24 24 25 25 27 26 28 27 29 88 30 28 31 87 32 29 33 30 34
REMARK SMILES IDX 31 35 81 36 32 37 86 38 80 39 82 40 33 41 85 42 79 43 78 44
REMARK SMILES IDX 34 46 66 47 46 48 65 49 47 50 50 51 64 52 83 53 48 54 49 55
REMARK SMILES IDX 63 57 84 58 51 59 35 60 36 61 44 62 37 63 39 64 45 65 38 66
REMARK SMILES IDX 40 67 41 68 42 69 43 70 67 71 68 72 76 73 69 74 71 75 77 76
REMARK SMILES IDX 70 77 72 78 73 79 74 80 75 81 52 82 53 83 61 84 54 85 56 86
REMARK SMILES IDX 62 87 55 88 57 89 58 90 59 91 60 92
REMARK H PARENT 16 8 23 26 82 45 50 56
REMARK Flexibility Score: inf
ROOT
ATOM      1  C   UNL A   1      31.420  30.398  26.784  1.00  0.00     0.002 C 
ENDROOT
BRANCH   1   2
ATOM      2  C   UNL A   1      32.804  29.872  27.181  1.00  0.00     0.002 C 
BRANCH   2   3
ATOM      3  C   UNL A   1      33.592  29.156  26.081  1.00  0.00     0.021 C 
BRANCH   3   4
ATOM      4  C   UNL A   1      33.886  27.690  26.360  1.00  0.00     0.116 C 
BRANCH   4   5
ATOM      5  N   UNL A   1      33.773  26.850  25.185  1.00  0.00    -0.356 N 
ATOM      6  C   UNL A   1      32.770  26.753  24.274  1.00  0.00     0.223 C 
ATOM      7  O   UNL A   1      32.998  26.105  23.246  1.00  0.00    -0.275 OA
ATOM      8  H   UNL A   1      34.541  26.257  25.023  1.00  0.00     0.163 HD
BRANCH   6   9
ATOM      9  C   UNL A   1      31.397  27.392  24.477  1.00  0.00     0.086 C 
BRANCH   9  10
ATOM     10  C   UNL A   1      30.626  26.723  25.651  1.00  0.00     0.040 C 
BRANCH  10  11
ATOM     11  C   UNL A   1      30.288  25.264  25.476  1.00  0.00    -0.031 C 
ATOM     12  C   UNL A   1      30.770  22.827  25.886  1.00  0.00     0.035 C 
ATOM     13  C   UNL A   1      30.899  24.289  26.173  1.00  0.00    -0.035 C 
ENDBRANCH  10  11
ENDBRANCH   9  10
BRANCH   9  14
ATOM     14  C   UNL A   1      30.528  27.656  23.225  1.00  0.00     0.049 C 
BRANCH  14  15
ATOM     15  C   UNL A   1      29.457  28.738  23.226  1.00  0.00    -0.044 A 
ATOM     16  C   UNL A   1      28.097  28.516  22.964  1.00  0.00     0.004 A 
ATOM     17  C   UNL A   1      29.852  30.056  23.520  1.00  0.00     0.043 A 
ATOM     18  C   UNL A   1      27.149  29.536  23.112  1.00  0.00     0.003 A 
ATOM     19  C   UNL A   1      28.908  31.076  23.620  1.00  0.00     0.123 A 
ATOM     20  C   UNL A   1      27.555  30.822  23.446  1.00  0.00     0.039 A 
ATOM     21  F   UNL A   1      29.310  32.323  23.899  1.00  0.00    -0.207 F 
ENDBRANCH  14  15
ENDBRANCH   9  14
ENDBRANCH   6   9
ENDBRANCH   4   5
ENDBRANCH   3   4
ENDBRANCH   2   3
ENDBRANCH   1   2
BRANCH   1  22
ATOM     22  C   UNL A   1      31.292  31.916  26.638  1.00  0.00     0.021 C 
BRANCH  22  23
ATOM     23  C   UNL A   1      32.603  32.688  26.697  1.00  0.00     0.116 C 
BRANCH  23  24
ATOM     24  N   UNL A   1      32.502  33.890  27.509  1.00  0.00    -0.352 N 
ATOM     25  C   UNL A   1      33.234  34.265  28.607  1.00  0.00     0.251 C 
ATOM     26  H   UNL A   1      31.806  34.528  27.231  1.00  0.00     0.163 HD
ATOM     27  O   UNL A   1      32.887  35.241  29.270  1.00  0.00    -0.269 OA
BRANCH  25  28
ATOM     28  C   UNL A   1      34.423  33.482  29.005  1.00  0.00     0.039 A 
ATOM     29  C   UNL A   1      35.687  34.057  28.856  1.00  0.00     0.014 A 
ATOM     30  C   UNL A   1      34.293  32.196  29.537  1.00  0.00     0.014 A 
ATOM     31  C   UNL A   1      36.815  33.374  29.314  1.00  0.00     0.010 A 
ATOM     32  C   UNL A   1      35.409  31.549  30.060  1.00  0.00     0.010 A 
ATOM     33  C   UNL A   1      36.678  32.135  29.963  1.00  0.00    -0.014 A 
BRANCH  33  34
ATOM     34  C   UNL A   1      37.840  31.476  30.611  1.00  0.00     0.031 A 
ATOM     35  C   UNL A   1      38.227  31.808  32.023  1.00  0.00     0.074 A 
ATOM     36  C   UNL A   1      38.603  30.637  29.884  1.00  0.00     0.049 A 
ATOM     37  N   UNL A   1      39.241  31.369  32.723  1.00  0.00    -0.248 NA
ATOM     38  C   UNL A   1      37.378  32.776  32.736  1.00  0.00     0.031 C 
ATOM     39  C   UNL A   1      38.366  30.285  28.483  1.00  0.00     0.029 A 
ATOM     40  N   UNL A   1      39.742  29.945  30.212  1.00  0.00    -0.354 N 
ATOM     41  C   UNL A   1      39.166  32.018  33.950  1.00  0.00     0.074 A 
ATOM     42  C   UNL A   1      38.031  32.913  33.882  1.00  0.00     0.031 C 
ATOM     43  C   UNL A   1      39.315  29.430  28.078  1.00  0.00     0.029 A 
ATOM     44  C   UNL A   1      40.254  29.205  29.173  1.00  0.00     0.049 A 
ATOM     45  H   UNL A   1      40.154  29.977  31.105  1.00  0.00     0.167 HD
ATOM     46  C   UNL A   1      39.955  31.863  35.039  1.00  0.00     0.034 A 
ATOM     47  C   UNL A   1      41.355  28.432  29.101  1.00  0.00     0.034 A 
ATOM     48  C   UNL A   1      41.078  30.964  35.099  1.00  0.00     0.049 A 
ATOM     49  C   UNL A   1      42.216  28.270  30.321  1.00  0.00     0.074 A 
ATOM     50  C   UNL A   1      41.910  30.700  36.173  1.00  0.00     0.029 A 
ATOM     51  N   UNL A   1      41.536  30.193  34.041  1.00  0.00    -0.354 N 
ATOM     52  N   UNL A   1      42.070  28.809  31.507  1.00  0.00    -0.248 NA
ATOM     53  C   UNL A   1      43.370  27.368  30.207  1.00  0.00     0.031 C 
ATOM     54  C   UNL A   1      42.891  29.795  35.754  1.00  0.00     0.029 A 
ATOM     55  C   UNL A   1      42.641  29.455  34.434  1.00  0.00     0.049 A 
ATOM     56  H   UNL A   1      41.134  30.171  33.143  1.00  0.00     0.167 HD
ATOM     57  C   UNL A   1      43.084  28.280  32.296  1.00  0.00     0.074 A 
ATOM     58  C   UNL A   1      43.837  27.375  31.450  1.00  0.00     0.031 C 
ATOM     59  C   UNL A   1      43.362  28.524  33.599  1.00  0.00     0.034 A 
BRANCH  46  60
ATOM     60  C   UNL A   1      39.602  32.654  36.276  1.00  0.00     0.023 A 
ATOM     61  C   UNL A   1      40.199  33.914  36.490  1.00  0.00     0.012 A 
ATOM     62  C   UNL A   1      38.642  32.185  37.194  1.00  0.00     0.148 A 
ATOM     63  C   UNL A   1      39.882  34.673  37.616  1.00  0.00     0.002 A 
ATOM     64  C   UNL A   1      38.291  32.970  38.287  1.00  0.00     0.091 A 
ATOM     65  F   UNL A   1      38.097  30.977  36.990  1.00  0.00    -0.205 F 
ATOM     66  C   UNL A   1      38.921  34.207  38.507  1.00  0.00     0.022 A 
BRANCH  64  67
ATOM     67  S   UNL A   1      36.998  32.500  39.442  1.00  0.00     0.127 S 
ATOM     68  O   UNL A   1      35.812  32.533  38.586  1.00  0.00    -0.237 OA
ATOM     69  O   UNL A   1      37.418  31.159  39.848  1.00  0.00    -0.237 OA
ATOM     70  O   UNL A   1      37.030  33.494  40.505  1.00  0.00    -0.744 OA
ENDBRANCH  64  67
ENDBRANCH  46  60
BRANCH  47  71
ATOM     71  C   UNL A   1      41.630  27.684  27.843  1.00  0.00     0.023 A 
ATOM     72  C   UNL A   1      42.201  28.365  26.751  1.00  0.00     0.012 A 
ATOM     73  C   UNL A   1      41.438  26.291  27.763  1.00  0.00     0.148 A 
ATOM     74  C   UNL A   1      42.576  27.672  25.600  1.00  0.00     0.002 A 
ATOM     75  C   UNL A   1      41.866  25.599  26.637  1.00  0.00     0.091 A 
ATOM     76  F   UNL A   1      40.892  25.666  28.817  1.00  0.00    -0.205 F 
ATOM     77  C   UNL A   1      42.422  26.290  25.549  1.00  0.00     0.022 A 
BRANCH  75  78
ATOM     78  S   UNL A   1      41.847  23.805  26.538  1.00  0.00     0.127 S 
ATOM     79  O   UNL A   1      42.453  23.570  25.229  1.00  0.00    -0.237 OA
ATOM     80  O   UNL A   1      42.683  23.437  27.680  1.00  0.00    -0.237 OA
ATOM     81  O   UNL A   1      40.449  23.414  26.657  1.00  0.00    -0.744 OA
ENDBRANCH  75  78
ENDBRANCH  47  71
BRANCH  59  82
ATOM     82  C   UNL A   1      44.504  27.771  34.234  1.00  0.00     0.023 A 
ATOM     83  C   UNL A   1      45.811  28.295  34.191  1.00  0.00     0.012 A 
ATOM     84  C   UNL A   1      44.258  26.590  34.962  1.00  0.00     0.148 A 
ATOM     85  C   UNL A   1      46.857  27.642  34.843  1.00  0.00     0.002 A 
ATOM     86  C   UNL A   1      45.293  25.974  35.654  1.00  0.00     0.091 A 
ATOM     87  F   UNL A   1      43.011  26.095  34.973  1.00  0.00    -0.205 F 
ATOM     88  C   UNL A   1      46.597  26.492  35.585  1.00  0.00     0.022 A 
BRANCH  86  89
ATOM     89  S   UNL A   1      45.029  24.556  36.724  1.00  0.00     0.127 S 
ATOM     90  O   UNL A   1      46.284  24.510  37.472  1.00  0.00    -0.237 OA
ATOM     91  O   UNL A   1      43.866  24.972  37.508  1.00  0.00    -0.237 OA
ATOM     92  O   UNL A   1      44.788  23.424  35.839  1.00  0.00    -0.744 OA
ENDBRANCH  86  89
ENDBRANCH  59  82
ENDBRANCH  33  34
ENDBRANCH  25  28
ENDBRANCH  23  24
ENDBRANCH  22  23
ENDBRANCH   1  22
TORSDOF 20
ENDMDL
