MODEL 1
REMARK VINA RESULT:     -11.7      0.000      0.000
REMARK SMILES CC[C@@H](Sc1nnc2ccc3ccccc3n12)C(=O)Nc1cccc(C(=O)NCCCCCCNC(=O)c2ccc(-c3c4nc(c(-c5cccc(S(=O)(=O)[O-])c5F)c5ccc([nH]5)c(-c5cccc(S(=O)(=O)[O-])c5F)c5nc(c(-c6cccc(S(=O)(=O)[O-])c6F)c6ccc3[nH]6)C=C5)C=C4)cc2)c1
REMARK SMILES IDX 31 1 30 2 29 3 28 4 26 5 27 6 25 8 21 9 22 10 101 11 23 12
REMARK SMILES IDX 24 13 20 14 18 15 19 16 3 18 2 19 1 20 4 21 5 22 6 23 17 24
REMARK SMILES IDX 7 25 8 26 16 27 9 28 11 29 15 30 10 31 12 32 14 33 13 34
REMARK SMILES IDX 32 35 33 36 34 37 35 38 36 39 37 41 38 42 39 43 100 44 40 45
REMARK SMILES IDX 99 46 41 47 42 48 43 49 93 50 44 51 98 52 92 53 94 54 45 55
REMARK SMILES IDX 97 56 91 57 90 58 46 60 78 61 58 62 77 63 59 64 62 65 76 66
REMARK SMILES IDX 95 67 60 68 61 69 75 71 96 72 63 73 47 74 48 75 56 76 49 77
REMARK SMILES IDX 51 78 57 79 50 80 52 81 53 82 54 83 55 84 79 85 80 86 88 87
REMARK SMILES IDX 81 88 83 89 89 90 82 91 84 92 85 93 86 94 87 95 64 96 65 97
REMARK SMILES IDX 73 98 66 99 68 100 74 101 67 102 69 103 70 104 71 105 72 106
REMARK H PARENT 28 7 20 17 35 40 94 59 62 70
REMARK Flexibility Score: inf
ROOT
ATOM      1  C   UNL A   1      33.277  28.906  26.263  1.00  0.00     0.002 C 
ENDROOT
BRANCH   1   2
ATOM      2  C   UNL A   1      33.808  29.573  25.001  1.00  0.00     0.021 C 
BRANCH   2   3
ATOM      3  C   UNL A   1      33.105  29.222  23.708  1.00  0.00     0.116 C 
BRANCH   3   4
ATOM      4  N   UNL A   1      31.730  29.655  23.638  1.00  0.00    -0.352 N 
ATOM      5  C   UNL A   1      30.565  28.947  23.484  1.00  0.00     0.251 C 
ATOM      6  O   UNL A   1      29.516  29.592  23.433  1.00  0.00    -0.269 OA
ATOM      7  H   UNL A   1      31.607  30.630  23.715  1.00  0.00     0.163 HD
BRANCH   5   8
ATOM      8  C   UNL A   1      30.510  27.460  23.308  1.00  0.00     0.041 A 
ATOM      9  C   UNL A   1      30.192  25.208  24.145  1.00  0.00     0.041 A 
ATOM     10  C   UNL A   1      30.778  24.681  23.009  1.00  0.00     0.026 A 
ATOM     11  C   UNL A   1      29.886  26.567  24.184  1.00  0.00     0.040 A 
ATOM     12  C   UNL A   1      31.253  25.545  22.018  1.00  0.00     0.003 A 
ATOM     13  C   UNL A   1      31.196  26.925  22.212  1.00  0.00     0.014 A 
BRANCH   9  14
ATOM     14  N   UNL A   1      29.930  24.451  25.299  1.00  0.00    -0.325 N 
ATOM     15  C   UNL A   1      30.817  24.014  26.261  1.00  0.00     0.237 C 
ATOM     16  O   UNL A   1      30.304  23.654  27.334  1.00  0.00    -0.273 OA
ATOM     17  H   UNL A   1      28.989  24.201  25.441  1.00  0.00     0.169 HD
BRANCH  15  18
ATOM     18  C   UNL A   1      32.354  23.847  26.091  1.00  0.00     0.144 C 
BRANCH  18  19
ATOM     19  C   UNL A   1      32.971  25.254  26.163  1.00  0.00     0.021 C 
ATOM     20  C   UNL A   1      34.010  25.591  25.103  1.00  0.00     0.005 C 
ENDBRANCH  18  19
BRANCH  18  21
ATOM     21  S   UNL A   1      32.975  22.486  27.157  1.00  0.00    -0.072 SA
BRANCH  21  22
ATOM     22  C   UNL A   1      34.615  22.151  26.710  1.00  0.00     0.196 A 
ATOM     23  N   UNL A   1      35.596  22.996  26.955  1.00  0.00    -0.122 NA
ATOM     24  N   UNL A   1      35.081  21.125  25.895  1.00  0.00    -0.270 N 
ATOM     25  N   UNL A   1      36.719  22.564  26.292  1.00  0.00    -0.129 NA
ATOM     26  C   UNL A   1      36.410  21.456  25.653  1.00  0.00     0.161 A 
ATOM     27  C   UNL A   1      34.520  19.903  25.431  1.00  0.00     0.057 A 
ATOM     28  C   UNL A   1      37.206  20.608  24.840  1.00  0.00     0.050 A 
ATOM     29  C   UNL A   1      35.365  19.015  24.750  1.00  0.00    -0.001 A 
ATOM     30  C   UNL A   1      33.220  19.514  25.700  1.00  0.00     0.027 A 
ATOM     31  C   UNL A   1      36.727  19.433  24.405  1.00  0.00     0.014 A 
ATOM     32  C   UNL A   1      34.901  17.733  24.420  1.00  0.00     0.010 A 
ATOM     33  C   UNL A   1      32.765  18.231  25.403  1.00  0.00     0.002 A 
ATOM     34  C   UNL A   1      33.609  17.335  24.769  1.00  0.00     0.001 A 
ENDBRANCH  21  22
ENDBRANCH  18  21
ENDBRANCH  15  18
ENDBRANCH   9  14
ENDBRANCH   5   8
ENDBRANCH   3   4
ENDBRANCH   2   3
ENDBRANCH   1   2
BRANCH   1  35
ATOM     35  C   UNL A   1      32.620  29.825  27.296  1.00  0.00     0.002 C 
BRANCH  35  36
ATOM     36  C   UNL A   1      33.175  31.250  27.392  1.00  0.00     0.021 C 
BRANCH  36  37
ATOM     37  C   UNL A   1      34.626  31.360  27.861  1.00  0.00     0.116 C 
BRANCH  37  38
ATOM     38  N   UNL A   1      34.789  31.645  29.267  1.00  0.00    -0.352 N 
ATOM     39  C   UNL A   1      35.830  31.556  30.144  1.00  0.00     0.251 C 
ATOM     40  H   UNL A   1      33.963  31.977  29.687  1.00  0.00     0.163 HD
ATOM     41  O   UNL A   1      35.639  32.016  31.271  1.00  0.00    -0.269 OA
BRANCH  39  42
ATOM     42  C   UNL A   1      37.103  30.857  29.845  1.00  0.00     0.039 A 
ATOM     43  C   UNL A   1      37.239  29.478  29.682  1.00  0.00     0.014 A 
ATOM     44  C   UNL A   1      38.249  31.669  29.809  1.00  0.00     0.014 A 
ATOM     45  C   UNL A   1      38.492  28.899  29.676  1.00  0.00     0.010 A 
ATOM     46  C   UNL A   1      39.507  31.099  29.751  1.00  0.00     0.010 A 
ATOM     47  C   UNL A   1      39.616  29.712  29.766  1.00  0.00    -0.014 A 
BRANCH  47  48
ATOM     48  C   UNL A   1      40.908  29.051  29.792  1.00  0.00     0.031 A 
ATOM     49  C   UNL A   1      41.387  28.689  31.155  1.00  0.00     0.074 A 
ATOM     50  C   UNL A   1      41.537  28.717  28.650  1.00  0.00     0.049 A 
ATOM     51  N   UNL A   1      42.479  29.055  31.748  1.00  0.00    -0.248 NA
ATOM     52  C   UNL A   1      40.459  27.936  32.016  1.00  0.00     0.031 C 
ATOM     53  C   UNL A   1      41.013  28.791  27.282  1.00  0.00     0.029 A 
ATOM     54  N   UNL A   1      42.720  28.067  28.489  1.00  0.00    -0.354 N 
ATOM     55  C   UNL A   1      42.468  28.401  32.979  1.00  0.00     0.074 A 
ATOM     56  C   UNL A   1      41.142  27.868  33.158  1.00  0.00     0.031 C 
ATOM     57  C   UNL A   1      41.721  27.950  26.499  1.00  0.00     0.029 A 
ATOM     58  C   UNL A   1      42.804  27.381  27.280  1.00  0.00     0.049 A 
ATOM     59  H   UNL A   1      43.442  28.079  29.159  1.00  0.00     0.167 HD
ATOM     60  C   UNL A   1      43.603  28.135  33.680  1.00  0.00     0.034 A 
ATOM     61  C   UNL A   1      43.610  26.320  27.025  1.00  0.00     0.034 A 
ATOM     62  C   UNL A   1      44.726  28.904  33.235  1.00  0.00     0.049 A 
ATOM     63  C   UNL A   1      44.699  26.359  28.037  1.00  0.00     0.074 A 
ATOM     64  C   UNL A   1      45.011  30.253  33.169  1.00  0.00     0.029 A 
ATOM     65  N   UNL A   1      45.618  28.284  32.394  1.00  0.00    -0.354 N 
ATOM     66  N   UNL A   1      45.577  27.321  28.121  1.00  0.00    -0.248 NA
ATOM     67  C   UNL A   1      44.536  25.551  29.236  1.00  0.00     0.031 C 
ATOM     68  C   UNL A   1      45.707  30.415  31.937  1.00  0.00     0.029 A 
ATOM     69  C   UNL A   1      45.851  29.152  31.359  1.00  0.00     0.049 A 
ATOM     70  H   UNL A   1      46.014  27.391  32.513  1.00  0.00     0.167 HD
ATOM     71  C   UNL A   1      45.748  27.516  29.486  1.00  0.00     0.074 A 
ATOM     72  C   UNL A   1      45.153  26.340  30.118  1.00  0.00     0.031 C 
ATOM     73  C   UNL A   1      46.086  28.736  29.995  1.00  0.00     0.034 A 
BRANCH  60  74
ATOM     74  C   UNL A   1      43.757  26.924  34.553  1.00  0.00     0.023 A 
ATOM     75  C   UNL A   1      43.234  25.693  34.114  1.00  0.00     0.012 A 
ATOM     76  C   UNL A   1      44.185  27.011  35.897  1.00  0.00     0.148 A 
ATOM     77  C   UNL A   1      43.159  24.592  34.974  1.00  0.00     0.002 A 
ATOM     78  C   UNL A   1      44.183  25.897  36.723  1.00  0.00     0.091 A 
ATOM     79  F   UNL A   1      44.481  28.210  36.416  1.00  0.00    -0.205 F 
ATOM     80  C   UNL A   1      43.652  24.687  36.273  1.00  0.00     0.022 A 
BRANCH  78  81
ATOM     81  S   UNL A   1      44.852  25.967  38.387  1.00  0.00     0.127 S 
ATOM     82  O   UNL A   1      46.122  26.661  38.160  1.00  0.00    -0.237 OA
ATOM     83  O   UNL A   1      43.834  26.761  39.084  1.00  0.00    -0.237 OA
ATOM     84  O   UNL A   1      44.940  24.591  38.829  1.00  0.00    -0.744 OA
ENDBRANCH  78  81
ENDBRANCH  60  74
BRANCH  61  85
ATOM     85  C   UNL A   1      43.296  25.092  26.244  1.00  0.00     0.023 A 
ATOM     86  C   UNL A   1      44.077  24.782  25.111  1.00  0.00     0.012 A 
ATOM     87  C   UNL A   1      42.430  24.087  26.735  1.00  0.00     0.148 A 
ATOM     88  C   UNL A   1      44.028  23.511  24.519  1.00  0.00     0.002 A 
ATOM     89  C   UNL A   1      42.363  22.836  26.127  1.00  0.00     0.091 A 
ATOM     90  F   UNL A   1      41.741  24.306  27.862  1.00  0.00    -0.205 F 
ATOM     91  C   UNL A   1      43.175  22.537  25.029  1.00  0.00     0.022 A 
BRANCH  89  92
ATOM     92  S   UNL A   1      41.265  21.547  26.737  1.00  0.00     0.127 S 
ATOM     93  O   UNL A   1      39.989  22.256  26.845  1.00  0.00    -0.237 OA
ATOM     94  O   UNL A   1      41.329  20.558  25.666  1.00  0.00    -0.237 OA
ATOM     95  O   UNL A   1      41.822  21.136  28.021  1.00  0.00    -0.744 OA
ENDBRANCH  89  92
ENDBRANCH  61  85
BRANCH  73  96
ATOM     96  C   UNL A   1      46.473  29.834  29.038  1.00  0.00     0.023 A 
ATOM     97  C   UNL A   1      47.791  29.973  28.555  1.00  0.00     0.012 A 
ATOM     98  C   UNL A   1      45.443  30.574  28.436  1.00  0.00     0.148 A 
ATOM     99  C   UNL A   1      48.074  30.832  27.490  1.00  0.00     0.002 A 
ATOM    100  C   UNL A   1      45.722  31.397  27.352  1.00  0.00     0.091 A 
ATOM    101  F   UNL A   1      44.196  30.411  28.902  1.00  0.00    -0.205 F 
ATOM    102  C   UNL A   1      47.037  31.532  26.878  1.00  0.00     0.022 A 
BRANCH 100 103
ATOM    103  S   UNL A   1      44.422  32.230  26.438  1.00  0.00     0.127 S 
ATOM    104  O   UNL A   1      45.154  32.777  25.298  1.00  0.00    -0.237 OA
ATOM    105  O   UNL A   1      43.518  31.127  26.112  1.00  0.00    -0.237 OA
ATOM    106  O   UNL A   1      43.856  33.220  27.346  1.00  0.00    -0.744 OA
ENDBRANCH 100 103
ENDBRANCH  73  96
ENDBRANCH  47  48
ENDBRANCH  39  42
ENDBRANCH  37  38
ENDBRANCH  36  37
ENDBRANCH  35  36
ENDBRANCH   1  35
TORSDOF 21
ENDMDL
MODEL 2
REMARK VINA RESULT:     -11.5      3.799      7.282
REMARK SMILES CC[C@@H](Sc1nnc2ccc3ccccc3n12)C(=O)Nc1cccc(C(=O)NCCCCCCNC(=O)c2ccc(-c3c4nc(c(-c5cccc(S(=O)(=O)[O-])c5F)c5ccc([nH]5)c(-c5cccc(S(=O)(=O)[O-])c5F)c5nc(c(-c6cccc(S(=O)(=O)[O-])c6F)c6ccc3[nH]6)C=C5)C=C4)cc2)c1
REMARK SMILES IDX 31 1 30 2 29 3 28 4 26 5 27 6 25 8 21 9 22 10 101 11 23 12
REMARK SMILES IDX 24 13 20 14 18 15 19 16 3 18 2 19 1 20 4 21 5 22 6 23 17 24
REMARK SMILES IDX 7 25 8 26 16 27 9 28 11 29 15 30 10 31 12 32 14 33 13 34
REMARK SMILES IDX 32 35 33 36 34 37 35 38 36 39 37 41 38 42 39 43 100 44 40 45
REMARK SMILES IDX 99 46 41 47 42 48 43 49 93 50 44 51 98 52 92 53 94 54 45 55
REMARK SMILES IDX 97 56 91 57 90 58 46 60 78 61 58 62 77 63 59 64 62 65 76 66
REMARK SMILES IDX 95 67 60 68 61 69 75 71 96 72 63 73 47 74 48 75 56 76 49 77
REMARK SMILES IDX 51 78 57 79 50 80 52 81 53 82 54 83 55 84 79 85 80 86 88 87
REMARK SMILES IDX 81 88 83 89 89 90 82 91 84 92 85 93 86 94 87 95 64 96 65 97
REMARK SMILES IDX 73 98 66 99 68 100 74 101 67 102 69 103 70 104 71 105 72 106
REMARK H PARENT 28 7 20 17 35 40 94 59 62 70
REMARK Flexibility Score: inf
ROOT
ATOM      1  C   UNL A   1      33.263  29.121  24.239  1.00  0.00     0.002 C 
ENDROOT
BRANCH   1   2
ATOM      2  C   UNL A   1      32.427  28.531  23.111  1.00  0.00     0.021 C 
BRANCH   2   3
ATOM      3  C   UNL A   1      31.070  27.982  23.497  1.00  0.00     0.116 C 
BRANCH   3   4
ATOM      4  N   UNL A   1      30.958  27.582  24.879  1.00  0.00    -0.352 N 
ATOM      5  C   UNL A   1      31.202  26.380  25.495  1.00  0.00     0.251 C 
ATOM      6  O   UNL A   1      30.995  26.316  26.708  1.00  0.00    -0.269 OA
ATOM      7  H   UNL A   1      30.654  28.296  25.486  1.00  0.00     0.163 HD
BRANCH   5   8
ATOM      8  C   UNL A   1      31.636  25.143  24.768  1.00  0.00     0.041 A 
ATOM      9  C   UNL A   1      33.281  23.805  23.595  1.00  0.00     0.041 A 
ATOM     10  C   UNL A   1      32.288  22.976  23.105  1.00  0.00     0.026 A 
ATOM     11  C   UNL A   1      32.960  24.744  24.574  1.00  0.00     0.040 A 
ATOM     12  C   UNL A   1      30.953  23.238  23.430  1.00  0.00     0.003 A 
ATOM     13  C   UNL A   1      30.628  24.366  24.183  1.00  0.00     0.014 A 
BRANCH   9  14
ATOM     14  N   UNL A   1      34.602  23.789  23.119  1.00  0.00    -0.325 N 
ATOM     15  C   UNL A   1      35.711  23.188  23.678  1.00  0.00     0.237 C 
ATOM     16  O   UNL A   1      36.678  23.040  22.912  1.00  0.00    -0.273 OA
ATOM     17  H   UNL A   1      34.757  24.271  22.275  1.00  0.00     0.169 HD
BRANCH  15  18
ATOM     18  C   UNL A   1      35.885  22.776  25.167  1.00  0.00     0.144 C 
BRANCH  18  19
ATOM     19  C   UNL A   1      35.898  21.239  25.212  1.00  0.00     0.021 C 
ATOM     20  C   UNL A   1      34.592  20.542  24.857  1.00  0.00     0.005 C 
ENDBRANCH  18  19
BRANCH  18  21
ATOM     21  S   UNL A   1      37.224  23.757  25.954  1.00  0.00    -0.072 SA
BRANCH  21  22
ATOM     22  C   UNL A   1      38.610  22.735  26.141  1.00  0.00     0.196 A 
ATOM     23  N   UNL A   1      38.644  21.505  25.669  1.00  0.00    -0.122 NA
ATOM     24  N   UNL A   1      39.726  22.954  26.942  1.00  0.00    -0.270 N 
ATOM     25  N   UNL A   1      39.762  20.880  26.164  1.00  0.00    -0.129 NA
ATOM     26  C   UNL A   1      40.401  21.739  26.928  1.00  0.00     0.161 A 
ATOM     27  C   UNL A   1      40.266  24.102  27.587  1.00  0.00     0.057 A 
ATOM     28  C   UNL A   1      41.610  21.602  27.658  1.00  0.00     0.050 A 
ATOM     29  C   UNL A   1      41.530  23.980  28.181  1.00  0.00    -0.001 A 
ATOM     30  C   UNL A   1      39.651  25.340  27.573  1.00  0.00     0.027 A 
ATOM     31  C   UNL A   1      42.170  22.664  28.257  1.00  0.00     0.014 A 
ATOM     32  C   UNL A   1      42.172  25.123  28.682  1.00  0.00     0.010 A 
ATOM     33  C   UNL A   1      40.297  26.482  28.040  1.00  0.00     0.002 A 
ATOM     34  C   UNL A   1      41.565  26.375  28.589  1.00  0.00     0.001 A 
ENDBRANCH  21  22
ENDBRANCH  18  21
ENDBRANCH  15  18
ENDBRANCH   9  14
ENDBRANCH   5   8
ENDBRANCH   3   4
ENDBRANCH   2   3
ENDBRANCH   1   2
BRANCH   1  35
ATOM     35  C   UNL A   1      34.072  28.129  25.080  1.00  0.00     0.002 C 
BRANCH  35  36
ATOM     36  C   UNL A   1      34.626  28.655  26.409  1.00  0.00     0.021 C 
BRANCH  36  37
ATOM     37  C   UNL A   1      33.578  28.986  27.473  1.00  0.00     0.116 C 
BRANCH  37  38
ATOM     38  N   UNL A   1      33.274  30.390  27.608  1.00  0.00    -0.352 N 
ATOM     39  C   UNL A   1      33.964  31.477  28.063  1.00  0.00     0.251 C 
ATOM     40  H   UNL A   1      32.365  30.615  27.304  1.00  0.00     0.163 HD
ATOM     41  O   UNL A   1      33.423  32.573  27.911  1.00  0.00    -0.269 OA
BRANCH  39  42
ATOM     42  C   UNL A   1      35.244  31.388  28.805  1.00  0.00     0.039 A 
ATOM     43  C   UNL A   1      35.386  31.576  30.180  1.00  0.00     0.014 A 
ATOM     44  C   UNL A   1      36.389  31.177  28.019  1.00  0.00     0.014 A 
ATOM     45  C   UNL A   1      36.640  31.741  30.734  1.00  0.00     0.010 A 
ATOM     46  C   UNL A   1      37.650  31.290  28.576  1.00  0.00     0.010 A 
ATOM     47  C   UNL A   1      37.761  31.651  29.915  1.00  0.00    -0.014 A 
BRANCH  47  48
ATOM     48  C   UNL A   1      39.052  31.869  30.539  1.00  0.00     0.031 A 
ATOM     49  C   UNL A   1      39.652  30.652  31.155  1.00  0.00     0.074 A 
ATOM     50  C   UNL A   1      39.671  33.062  30.453  1.00  0.00     0.049 A 
ATOM     51  N   UNL A   1      40.003  30.464  32.387  1.00  0.00    -0.248 NA
ATOM     52  C   UNL A   1      39.736  29.445  30.315  1.00  0.00     0.031 C 
ATOM     53  C   UNL A   1      39.279  34.218  29.640  1.00  0.00     0.029 A 
ATOM     54  N   UNL A   1      40.887  33.426  30.939  1.00  0.00    -0.354 N 
ATOM     55  C   UNL A   1      40.550  29.182  32.424  1.00  0.00     0.074 A 
ATOM     56  C   UNL A   1      40.210  28.547  31.177  1.00  0.00     0.031 C 
ATOM     57  C   UNL A   1      40.361  35.003  29.451  1.00  0.00     0.029 A 
ATOM     58  C   UNL A   1      41.470  34.466  30.219  1.00  0.00     0.049 A 
ATOM     59  H   UNL A   1      41.312  32.999  31.718  1.00  0.00     0.167 HD
ATOM     60  C   UNL A   1      41.443  28.791  33.372  1.00  0.00     0.034 A 
ATOM     61  C   UNL A   1      42.798  34.741  30.158  1.00  0.00     0.034 A 
ATOM     62  C   UNL A   1      41.467  29.663  34.508  1.00  0.00     0.049 A 
ATOM     63  C   UNL A   1      43.421  34.098  31.344  1.00  0.00     0.074 A 
ATOM     64  C   UNL A   1      40.539  30.048  35.454  1.00  0.00     0.029 A 
ATOM     65  N   UNL A   1      42.476  30.593  34.563  1.00  0.00    -0.354 N 
ATOM     66  N   UNL A   1      43.156  34.437  32.576  1.00  0.00    -0.248 NA
ATOM     67  C   UNL A   1      44.002  32.776  31.169  1.00  0.00     0.031 C 
ATOM     68  C   UNL A   1      40.792  31.434  35.665  1.00  0.00     0.029 A 
ATOM     69  C   UNL A   1      41.890  31.791  34.880  1.00  0.00     0.049 A 
ATOM     70  H   UNL A   1      43.434  30.431  34.408  1.00  0.00     0.167 HD
ATOM     71  C   UNL A   1      43.123  33.233  33.269  1.00  0.00     0.074 A 
ATOM     72  C   UNL A   1      43.739  32.258  32.371  1.00  0.00     0.031 C 
ATOM     73  C   UNL A   1      42.340  33.068  34.375  1.00  0.00     0.034 A 
BRANCH  60  74
ATOM     74  C   UNL A   1      42.530  27.792  33.106  1.00  0.00     0.023 A 
ATOM     75  C   UNL A   1      43.226  27.847  31.883  1.00  0.00     0.012 A 
ATOM     76  C   UNL A   1      42.725  26.652  33.919  1.00  0.00     0.148 A 
ATOM     77  C   UNL A   1      44.091  26.817  31.496  1.00  0.00     0.002 A 
ATOM     78  C   UNL A   1      43.644  25.672  33.570  1.00  0.00     0.091 A 
ATOM     79  F   UNL A   1      41.927  26.453  34.975  1.00  0.00    -0.205 F 
ATOM     80  C   UNL A   1      44.316  25.739  32.349  1.00  0.00     0.022 A 
BRANCH  78  81
ATOM     81  S   UNL A   1      43.996  24.292  34.662  1.00  0.00     0.127 S 
ATOM     82  O   UNL A   1      45.010  23.565  33.895  1.00  0.00    -0.237 OA
ATOM     83  O   UNL A   1      44.504  24.980  35.855  1.00  0.00    -0.237 OA
ATOM     84  O   UNL A   1      42.729  23.618  34.857  1.00  0.00    -0.744 OA
ENDBRANCH  78  81
ENDBRANCH  60  74
BRANCH  61  85
ATOM     85  C   UNL A   1      43.596  35.168  28.976  1.00  0.00     0.023 A 
ATOM     86  C   UNL A   1      44.257  36.413  29.009  1.00  0.00     0.012 A 
ATOM     87  C   UNL A   1      43.939  34.274  27.935  1.00  0.00     0.148 A 
ATOM     88  C   UNL A   1      45.249  36.736  28.071  1.00  0.00     0.002 A 
ATOM     89  C   UNL A   1      44.904  34.610  26.988  1.00  0.00     0.091 A 
ATOM     90  F   UNL A   1      43.404  33.047  27.919  1.00  0.00    -0.205 F 
ATOM     91  C   UNL A   1      45.575  35.834  27.063  1.00  0.00     0.022 A 
BRANCH  89  92
ATOM     92  S   UNL A   1      45.351  33.485  25.656  1.00  0.00     0.127 S 
ATOM     93  O   UNL A   1      46.106  34.358  24.756  1.00  0.00    -0.237 OA
ATOM     94  O   UNL A   1      46.152  32.486  26.356  1.00  0.00    -0.237 OA
ATOM     95  O   UNL A   1      44.087  33.015  25.101  1.00  0.00    -0.744 OA
ENDBRANCH  89  92
ENDBRANCH  61  85
BRANCH  73  96
ATOM     96  C   UNL A   1      41.658  34.276  34.962  1.00  0.00     0.023 A 
ATOM     97  C   UNL A   1      40.381  34.695  34.532  1.00  0.00     0.012 A 
ATOM     98  C   UNL A   1      42.206  34.840  36.125  1.00  0.00     0.148 A 
ATOM     99  C   UNL A   1      39.666  35.657  35.251  1.00  0.00     0.002 A 
ATOM    100  C   UNL A   1      41.476  35.767  36.858  1.00  0.00     0.091 A 
ATOM    101  F   UNL A   1      43.414  34.412  36.523  1.00  0.00    -0.205 F 
ATOM    102  C   UNL A   1      40.206  36.181  36.424  1.00  0.00     0.022 A 
BRANCH 100 103
ATOM    103  S   UNL A   1      42.054  36.389  38.438  1.00  0.00     0.127 S 
ATOM    104  O   UNL A   1      42.119  35.169  39.241  1.00  0.00    -0.237 OA
ATOM    105  O   UNL A   1      43.354  36.961  38.089  1.00  0.00    -0.237 OA
ATOM    106  O   UNL A   1      41.067  37.368  38.876  1.00  0.00    -0.744 OA
ENDBRANCH 100 103
ENDBRANCH  73  96
ENDBRANCH  47  48
ENDBRANCH  39  42
ENDBRANCH  37  38
ENDBRANCH  36  37
ENDBRANCH  35  36
ENDBRANCH   1  35
TORSDOF 21
ENDMDL
MODEL 3
REMARK VINA RESULT:     -11.2      2.990      7.646
REMARK SMILES CC[C@@H](Sc1nnc2ccc3ccccc3n12)C(=O)Nc1cccc(C(=O)NCCCCCCNC(=O)c2ccc(-c3c4nc(c(-c5cccc(S(=O)(=O)[O-])c5F)c5ccc([nH]5)c(-c5cccc(S(=O)(=O)[O-])c5F)c5nc(c(-c6cccc(S(=O)(=O)[O-])c6F)c6ccc3[nH]6)C=C5)C=C4)cc2)c1
REMARK SMILES IDX 31 1 30 2 29 3 28 4 26 5 27 6 25 8 21 9 22 10 101 11 23 12
REMARK SMILES IDX 24 13 20 14 18 15 19 16 3 18 2 19 1 20 4 21 5 22 6 23 17 24
REMARK SMILES IDX 7 25 8 26 16 27 9 28 11 29 15 30 10 31 12 32 14 33 13 34
REMARK SMILES IDX 32 35 33 36 34 37 35 38 36 39 37 41 38 42 39 43 100 44 40 45
REMARK SMILES IDX 99 46 41 47 42 48 43 49 93 50 44 51 98 52 92 53 94 54 45 55
REMARK SMILES IDX 97 56 91 57 90 58 46 60 78 61 58 62 77 63 59 64 62 65 76 66
REMARK SMILES IDX 95 67 60 68 61 69 75 71 96 72 63 73 47 74 48 75 56 76 49 77
REMARK SMILES IDX 51 78 57 79 50 80 52 81 53 82 54 83 55 84 79 85 80 86 88 87
REMARK SMILES IDX 81 88 83 89 89 90 82 91 84 92 85 93 86 94 87 95 64 96 65 97
REMARK SMILES IDX 73 98 66 99 68 100 74 101 67 102 69 103 70 104 71 105 72 106
REMARK H PARENT 28 7 20 17 35 40 94 59 62 70
REMARK Flexibility Score: inf
ROOT
ATOM      1  C   UNL A   1      34.839  33.589  28.428  1.00  0.00     0.002 C 
ENDROOT
BRANCH   1   2
ATOM      2  C   UNL A   1      35.222  32.264  27.781  1.00  0.00     0.021 C 
BRANCH   2   3
ATOM      3  C   UNL A   1      34.207  31.147  27.886  1.00  0.00     0.116 C 
BRANCH   3   4
ATOM      4  N   UNL A   1      32.970  31.394  27.185  1.00  0.00    -0.352 N 
ATOM      5  C   UNL A   1      32.158  30.558  26.461  1.00  0.00     0.251 C 
ATOM      6  O   UNL A   1      31.157  31.054  25.942  1.00  0.00    -0.269 OA
ATOM      7  H   UNL A   1      32.654  32.326  27.235  1.00  0.00     0.163 HD
BRANCH   5   8
ATOM      8  C   UNL A   1      32.457  29.109  26.218  1.00  0.00     0.041 A 
ATOM      9  C   UNL A   1      31.894  26.754  26.309  1.00  0.00     0.041 A 
ATOM     10  C   UNL A   1      33.213  26.409  26.079  1.00  0.00     0.026 A 
ATOM     11  C   UNL A   1      31.507  28.086  26.173  1.00  0.00     0.040 A 
ATOM     12  C   UNL A   1      34.172  27.417  25.934  1.00  0.00     0.003 A 
ATOM     13  C   UNL A   1      33.805  28.753  26.092  1.00  0.00     0.014 A 
BRANCH   9  14
ATOM     14  N   UNL A   1      30.919  25.835  26.728  1.00  0.00    -0.325 N 
ATOM     15  C   UNL A   1      30.877  24.471  26.523  1.00  0.00     0.237 C 
ATOM     16  O   UNL A   1      30.098  23.846  27.262  1.00  0.00    -0.273 OA
ATOM     17  H   UNL A   1      30.165  26.214  27.235  1.00  0.00     0.169 HD
BRANCH  15  18
ATOM     18  C   UNL A   1      31.631  23.681  25.416  1.00  0.00     0.144 C 
BRANCH  18  19
ATOM     19  C   UNL A   1      31.858  22.257  25.953  1.00  0.00     0.021 C 
ATOM     20  C   UNL A   1      32.148  21.182  24.915  1.00  0.00     0.005 C 
ENDBRANCH  18  19
BRANCH  18  21
ATOM     21  S   UNL A   1      30.847  23.961  23.779  1.00  0.00    -0.072 SA
BRANCH  21  22
ATOM     22  C   UNL A   1      31.610  25.328  23.037  1.00  0.00     0.196 A 
ATOM     23  N   UNL A   1      32.846  25.281  22.584  1.00  0.00    -0.122 NA
ATOM     24  N   UNL A   1      31.154  26.642  23.005  1.00  0.00    -0.270 N 
ATOM     25  N   UNL A   1      33.243  26.558  22.268  1.00  0.00    -0.129 NA
ATOM     26  C   UNL A   1      32.239  27.368  22.527  1.00  0.00     0.161 A 
ATOM     27  C   UNL A   1      29.892  27.253  23.243  1.00  0.00     0.057 A 
ATOM     28  C   UNL A   1      32.124  28.773  22.365  1.00  0.00     0.050 A 
ATOM     29  C   UNL A   1      29.762  28.616  22.941  1.00  0.00    -0.001 A 
ATOM     30  C   UNL A   1      28.776  26.552  23.663  1.00  0.00     0.027 A 
ATOM     31  C   UNL A   1      30.946  29.387  22.550  1.00  0.00     0.014 A 
ATOM     32  C   UNL A   1      28.497  29.221  23.002  1.00  0.00     0.010 A 
ATOM     33  C   UNL A   1      27.514  27.141  23.695  1.00  0.00     0.002 A 
ATOM     34  C   UNL A   1      27.371  28.476  23.356  1.00  0.00     0.001 A 
ENDBRANCH  21  22
ENDBRANCH  18  21
ENDBRANCH  15  18
ENDBRANCH   9  14
ENDBRANCH   5   8
ENDBRANCH   3   4
ENDBRANCH   2   3
ENDBRANCH   1   2
BRANCH   1  35
ATOM     35  C   UNL A   1      35.236  33.773  29.895  1.00  0.00     0.002 C 
BRANCH  35  36
ATOM     36  C   UNL A   1      36.729  33.652  30.217  1.00  0.00     0.021 C 
BRANCH  36  37
ATOM     37  C   UNL A   1      37.129  32.417  31.027  1.00  0.00     0.116 C 
BRANCH  37  38
ATOM     38  N   UNL A   1      36.270  31.272  30.848  1.00  0.00    -0.352 N 
ATOM     39  C   UNL A   1      36.486  29.943  30.621  1.00  0.00     0.251 C 
ATOM     40  H   UNL A   1      35.313  31.499  30.901  1.00  0.00     0.163 HD
ATOM     41  O   UNL A   1      35.494  29.214  30.647  1.00  0.00    -0.269 OA
BRANCH  39  42
ATOM     42  C   UNL A   1      37.803  29.375  30.249  1.00  0.00     0.039 A 
ATOM     43  C   UNL A   1      38.597  28.585  31.081  1.00  0.00     0.014 A 
ATOM     44  C   UNL A   1      38.293  29.749  28.987  1.00  0.00     0.014 A 
ATOM     45  C   UNL A   1      39.913  28.330  30.752  1.00  0.00     0.010 A 
ATOM     46  C   UNL A   1      39.596  29.454  28.627  1.00  0.00     0.010 A 
ATOM     47  C   UNL A   1      40.418  28.816  29.550  1.00  0.00    -0.014 A 
BRANCH  47  48
ATOM     48  C   UNL A   1      41.816  28.553  29.268  1.00  0.00     0.031 A 
ATOM     49  C   UNL A   1      42.089  27.196  28.718  1.00  0.00     0.074 A 
ATOM     50  C   UNL A   1      42.744  29.519  29.408  1.00  0.00     0.049 A 
ATOM     51  N   UNL A   1      42.858  26.272  29.199  1.00  0.00    -0.248 NA
ATOM     52  C   UNL A   1      41.290  26.768  27.556  1.00  0.00     0.031 C 
ATOM     53  C   UNL A   1      42.522  30.943  29.679  1.00  0.00     0.029 A 
ATOM     54  N   UNL A   1      44.078  29.459  29.154  1.00  0.00    -0.354 N 
ATOM     55  C   UNL A   1      42.798  25.226  28.280  1.00  0.00     0.074 A 
ATOM     56  C   UNL A   1      41.704  25.513  27.389  1.00  0.00     0.031 C 
ATOM     57  C   UNL A   1      43.609  31.636  29.277  1.00  0.00     0.029 A 
ATOM     58  C   UNL A   1      44.627  30.700  28.838  1.00  0.00     0.049 A 
ATOM     59  H   UNL A   1      44.602  28.626  29.189  1.00  0.00     0.167 HD
ATOM     60  C   UNL A   1      43.785  24.298  28.156  1.00  0.00     0.034 A 
ATOM     61  C   UNL A   1      45.763  30.906  28.125  1.00  0.00     0.034 A 
ATOM     62  C   UNL A   1      44.672  24.276  29.280  1.00  0.00     0.049 A 
ATOM     63  C   UNL A   1      46.546  29.644  28.197  1.00  0.00     0.074 A 
ATOM     64  C   UNL A   1      44.521  24.024  30.629  1.00  0.00     0.029 A 
ATOM     65  N   UNL A   1      45.870  24.934  29.148  1.00  0.00    -0.354 N 
ATOM     66  N   UNL A   1      47.034  29.154  29.303  1.00  0.00    -0.248 NA
ATOM     67  C   UNL A   1      46.400  28.696  27.102  1.00  0.00     0.031 C 
ATOM     68  C   UNL A   1      45.372  24.969  31.270  1.00  0.00     0.029 A 
ATOM     69  C   UNL A   1      46.027  25.697  30.275  1.00  0.00     0.049 A 
ATOM     70  H   UNL A   1      46.496  24.870  28.390  1.00  0.00     0.167 HD
ATOM     71  C   UNL A   1      46.844  27.782  29.190  1.00  0.00     0.074 A 
ATOM     72  C   UNL A   1      46.535  27.554  27.780  1.00  0.00     0.031 C 
ATOM     73  C   UNL A   1      46.663  26.994  30.290  1.00  0.00     0.034 A 
BRANCH  60  74
ATOM     74  C   UNL A   1      44.129  23.643  26.851  1.00  0.00     0.023 A 
ATOM     75  C   UNL A   1      44.499  24.448  25.757  1.00  0.00     0.012 A 
ATOM     76  C   UNL A   1      43.866  22.276  26.599  1.00  0.00     0.148 A 
ATOM     77  C   UNL A   1      44.617  23.909  24.471  1.00  0.00     0.002 A 
ATOM     78  C   UNL A   1      44.062  21.730  25.339  1.00  0.00     0.091 A 
ATOM     79  F   UNL A   1      43.304  21.528  27.557  1.00  0.00    -0.205 F 
ATOM     80  C   UNL A   1      44.419  22.546  24.265  1.00  0.00     0.022 A 
BRANCH  78  81
ATOM     81  S   UNL A   1      43.862  19.971  25.044  1.00  0.00     0.127 S 
ATOM     82  O   UNL A   1      42.432  19.793  25.303  1.00  0.00    -0.237 OA
ATOM     83  O   UNL A   1      44.250  19.860  23.634  1.00  0.00    -0.237 OA
ATOM     84  O   UNL A   1      44.769  19.317  25.964  1.00  0.00    -0.744 OA
ENDBRANCH  78  81
ENDBRANCH  60  74
BRANCH  61  85
ATOM     85  C   UNL A   1      46.027  31.945  27.093  1.00  0.00     0.023 A 
ATOM     86  C   UNL A   1      44.937  32.524  26.409  1.00  0.00     0.012 A 
ATOM     87  C   UNL A   1      47.290  32.568  26.955  1.00  0.00     0.148 A 
ATOM     88  C   UNL A   1      45.091  33.697  25.656  1.00  0.00     0.002 A 
ATOM     89  C   UNL A   1      47.444  33.717  26.183  1.00  0.00     0.091 A 
ATOM     90  F   UNL A   1      48.330  32.107  27.660  1.00  0.00    -0.205 F 
ATOM     91  C   UNL A   1      46.343  34.296  25.545  1.00  0.00     0.022 A 
BRANCH  89  92
ATOM     92  S   UNL A   1      49.043  34.520  25.996  1.00  0.00     0.127 S 
ATOM     93  O   UNL A   1      48.747  35.574  25.023  1.00  0.00    -0.237 OA
ATOM     94  O   UNL A   1      49.308  34.994  27.351  1.00  0.00    -0.237 OA
ATOM     95  O   UNL A   1      49.942  33.488  25.493  1.00  0.00    -0.744 OA
ENDBRANCH  89  92
ENDBRANCH  61  85
BRANCH  73  96
ATOM     96  C   UNL A   1      46.872  27.601  31.653  1.00  0.00     0.023 A 
ATOM     97  C   UNL A   1      48.157  27.734  32.221  1.00  0.00     0.012 A 
ATOM     98  C   UNL A   1      45.789  28.263  32.252  1.00  0.00     0.148 A 
ATOM     99  C   UNL A   1      48.355  28.514  33.364  1.00  0.00     0.002 A 
ATOM    100  C   UNL A   1      45.996  29.069  33.364  1.00  0.00     0.091 A 
ATOM    101  F   UNL A   1      44.581  28.136  31.682  1.00  0.00    -0.205 F 
ATOM    102  C   UNL A   1      47.277  29.195  33.926  1.00  0.00     0.022 A 
BRANCH 100 103
ATOM    103  S   UNL A   1      44.683  30.071  34.063  1.00  0.00     0.127 S 
ATOM    104  O   UNL A   1      44.116  30.704  32.873  1.00  0.00    -0.237 OA
ATOM    105  O   UNL A   1      43.824  29.065  34.687  1.00  0.00    -0.237 OA
ATOM    106  O   UNL A   1      45.322  30.981  35.005  1.00  0.00    -0.744 OA
ENDBRANCH 100 103
ENDBRANCH  73  96
ENDBRANCH  47  48
ENDBRANCH  39  42
ENDBRANCH  37  38
ENDBRANCH  36  37
ENDBRANCH  35  36
ENDBRANCH   1  35
TORSDOF 21
ENDMDL
