MODEL 1
REMARK VINA RESULT:     -12.5      0.000      0.000
REMARK SMILES O=C(NCCCCCCNC(=O)[C@@H]1C=C[C@@H]([NH+]2CC3(CCOCC3)C2)C1)c1ccc(-c2c3nc(c(-c4cccc(S(=O)(=O)[O-])c4F)c4ccc([nH]4)c(-c4cccc(S(=O)(=O)[O-])c4F)c4nc(c(-c5cccc(S(=O)(=O)[O-])c5F)c5ccc2[nH]5)C=C4)C=C3)cc1
REMARK SMILES IDX 5 1 4 2 3 3 1 4 2 5 27 7 28 8 89 9 29 10 88 11 30 12 31 13
REMARK SMILES IDX 32 14 82 15 33 16 87 17 81 18 83 19 34 20 86 21 80 22 79 23
REMARK SMILES IDX 35 25 67 26 47 27 66 28 48 29 51 30 65 31 84 32 49 33 50 34
REMARK SMILES IDX 64 36 85 37 52 38 36 39 37 40 45 41 38 42 40 43 46 44 39 45
REMARK SMILES IDX 41 46 42 47 43 48 44 49 68 50 69 51 77 52 70 53 72 54 78 55
REMARK SMILES IDX 71 56 73 57 74 58 75 59 76 60 53 61 54 62 62 63 55 64 57 65
REMARK SMILES IDX 63 66 56 67 58 68 59 69 60 70 61 71 6 72 7 73 8 74 9 75
REMARK SMILES IDX 10 76 11 77 12 79 13 80 14 81 26 82 15 83 16 84 17 85 18 86
REMARK SMILES IDX 25 87 19 89 20 90 24 91 21 92 23 93 22 94
REMARK H PARENT 3 6 83 24 51 35 10 78 17 88
REMARK Flexibility Score: inf
ROOT
ATOM      1  C   UNL A   1      31.602  32.300  26.815  1.00  0.00     0.021 C 
ENDROOT
BRANCH   1   2
ATOM      2  C   UNL A   1      32.803  32.995  27.433  1.00  0.00     0.116 C 
BRANCH   2   3
ATOM      3  N   UNL A   1      32.508  34.346  27.875  1.00  0.00    -0.352 N 
ATOM      4  O   UNL A   1      32.615  36.132  29.250  1.00  0.00    -0.269 OA
ATOM      5  C   UNL A   1      33.086  35.052  28.904  1.00  0.00     0.251 C 
ATOM      6  H   UNL A   1      31.803  34.816  27.373  1.00  0.00     0.163 HD
BRANCH   5   7
ATOM      7  C   UNL A   1      34.259  34.481  29.605  1.00  0.00     0.039 A 
ATOM      8  C   UNL A   1      35.544  34.646  29.083  1.00  0.00     0.014 A 
ATOM      9  C   UNL A   1      34.070  33.751  30.782  1.00  0.00     0.014 A 
ATOM     10  C   UNL A   1      36.611  33.959  29.647  1.00  0.00     0.010 A 
ATOM     11  C   UNL A   1      35.165  33.144  31.407  1.00  0.00     0.010 A 
ATOM     12  C   UNL A   1      36.441  33.218  30.829  1.00  0.00    -0.014 A 
BRANCH  12  13
ATOM     13  C   UNL A   1      37.641  32.625  31.475  1.00  0.00     0.031 A 
ATOM     14  C   UNL A   1      38.136  33.092  32.816  1.00  0.00     0.074 A 
ATOM     15  C   UNL A   1      38.270  31.619  30.835  1.00  0.00     0.049 A 
ATOM     16  N   UNL A   1      39.121  32.615  33.536  1.00  0.00    -0.248 NA
ATOM     17  C   UNL A   1      37.452  34.241  33.430  1.00  0.00     0.031 C 
ATOM     18  C   UNL A   1      37.919  31.128  29.499  1.00  0.00     0.029 A 
ATOM     19  N   UNL A   1      39.317  30.822  31.215  1.00  0.00    -0.354 N 
ATOM     20  C   UNL A   1      39.197  33.417  34.667  1.00  0.00     0.074 A 
ATOM     21  C   UNL A   1      38.165  34.424  34.536  1.00  0.00     0.031 C 
ATOM     22  C   UNL A   1      38.706  30.088  29.190  1.00  0.00     0.029 A 
ATOM     23  C   UNL A   1      39.650  29.871  30.278  1.00  0.00     0.049 A 
ATOM     24  H   UNL A   1      39.787  30.919  32.075  1.00  0.00     0.167 HD
ATOM     25  C   UNL A   1      40.035  33.311  35.727  1.00  0.00     0.034 A 
ATOM     26  C   UNL A   1      40.614  28.931  30.285  1.00  0.00     0.034 A 
ATOM     27  C   UNL A   1      41.041  32.289  35.864  1.00  0.00     0.049 A 
ATOM     28  C   UNL A   1      41.488  28.803  31.497  1.00  0.00     0.074 A 
ATOM     29  C   UNL A   1      41.917  32.077  36.916  1.00  0.00     0.029 A 
ATOM     30  N   UNL A   1      41.309  31.306  34.922  1.00  0.00    -0.354 N 
ATOM     31  N   UNL A   1      41.459  29.497  32.609  1.00  0.00    -0.248 NA
ATOM     32  C   UNL A   1      42.505  27.744  31.471  1.00  0.00     0.031 C 
ATOM     33  C   UNL A   1      42.717  30.971  36.607  1.00  0.00     0.029 A 
ATOM     34  C   UNL A   1      42.330  30.484  35.368  1.00  0.00     0.049 A 
ATOM     35  H   UNL A   1      40.840  31.207  34.061  1.00  0.00     0.167 HD
ATOM     36  C   UNL A   1      42.448  28.956  33.419  1.00  0.00     0.074 A 
ATOM     37  C   UNL A   1      43.024  27.845  32.687  1.00  0.00     0.031 C 
ATOM     38  C   UNL A   1      42.864  29.359  34.645  1.00  0.00     0.034 A 
BRANCH  25  39
ATOM     39  C   UNL A   1      39.867  34.291  36.861  1.00  0.00     0.023 A 
ATOM     40  C   UNL A   1      40.181  35.649  36.649  1.00  0.00     0.012 A 
ATOM     41  C   UNL A   1      39.324  33.893  38.100  1.00  0.00     0.148 A 
ATOM     42  C   UNL A   1      39.979  36.592  37.657  1.00  0.00     0.002 A 
ATOM     43  C   UNL A   1      39.091  34.846  39.087  1.00  0.00     0.091 A 
ATOM     44  F   UNL A   1      39.047  32.596  38.290  1.00  0.00    -0.205 F 
ATOM     45  C   UNL A   1      39.426  36.194  38.870  1.00  0.00     0.022 A 
BRANCH  43  46
ATOM     46  S   UNL A   1      38.314  34.449  40.658  1.00  0.00     0.127 S 
ATOM     47  O   UNL A   1      37.203  33.600  40.231  1.00  0.00    -0.237 OA
ATOM     48  O   UNL A   1      39.385  33.743  41.363  1.00  0.00    -0.237 OA
ATOM     49  O   UNL A   1      37.936  35.724  41.251  1.00  0.00    -0.744 OA
ENDBRANCH  43  46
ENDBRANCH  25  39
BRANCH  26  50
ATOM     50  C   UNL A   1      40.756  28.015  29.120  1.00  0.00     0.023 A 
ATOM     51  C   UNL A   1      39.945  26.869  29.027  1.00  0.00     0.012 A 
ATOM     52  C   UNL A   1      41.649  28.310  28.071  1.00  0.00     0.148 A 
ATOM     53  C   UNL A   1      40.038  26.021  27.923  1.00  0.00     0.002 A 
ATOM     54  C   UNL A   1      41.689  27.497  26.944  1.00  0.00     0.091 A 
ATOM     55  F   UNL A   1      42.430  29.394  28.184  1.00  0.00    -0.205 F 
ATOM     56  C   UNL A   1      40.898  26.342  26.876  1.00  0.00     0.022 A 
BRANCH  54  57
ATOM     57  S   UNL A   1      42.649  27.947  25.495  1.00  0.00     0.127 S 
ATOM     58  O   UNL A   1      42.502  26.760  24.657  1.00  0.00    -0.237 OA
ATOM     59  O   UNL A   1      41.943  29.135  25.011  1.00  0.00    -0.237 OA
ATOM     60  O   UNL A   1      43.990  28.219  25.997  1.00  0.00    -0.744 OA
ENDBRANCH  54  57
ENDBRANCH  26  50
BRANCH  38  61
ATOM     61  C   UNL A   1      43.996  28.589  35.268  1.00  0.00     0.023 A 
ATOM     62  C   UNL A   1      45.324  28.903  34.915  1.00  0.00     0.012 A 
ATOM     63  C   UNL A   1      43.753  27.585  36.224  1.00  0.00     0.148 A 
ATOM     64  C   UNL A   1      46.391  28.203  35.474  1.00  0.00     0.002 A 
ATOM     65  C   UNL A   1      44.824  26.921  36.811  1.00  0.00     0.091 A 
ATOM     66  F   UNL A   1      42.483  27.284  36.529  1.00  0.00    -0.205 F 
ATOM     67  C   UNL A   1      46.142  27.220  36.429  1.00  0.00     0.022 A 
BRANCH  65  68
ATOM     68  S   UNL A   1      44.594  25.699  38.108  1.00  0.00     0.127 S 
ATOM     69  O   UNL A   1      45.970  25.285  38.375  1.00  0.00    -0.237 OA
ATOM     70  O   UNL A   1      43.975  26.486  39.175  1.00  0.00    -0.237 OA
ATOM     71  O   UNL A   1      43.726  24.678  37.536  1.00  0.00    -0.744 OA
ENDBRANCH  65  68
ENDBRANCH  38  61
ENDBRANCH  12  13
ENDBRANCH   5   7
ENDBRANCH   2   3
ENDBRANCH   1   2
BRANCH   1  72
ATOM     72  C   UNL A   1      31.798  30.821  26.493  1.00  0.00     0.002 C 
BRANCH  72  73
ATOM     73  C   UNL A   1      32.995  30.136  27.159  1.00  0.00     0.002 C 
BRANCH  73  74
ATOM     74  C   UNL A   1      32.853  28.641  27.454  1.00  0.00     0.021 C 
BRANCH  74  75
ATOM     75  C   UNL A   1      31.467  28.045  27.244  1.00  0.00     0.116 C 
BRANCH  75  76
ATOM     76  N   UNL A   1      31.494  26.609  27.107  1.00  0.00    -0.356 N 
ATOM     77  C   UNL A   1      31.722  25.830  26.021  1.00  0.00     0.227 C 
ATOM     78  H   UNL A   1      31.320  26.112  27.940  1.00  0.00     0.163 HD
ATOM     79  O   UNL A   1      31.832  24.614  26.223  1.00  0.00    -0.274 OA
BRANCH  77  80
ATOM     80  C   UNL A   1      31.697  26.354  24.583  1.00  0.00     0.107 C 
ATOM     81  C   UNL A   1      32.555  27.480  24.114  1.00  0.00    -0.012 C 
ATOM     82  C   UNL A   1      30.277  26.809  24.226  1.00  0.00     0.087 C 
ATOM     83  C   UNL A   1      31.831  28.496  23.624  1.00  0.00     0.033 C 
ATOM     84  C   UNL A   1      30.349  28.271  23.739  1.00  0.00     0.208 C 
BRANCH  84  85
ATOM     85  N   UNL A   1      29.647  28.686  22.521  1.00  0.00    -0.328 N 
ATOM     86  C   UNL A   1      30.052  29.996  21.996  1.00  0.00     0.275 C 
ATOM     87  C   UNL A   1      28.268  29.127  22.727  1.00  0.00     0.275 C 
ATOM     88  H   UNL A   1      29.819  27.852  21.958  1.00  0.00     0.348 HD
ATOM     89  C   UNL A   1      28.665  30.595  22.374  1.00  0.00     0.073 C 
ATOM     90  C   UNL A   1      27.738  31.106  21.260  1.00  0.00     0.047 C 
ATOM     91  C   UNL A   1      28.735  31.620  23.518  1.00  0.00     0.047 C 
ATOM     92  C   UNL A   1      28.083  32.537  20.878  1.00  0.00     0.161 C 
ATOM     93  C   UNL A   1      29.017  33.013  22.978  1.00  0.00     0.161 C 
ATOM     94  O   UNL A   1      28.027  33.386  22.024  1.00  0.00    -0.381 OA
ENDBRANCH  84  85
ENDBRANCH  77  80
ENDBRANCH  75  76
ENDBRANCH  74  75
ENDBRANCH  73  74
ENDBRANCH  72  73
ENDBRANCH   1  72
TORSDOF 17
ENDMDL
MODEL 2
REMARK VINA RESULT:     -12.5      0.502      7.781
REMARK SMILES O=C(NCCCCCCNC(=O)[C@@H]1C=C[C@@H]([NH+]2CC3(CCOCC3)C2)C1)c1ccc(-c2c3nc(c(-c4cccc(S(=O)(=O)[O-])c4F)c4ccc([nH]4)c(-c4cccc(S(=O)(=O)[O-])c4F)c4nc(c(-c5cccc(S(=O)(=O)[O-])c5F)c5ccc2[nH]5)C=C4)C=C3)cc1
REMARK SMILES IDX 5 1 4 2 3 3 1 4 2 5 27 7 28 8 89 9 29 10 88 11 30 12 31 13
REMARK SMILES IDX 32 14 82 15 33 16 87 17 81 18 83 19 34 20 86 21 80 22 79 23
REMARK SMILES IDX 35 25 67 26 47 27 66 28 48 29 51 30 65 31 84 32 49 33 50 34
REMARK SMILES IDX 64 36 85 37 52 38 36 39 37 40 45 41 38 42 40 43 46 44 39 45
REMARK SMILES IDX 41 46 42 47 43 48 44 49 68 50 69 51 77 52 70 53 72 54 78 55
REMARK SMILES IDX 71 56 73 57 74 58 75 59 76 60 53 61 54 62 62 63 55 64 57 65
REMARK SMILES IDX 63 66 56 67 58 68 59 69 60 70 61 71 6 72 7 73 8 74 9 75
REMARK SMILES IDX 10 76 11 77 12 79 13 80 14 81 26 82 15 83 16 84 17 85 18 86
REMARK SMILES IDX 25 87 19 89 20 90 24 91 21 92 23 93 22 94
REMARK H PARENT 3 6 83 24 51 35 10 78 17 88
REMARK Flexibility Score: inf
ROOT
ATOM      1  C   UNL A   1      31.471  32.313  26.684  1.00  0.00     0.021 C 
ENDROOT
BRANCH   1   2
ATOM      2  C   UNL A   1      32.763  32.942  27.178  1.00  0.00     0.116 C 
BRANCH   2   3
ATOM      3  N   UNL A   1      32.566  34.260  27.753  1.00  0.00    -0.352 N 
ATOM      4  O   UNL A   1      32.803  35.889  29.296  1.00  0.00    -0.269 OA
ATOM      5  C   UNL A   1      33.195  34.818  28.841  1.00  0.00     0.251 C 
ATOM      6  H   UNL A   1      31.896  34.825  27.306  1.00  0.00     0.163 HD
BRANCH   5   7
ATOM      7  C   UNL A   1      34.325  34.099  29.473  1.00  0.00     0.039 A 
ATOM      8  C   UNL A   1      34.086  33.114  30.434  1.00  0.00     0.014 A 
ATOM      9  C   UNL A   1      35.636  34.428  29.119  1.00  0.00     0.014 A 
ATOM     10  C   UNL A   1      35.149  32.574  31.147  1.00  0.00     0.010 A 
ATOM     11  C   UNL A   1      36.709  33.806  29.768  1.00  0.00     0.010 A 
ATOM     12  C   UNL A   1      36.475  32.895  30.808  1.00  0.00    -0.014 A 
BRANCH  12  13
ATOM     13  C   UNL A   1      37.578  32.178  31.499  1.00  0.00     0.031 A 
ATOM     14  C   UNL A   1      38.326  31.049  30.847  1.00  0.00     0.074 A 
ATOM     15  C   UNL A   1      37.921  32.591  32.736  1.00  0.00     0.049 A 
ATOM     16  N   UNL A   1      39.361  30.384  31.298  1.00  0.00    -0.248 NA
ATOM     17  C   UNL A   1      37.857  30.597  29.528  1.00  0.00     0.031 C 
ATOM     18  C   UNL A   1      37.222  33.633  33.495  1.00  0.00     0.029 A 
ATOM     19  N   UNL A   1      38.940  32.205  33.567  1.00  0.00    -0.354 N 
ATOM     20  C   UNL A   1      39.649  29.420  30.340  1.00  0.00     0.074 A 
ATOM     21  C   UNL A   1      38.671  29.576  29.284  1.00  0.00     0.031 C 
ATOM     22  C   UNL A   1      37.857  33.833  34.658  1.00  0.00     0.029 A 
ATOM     23  C   UNL A   1      38.973  32.902  34.753  1.00  0.00     0.049 A 
ATOM     24  H   UNL A   1      39.586  31.498  33.338  1.00  0.00     0.167 HD
ATOM     25  C   UNL A   1      40.649  28.506  30.332  1.00  0.00     0.034 A 
ATOM     26  C   UNL A   1      39.804  32.800  35.807  1.00  0.00     0.034 A 
ATOM     27  C   UNL A   1      41.636  28.376  31.374  1.00  0.00     0.049 A 
ATOM     28  C   UNL A   1      40.935  31.817  35.744  1.00  0.00     0.074 A 
ATOM     29  C   UNL A   1      42.709  27.503  31.441  1.00  0.00     0.029 A 
ATOM     30  N   UNL A   1      41.674  29.139  32.532  1.00  0.00    -0.354 N 
ATOM     31  N   UNL A   1      41.260  31.000  34.771  1.00  0.00    -0.248 NA
ATOM     32  C   UNL A   1      41.832  31.762  36.905  1.00  0.00     0.031 C 
ATOM     33  C   UNL A   1      43.390  27.734  32.641  1.00  0.00     0.029 A 
ATOM     34  C   UNL A   1      42.751  28.762  33.316  1.00  0.00     0.049 A 
ATOM     35  H   UNL A   1      41.028  29.847  32.762  1.00  0.00     0.167 HD
ATOM     36  C   UNL A   1      42.403  30.338  35.199  1.00  0.00     0.074 A 
ATOM     37  C   UNL A   1      42.740  30.886  36.498  1.00  0.00     0.031 C 
ATOM     38  C   UNL A   1      43.095  29.345  34.587  1.00  0.00     0.034 A 
BRANCH  25  39
ATOM     39  C   UNL A   1      40.770  27.603  29.130  1.00  0.00     0.023 A 
ATOM     40  C   UNL A   1      39.932  26.474  29.030  1.00  0.00     0.012 A 
ATOM     41  C   UNL A   1      41.644  27.910  28.067  1.00  0.00     0.148 A 
ATOM     42  C   UNL A   1      39.975  25.653  27.903  1.00  0.00     0.002 A 
ATOM     43  C   UNL A   1      41.655  27.107  26.931  1.00  0.00     0.091 A 
ATOM     44  F   UNL A   1      42.446  28.977  28.187  1.00  0.00    -0.205 F 
ATOM     45  C   UNL A   1      40.827  25.974  26.851  1.00  0.00     0.022 A 
BRANCH  43  46
ATOM     46  S   UNL A   1      42.662  27.475  25.489  1.00  0.00     0.127 S 
ATOM     47  O   UNL A   1      43.971  27.710  26.097  1.00  0.00    -0.237 OA
ATOM     48  O   UNL A   1      42.562  26.235  24.718  1.00  0.00    -0.237 OA
ATOM     49  O   UNL A   1      42.048  28.634  24.857  1.00  0.00    -0.744 OA
ENDBRANCH  43  46
ENDBRANCH  25  39
BRANCH  26  50
ATOM     50  C   UNL A   1      39.612  33.693  36.984  1.00  0.00     0.023 A 
ATOM     51  C   UNL A   1      39.989  35.046  36.903  1.00  0.00     0.012 A 
ATOM     52  C   UNL A   1      38.999  33.220  38.160  1.00  0.00     0.148 A 
ATOM     53  C   UNL A   1      39.780  35.907  37.981  1.00  0.00     0.002 A 
ATOM     54  C   UNL A   1      38.735  34.098  39.206  1.00  0.00     0.091 A 
ATOM     55  F   UNL A   1      38.665  31.924  38.229  1.00  0.00    -0.205 F 
ATOM     56  C   UNL A   1      39.141  35.437  39.126  1.00  0.00     0.022 A 
BRANCH  54  57
ATOM     57  S   UNL A   1      37.766  33.594  40.632  1.00  0.00     0.127 S 
ATOM     58  O   UNL A   1      38.640  32.603  41.253  1.00  0.00    -0.237 OA
ATOM     59  O   UNL A   1      37.631  34.848  41.375  1.00  0.00    -0.237 OA
ATOM     60  O   UNL A   1      36.513  33.095  40.082  1.00  0.00    -0.744 OA
ENDBRANCH  54  57
ENDBRANCH  26  50
BRANCH  38  61
ATOM     61  C   UNL A   1      44.287  28.792  35.320  1.00  0.00     0.023 A 
ATOM     62  C   UNL A   1      45.572  29.292  35.028  1.00  0.00     0.012 A 
ATOM     63  C   UNL A   1      44.136  27.810  36.316  1.00  0.00     0.148 A 
ATOM     64  C   UNL A   1      46.694  28.795  35.689  1.00  0.00     0.002 A 
ATOM     65  C   UNL A   1      45.254  27.350  37.003  1.00  0.00     0.091 A 
ATOM     66  F   UNL A   1      42.909  27.329  36.563  1.00  0.00    -0.205 F 
ATOM     67  C   UNL A   1      46.534  27.832  36.682  1.00  0.00     0.022 A 
BRANCH  65  68
ATOM     68  S   UNL A   1      45.126  26.172  38.353  1.00  0.00     0.127 S 
ATOM     69  O   UNL A   1      46.516  26.074  38.797  1.00  0.00    -0.237 OA
ATOM     70  O   UNL A   1      44.234  26.859  39.287  1.00  0.00    -0.237 OA
ATOM     71  O   UNL A   1      44.564  24.962  37.767  1.00  0.00    -0.744 OA
ENDBRANCH  65  68
ENDBRANCH  38  61
ENDBRANCH  12  13
ENDBRANCH   5   7
ENDBRANCH   2   3
ENDBRANCH   1   2
BRANCH   1  72
ATOM     72  C   UNL A   1      31.510  30.797  26.506  1.00  0.00     0.002 C 
BRANCH  72  73
ATOM     73  C   UNL A   1      32.842  30.111  26.826  1.00  0.00     0.002 C 
BRANCH  73  74
ATOM     74  C   UNL A   1      32.765  28.681  27.364  1.00  0.00     0.021 C 
BRANCH  74  75
ATOM     75  C   UNL A   1      31.415  27.986  27.231  1.00  0.00     0.116 C 
BRANCH  75  76
ATOM     76  N   UNL A   1      31.538  26.555  27.095  1.00  0.00    -0.356 N 
ATOM     77  C   UNL A   1      31.824  25.794  26.011  1.00  0.00     0.227 C 
ATOM     78  H   UNL A   1      31.391  26.048  27.926  1.00  0.00     0.163 HD
ATOM     79  O   UNL A   1      32.012  24.588  26.214  1.00  0.00    -0.274 OA
BRANCH  77  80
ATOM     80  C   UNL A   1      31.775  26.315  24.572  1.00  0.00     0.107 C 
ATOM     81  C   UNL A   1      32.624  27.440  24.087  1.00  0.00    -0.012 C 
ATOM     82  C   UNL A   1      30.349  26.768  24.237  1.00  0.00     0.087 C 
ATOM     83  C   UNL A   1      31.892  28.455  23.608  1.00  0.00     0.033 C 
ATOM     84  C   UNL A   1      30.412  28.229  23.747  1.00  0.00     0.208 C 
BRANCH  84  85
ATOM     85  N   UNL A   1      29.690  28.642  22.540  1.00  0.00    -0.328 N 
ATOM     86  C   UNL A   1      30.081  29.955  22.010  1.00  0.00     0.275 C 
ATOM     87  C   UNL A   1      28.312  29.076  22.767  1.00  0.00     0.275 C 
ATOM     88  H   UNL A   1      29.858  27.810  21.974  1.00  0.00     0.348 HD
ATOM     89  C   UNL A   1      28.697  30.547  22.409  1.00  0.00     0.073 C 
ATOM     90  C   UNL A   1      27.751  31.054  21.310  1.00  0.00     0.047 C 
ATOM     91  C   UNL A   1      28.778  31.570  23.554  1.00  0.00     0.047 C 
ATOM     92  C   UNL A   1      28.083  32.487  20.925  1.00  0.00     0.161 C 
ATOM     93  C   UNL A   1      29.045  32.966  23.010  1.00  0.00     0.161 C 
ATOM     94  O   UNL A   1      28.040  33.335  22.072  1.00  0.00    -0.381 OA
ENDBRANCH  84  85
ENDBRANCH  77  80
ENDBRANCH  75  76
ENDBRANCH  74  75
ENDBRANCH  73  74
ENDBRANCH  72  73
ENDBRANCH   1  72
TORSDOF 17
ENDMDL
MODEL 3
REMARK VINA RESULT:     -12.0      7.053     11.053
REMARK SMILES O=C(NCCCCCCNC(=O)[C@@H]1C=C[C@@H]([NH+]2CC3(CCOCC3)C2)C1)c1ccc(-c2c3nc(c(-c4cccc(S(=O)(=O)[O-])c4F)c4ccc([nH]4)c(-c4cccc(S(=O)(=O)[O-])c4F)c4nc(c(-c5cccc(S(=O)(=O)[O-])c5F)c5ccc2[nH]5)C=C4)C=C3)cc1
REMARK SMILES IDX 5 1 4 2 3 3 1 4 2 5 27 7 28 8 89 9 29 10 88 11 30 12 31 13
REMARK SMILES IDX 32 14 82 15 33 16 87 17 81 18 83 19 34 20 86 21 80 22 79 23
REMARK SMILES IDX 35 25 67 26 47 27 66 28 48 29 51 30 65 31 84 32 49 33 50 34
REMARK SMILES IDX 64 36 85 37 52 38 36 39 37 40 45 41 38 42 40 43 46 44 39 45
REMARK SMILES IDX 41 46 42 47 43 48 44 49 68 50 69 51 77 52 70 53 72 54 78 55
REMARK SMILES IDX 71 56 73 57 74 58 75 59 76 60 53 61 54 62 62 63 55 64 57 65
REMARK SMILES IDX 63 66 56 67 58 68 59 69 60 70 61 71 6 72 7 73 8 74 9 75
REMARK SMILES IDX 10 76 11 77 12 79 13 80 14 81 26 82 15 83 16 84 17 85 18 86
REMARK SMILES IDX 25 87 19 89 20 90 24 91 21 92 23 93 22 94
REMARK H PARENT 3 6 83 24 51 35 10 78 17 88
REMARK Flexibility Score: inf
ROOT
ATOM      1  C   UNL A   1      38.220  19.592  25.068  1.00  0.00     0.021 C 
ENDROOT
BRANCH   1   2
ATOM      2  C   UNL A   1      39.260  20.057  26.074  1.00  0.00     0.116 C 
BRANCH   2   3
ATOM      3  N   UNL A   1      40.395  19.157  26.168  1.00  0.00    -0.352 N 
ATOM      4  O   UNL A   1      42.581  18.596  26.196  1.00  0.00    -0.269 OA
ATOM      5  C   UNL A   1      41.728  19.476  26.284  1.00  0.00     0.251 C 
ATOM      6  H   UNL A   1      40.183  18.196  26.147  1.00  0.00     0.163 HD
BRANCH   5   7
ATOM      7  C   UNL A   1      42.120  20.890  26.482  1.00  0.00     0.039 A 
ATOM      8  C   UNL A   1      42.316  21.394  27.770  1.00  0.00     0.014 A 
ATOM      9  C   UNL A   1      42.269  21.726  25.372  1.00  0.00     0.014 A 
ATOM     10  C   UNL A   1      42.507  22.758  27.954  1.00  0.00     0.010 A 
ATOM     11  C   UNL A   1      42.564  23.082  25.558  1.00  0.00     0.010 A 
ATOM     12  C   UNL A   1      42.656  23.616  26.851  1.00  0.00    -0.014 A 
BRANCH  12  13
ATOM     13  C   UNL A   1      43.008  25.038  27.100  1.00  0.00     0.031 A 
ATOM     14  C   UNL A   1      42.068  25.981  27.797  1.00  0.00     0.074 A 
ATOM     15  C   UNL A   1      44.225  25.465  26.707  1.00  0.00     0.049 A 
ATOM     16  N   UNL A   1      42.270  27.226  28.152  1.00  0.00    -0.248 NA
ATOM     17  C   UNL A   1      40.728  25.477  28.136  1.00  0.00     0.031 C 
ATOM     18  C   UNL A   1      45.195  24.657  25.961  1.00  0.00     0.029 A 
ATOM     19  N   UNL A   1      44.862  26.665  26.884  1.00  0.00    -0.354 N 
ATOM     20  C   UNL A   1      41.083  27.663  28.725  1.00  0.00     0.074 A 
ATOM     21  C   UNL A   1      40.155  26.554  28.661  1.00  0.00     0.031 C 
ATOM     22  C   UNL A   1      46.318  25.367  25.784  1.00  0.00     0.029 A 
ATOM     23  C   UNL A   1      46.131  26.695  26.353  1.00  0.00     0.049 A 
ATOM     24  H   UNL A   1      44.452  27.432  27.346  1.00  0.00     0.167 HD
ATOM     25  C   UNL A   1      40.800  28.870  29.273  1.00  0.00     0.034 A 
ATOM     26  C   UNL A   1      47.045  27.683  26.320  1.00  0.00     0.034 A 
ATOM     27  C   UNL A   1      41.738  29.960  29.359  1.00  0.00     0.049 A 
ATOM     28  C   UNL A   1      46.723  28.988  26.984  1.00  0.00     0.074 A 
ATOM     29  C   UNL A   1      41.558  31.210  29.926  1.00  0.00     0.029 A 
ATOM     30  N   UNL A   1      43.034  29.933  28.864  1.00  0.00    -0.354 N 
ATOM     31  N   UNL A   1      45.635  29.336  27.629  1.00  0.00    -0.248 NA
ATOM     32  C   UNL A   1      47.761  30.025  26.947  1.00  0.00     0.031 C 
ATOM     33  C   UNL A   1      42.742  31.940  29.769  1.00  0.00     0.029 A 
ATOM     34  C   UNL A   1      43.666  31.140  29.116  1.00  0.00     0.049 A 
ATOM     35  H   UNL A   1      43.446  29.167  28.402  1.00  0.00     0.167 HD
ATOM     36  C   UNL A   1      45.860  30.629  28.080  1.00  0.00     0.074 A 
ATOM     37  C   UNL A   1      47.206  30.983  27.677  1.00  0.00     0.031 C 
ATOM     38  C   UNL A   1      45.019  31.461  28.743  1.00  0.00     0.034 A 
BRANCH  25  39
ATOM     39  C   UNL A   1      39.434  29.066  29.883  1.00  0.00     0.023 A 
ATOM     40  C   UNL A   1      39.178  28.560  31.173  1.00  0.00     0.012 A 
ATOM     41  C   UNL A   1      38.439  29.817  29.225  1.00  0.00     0.148 A 
ATOM     42  C   UNL A   1      37.946  28.778  31.791  1.00  0.00     0.002 A 
ATOM     43  C   UNL A   1      37.226  30.061  29.862  1.00  0.00     0.091 A 
ATOM     44  F   UNL A   1      38.694  30.275  27.991  1.00  0.00    -0.205 F 
ATOM     45  C   UNL A   1      36.976  29.535  31.141  1.00  0.00     0.022 A 
BRANCH  43  46
ATOM     46  S   UNL A   1      35.937  31.085  29.143  1.00  0.00     0.127 S 
ATOM     47  O   UNL A   1      35.225  30.119  28.307  1.00  0.00    -0.237 OA
ATOM     48  O   UNL A   1      35.199  31.529  30.325  1.00  0.00    -0.237 OA
ATOM     49  O   UNL A   1      36.625  32.148  28.423  1.00  0.00    -0.744 OA
ENDBRANCH  43  46
ENDBRANCH  25  39
BRANCH  26  50
ATOM     50  C   UNL A   1      48.363  27.443  25.670  1.00  0.00     0.023 A 
ATOM     51  C   UNL A   1      49.452  26.994  26.441  1.00  0.00     0.012 A 
ATOM     52  C   UNL A   1      48.525  27.597  24.279  1.00  0.00     0.148 A 
ATOM     53  C   UNL A   1      50.684  26.727  25.843  1.00  0.00     0.002 A 
ATOM     54  C   UNL A   1      49.736  27.267  23.680  1.00  0.00     0.091 A 
ATOM     55  F   UNL A   1      47.486  28.046  23.562  1.00  0.00    -0.205 F 
ATOM     56  C   UNL A   1      50.822  26.849  24.462  1.00  0.00     0.022 A 
BRANCH  54  57
ATOM     57  S   UNL A   1      49.924  27.241  21.895  1.00  0.00     0.127 S 
ATOM     58  O   UNL A   1      48.866  26.316  21.495  1.00  0.00    -0.237 OA
ATOM     59  O   UNL A   1      49.687  28.640  21.537  1.00  0.00    -0.237 OA
ATOM     60  O   UNL A   1      51.291  26.794  21.664  1.00  0.00    -0.744 OA
ENDBRANCH  54  57
ENDBRANCH  26  50
BRANCH  38  61
ATOM     61  C   UNL A   1      45.537  32.835  29.072  1.00  0.00     0.023 A 
ATOM     62  C   UNL A   1      46.209  33.047  30.293  1.00  0.00     0.012 A 
ATOM     63  C   UNL A   1      45.392  33.902  28.167  1.00  0.00     0.148 A 
ATOM     64  C   UNL A   1      46.695  34.310  30.624  1.00  0.00     0.002 A 
ATOM     65  C   UNL A   1      45.919  35.149  28.485  1.00  0.00     0.091 A 
ATOM     66  F   UNL A   1      44.729  33.687  27.022  1.00  0.00    -0.205 F 
ATOM     67  C   UNL A   1      46.559  35.358  29.717  1.00  0.00     0.022 A 
BRANCH  65  68
ATOM     68  S   UNL A   1      45.858  36.530  27.337  1.00  0.00     0.127 S 
ATOM     69  O   UNL A   1      46.544  37.577  28.094  1.00  0.00    -0.237 OA
ATOM     70  O   UNL A   1      46.606  36.018  26.188  1.00  0.00    -0.237 OA
ATOM     71  O   UNL A   1      44.444  36.763  27.075  1.00  0.00    -0.744 OA
ENDBRANCH  65  68
ENDBRANCH  38  61
ENDBRANCH  12  13
ENDBRANCH   5   7
ENDBRANCH   2   3
ENDBRANCH   1   2
BRANCH   1  72
ATOM     72  C   UNL A   1      37.232  20.662  24.611  1.00  0.00     0.002 C 
BRANCH  72  73
ATOM     73  C   UNL A   1      37.358  22.033  25.282  1.00  0.00     0.002 C 
BRANCH  73  74
ATOM     74  C   UNL A   1      36.822  23.233  24.498  1.00  0.00     0.021 C 
BRANCH  74  75
ATOM     75  C   UNL A   1      35.824  22.918  23.391  1.00  0.00     0.116 C 
BRANCH  75  76
ATOM     76  N   UNL A   1      34.831  23.952  23.228  1.00  0.00    -0.356 N 
ATOM     77  C   UNL A   1      33.645  24.142  23.856  1.00  0.00     0.227 C 
ATOM     78  H   UNL A   1      35.051  24.632  22.550  1.00  0.00     0.163 HD
ATOM     79  O   UNL A   1      33.056  25.205  23.621  1.00  0.00    -0.274 OA
BRANCH  77  80
ATOM     80  C   UNL A   1      32.950  23.069  24.698  1.00  0.00     0.107 C 
ATOM     81  C   UNL A   1      33.572  22.456  25.907  1.00  0.00    -0.012 C 
ATOM     82  C   UNL A   1      32.612  21.862  23.816  1.00  0.00     0.087 C 
ATOM     83  C   UNL A   1      33.687  21.126  25.796  1.00  0.00     0.033 C 
ATOM     84  C   UNL A   1      33.230  20.606  24.462  1.00  0.00     0.208 C 
BRANCH  84  85
ATOM     85  N   UNL A   1      32.441  19.378  24.607  1.00  0.00    -0.328 N 
ATOM     86  C   UNL A   1      32.925  18.458  25.645  1.00  0.00     0.275 C 
ATOM     87  C   UNL A   1      32.646  18.389  23.550  1.00  0.00     0.275 C 
ATOM     88  H   UNL A   1      31.520  19.803  24.713  1.00  0.00     0.348 HD
ATOM     89  C   UNL A   1      33.357  17.431  24.557  1.00  0.00     0.073 C 
ATOM     90  C   UNL A   1      32.671  16.057  24.505  1.00  0.00     0.047 C 
ATOM     91  C   UNL A   1      34.882  17.268  24.444  1.00  0.00     0.047 C 
ATOM     92  C   UNL A   1      33.329  15.083  25.470  1.00  0.00     0.161 C 
ATOM     93  C   UNL A   1      35.385  16.214  25.419  1.00  0.00     0.161 C 
ATOM     94  O   UNL A   1      34.725  14.972  25.193  1.00  0.00    -0.381 OA
ENDBRANCH  84  85
ENDBRANCH  77  80
ENDBRANCH  75  76
ENDBRANCH  74  75
ENDBRANCH  73  74
ENDBRANCH  72  73
ENDBRANCH   1  72
TORSDOF 17
ENDMDL
