MODEL 1
REMARK VINA RESULT:     -11.3      0.000      0.000
REMARK SMILES O=C(NCCCCCCNC(=O)c1ccc(N2C(=O)C[C@H]([NH+]3CCN(c4ccc(F)cc4)CC3)C2=O)cc1)c1ccc(-c2c3nc(c(-c4cccc(S(=O)(=O)[O-])c4F)c4ccc([nH]4)c(-c4cccc(S(=O)(=O)[O-])c4F)c4nc(c(-c5cccc(S(=O)(=O)[O-])c5F)c5ccc2[nH]5)C=C4)C=C3)cc1
REMARK SMILES IDX 6 1 5 2 4 3 3 4 1 5 2 6 39 8 40 9 101 10 41 11 100 12 42 13
REMARK SMILES IDX 43 14 44 15 94 16 45 17 99 18 93 19 95 20 46 21 98 22 92 23
REMARK SMILES IDX 91 24 47 26 79 27 59 28 78 29 60 30 63 31 77 32 96 33 61 34
REMARK SMILES IDX 62 35 76 37 97 38 64 39 48 40 49 41 57 42 50 43 52 44 58 45
REMARK SMILES IDX 51 46 53 47 54 48 55 49 56 50 80 51 81 52 89 53 82 54 84 55
REMARK SMILES IDX 90 56 83 57 85 58 86 59 87 60 88 61 65 62 66 63 74 64 67 65
REMARK SMILES IDX 69 66 75 67 68 68 70 69 71 70 72 71 73 72 7 73 8 74 9 75
REMARK SMILES IDX 10 76 11 77 12 79 13 80 14 81 38 82 15 83 37 84 16 85 17 86
REMARK SMILES IDX 18 87 35 88 19 89 20 90 21 91 36 92 22 93 23 94 34 95 24 97
REMARK SMILES IDX 33 98 25 99 26 100 27 101 32 102 28 103 31 104 29 105 30 106
REMARK H PARENT 3 7 95 25 63 36 10 78 22 96
REMARK Flexibility Score: inf
ROOT
ATOM      1  C   UNL A   1      39.893  27.174  29.004  1.00  0.00     0.002 C 
ENDROOT
BRANCH   1   2
ATOM      2  C   UNL A   1      39.891  25.779  28.384  1.00  0.00     0.021 C 
BRANCH   2   3
ATOM      3  C   UNL A   1      39.603  25.747  26.890  1.00  0.00     0.116 C 
BRANCH   3   4
ATOM      4  N   UNL A   1      40.677  25.136  26.121  1.00  0.00    -0.352 N 
ATOM      5  O   UNL A   1      42.636  25.053  25.004  1.00  0.00    -0.269 OA
ATOM      6  C   UNL A   1      41.914  25.647  25.799  1.00  0.00     0.251 C 
ATOM      7  H   UNL A   1      40.493  24.230  25.783  1.00  0.00     0.163 HD
BRANCH   6   8
ATOM      8  C   UNL A   1      42.342  26.935  26.389  1.00  0.00     0.039 A 
ATOM      9  C   UNL A   1      43.284  26.957  27.418  1.00  0.00     0.014 A 
ATOM     10  C   UNL A   1      41.763  28.125  25.942  1.00  0.00     0.014 A 
ATOM     11  C   UNL A   1      43.495  28.131  28.130  1.00  0.00     0.010 A 
ATOM     12  C   UNL A   1      42.068  29.328  26.588  1.00  0.00     0.010 A 
ATOM     13  C   UNL A   1      42.896  29.334  27.721  1.00  0.00    -0.014 A 
BRANCH  13  14
ATOM     14  C   UNL A   1      43.194  30.580  28.476  1.00  0.00     0.031 A 
ATOM     15  C   UNL A   1      44.291  31.519  28.048  1.00  0.00     0.074 A 
ATOM     16  C   UNL A   1      42.439  30.876  29.554  1.00  0.00     0.049 A 
ATOM     17  N   UNL A   1      44.632  32.673  28.564  1.00  0.00    -0.248 NA
ATOM     18  C   UNL A   1      45.118  31.114  26.899  1.00  0.00     0.031 C 
ATOM     19  C   UNL A   1      41.372  30.028  30.092  1.00  0.00     0.029 A 
ATOM     20  N   UNL A   1      42.440  31.969  30.382  1.00  0.00    -0.354 N 
ATOM     21  C   UNL A   1      45.738  33.107  27.843  1.00  0.00     0.074 A 
ATOM     22  C   UNL A   1      46.016  32.090  26.852  1.00  0.00     0.031 C 
ATOM     23  C   UNL A   1      40.794  30.649  31.129  1.00  0.00     0.029 A 
ATOM     24  C   UNL A   1      41.489  31.905  31.374  1.00  0.00     0.049 A 
ATOM     25  H   UNL A   1      43.062  32.725  30.278  1.00  0.00     0.167 HD
ATOM     26  C   UNL A   1      46.452  34.251  27.986  1.00  0.00     0.034 A 
ATOM     27  C   UNL A   1      41.214  32.754  32.382  1.00  0.00     0.034 A 
ATOM     28  C   UNL A   1      46.151  35.274  28.955  1.00  0.00     0.049 A 
ATOM     29  C   UNL A   1      42.011  34.021  32.502  1.00  0.00     0.074 A 
ATOM     30  C   UNL A   1      46.769  36.501  29.129  1.00  0.00     0.029 A 
ATOM     31  N   UNL A   1      45.165  35.185  29.925  1.00  0.00    -0.354 N 
ATOM     32  N   UNL A   1      42.968  34.470  31.728  1.00  0.00    -0.248 NA
ATOM     33  C   UNL A   1      41.668  34.911  33.619  1.00  0.00     0.031 C 
ATOM     34  C   UNL A   1      46.184  37.134  30.230  1.00  0.00     0.029 A 
ATOM     35  C   UNL A   1      45.168  36.326  30.712  1.00  0.00     0.049 A 
ATOM     36  H   UNL A   1      44.552  34.423  30.038  1.00  0.00     0.167 HD
ATOM     37  C   UNL A   1      43.316  35.714  32.240  1.00  0.00     0.074 A 
ATOM     38  C   UNL A   1      42.451  35.954  33.377  1.00  0.00     0.031 C 
ATOM     39  C   UNL A   1      44.272  36.575  31.813  1.00  0.00     0.034 A 
BRANCH  26  40
ATOM     40  C   UNL A   1      47.628  34.472  27.067  1.00  0.00     0.023 A 
ATOM     41  C   UNL A   1      47.454  35.153  25.845  1.00  0.00     0.012 A 
ATOM     42  C   UNL A   1      48.923  34.064  27.448  1.00  0.00     0.148 A 
ATOM     43  C   UNL A   1      48.539  35.391  25.002  1.00  0.00     0.002 A 
ATOM     44  C   UNL A   1      50.007  34.346  26.625  1.00  0.00     0.091 A 
ATOM     45  F   UNL A   1      49.070  33.403  28.605  1.00  0.00    -0.205 F 
ATOM     46  C   UNL A   1      49.814  34.998  25.395  1.00  0.00     0.022 A 
BRANCH  44  47
ATOM     47  S   UNL A   1      51.700  33.957  27.082  1.00  0.00     0.127 S 
ATOM     48  O   UNL A   1      51.642  32.502  27.215  1.00  0.00    -0.237 OA
ATOM     49  O   UNL A   1      52.449  34.432  25.919  1.00  0.00    -0.237 OA
ATOM     50  O   UNL A   1      51.963  34.688  28.313  1.00  0.00    -0.744 OA
ENDBRANCH  44  47
ENDBRANCH  26  40
BRANCH  27  51
ATOM     51  C   UNL A   1      40.105  32.449  33.328  1.00  0.00     0.023 A 
ATOM     52  C   UNL A   1      40.335  31.580  34.412  1.00  0.00     0.012 A 
ATOM     53  C   UNL A   1      38.835  33.038  33.176  1.00  0.00     0.148 A 
ATOM     54  C   UNL A   1      39.310  31.274  35.307  1.00  0.00     0.002 A 
ATOM     55  C   UNL A   1      37.837  32.777  34.106  1.00  0.00     0.091 A 
ATOM     56  F   UNL A   1      38.635  33.857  32.134  1.00  0.00    -0.205 F 
ATOM     57  C   UNL A   1      38.066  31.880  35.160  1.00  0.00     0.022 A 
BRANCH  55  58
ATOM     58  S   UNL A   1      36.249  33.617  34.074  1.00  0.00     0.127 S 
ATOM     59  O   UNL A   1      35.850  33.551  35.478  1.00  0.00    -0.237 OA
ATOM     60  O   UNL A   1      36.624  34.950  33.601  1.00  0.00    -0.237 OA
ATOM     61  O   UNL A   1      35.422  32.860  33.145  1.00  0.00    -0.744 OA
ENDBRANCH  55  58
ENDBRANCH  27  51
BRANCH  39  62
ATOM     62  C   UNL A   1      44.398  37.887  32.542  1.00  0.00     0.023 A 
ATOM     63  C   UNL A   1      45.166  37.975  33.720  1.00  0.00     0.012 A 
ATOM     64  C   UNL A   1      43.787  39.049  32.028  1.00  0.00     0.148 A 
ATOM     65  C   UNL A   1      45.286  39.187  34.399  1.00  0.00     0.002 A 
ATOM     66  C   UNL A   1      43.957  40.263  32.678  1.00  0.00     0.091 A 
ATOM     67  F   UNL A   1      43.042  38.942  30.918  1.00  0.00    -0.205 F 
ATOM     68  C   UNL A   1      44.692  40.332  33.873  1.00  0.00     0.022 A 
BRANCH  66  69
ATOM     69  S   UNL A   1      43.314  41.804  32.018  1.00  0.00     0.127 S 
ATOM     70  O   UNL A   1      43.922  41.836  30.689  1.00  0.00    -0.237 OA
ATOM     71  O   UNL A   1      41.871  41.566  32.024  1.00  0.00    -0.237 OA
ATOM     72  O   UNL A   1      43.757  42.848  32.933  1.00  0.00    -0.744 OA
ENDBRANCH  66  69
ENDBRANCH  39  62
ENDBRANCH  13  14
ENDBRANCH   6   8
ENDBRANCH   3   4
ENDBRANCH   2   3
ENDBRANCH   1   2
BRANCH   1  73
ATOM     73  C   UNL A   1      38.529  27.671  29.490  1.00  0.00     0.002 C 
BRANCH  73  74
ATOM     74  C   UNL A   1      38.029  28.965  28.837  1.00  0.00     0.021 C 
BRANCH  74  75
ATOM     75  C   UNL A   1      36.625  29.393  29.256  1.00  0.00     0.116 C 
BRANCH  75  76
ATOM     76  N   UNL A   1      36.363  30.779  28.904  1.00  0.00    -0.352 N 
ATOM     77  C   UNL A   1      35.508  31.276  27.958  1.00  0.00     0.251 C 
ATOM     78  H   UNL A   1      36.869  31.451  29.416  1.00  0.00     0.163 HD
ATOM     79  O   UNL A   1      35.544  32.457  27.631  1.00  0.00    -0.269 OA
BRANCH  77  80
ATOM     80  C   UNL A   1      34.534  30.371  27.323  1.00  0.00     0.039 A 
ATOM     81  C   UNL A   1      34.990  29.201  26.718  1.00  0.00     0.016 A 
ATOM     82  C   UNL A   1      33.177  30.697  27.306  1.00  0.00     0.016 A 
ATOM     83  C   UNL A   1      34.072  28.321  26.142  1.00  0.00     0.027 A 
ATOM     84  C   UNL A   1      32.268  29.830  26.696  1.00  0.00     0.027 A 
ATOM     85  C   UNL A   1      32.702  28.627  26.115  1.00  0.00     0.052 A 
BRANCH  85  86
ATOM     86  N   UNL A   1      31.776  27.752  25.500  1.00  0.00    -0.245 N 
ATOM     87  C   UNL A   1      31.228  26.658  26.128  1.00  0.00     0.240 C 
ATOM     88  C   UNL A   1      31.305  27.892  24.209  1.00  0.00     0.292 C 
ATOM     89  O   UNL A   1      31.447  26.227  27.250  1.00  0.00    -0.274 OA
ATOM     90  C   UNL A   1      30.160  26.092  25.248  1.00  0.00     0.176 C 
ATOM     91  C   UNL A   1      30.481  26.649  23.874  1.00  0.00     0.284 C 
ATOM     92  O   UNL A   1      31.536  28.797  23.415  1.00  0.00    -0.267 OA
BRANCH  91  93
ATOM     93  N   UNL A   1      31.177  25.797  22.891  1.00  0.00    -0.321 N 
ATOM     94  C   UNL A   1      32.619  26.030  22.674  1.00  0.00     0.284 C 
ATOM     95  C   UNL A   1      30.936  24.348  23.059  1.00  0.00     0.284 C 
ATOM     96  H   UNL A   1      30.719  26.125  22.042  1.00  0.00     0.348 HD
ATOM     97  C   UNL A   1      33.582  25.399  23.705  1.00  0.00     0.178 C 
ATOM     98  C   UNL A   1      31.833  23.605  24.076  1.00  0.00     0.178 C 
ATOM     99  N   UNL A   1      33.235  24.000  23.942  1.00  0.00    -0.360 N 
BRANCH  99 100
ATOM    100  C   UNL A   1      34.252  23.084  24.118  1.00  0.00     0.037 A 
ATOM    101  C   UNL A   1      34.067  21.915  24.870  1.00  0.00     0.029 A 
ATOM    102  C   UNL A   1      35.532  23.351  23.613  1.00  0.00     0.029 A 
ATOM    103  C   UNL A   1      35.131  21.045  25.120  1.00  0.00     0.041 A 
ATOM    104  C   UNL A   1      36.603  22.497  23.875  1.00  0.00     0.041 A 
ATOM    105  C   UNL A   1      36.393  21.351  24.628  1.00  0.00     0.123 A 
ATOM    106  F   UNL A   1      37.420  20.532  24.886  1.00  0.00    -0.207 F 
ENDBRANCH  99 100
ENDBRANCH  91  93
ENDBRANCH  85  86
ENDBRANCH  77  80
ENDBRANCH  75  76
ENDBRANCH  74  75
ENDBRANCH  73  74
ENDBRANCH   1  73
TORSDOF 19
ENDMDL
MODEL 2
REMARK VINA RESULT:     -10.9      3.017      8.405
REMARK SMILES O=C(NCCCCCCNC(=O)c1ccc(N2C(=O)C[C@H]([NH+]3CCN(c4ccc(F)cc4)CC3)C2=O)cc1)c1ccc(-c2c3nc(c(-c4cccc(S(=O)(=O)[O-])c4F)c4ccc([nH]4)c(-c4cccc(S(=O)(=O)[O-])c4F)c4nc(c(-c5cccc(S(=O)(=O)[O-])c5F)c5ccc2[nH]5)C=C4)C=C3)cc1
REMARK SMILES IDX 6 1 5 2 4 3 3 4 1 5 2 6 39 8 40 9 101 10 41 11 100 12 42 13
REMARK SMILES IDX 43 14 44 15 94 16 45 17 99 18 93 19 95 20 46 21 98 22 92 23
REMARK SMILES IDX 91 24 47 26 79 27 59 28 78 29 60 30 63 31 77 32 96 33 61 34
REMARK SMILES IDX 62 35 76 37 97 38 64 39 48 40 49 41 57 42 50 43 52 44 58 45
REMARK SMILES IDX 51 46 53 47 54 48 55 49 56 50 80 51 81 52 89 53 82 54 84 55
REMARK SMILES IDX 90 56 83 57 85 58 86 59 87 60 88 61 65 62 66 63 74 64 67 65
REMARK SMILES IDX 69 66 75 67 68 68 70 69 71 70 72 71 73 72 7 73 8 74 9 75
REMARK SMILES IDX 10 76 11 77 12 79 13 80 14 81 38 82 15 83 37 84 16 85 17 86
REMARK SMILES IDX 18 87 35 88 19 89 20 90 21 91 36 92 22 93 23 94 34 95 24 97
REMARK SMILES IDX 33 98 25 99 26 100 27 101 32 102 28 103 31 104 29 105 30 106
REMARK H PARENT 3 7 95 25 63 36 10 78 22 96
REMARK Flexibility Score: inf
ROOT
ATOM      1  C   UNL A   1      39.708  27.265  29.814  1.00  0.00     0.002 C 
ENDROOT
BRANCH   1   2
ATOM      2  C   UNL A   1      38.533  27.004  30.753  1.00  0.00     0.021 C 
BRANCH   2   3
ATOM      3  C   UNL A   1      38.677  27.615  32.139  1.00  0.00     0.116 C 
BRANCH   3   4
ATOM      4  N   UNL A   1      37.607  28.547  32.459  1.00  0.00    -0.352 N 
ATOM      5  O   UNL A   1      36.655  30.559  32.832  1.00  0.00    -0.269 OA
ATOM      6  C   UNL A   1      37.594  29.921  32.366  1.00  0.00     0.251 C 
ATOM      7  H   UNL A   1      36.775  28.138  32.789  1.00  0.00     0.163 HD
BRANCH   6   8
ATOM      8  C   UNL A   1      38.739  30.615  31.737  1.00  0.00     0.039 A 
ATOM      9  C   UNL A   1      38.784  30.783  30.352  1.00  0.00     0.014 A 
ATOM     10  C   UNL A   1      39.798  31.061  32.532  1.00  0.00     0.014 A 
ATOM     11  C   UNL A   1      39.961  31.207  29.749  1.00  0.00     0.010 A 
ATOM     12  C   UNL A   1      40.940  31.597  31.926  1.00  0.00     0.010 A 
ATOM     13  C   UNL A   1      41.053  31.626  30.528  1.00  0.00    -0.014 A 
BRANCH  13  14
ATOM     14  C   UNL A   1      42.274  32.128  29.844  1.00  0.00     0.031 A 
ATOM     15  C   UNL A   1      42.481  33.595  29.573  1.00  0.00     0.074 A 
ATOM     16  C   UNL A   1      43.224  31.239  29.486  1.00  0.00     0.049 A 
ATOM     17  N   UNL A   1      43.517  34.194  29.043  1.00  0.00    -0.248 NA
ATOM     18  C   UNL A   1      41.385  34.511  29.933  1.00  0.00     0.031 C 
ATOM     19  C   UNL A   1      43.124  29.787  29.660  1.00  0.00     0.029 A 
ATOM     20  N   UNL A   1      44.457  31.419  28.917  1.00  0.00    -0.354 N 
ATOM     21  C   UNL A   1      43.183  35.541  28.958  1.00  0.00     0.074 A 
ATOM     22  C   UNL A   1      41.843  35.674  29.489  1.00  0.00     0.031 C 
ATOM     23  C   UNL A   1      44.263  29.214  29.248  1.00  0.00     0.029 A 
ATOM     24  C   UNL A   1      45.146  30.245  28.720  1.00  0.00     0.049 A 
ATOM     25  H   UNL A   1      44.816  32.303  28.671  1.00  0.00     0.167 HD
ATOM     26  C   UNL A   1      43.926  36.574  28.490  1.00  0.00     0.034 A 
ATOM     27  C   UNL A   1      46.350  30.015  28.163  1.00  0.00     0.034 A 
ATOM     28  C   UNL A   1      45.271  36.440  27.991  1.00  0.00     0.049 A 
ATOM     29  C   UNL A   1      47.156  31.183  27.670  1.00  0.00     0.074 A 
ATOM     30  C   UNL A   1      46.133  37.437  27.564  1.00  0.00     0.029 A 
ATOM     31  N   UNL A   1      45.944  35.239  27.832  1.00  0.00    -0.354 N 
ATOM     32  N   UNL A   1      46.872  32.461  27.720  1.00  0.00    -0.248 NA
ATOM     33  C   UNL A   1      48.461  30.876  27.071  1.00  0.00     0.031 C 
ATOM     34  C   UNL A   1      47.309  36.834  27.108  1.00  0.00     0.029 A 
ATOM     35  C   UNL A   1      47.203  35.466  27.297  1.00  0.00     0.049 A 
ATOM     36  H   UNL A   1      45.581  34.354  28.065  1.00  0.00     0.167 HD
ATOM     37  C   UNL A   1      47.980  33.115  27.196  1.00  0.00     0.074 A 
ATOM     38  C   UNL A   1      48.946  32.091  26.855  1.00  0.00     0.031 C 
ATOM     39  C   UNL A   1      48.175  34.443  27.004  1.00  0.00     0.034 A 
BRANCH  26  40
ATOM     40  C   UNL A   1      43.311  37.952  28.502  1.00  0.00     0.023 A 
ATOM     41  C   UNL A   1      42.460  38.356  27.453  1.00  0.00     0.012 A 
ATOM     42  C   UNL A   1      43.524  38.823  29.590  1.00  0.00     0.148 A 
ATOM     43  C   UNL A   1      41.861  39.616  27.468  1.00  0.00     0.002 A 
ATOM     44  C   UNL A   1      42.885  40.058  29.621  1.00  0.00     0.091 A 
ATOM     45  F   UNL A   1      44.348  38.432  30.571  1.00  0.00    -0.205 F 
ATOM     46  C   UNL A   1      42.064  40.461  28.554  1.00  0.00     0.022 A 
BRANCH  44  47
ATOM     47  S   UNL A   1      43.015  41.183  31.016  1.00  0.00     0.127 S 
ATOM     48  O   UNL A   1      42.016  42.195  30.672  1.00  0.00    -0.237 OA
ATOM     49  O   UNL A   1      42.647  40.322  32.140  1.00  0.00    -0.237 OA
ATOM     50  O   UNL A   1      44.395  41.646  31.032  1.00  0.00    -0.744 OA
ENDBRANCH  44  47
ENDBRANCH  26  40
BRANCH  27  51
ATOM     51  C   UNL A   1      46.879  28.626  28.082  1.00  0.00     0.023 A 
ATOM     52  C   UNL A   1      47.732  28.146  29.094  1.00  0.00     0.012 A 
ATOM     53  C   UNL A   1      46.521  27.771  27.022  1.00  0.00     0.148 A 
ATOM     54  C   UNL A   1      48.246  26.851  29.035  1.00  0.00     0.002 A 
ATOM     55  C   UNL A   1      46.986  26.463  27.002  1.00  0.00     0.091 A 
ATOM     56  F   UNL A   1      45.714  28.249  26.065  1.00  0.00    -0.205 F 
ATOM     57  C   UNL A   1      47.865  26.007  27.997  1.00  0.00     0.022 A 
BRANCH  55  58
ATOM     58  S   UNL A   1      46.441  25.265  25.780  1.00  0.00     0.127 S 
ATOM     59  O   UNL A   1      47.128  24.054  26.222  1.00  0.00    -0.237 OA
ATOM     60  O   UNL A   1      44.992  25.263  25.987  1.00  0.00    -0.237 OA
ATOM     61  O   UNL A   1      46.863  25.797  24.491  1.00  0.00    -0.744 OA
ENDBRANCH  55  58
ENDBRANCH  27  51
BRANCH  39  62
ATOM     62  C   UNL A   1      49.508  34.875  26.452  1.00  0.00     0.023 A 
ATOM     63  C   UNL A   1      49.679  35.051  25.064  1.00  0.00     0.012 A 
ATOM     64  C   UNL A   1      50.583  35.150  27.320  1.00  0.00     0.148 A 
ATOM     65  C   UNL A   1      50.911  35.450  24.547  1.00  0.00     0.002 A 
ATOM     66  C   UNL A   1      51.789  35.602  26.803  1.00  0.00     0.091 A 
ATOM     67  F   UNL A   1      50.409  34.956  28.636  1.00  0.00    -0.205 F 
ATOM     68  C   UNL A   1      51.962  35.737  25.417  1.00  0.00     0.022 A 
BRANCH  66  69
ATOM     69  S   UNL A   1      53.162  36.090  27.854  1.00  0.00     0.127 S 
ATOM     70  O   UNL A   1      53.515  34.823  28.492  1.00  0.00    -0.237 OA
ATOM     71  O   UNL A   1      54.139  36.577  26.881  1.00  0.00    -0.237 OA
ATOM     72  O   UNL A   1      52.637  37.115  28.747  1.00  0.00    -0.744 OA
ENDBRANCH  66  69
ENDBRANCH  39  62
ENDBRANCH  13  14
ENDBRANCH   6   8
ENDBRANCH   3   4
ENDBRANCH   2   3
ENDBRANCH   1   2
BRANCH   1  73
ATOM     73  C   UNL A   1      39.404  27.079  28.325  1.00  0.00     0.002 C 
BRANCH  73  74
ATOM     74  C   UNL A   1      40.614  26.752  27.442  1.00  0.00     0.021 C 
BRANCH  74  75
ATOM     75  C   UNL A   1      40.395  25.613  26.450  1.00  0.00     0.116 C 
BRANCH  75  76
ATOM     76  N   UNL A   1      40.939  24.360  26.946  1.00  0.00    -0.352 N 
ATOM     77  C   UNL A   1      40.310  23.154  27.100  1.00  0.00     0.251 C 
ATOM     78  H   UNL A   1      41.888  24.383  27.208  1.00  0.00     0.163 HD
ATOM     79  O   UNL A   1      40.839  22.240  27.724  1.00  0.00    -0.269 OA
BRANCH  77  80
ATOM     80  C   UNL A   1      38.976  22.959  26.507  1.00  0.00     0.039 A 
ATOM     81  C   UNL A   1      37.986  23.912  26.736  1.00  0.00     0.016 A 
ATOM     82  C   UNL A   1      38.702  21.819  25.748  1.00  0.00     0.016 A 
ATOM     83  C   UNL A   1      36.727  23.752  26.152  1.00  0.00     0.027 A 
ATOM     84  C   UNL A   1      37.431  21.648  25.198  1.00  0.00     0.027 A 
ATOM     85  C   UNL A   1      36.431  22.616  25.384  1.00  0.00     0.052 A 
BRANCH  85  86
ATOM     86  N   UNL A   1      35.144  22.436  24.822  1.00  0.00    -0.245 N 
ATOM     87  C   UNL A   1      34.757  22.977  23.618  1.00  0.00     0.240 C 
ATOM     88  C   UNL A   1      34.133  21.696  25.402  1.00  0.00     0.292 C 
ATOM     89  O   UNL A   1      35.386  23.705  22.865  1.00  0.00    -0.274 OA
ATOM     90  C   UNL A   1      33.416  22.422  23.260  1.00  0.00     0.176 C 
ATOM     91  C   UNL A   1      32.864  21.910  24.576  1.00  0.00     0.284 C 
ATOM     92  O   UNL A   1      34.179  21.029  26.429  1.00  0.00    -0.267 OA
BRANCH  91  93
ATOM     93  N   UNL A   1      31.879  22.724  25.315  1.00  0.00    -0.321 N 
ATOM     94  C   UNL A   1      32.364  23.527  26.456  1.00  0.00     0.284 C 
ATOM     95  C   UNL A   1      31.015  23.563  24.458  1.00  0.00     0.284 C 
ATOM     96  H   UNL A   1      31.328  21.973  25.728  1.00  0.00     0.348 HD
ATOM     97  C   UNL A   1      33.027  24.880  26.113  1.00  0.00     0.178 C 
ATOM     98  C   UNL A   1      31.577  24.941  24.038  1.00  0.00     0.178 C 
ATOM     99  N   UNL A   1      32.206  25.630  25.164  1.00  0.00    -0.360 N 
BRANCH  99 100
ATOM    100  C   UNL A   1      32.109  26.998  25.307  1.00  0.00     0.037 A 
ATOM    101  C   UNL A   1      32.572  27.652  26.459  1.00  0.00     0.029 A 
ATOM    102  C   UNL A   1      31.461  27.762  24.326  1.00  0.00     0.029 A 
ATOM    103  C   UNL A   1      32.380  29.025  26.632  1.00  0.00     0.041 A 
ATOM    104  C   UNL A   1      31.250  29.129  24.501  1.00  0.00     0.041 A 
ATOM    105  C   UNL A   1      31.711  29.749  25.654  1.00  0.00     0.123 A 
ATOM    106  F   UNL A   1      31.505  31.060  25.827  1.00  0.00    -0.207 F 
ENDBRANCH  99 100
ENDBRANCH  91  93
ENDBRANCH  85  86
ENDBRANCH  77  80
ENDBRANCH  75  76
ENDBRANCH  74  75
ENDBRANCH  73  74
ENDBRANCH   1  73
TORSDOF 19
ENDMDL
MODEL 3
REMARK VINA RESULT:     -10.8      5.574      9.867
REMARK SMILES O=C(NCCCCCCNC(=O)c1ccc(N2C(=O)C[C@H]([NH+]3CCN(c4ccc(F)cc4)CC3)C2=O)cc1)c1ccc(-c2c3nc(c(-c4cccc(S(=O)(=O)[O-])c4F)c4ccc([nH]4)c(-c4cccc(S(=O)(=O)[O-])c4F)c4nc(c(-c5cccc(S(=O)(=O)[O-])c5F)c5ccc2[nH]5)C=C4)C=C3)cc1
REMARK SMILES IDX 6 1 5 2 4 3 3 4 1 5 2 6 39 8 40 9 101 10 41 11 100 12 42 13
REMARK SMILES IDX 43 14 44 15 94 16 45 17 99 18 93 19 95 20 46 21 98 22 92 23
REMARK SMILES IDX 91 24 47 26 79 27 59 28 78 29 60 30 63 31 77 32 96 33 61 34
REMARK SMILES IDX 62 35 76 37 97 38 64 39 48 40 49 41 57 42 50 43 52 44 58 45
REMARK SMILES IDX 51 46 53 47 54 48 55 49 56 50 80 51 81 52 89 53 82 54 84 55
REMARK SMILES IDX 90 56 83 57 85 58 86 59 87 60 88 61 65 62 66 63 74 64 67 65
REMARK SMILES IDX 69 66 75 67 68 68 70 69 71 70 72 71 73 72 7 73 8 74 9 75
REMARK SMILES IDX 10 76 11 77 12 79 13 80 14 81 38 82 15 83 37 84 16 85 17 86
REMARK SMILES IDX 18 87 35 88 19 89 20 90 21 91 36 92 22 93 23 94 34 95 24 97
REMARK SMILES IDX 33 98 25 99 26 100 27 101 32 102 28 103 31 104 29 105 30 106
REMARK H PARENT 3 7 95 25 63 36 10 78 22 96
REMARK Flexibility Score: inf
ROOT
ATOM      1  C   UNL A   1      36.159  32.528  29.883  1.00  0.00     0.002 C 
ENDROOT
BRANCH   1   2
ATOM      2  C   UNL A   1      35.477  33.886  30.020  1.00  0.00     0.021 C 
BRANCH   2   3
ATOM      3  C   UNL A   1      34.256  33.897  30.928  1.00  0.00     0.116 C 
BRANCH   3   4
ATOM      4  N   UNL A   1      34.179  35.090  31.757  1.00  0.00    -0.352 N 
ATOM      5  O   UNL A   1      34.655  36.429  33.510  1.00  0.00    -0.269 OA
ATOM      6  C   UNL A   1      34.965  35.459  32.825  1.00  0.00     0.251 C 
ATOM      7  H   UNL A   1      33.464  35.723  31.520  1.00  0.00     0.163 HD
BRANCH   6   8
ATOM      8  C   UNL A   1      36.159  34.650  33.159  1.00  0.00     0.039 A 
ATOM      9  C   UNL A   1      37.414  35.019  32.675  1.00  0.00     0.014 A 
ATOM     10  C   UNL A   1      36.015  33.489  33.923  1.00  0.00     0.014 A 
ATOM     11  C   UNL A   1      38.478  34.133  32.781  1.00  0.00     0.010 A 
ATOM     12  C   UNL A   1      37.119  32.654  34.127  1.00  0.00     0.010 A 
ATOM     13  C   UNL A   1      38.348  32.942  33.514  1.00  0.00    -0.014 A 
BRANCH  13  14
ATOM     14  C   UNL A   1      39.528  32.048  33.651  1.00  0.00     0.031 A 
ATOM     15  C   UNL A   1      40.425  32.106  34.860  1.00  0.00     0.074 A 
ATOM     16  C   UNL A   1      39.775  31.151  32.675  1.00  0.00     0.049 A 
ATOM     17  N   UNL A   1      41.455  31.353  35.155  1.00  0.00    -0.248 NA
ATOM     18  C   UNL A   1      40.140  33.144  35.865  1.00  0.00     0.031 C 
ATOM     19  C   UNL A   1      39.002  31.023  31.436  1.00  0.00     0.029 A 
ATOM     20  N   UNL A   1      40.730  30.173  32.569  1.00  0.00    -0.354 N 
ATOM     21  C   UNL A   1      41.970  31.852  36.346  1.00  0.00     0.074 A 
ATOM     22  C   UNL A   1      41.142  32.979  36.719  1.00  0.00     0.031 C 
ATOM     23  C   UNL A   1      39.484  30.000  30.719  1.00  0.00     0.029 A 
ATOM     24  C   UNL A   1      40.639  29.441  31.408  1.00  0.00     0.049 A 
ATOM     25  H   UNL A   1      41.416  30.011  33.257  1.00  0.00     0.167 HD
ATOM     26  C   UNL A   1      43.030  31.410  37.066  1.00  0.00     0.034 A 
ATOM     27  C   UNL A   1      41.407  28.441  30.939  1.00  0.00     0.034 A 
ATOM     28  C   UNL A   1      43.832  30.269  36.704  1.00  0.00     0.049 A 
ATOM     29  C   UNL A   1      42.563  27.962  31.769  1.00  0.00     0.074 A 
ATOM     30  C   UNL A   1      44.880  29.698  37.407  1.00  0.00     0.029 A 
ATOM     31  N   UNL A   1      43.693  29.538  35.535  1.00  0.00    -0.354 N 
ATOM     32  N   UNL A   1      42.951  28.366  32.953  1.00  0.00    -0.248 NA
ATOM     33  C   UNL A   1      43.367  26.868  31.209  1.00  0.00     0.031 C 
ATOM     34  C   UNL A   1      45.400  28.649  36.642  1.00  0.00     0.029 A 
ATOM     35  C   UNL A   1      44.645  28.532  35.487  1.00  0.00     0.049 A 
ATOM     36  H   UNL A   1      43.016  29.708  34.841  1.00  0.00     0.167 HD
ATOM     37  C   UNL A   1      44.021  27.550  33.299  1.00  0.00     0.074 A 
ATOM     38  C   UNL A   1      44.203  26.616  32.207  1.00  0.00     0.031 C 
ATOM     39  C   UNL A   1      44.789  27.579  34.416  1.00  0.00     0.034 A 
BRANCH  26  40
ATOM     40  C   UNL A   1      43.386  32.151  38.331  1.00  0.00     0.023 A 
ATOM     41  C   UNL A   1      42.742  31.832  39.544  1.00  0.00     0.012 A 
ATOM     42  C   UNL A   1      44.411  33.119  38.331  1.00  0.00     0.148 A 
ATOM     43  C   UNL A   1      43.084  32.488  40.726  1.00  0.00     0.002 A 
ATOM     44  C   UNL A   1      44.780  33.735  39.522  1.00  0.00     0.091 A 
ATOM     45  F   UNL A   1      45.003  33.424  37.168  1.00  0.00    -0.205 F 
ATOM     46  C   UNL A   1      44.108  33.431  40.718  1.00  0.00     0.022 A 
BRANCH  44  47
ATOM     47  S   UNL A   1      46.144  34.900  39.631  1.00  0.00     0.127 S 
ATOM     48  O   UNL A   1      45.554  36.100  39.039  1.00  0.00    -0.237 OA
ATOM     49  O   UNL A   1      46.366  34.979  41.075  1.00  0.00    -0.237 OA
ATOM     50  O   UNL A   1      47.240  34.306  38.880  1.00  0.00    -0.744 OA
ENDBRANCH  44  47
ENDBRANCH  26  40
BRANCH  27  51
ATOM     51  C   UNL A   1      41.078  27.800  29.635  1.00  0.00     0.023 A 
ATOM     52  C   UNL A   1      39.920  27.007  29.522  1.00  0.00     0.012 A 
ATOM     53  C   UNL A   1      41.891  27.996  28.502  1.00  0.00     0.148 A 
ATOM     54  C   UNL A   1      39.597  26.390  28.314  1.00  0.00     0.002 A 
ATOM     55  C   UNL A   1      41.529  27.430  27.286  1.00  0.00     0.091 A 
ATOM     56  F   UNL A   1      42.992  28.749  28.632  1.00  0.00    -0.205 F 
ATOM     57  C   UNL A   1      40.394  26.611  27.194  1.00  0.00     0.022 A 
BRANCH  55  58
ATOM     58  S   UNL A   1      42.420  27.770  25.764  1.00  0.00     0.127 S 
ATOM     59  O   UNL A   1      41.897  26.734  24.876  1.00  0.00    -0.237 OA
ATOM     60  O   UNL A   1      41.976  29.129  25.454  1.00  0.00    -0.237 OA
ATOM     61  O   UNL A   1      43.832  27.661  26.101  1.00  0.00    -0.744 OA
ENDBRANCH  55  58
ENDBRANCH  27  51
BRANCH  39  62
ATOM     62  C   UNL A   1      45.865  26.532  34.543  1.00  0.00     0.023 A 
ATOM     63  C   UNL A   1      47.169  26.791  34.078  1.00  0.00     0.012 A 
ATOM     64  C   UNL A   1      45.588  25.300  35.171  1.00  0.00     0.148 A 
ATOM     65  C   UNL A   1      48.168  25.825  34.193  1.00  0.00     0.002 A 
ATOM     66  C   UNL A   1      46.602  24.366  35.334  1.00  0.00     0.091 A 
ATOM     67  F   UNL A   1      44.336  25.062  35.589  1.00  0.00    -0.205 F 
ATOM     68  C   UNL A   1      47.888  24.618  34.831  1.00  0.00     0.022 A 
BRANCH  66  69
ATOM     69  S   UNL A   1      46.357  22.829  36.231  1.00  0.00     0.127 S 
ATOM     70  O   UNL A   1      47.518  22.048  35.807  1.00  0.00    -0.237 OA
ATOM     71  O   UNL A   1      46.396  23.274  37.624  1.00  0.00    -0.237 OA
ATOM     72  O   UNL A   1      45.065  22.314  35.798  1.00  0.00    -0.744 OA
ENDBRANCH  66  69
ENDBRANCH  39  62
ENDBRANCH  13  14
ENDBRANCH   6   8
ENDBRANCH   3   4
ENDBRANCH   2   3
ENDBRANCH   1   2
BRANCH   1  73
ATOM     73  C   UNL A   1      36.696  32.209  28.484  1.00  0.00     0.002 C 
BRANCH  73  74
ATOM     74  C   UNL A   1      35.719  31.477  27.555  1.00  0.00     0.021 C 
BRANCH  74  75
ATOM     75  C   UNL A   1      34.476  30.920  28.245  1.00  0.00     0.116 C 
BRANCH  75  76
ATOM     76  N   UNL A   1      33.272  31.609  27.814  1.00  0.00    -0.352 N 
ATOM     77  C   UNL A   1      32.345  31.217  26.886  1.00  0.00     0.251 C 
ATOM     78  H   UNL A   1      33.100  32.477  28.247  1.00  0.00     0.163 HD
ATOM     79  O   UNL A   1      31.491  31.996  26.476  1.00  0.00    -0.269 OA
BRANCH  77  80
ATOM     80  C   UNL A   1      32.381  29.836  26.375  1.00  0.00     0.039 A 
ATOM     81  C   UNL A   1      31.909  28.802  27.181  1.00  0.00     0.016 A 
ATOM     82  C   UNL A   1      32.907  29.567  25.110  1.00  0.00     0.016 A 
ATOM     83  C   UNL A   1      31.909  27.494  26.693  1.00  0.00     0.027 A 
ATOM     84  C   UNL A   1      32.938  28.252  24.643  1.00  0.00     0.027 A 
ATOM     85  C   UNL A   1      32.431  27.200  25.423  1.00  0.00     0.052 A 
BRANCH  85  86
ATOM     86  N   UNL A   1      32.464  25.869  24.943  1.00  0.00    -0.245 N 
ATOM     87  C   UNL A   1      31.350  25.185  24.517  1.00  0.00     0.240 C 
ATOM     88  C   UNL A   1      33.609  25.104  24.836  1.00  0.00     0.292 C 
ATOM     89  O   UNL A   1      30.183  25.548  24.506  1.00  0.00    -0.274 OA
ATOM     90  C   UNL A   1      31.792  23.894  23.907  1.00  0.00     0.176 C 
ATOM     91  C   UNL A   1      33.188  23.683  24.460  1.00  0.00     0.284 C 
ATOM     92  O   UNL A   1      34.766  25.440  25.060  1.00  0.00    -0.267 OA
BRANCH  91  93
ATOM     93  N   UNL A   1      33.388  22.752  25.587  1.00  0.00    -0.321 N 
ATOM     94  C   UNL A   1      32.281  21.838  25.933  1.00  0.00     0.284 C 
ATOM     95  C   UNL A   1      34.653  21.989  25.530  1.00  0.00     0.284 C 
ATOM     96  H   UNL A   1      33.429  23.428  26.348  1.00  0.00     0.348 HD
ATOM     97  C   UNL A   1      32.148  20.560  25.074  1.00  0.00     0.178 C 
ATOM     98  C   UNL A   1      34.648  20.691  24.688  1.00  0.00     0.178 C 
ATOM     99  N   UNL A   1      33.443  19.898  24.934  1.00  0.00    -0.360 N 
BRANCH  99 100
ATOM    100  C   UNL A   1      33.490  18.520  24.953  1.00  0.00     0.037 A 
ATOM    101  C   UNL A   1      32.432  17.756  25.468  1.00  0.00     0.029 A 
ATOM    102  C   UNL A   1      34.647  17.850  24.531  1.00  0.00     0.029 A 
ATOM    103  C   UNL A   1      32.533  16.366  25.570  1.00  0.00     0.041 A 
ATOM    104  C   UNL A   1      34.761  16.466  24.647  1.00  0.00     0.041 A 
ATOM    105  C   UNL A   1      33.702  15.735  25.167  1.00  0.00     0.123 A 
ATOM    106  F   UNL A   1      33.811  14.406  25.286  1.00  0.00    -0.207 F 
ENDBRANCH  99 100
ENDBRANCH  91  93
ENDBRANCH  85  86
ENDBRANCH  77  80
ENDBRANCH  75  76
ENDBRANCH  74  75
ENDBRANCH  73  74
ENDBRANCH   1  73
TORSDOF 19
ENDMDL
