MODEL 1
REMARK VINA RESULT:     -10.8      0.000      0.000
REMARK SMILES Cc1onc2c(=O)n(C)nc(C(=O)NCCCCCCNC(=O)c3ccc(-c4c5nc(c(-c6cccc(S(=O)(=O)[O-])c6F)c6ccc([nH]6)c(-c6cccc(S(=O)(=O)[O-])c6F)c6nc(c(-c7cccc(S(=O)(=O)[O-])c7F)c7ccc4[nH]7)C=C6)C=C5)cc3)c12
REMARK SMILES IDX 19 1 18 2 17 3 16 4 15 5 14 6 12 7 13 8 11 10 1 11 2 12 3 13
REMARK SMILES IDX 87 14 4 15 5 16 6 17 10 18 7 19 8 20 9 21 20 22 21 23 22 24
REMARK SMILES IDX 23 26 24 27 25 28 86 29 26 30 85 31 27 32 28 33 29 34 79 35
REMARK SMILES IDX 30 36 84 37 78 38 80 39 31 40 83 41 77 42 76 43 32 45 64 46
REMARK SMILES IDX 44 47 63 48 45 49 48 50 62 51 81 52 46 53 47 54 61 56 82 57
REMARK SMILES IDX 49 58 33 59 34 60 42 61 35 62 37 63 43 64 36 65 38 66 39 67
REMARK SMILES IDX 40 68 41 69 65 70 66 71 74 72 67 73 69 74 75 75 68 76 70 77
REMARK SMILES IDX 71 78 72 79 73 80 50 81 51 82 59 83 52 84 54 85 60 86 53 87
REMARK SMILES IDX 55 88 56 89 57 90 58 91
REMARK H PARENT 14 9 21 25 80 44 48 55
REMARK Flexibility Score: inf
ROOT
ATOM      1  C   UNL A   1      41.342  25.749  36.912  1.00  0.00     0.021 C 
ENDROOT
BRANCH   1   2
ATOM      2  C   UNL A   1      42.204  26.978  36.568  1.00  0.00     0.002 C 
BRANCH   2   3
ATOM      3  C   UNL A   1      42.029  27.549  35.155  1.00  0.00     0.002 C 
BRANCH   3   4
ATOM      4  C   UNL A   1      41.934  29.077  35.065  1.00  0.00     0.021 C 
BRANCH   4   5
ATOM      5  C   UNL A   1      40.822  29.702  35.910  1.00  0.00     0.116 C 
BRANCH   5   6
ATOM      6  N   UNL A   1      41.213  31.002  36.440  1.00  0.00    -0.351 N 
ATOM      7  C   UNL A   1      40.780  32.285  36.187  1.00  0.00     0.272 C 
ATOM      8  O   UNL A   1      41.349  33.204  36.770  1.00  0.00    -0.267 OA
ATOM      9  H   UNL A   1      41.931  30.953  37.113  1.00  0.00     0.163 HD
BRANCH   7  10
ATOM     10  C   UNL A   1      39.605  32.608  35.246  1.00  0.00     0.161 A 
ATOM     11  C   UNL A   1      37.996  33.167  38.332  1.00  0.00     0.091 C 
ATOM     12  C   UNL A   1      37.639  33.157  36.900  1.00  0.00     0.144 A 
ATOM     13  O   UNL A   1      36.324  33.453  36.665  1.00  0.00    -0.360 OA
ATOM     14  C   UNL A   1      38.268  32.950  35.690  1.00  0.00     0.083 A 
ATOM     15  N   UNL A   1      36.071  33.449  35.310  1.00  0.00    -0.074 NA
ATOM     16  C   UNL A   1      37.243  33.160  34.737  1.00  0.00     0.183 A 
ATOM     17  C   UNL A   1      37.482  33.069  33.313  1.00  0.00     0.296 A 
ATOM     18  N   UNL A   1      39.813  32.534  33.959  1.00  0.00    -0.164 NA
ATOM     19  O   UNL A   1      36.606  33.232  32.459  1.00  0.00    -0.265 OA
ATOM     20  N   UNL A   1      38.819  32.773  33.015  1.00  0.00    -0.230 N 
ATOM     21  C   UNL A   1      39.225  32.696  31.624  1.00  0.00     0.178 C 
ENDBRANCH   7  10
ENDBRANCH   5   6
ENDBRANCH   4   5
ENDBRANCH   3   4
ENDBRANCH   2   3
ENDBRANCH   1   2
BRANCH   1  22
ATOM     22  C   UNL A   1      41.622  24.485  36.078  1.00  0.00     0.116 C 
BRANCH  22  23
ATOM     23  N   UNL A   1      42.938  23.957  36.394  1.00  0.00    -0.352 N 
ATOM     24  C   UNL A   1      44.080  23.853  35.646  1.00  0.00     0.251 C 
ATOM     25  H   UNL A   1      43.025  23.610  37.312  1.00  0.00     0.163 HD
ATOM     26  O   UNL A   1      44.901  22.996  35.979  1.00  0.00    -0.269 OA
BRANCH  24  27
ATOM     27  C   UNL A   1      44.380  24.727  34.485  1.00  0.00     0.039 A 
ATOM     28  C   UNL A   1      43.945  24.296  33.223  1.00  0.00     0.014 A 
ATOM     29  C   UNL A   1      45.211  25.845  34.574  1.00  0.00     0.014 A 
ATOM     30  C   UNL A   1      44.309  24.989  32.064  1.00  0.00     0.010 A 
ATOM     31  C   UNL A   1      45.578  26.538  33.408  1.00  0.00     0.010 A 
ATOM     32  C   UNL A   1      45.121  26.127  32.145  1.00  0.00    -0.014 A 
BRANCH  32  33
ATOM     33  C   UNL A   1      45.322  26.936  30.917  1.00  0.00     0.031 A 
ATOM     34  C   UNL A   1      45.427  26.147  29.654  1.00  0.00     0.074 A 
ATOM     35  C   UNL A   1      44.987  28.242  30.804  1.00  0.00     0.049 A 
ATOM     36  N   UNL A   1      44.380  25.730  29.006  1.00  0.00    -0.248 NA
ATOM     37  C   UNL A   1      46.683  25.562  29.187  1.00  0.00     0.031 C 
ATOM     38  C   UNL A   1      43.846  28.846  31.501  1.00  0.00     0.029 A 
ATOM     39  N   UNL A   1      45.377  29.205  29.893  1.00  0.00    -0.354 N 
ATOM     40  C   UNL A   1      44.807  24.779  28.100  1.00  0.00     0.074 A 
ATOM     41  C   UNL A   1      46.248  24.724  28.232  1.00  0.00     0.031 C 
ATOM     42  C   UNL A   1      43.517  29.996  30.873  1.00  0.00     0.029 A 
ATOM     43  C   UNL A   1      44.512  30.301  29.844  1.00  0.00     0.049 A 
ATOM     44  H   UNL A   1      46.184  29.127  29.335  1.00  0.00     0.167 HD
ATOM     45  C   UNL A   1      43.950  24.084  27.304  1.00  0.00     0.034 A 
ATOM     46  C   UNL A   1      44.268  31.061  28.736  1.00  0.00     0.034 A 
ATOM     47  C   UNL A   1      42.563  24.425  27.444  1.00  0.00     0.049 A 
ATOM     48  C   UNL A   1      43.510  30.089  27.871  1.00  0.00     0.074 A 
ATOM     49  C   UNL A   1      41.473  23.952  28.144  1.00  0.00     0.029 A 
ATOM     50  N   UNL A   1      42.104  25.563  26.826  1.00  0.00    -0.354 N 
ATOM     51  N   UNL A   1      42.251  29.761  28.009  1.00  0.00    -0.248 NA
ATOM     52  C   UNL A   1      44.297  29.165  27.055  1.00  0.00     0.031 C 
ATOM     53  C   UNL A   1      40.585  25.069  28.274  1.00  0.00     0.029 A 
ATOM     54  C   UNL A   1      41.211  26.163  27.681  1.00  0.00     0.049 A 
ATOM     55  H   UNL A   1      42.365  25.889  25.935  1.00  0.00     0.167 HD
ATOM     56  C   UNL A   1      42.166  28.441  27.562  1.00  0.00     0.074 A 
ATOM     57  C   UNL A   1      43.456  28.145  26.970  1.00  0.00     0.031 C 
ATOM     58  C   UNL A   1      41.125  27.600  27.843  1.00  0.00     0.034 A 
BRANCH  45  59
ATOM     59  C   UNL A   1      44.380  23.163  26.229  1.00  0.00     0.023 A 
ATOM     60  C   UNL A   1      44.986  23.751  25.102  1.00  0.00     0.012 A 
ATOM     61  C   UNL A   1      44.058  21.795  26.211  1.00  0.00     0.148 A 
ATOM     62  C   UNL A   1      45.228  23.007  23.951  1.00  0.00     0.002 A 
ATOM     63  C   UNL A   1      44.311  21.053  25.058  1.00  0.00     0.091 A 
ATOM     64  F   UNL A   1      43.482  21.256  27.295  1.00  0.00    -0.205 F 
ATOM     65  C   UNL A   1      44.882  21.662  23.926  1.00  0.00     0.022 A 
BRANCH  63  66
ATOM     66  S   UNL A   1      43.912  19.308  24.902  1.00  0.00     0.127 S 
ATOM     67  O   UNL A   1      44.676  18.721  26.001  1.00  0.00    -0.237 OA
ATOM     68  O   UNL A   1      42.462  19.312  25.099  1.00  0.00    -0.237 OA
ATOM     69  O   UNL A   1      44.339  18.916  23.565  1.00  0.00    -0.744 OA
ENDBRANCH  63  66
ENDBRANCH  45  59
BRANCH  46  70
ATOM     70  C   UNL A   1      45.418  31.894  28.237  1.00  0.00     0.023 A 
ATOM     71  C   UNL A   1      46.713  31.514  28.663  1.00  0.00     0.012 A 
ATOM     72  C   UNL A   1      45.325  33.021  27.395  1.00  0.00     0.148 A 
ATOM     73  C   UNL A   1      47.865  32.147  28.187  1.00  0.00     0.002 A 
ATOM     74  C   UNL A   1      46.477  33.600  26.858  1.00  0.00     0.091 A 
ATOM     75  F   UNL A   1      44.121  33.535  27.120  1.00  0.00    -0.205 F 
ATOM     76  C   UNL A   1      47.748  33.167  27.255  1.00  0.00     0.022 A 
BRANCH  74  77
ATOM     77  S   UNL A   1      46.419  34.846  25.561  1.00  0.00     0.127 S 
ATOM     78  O   UNL A   1      45.416  34.295  24.651  1.00  0.00    -0.237 OA
ATOM     79  O   UNL A   1      45.988  36.023  26.315  1.00  0.00    -0.237 OA
ATOM     80  O   UNL A   1      47.769  34.920  25.021  1.00  0.00    -0.744 OA
ENDBRANCH  74  77
ENDBRANCH  46  70
BRANCH  58  81
ATOM     81  C   UNL A   1      39.929  28.214  28.513  1.00  0.00     0.023 A 
ATOM     82  C   UNL A   1      38.896  28.726  27.703  1.00  0.00     0.012 A 
ATOM     83  C   UNL A   1      39.768  28.229  29.914  1.00  0.00     0.148 A 
ATOM     84  C   UNL A   1      37.719  29.216  28.267  1.00  0.00     0.002 A 
ATOM     85  C   UNL A   1      38.572  28.675  30.470  1.00  0.00     0.091 A 
ATOM     86  F   UNL A   1      40.774  27.794  30.688  1.00  0.00    -0.205 F 
ATOM     87  C   UNL A   1      37.549  29.174  29.647  1.00  0.00     0.022 A 
BRANCH  85  88
ATOM     88  S   UNL A   1      38.217  28.591  32.230  1.00  0.00     0.127 S 
ATOM     89  O   UNL A   1      39.284  29.415  32.799  1.00  0.00    -0.237 OA
ATOM     90  O   UNL A   1      36.885  29.193  32.296  1.00  0.00    -0.237 OA
ATOM     91  O   UNL A   1      38.271  27.182  32.594  1.00  0.00    -0.744 OA
ENDBRANCH  85  88
ENDBRANCH  58  81
ENDBRANCH  32  33
ENDBRANCH  24  27
ENDBRANCH  22  23
ENDBRANCH   1  22
TORSDOF 16
ENDMDL
MODEL 2
REMARK VINA RESULT:     -10.8      4.496     10.043
REMARK SMILES Cc1onc2c(=O)n(C)nc(C(=O)NCCCCCCNC(=O)c3ccc(-c4c5nc(c(-c6cccc(S(=O)(=O)[O-])c6F)c6ccc([nH]6)c(-c6cccc(S(=O)(=O)[O-])c6F)c6nc(c(-c7cccc(S(=O)(=O)[O-])c7F)c7ccc4[nH]7)C=C6)C=C5)cc3)c12
REMARK SMILES IDX 19 1 18 2 17 3 16 4 15 5 14 6 12 7 13 8 11 10 1 11 2 12 3 13
REMARK SMILES IDX 87 14 4 15 5 16 6 17 10 18 7 19 8 20 9 21 20 22 21 23 22 24
REMARK SMILES IDX 23 26 24 27 25 28 86 29 26 30 85 31 27 32 28 33 29 34 79 35
REMARK SMILES IDX 30 36 84 37 78 38 80 39 31 40 83 41 77 42 76 43 32 45 64 46
REMARK SMILES IDX 44 47 63 48 45 49 48 50 62 51 81 52 46 53 47 54 61 56 82 57
REMARK SMILES IDX 49 58 33 59 34 60 42 61 35 62 37 63 43 64 36 65 38 66 39 67
REMARK SMILES IDX 40 68 41 69 65 70 66 71 74 72 67 73 69 74 75 75 68 76 70 77
REMARK SMILES IDX 71 78 72 79 73 80 50 81 51 82 59 83 52 84 54 85 60 86 53 87
REMARK SMILES IDX 55 88 56 89 57 90 58 91
REMARK H PARENT 14 9 21 25 80 44 48 55
REMARK Flexibility Score: inf
ROOT
ATOM      1  C   UNL A   1      32.549  30.914  26.833  1.00  0.00     0.021 C 
ENDROOT
BRANCH   1   2
ATOM      2  C   UNL A   1      32.302  29.667  25.963  1.00  0.00     0.002 C 
BRANCH   2   3
ATOM      3  C   UNL A   1      33.351  28.553  26.073  1.00  0.00     0.002 C 
BRANCH   3   4
ATOM      4  C   UNL A   1      34.170  28.289  24.804  1.00  0.00     0.021 C 
BRANCH   4   5
ATOM      5  C   UNL A   1      33.394  28.443  23.494  1.00  0.00     0.116 C 
BRANCH   5   6
ATOM      6  N   UNL A   1      33.601  27.305  22.607  1.00  0.00    -0.351 N 
ATOM      7  C   UNL A   1      33.454  25.945  22.778  1.00  0.00     0.272 C 
ATOM      8  O   UNL A   1      33.758  25.217  21.838  1.00  0.00    -0.267 OA
ATOM      9  H   UNL A   1      33.908  27.558  21.707  1.00  0.00     0.163 HD
BRANCH   7  10
ATOM     10  C   UNL A   1      32.897  25.314  24.067  1.00  0.00     0.161 A 
ATOM     11  C   UNL A   1      36.027  23.695  23.979  1.00  0.00     0.091 C 
ATOM     12  C   UNL A   1      34.801  23.660  24.802  1.00  0.00     0.144 A 
ATOM     13  O   UNL A   1      34.866  22.767  25.836  1.00  0.00    -0.360 OA
ATOM     14  C   UNL A   1      33.580  24.300  24.846  1.00  0.00     0.083 A 
ATOM     15  N   UNL A   1      33.700  22.808  26.572  1.00  0.00    -0.074 NA
ATOM     16  C   UNL A   1      32.945  23.736  25.978  1.00  0.00     0.183 A 
ATOM     17  C   UNL A   1      31.630  24.153  26.413  1.00  0.00     0.296 A 
ATOM     18  N   UNL A   1      31.712  25.688  24.470  1.00  0.00    -0.164 NA
ATOM     19  O   UNL A   1      31.045  23.670  27.387  1.00  0.00    -0.265 OA
ATOM     20  N   UNL A   1      31.096  25.164  25.602  1.00  0.00    -0.230 N 
ATOM     21  C   UNL A   1      29.799  25.720  25.941  1.00  0.00     0.178 C 
ENDBRANCH   7  10
ENDBRANCH   5   6
ENDBRANCH   4   5
ENDBRANCH   3   4
ENDBRANCH   2   3
ENDBRANCH   1   2
BRANCH   1  22
ATOM     22  C   UNL A   1      33.797  30.862  27.733  1.00  0.00     0.116 C 
BRANCH  22  23
ATOM     23  N   UNL A   1      34.607  32.053  27.537  1.00  0.00    -0.352 N 
ATOM     24  C   UNL A   1      35.810  32.433  28.069  1.00  0.00     0.251 C 
ATOM     25  H   UNL A   1      34.220  32.706  26.909  1.00  0.00     0.163 HD
ATOM     26  O   UNL A   1      36.066  33.638  28.091  1.00  0.00    -0.269 OA
BRANCH  24  27
ATOM     27  C   UNL A   1      36.813  31.472  28.589  1.00  0.00     0.039 A 
ATOM     28  C   UNL A   1      37.242  31.640  29.915  1.00  0.00     0.014 A 
ATOM     29  C   UNL A   1      37.461  30.540  27.777  1.00  0.00     0.014 A 
ATOM     30  C   UNL A   1      38.286  30.867  30.434  1.00  0.00     0.010 A 
ATOM     31  C   UNL A   1      38.512  29.766  28.300  1.00  0.00     0.010 A 
ATOM     32  C   UNL A   1      38.925  29.911  29.635  1.00  0.00    -0.014 A 
BRANCH  32  33
ATOM     33  C   UNL A   1      39.891  28.987  30.280  1.00  0.00     0.031 A 
ATOM     34  C   UNL A   1      39.922  27.609  29.705  1.00  0.00     0.074 A 
ATOM     35  C   UNL A   1      40.975  29.389  30.981  1.00  0.00     0.049 A 
ATOM     36  N   UNL A   1      40.608  27.316  28.640  1.00  0.00    -0.248 NA
ATOM     37  C   UNL A   1      38.999  26.555  30.123  1.00  0.00     0.031 C 
ATOM     38  C   UNL A   1      41.731  30.608  30.671  1.00  0.00     0.029 A 
ATOM     39  N   UNL A   1      41.773  28.717  31.887  1.00  0.00    -0.354 N 
ATOM     40  C   UNL A   1      40.171  26.084  28.194  1.00  0.00     0.074 A 
ATOM     41  C   UNL A   1      39.187  25.639  29.159  1.00  0.00     0.031 C 
ATOM     42  C   UNL A   1      42.956  30.510  31.233  1.00  0.00     0.029 A 
ATOM     43  C   UNL A   1      43.021  29.315  32.074  1.00  0.00     0.049 A 
ATOM     44  H   UNL A   1      41.490  27.898  32.354  1.00  0.00     0.167 HD
ATOM     45  C   UNL A   1      40.634  25.509  27.051  1.00  0.00     0.034 A 
ATOM     46  C   UNL A   1      44.173  28.651  32.384  1.00  0.00     0.034 A 
ATOM     47  C   UNL A   1      41.637  26.256  26.347  1.00  0.00     0.049 A 
ATOM     48  C   UNL A   1      44.433  27.899  31.105  1.00  0.00     0.074 A 
ATOM     49  C   UNL A   1      41.680  27.149  25.297  1.00  0.00     0.029 A 
ATOM     50  N   UNL A   1      42.931  26.212  26.810  1.00  0.00    -0.354 N 
ATOM     51  N   UNL A   1      44.936  28.402  30.008  1.00  0.00    -0.248 NA
ATOM     52  C   UNL A   1      43.750  26.617  30.933  1.00  0.00     0.031 C 
ATOM     53  C   UNL A   1      42.871  27.920  25.495  1.00  0.00     0.029 A 
ATOM     54  C   UNL A   1      43.456  27.475  26.679  1.00  0.00     0.049 A 
ATOM     55  H   UNL A   1      43.395  25.423  27.170  1.00  0.00     0.167 HD
ATOM     56  C   UNL A   1      44.364  27.662  28.971  1.00  0.00     0.074 A 
ATOM     57  C   UNL A   1      43.662  26.568  29.613  1.00  0.00     0.031 C 
ATOM     58  C   UNL A   1      44.342  28.062  27.663  1.00  0.00     0.034 A 
BRANCH  45  59
ATOM     59  C   UNL A   1      40.294  24.136  26.618  1.00  0.00     0.023 A 
ATOM     60  C   UNL A   1      38.929  23.866  26.397  1.00  0.00     0.012 A 
ATOM     61  C   UNL A   1      41.224  23.083  26.593  1.00  0.00     0.148 A 
ATOM     62  C   UNL A   1      38.482  22.564  26.199  1.00  0.00     0.002 A 
ATOM     63  C   UNL A   1      40.770  21.781  26.387  1.00  0.00     0.091 A 
ATOM     64  F   UNL A   1      42.517  23.363  26.806  1.00  0.00    -0.205 F 
ATOM     65  C   UNL A   1      39.400  21.521  26.204  1.00  0.00     0.022 A 
BRANCH  63  66
ATOM     66  S   UNL A   1      41.857  20.350  26.368  1.00  0.00     0.127 S 
ATOM     67  O   UNL A   1      41.001  19.324  25.776  1.00  0.00    -0.237 OA
ATOM     68  O   UNL A   1      42.945  20.810  25.506  1.00  0.00    -0.237 OA
ATOM     69  O   UNL A   1      42.240  20.118  27.755  1.00  0.00    -0.744 OA
ENDBRANCH  63  66
ENDBRANCH  45  59
BRANCH  46  70
ATOM     70  C   UNL A   1      44.228  28.016  33.747  1.00  0.00     0.023 A 
ATOM     71  C   UNL A   1      45.470  28.065  34.425  1.00  0.00     0.012 A 
ATOM     72  C   UNL A   1      43.163  27.368  34.406  1.00  0.00     0.148 A 
ATOM     73  C   UNL A   1      45.617  27.599  35.735  1.00  0.00     0.002 A 
ATOM     74  C   UNL A   1      43.290  26.976  35.740  1.00  0.00     0.091 A 
ATOM     75  F   UNL A   1      42.030  27.125  33.737  1.00  0.00    -0.205 F 
ATOM     76  C   UNL A   1      44.517  27.087  36.407  1.00  0.00     0.022 A 
BRANCH  74  77
ATOM     77  S   UNL A   1      41.890  26.412  36.720  1.00  0.00     0.127 S 
ATOM     78  O   UNL A   1      41.483  25.203  36.008  1.00  0.00    -0.237 OA
ATOM     79  O   UNL A   1      42.525  26.180  38.018  1.00  0.00    -0.237 OA
ATOM     80  O   UNL A   1      40.923  27.500  36.693  1.00  0.00    -0.744 OA
ENDBRANCH  74  77
ENDBRANCH  46  70
BRANCH  58  81
ATOM     81  C   UNL A   1      45.149  29.281  27.321  1.00  0.00     0.023 A 
ATOM     82  C   UNL A   1      46.548  29.150  27.214  1.00  0.00     0.012 A 
ATOM     83  C   UNL A   1      44.557  30.528  27.030  1.00  0.00     0.148 A 
ATOM     84  C   UNL A   1      47.339  30.221  26.801  1.00  0.00     0.002 A 
ATOM     85  C   UNL A   1      45.346  31.580  26.574  1.00  0.00     0.091 A 
ATOM     86  F   UNL A   1      43.233  30.670  27.187  1.00  0.00    -0.205 F 
ATOM     87  C   UNL A   1      46.738  31.429  26.464  1.00  0.00     0.022 A 
BRANCH  85  88
ATOM     88  S   UNL A   1      44.665  33.154  26.035  1.00  0.00     0.127 S 
ATOM     89  O   UNL A   1      44.028  33.648  27.256  1.00  0.00    -0.237 OA
ATOM     90  O   UNL A   1      45.871  33.884  25.642  1.00  0.00    -0.237 OA
ATOM     91  O   UNL A   1      43.747  32.855  24.944  1.00  0.00    -0.744 OA
ENDBRANCH  85  88
ENDBRANCH  58  81
ENDBRANCH  32  33
ENDBRANCH  24  27
ENDBRANCH  22  23
ENDBRANCH   1  22
TORSDOF 16
ENDMDL
MODEL 3
REMARK VINA RESULT:     -10.7      4.596      9.874
REMARK SMILES Cc1onc2c(=O)n(C)nc(C(=O)NCCCCCCNC(=O)c3ccc(-c4c5nc(c(-c6cccc(S(=O)(=O)[O-])c6F)c6ccc([nH]6)c(-c6cccc(S(=O)(=O)[O-])c6F)c6nc(c(-c7cccc(S(=O)(=O)[O-])c7F)c7ccc4[nH]7)C=C6)C=C5)cc3)c12
REMARK SMILES IDX 19 1 18 2 17 3 16 4 15 5 14 6 12 7 13 8 11 10 1 11 2 12 3 13
REMARK SMILES IDX 87 14 4 15 5 16 6 17 10 18 7 19 8 20 9 21 20 22 21 23 22 24
REMARK SMILES IDX 23 26 24 27 25 28 86 29 26 30 85 31 27 32 28 33 29 34 79 35
REMARK SMILES IDX 30 36 84 37 78 38 80 39 31 40 83 41 77 42 76 43 32 45 64 46
REMARK SMILES IDX 44 47 63 48 45 49 48 50 62 51 81 52 46 53 47 54 61 56 82 57
REMARK SMILES IDX 49 58 33 59 34 60 42 61 35 62 37 63 43 64 36 65 38 66 39 67
REMARK SMILES IDX 40 68 41 69 65 70 66 71 74 72 67 73 69 74 75 75 68 76 70 77
REMARK SMILES IDX 71 78 72 79 73 80 50 81 51 82 59 83 52 84 54 85 60 86 53 87
REMARK SMILES IDX 55 88 56 89 57 90 58 91
REMARK H PARENT 14 9 21 25 80 44 48 55
REMARK Flexibility Score: inf
ROOT
ATOM      1  C   UNL A   1      38.299  20.834  25.361  1.00  0.00     0.021 C 
ENDROOT
BRANCH   1   2
ATOM      2  C   UNL A   1      37.030  21.324  24.639  1.00  0.00     0.002 C 
BRANCH   2   3
ATOM      3  C   UNL A   1      35.737  20.562  24.959  1.00  0.00     0.002 C 
BRANCH   3   4
ATOM      4  C   UNL A   1      34.448  21.391  24.896  1.00  0.00     0.021 C 
BRANCH   4   5
ATOM      5  C   UNL A   1      34.655  22.879  24.605  1.00  0.00     0.116 C 
BRANCH   5   6
ATOM      6  N   UNL A   1      34.140  23.248  23.292  1.00  0.00    -0.351 N 
ATOM      7  C   UNL A   1      33.346  24.286  22.855  1.00  0.00     0.272 C 
ATOM      8  O   UNL A   1      33.034  24.304  21.668  1.00  0.00    -0.267 OA
ATOM      9  H   UNL A   1      34.413  22.631  22.574  1.00  0.00     0.163 HD
BRANCH   7  10
ATOM     10  C   UNL A   1      32.873  25.428  23.773  1.00  0.00     0.161 A 
ATOM     11  C   UNL A   1      31.066  22.775  25.230  1.00  0.00     0.091 C 
ATOM     12  C   UNL A   1      31.182  24.238  25.394  1.00  0.00     0.144 A 
ATOM     13  O   UNL A   1      30.387  24.739  26.388  1.00  0.00    -0.360 OA
ATOM     14  C   UNL A   1      31.896  25.276  24.834  1.00  0.00     0.083 A 
ATOM     15  N   UNL A   1      30.566  26.101  26.499  1.00  0.00    -0.074 NA
ATOM     16  C   UNL A   1      31.480  26.409  25.573  1.00  0.00     0.183 A 
ATOM     17  C   UNL A   1      32.014  27.730  25.328  1.00  0.00     0.296 A 
ATOM     18  N   UNL A   1      33.354  26.623  23.562  1.00  0.00    -0.164 NA
ATOM     19  O   UNL A   1      31.660  28.738  25.946  1.00  0.00    -0.265 OA
ATOM     20  N   UNL A   1      32.976  27.736  24.308  1.00  0.00    -0.230 N 
ATOM     21  C   UNL A   1      33.638  28.983  23.978  1.00  0.00     0.178 C 
ENDBRANCH   7  10
ENDBRANCH   5   6
ENDBRANCH   4   5
ENDBRANCH   3   4
ENDBRANCH   2   3
ENDBRANCH   1   2
BRANCH   1  22
ATOM     22  C   UNL A   1      39.080  21.910  26.138  1.00  0.00     0.116 C 
BRANCH  22  23
ATOM     23  N   UNL A   1      40.433  21.452  26.406  1.00  0.00    -0.352 N 
ATOM     24  C   UNL A   1      41.620  22.129  26.506  1.00  0.00     0.251 C 
ATOM     25  H   UNL A   1      40.512  20.480  26.539  1.00  0.00     0.163 HD
ATOM     26  O   UNL A   1      42.655  21.492  26.304  1.00  0.00    -0.269 OA
BRANCH  24  27
ATOM     27  C   UNL A   1      41.713  23.565  26.865  1.00  0.00     0.039 A 
ATOM     28  C   UNL A   1      42.523  24.381  26.059  1.00  0.00     0.014 A 
ATOM     29  C   UNL A   1      41.183  24.087  28.045  1.00  0.00     0.014 A 
ATOM     30  C   UNL A   1      42.776  25.710  26.411  1.00  0.00     0.010 A 
ATOM     31  C   UNL A   1      41.442  25.423  28.399  1.00  0.00     0.010 A 
ATOM     32  C   UNL A   1      42.228  26.251  27.580  1.00  0.00    -0.014 A 
BRANCH  32  33
ATOM     33  C   UNL A   1      42.365  27.711  27.813  1.00  0.00     0.031 A 
ATOM     34  C   UNL A   1      41.079  28.469  27.820  1.00  0.00     0.074 A 
ATOM     35  C   UNL A   1      43.426  28.286  28.422  1.00  0.00     0.049 A 
ATOM     36  N   UNL A   1      40.321  28.541  28.875  1.00  0.00    -0.248 NA
ATOM     37  C   UNL A   1      40.444  28.965  26.601  1.00  0.00     0.031 C 
ATOM     38  C   UNL A   1      44.197  27.635  29.487  1.00  0.00     0.029 A 
ATOM     39  N   UNL A   1      43.865  29.597  28.439  1.00  0.00    -0.354 N 
ATOM     40  C   UNL A   1      39.090  29.016  28.466  1.00  0.00     0.074 A 
ATOM     41  C   UNL A   1      39.219  29.287  27.050  1.00  0.00     0.031 C 
ATOM     42  C   UNL A   1      44.878  28.584  30.168  1.00  0.00     0.029 A 
ATOM     43  C   UNL A   1      44.730  29.876  29.498  1.00  0.00     0.049 A 
ATOM     44  H   UNL A   1      43.594  30.266  27.770  1.00  0.00     0.167 HD
ATOM     45  C   UNL A   1      38.034  29.146  29.314  1.00  0.00     0.034 A 
ATOM     46  C   UNL A   1      44.847  31.086  30.121  1.00  0.00     0.034 A 
ATOM     47  C   UNL A   1      38.289  28.784  30.679  1.00  0.00     0.049 A 
ATOM     48  C   UNL A   1      43.523  31.180  30.833  1.00  0.00     0.074 A 
ATOM     49  C   UNL A   1      38.123  27.671  31.476  1.00  0.00     0.029 A 
ATOM     50  N   UNL A   1      38.953  29.682  31.480  1.00  0.00    -0.354 N 
ATOM     51  N   UNL A   1      43.202  30.563  31.940  1.00  0.00    -0.248 NA
ATOM     52  C   UNL A   1      42.387  31.692  30.066  1.00  0.00     0.031 C 
ATOM     53  C   UNL A   1      39.092  27.800  32.524  1.00  0.00     0.029 A 
ATOM     54  C   UNL A   1      39.816  28.964  32.273  1.00  0.00     0.049 A 
ATOM     55  H   UNL A   1      38.833  30.659  31.486  1.00  0.00     0.167 HD
ATOM     56  C   UNL A   1      41.826  30.339  31.848  1.00  0.00     0.074 A 
ATOM     57  C   UNL A   1      41.388  31.078  30.681  1.00  0.00     0.031 C 
ATOM     58  C   UNL A   1      41.143  29.435  32.613  1.00  0.00     0.034 A 
BRANCH  45  59
ATOM     59  C   UNL A   1      36.749  29.778  28.945  1.00  0.00     0.023 A 
ATOM     60  C   UNL A   1      35.977  29.115  27.970  1.00  0.00     0.012 A 
ATOM     61  C   UNL A   1      36.366  31.058  29.380  1.00  0.00     0.148 A 
ATOM     62  C   UNL A   1      34.867  29.728  27.398  1.00  0.00     0.002 A 
ATOM     63  C   UNL A   1      35.248  31.664  28.809  1.00  0.00     0.091 A 
ATOM     64  F   UNL A   1      37.114  31.671  30.309  1.00  0.00    -0.205 F 
ATOM     65  C   UNL A   1      34.508  31.005  27.811  1.00  0.00     0.022 A 
BRANCH  63  66
ATOM     66  S   UNL A   1      34.681  33.309  29.258  1.00  0.00     0.127 S 
ATOM     67  O   UNL A   1      35.856  34.128  28.965  1.00  0.00    -0.237 OA
ATOM     68  O   UNL A   1      33.559  33.502  28.340  1.00  0.00    -0.237 OA
ATOM     69  O   UNL A   1      34.307  33.236  30.665  1.00  0.00    -0.744 OA
ENDBRANCH  63  66
ENDBRANCH  45  59
BRANCH  46  70
ATOM     70  C   UNL A   1      45.428  32.203  29.297  1.00  0.00     0.023 A 
ATOM     71  C   UNL A   1      46.592  32.831  29.804  1.00  0.00     0.012 A 
ATOM     72  C   UNL A   1      44.918  32.688  28.076  1.00  0.00     0.148 A 
ATOM     73  C   UNL A   1      47.279  33.811  29.082  1.00  0.00     0.002 A 
ATOM     74  C   UNL A   1      45.648  33.608  27.320  1.00  0.00     0.091 A 
ATOM     75  F   UNL A   1      43.723  32.264  27.651  1.00  0.00    -0.205 F 
ATOM     76  C   UNL A   1      46.827  34.174  27.822  1.00  0.00     0.022 A 
BRANCH  74  77
ATOM     77  S   UNL A   1      45.200  34.047  25.633  1.00  0.00     0.127 S 
ATOM     78  O   UNL A   1      44.116  35.004  25.842  1.00  0.00    -0.237 OA
ATOM     79  O   UNL A   1      46.451  34.627  25.146  1.00  0.00    -0.237 OA
ATOM     80  O   UNL A   1      44.807  32.800  24.990  1.00  0.00    -0.744 OA
ENDBRANCH  74  77
ENDBRANCH  46  70
BRANCH  58  81
ATOM     81  C   UNL A   1      41.905  28.795  33.738  1.00  0.00     0.023 A 
ATOM     82  C   UNL A   1      41.773  29.338  35.031  1.00  0.00     0.012 A 
ATOM     83  C   UNL A   1      42.684  27.632  33.563  1.00  0.00     0.148 A 
ATOM     84  C   UNL A   1      42.376  28.728  36.130  1.00  0.00     0.002 A 
ATOM     85  C   UNL A   1      43.245  27.001  34.670  1.00  0.00     0.091 A 
ATOM     86  F   UNL A   1      42.857  27.147  32.325  1.00  0.00    -0.205 F 
ATOM     87  C   UNL A   1      43.095  27.551  35.953  1.00  0.00     0.022 A 
BRANCH  85  88
ATOM     88  S   UNL A   1      44.124  25.436  34.565  1.00  0.00     0.127 S 
ATOM     89  O   UNL A   1      45.395  25.837  33.960  1.00  0.00    -0.237 OA
ATOM     90  O   UNL A   1      44.218  25.050  35.974  1.00  0.00    -0.237 OA
ATOM     91  O   UNL A   1      43.304  24.557  33.742  1.00  0.00    -0.744 OA
ENDBRANCH  85  88
ENDBRANCH  58  81
ENDBRANCH  32  33
ENDBRANCH  24  27
ENDBRANCH  22  23
ENDBRANCH   1  22
TORSDOF 16
ENDMDL
