MODEL 1
REMARK VINA RESULT:      -9.8      0.000      0.000
REMARK SMILES COC(=O)[C@@H]1CCN(C(=O)NC(=O)COCC(=O)NCCCCCCNC(=O)c2ccc(-c3c4nc(c(-c5cccc(S(=O)(=O)[O-])c5F)c5ccc([nH]5)c(-c5cccc(S(=O)(=O)[O-])c5F)c5nc(c(-c6cccc(S(=O)(=O)[O-])c6F)c6ccc3[nH]6)C=C5)C=C4)cc2)C1
REMARK SMILES IDX 21 1 20 2 19 3 17 4 18 5 16 7 15 8 14 9 12 10 9 11 10 12
REMARK SMILES IDX 11 13 13 15 8 16 5 17 6 18 92 19 7 20 3 21 4 22 2 23 1 24
REMARK SMILES IDX 22 25 23 26 24 27 25 28 26 29 27 30 28 32 29 33 30 34 91 35
REMARK SMILES IDX 31 36 90 37 32 38 33 39 34 40 84 41 35 42 89 43 83 44 85 45
REMARK SMILES IDX 36 46 88 47 82 48 81 49 37 51 69 52 49 53 68 54 50 55 53 56
REMARK SMILES IDX 67 57 86 58 51 59 52 60 66 62 87 63 54 64 38 65 39 66 47 67
REMARK SMILES IDX 40 68 42 69 48 70 41 71 43 72 44 73 45 74 46 75 70 76 71 77
REMARK SMILES IDX 79 78 72 79 74 80 80 81 73 82 75 83 76 84 77 85 78 86 55 87
REMARK SMILES IDX 56 88 64 89 57 90 59 91 65 92 58 93 60 94 61 95 62 96 63 97
REMARK H PARENT 19 6 11 14 26 31 85 50 53 61
REMARK Flexibility Score: inf
ROOT
ATOM      1  C   UNL A   1      39.120  23.550  26.578  1.00  0.00     0.021 C 
ENDROOT
BRANCH   1   2
ATOM      2  C   UNL A   1      37.637  23.697  26.232  1.00  0.00     0.116 C 
BRANCH   2   3
ATOM      3  N   UNL A   1      37.401  23.571  24.804  1.00  0.00    -0.354 N 
ATOM      4  C   UNL A   1      36.328  23.011  24.169  1.00  0.00     0.246 C 
ATOM      5  O   UNL A   1      36.309  22.971  22.939  1.00  0.00    -0.272 OA
ATOM      6  H   UNL A   1      38.104  23.935  24.219  1.00  0.00     0.163 HD
BRANCH   4   7
ATOM      7  C   UNL A   1      35.182  22.447  25.010  1.00  0.00     0.260 C 
BRANCH   7   8
ATOM      8  O   UNL A   1      34.083  23.341  25.088  1.00  0.00    -0.362 OA
BRANCH   8   9
ATOM      9  C   UNL A   1      32.896  22.731  25.552  1.00  0.00     0.261 C 
BRANCH   9  10
ATOM     10  C   UNL A   1      32.413  23.271  26.887  1.00  0.00     0.254 C 
ATOM     11  C   UNL A   1      31.243  25.500  26.226  1.00  0.00     0.324 C 
ATOM     12  O   UNL A   1      30.184  25.992  26.629  1.00  0.00    -0.248 OA
ATOM     13  N   UNL A   1      31.768  24.489  26.996  1.00  0.00    -0.276 N 
ATOM     14  H   UNL A   1      31.641  24.707  27.948  1.00  0.00     0.174 HD
ATOM     15  O   UNL A   1      32.583  22.613  27.921  1.00  0.00    -0.272 OA
BRANCH  11  16
ATOM     16  N   UNL A   1      31.893  26.002  25.142  1.00  0.00    -0.324 N 
ATOM     17  C   UNL A   1      32.015  26.942  22.939  1.00  0.00     0.120 C 
ATOM     18  C   UNL A   1      32.866  27.746  23.923  1.00  0.00     0.039 C 
ATOM     19  C   UNL A   1      31.213  26.005  23.844  1.00  0.00     0.136 C 
ATOM     20  C   UNL A   1      33.116  26.769  25.056  1.00  0.00     0.122 C 
BRANCH  17  21
ATOM     21  C   UNL A   1      32.763  26.151  21.884  1.00  0.00     0.310 C 
ATOM     22  O   UNL A   1      33.759  26.571  21.317  1.00  0.00    -0.252 OA
BRANCH  21  23
ATOM     23  O   UNL A   1      32.246  24.904  21.714  1.00  0.00    -0.469 OA
ATOM     24  C   UNL A   1      33.222  23.859  21.734  1.00  0.00     0.282 C 
ENDBRANCH  21  23
ENDBRANCH  17  21
ENDBRANCH  11  16
ENDBRANCH   9  10
ENDBRANCH   8   9
ENDBRANCH   7   8
ENDBRANCH   4   7
ENDBRANCH   2   3
ENDBRANCH   1   2
BRANCH   1  25
ATOM     25  C   UNL A   1      39.682  22.131  26.433  1.00  0.00     0.002 C 
BRANCH  25  26
ATOM     26  C   UNL A   1      40.593  21.662  27.574  1.00  0.00     0.002 C 
BRANCH  26  27
ATOM     27  C   UNL A   1      41.157  20.249  27.420  1.00  0.00     0.021 C 
BRANCH  27  28
ATOM     28  C   UNL A   1      41.093  19.684  26.004  1.00  0.00     0.116 C 
BRANCH  28  29
ATOM     29  N   UNL A   1      42.385  19.215  25.528  1.00  0.00    -0.352 N 
ATOM     30  C   UNL A   1      43.537  19.930  25.299  1.00  0.00     0.251 C 
ATOM     31  H   UNL A   1      42.443  18.250  25.344  1.00  0.00     0.163 HD
ATOM     32  O   UNL A   1      44.494  19.398  24.746  1.00  0.00    -0.269 OA
BRANCH  30  33
ATOM     33  C   UNL A   1      43.606  21.352  25.699  1.00  0.00     0.039 A 
ATOM     34  C   UNL A   1      44.099  21.678  26.966  1.00  0.00     0.014 A 
ATOM     35  C   UNL A   1      43.209  22.361  24.818  1.00  0.00     0.014 A 
ATOM     36  C   UNL A   1      44.264  23.020  27.321  1.00  0.00     0.010 A 
ATOM     37  C   UNL A   1      43.441  23.694  25.145  1.00  0.00     0.010 A 
ATOM     38  C   UNL A   1      43.975  24.038  26.398  1.00  0.00    -0.014 A 
BRANCH  38  39
ATOM     39  C   UNL A   1      44.240  25.468  26.705  1.00  0.00     0.031 A 
ATOM     40  C   UNL A   1      45.631  26.025  26.569  1.00  0.00     0.074 A 
ATOM     41  C   UNL A   1      43.253  26.239  27.208  1.00  0.00     0.049 A 
ATOM     42  N   UNL A   1      46.083  27.206  26.903  1.00  0.00    -0.248 NA
ATOM     43  C   UNL A   1      46.654  25.127  26.009  1.00  0.00     0.031 C 
ATOM     44  C   UNL A   1      41.875  25.802  27.442  1.00  0.00     0.029 A 
ATOM     45  N   UNL A   1      43.267  27.539  27.649  1.00  0.00    -0.354 N 
ATOM     46  C   UNL A   1      47.446  27.181  26.632  1.00  0.00     0.074 A 
ATOM     47  C   UNL A   1      47.752  25.858  26.133  1.00  0.00     0.031 C 
ATOM     48  C   UNL A   1      41.180  26.813  27.987  1.00  0.00     0.029 A 
ATOM     49  C   UNL A   1      42.068  27.954  28.182  1.00  0.00     0.049 A 
ATOM     50  H   UNL A   1      44.060  28.120  27.589  1.00  0.00     0.167 HD
ATOM     51  C   UNL A   1      48.356  28.174  26.766  1.00  0.00     0.034 A 
ATOM     52  C   UNL A   1      41.728  29.112  28.783  1.00  0.00     0.034 A 
ATOM     53  C   UNL A   1      48.043  29.498  27.232  1.00  0.00     0.049 A 
ATOM     54  C   UNL A   1      42.758  30.201  28.915  1.00  0.00     0.074 A 
ATOM     55  C   UNL A   1      48.879  30.596  27.325  1.00  0.00     0.029 A 
ATOM     56  N   UNL A   1      46.800  29.902  27.694  1.00  0.00    -0.354 N 
ATOM     57  N   UNL A   1      44.009  30.206  28.523  1.00  0.00    -0.248 NA
ATOM     58  C   UNL A   1      42.324  31.458  29.544  1.00  0.00     0.031 C 
ATOM     59  C   UNL A   1      48.153  31.653  27.880  1.00  0.00     0.029 A 
ATOM     60  C   UNL A   1      46.851  31.227  28.090  1.00  0.00     0.049 A 
ATOM     61  H   UNL A   1      45.999  29.331  27.734  1.00  0.00     0.167 HD
ATOM     62  C   UNL A   1      44.497  31.474  28.818  1.00  0.00     0.074 A 
ATOM     63  C   UNL A   1      43.404  32.215  29.410  1.00  0.00     0.031 C 
ATOM     64  C   UNL A   1      45.742  31.974  28.624  1.00  0.00     0.034 A 
BRANCH  51  65
ATOM     65  C   UNL A   1      49.781  27.880  26.372  1.00  0.00     0.023 A 
ATOM     66  C   UNL A   1      50.727  27.549  27.364  1.00  0.00     0.012 A 
ATOM     67  C   UNL A   1      50.167  27.867  25.018  1.00  0.00     0.148 A 
ATOM     68  C   UNL A   1      52.043  27.249  27.019  1.00  0.00     0.002 A 
ATOM     69  C   UNL A   1      51.470  27.520  24.678  1.00  0.00     0.091 A 
ATOM     70  F   UNL A   1      49.260  28.202  24.091  1.00  0.00    -0.205 F 
ATOM     71  C   UNL A   1      52.411  27.224  25.677  1.00  0.00     0.022 A 
BRANCH  69  72
ATOM     72  S   UNL A   1      52.022  27.379  22.975  1.00  0.00     0.127 S 
ATOM     73  O   UNL A   1      53.052  26.347  23.084  1.00  0.00    -0.237 OA
ATOM     74  O   UNL A   1      50.801  26.952  22.291  1.00  0.00    -0.237 OA
ATOM     75  O   UNL A   1      52.501  28.700  22.596  1.00  0.00    -0.744 OA
ENDBRANCH  69  72
ENDBRANCH  51  65
BRANCH  52  76
ATOM     76  C   UNL A   1      40.334  29.319  29.273  1.00  0.00     0.023 A 
ATOM     77  C   UNL A   1      39.345  29.768  28.376  1.00  0.00     0.012 A 
ATOM     78  C   UNL A   1      39.982  29.061  30.611  1.00  0.00     0.148 A 
ATOM     79  C   UNL A   1      38.038  29.992  28.813  1.00  0.00     0.002 A 
ATOM     80  C   UNL A   1      38.666  29.231  31.025  1.00  0.00     0.091 A 
ATOM     81  F   UNL A   1      40.941  28.644  31.450  1.00  0.00    -0.205 F 
ATOM     82  C   UNL A   1      37.697  29.715  30.134  1.00  0.00     0.022 A 
BRANCH  80  83
ATOM     83  S   UNL A   1      38.107  28.773  32.670  1.00  0.00     0.127 S 
ATOM     84  O   UNL A   1      39.046  29.503  33.519  1.00  0.00    -0.237 OA
ATOM     85  O   UNL A   1      36.738  29.292  32.676  1.00  0.00    -0.237 OA
ATOM     86  O   UNL A   1      38.198  27.321  32.727  1.00  0.00    -0.744 OA
ENDBRANCH  80  83
ENDBRANCH  52  76
BRANCH  64  87
ATOM     87  C   UNL A   1      45.992  33.413  28.996  1.00  0.00     0.023 A 
ATOM     88  C   UNL A   1      46.465  33.741  30.281  1.00  0.00     0.012 A 
ATOM     89  C   UNL A   1      45.850  34.430  28.030  1.00  0.00     0.148 A 
ATOM     90  C   UNL A   1      46.770  35.062  30.607  1.00  0.00     0.002 A 
ATOM     91  C   UNL A   1      46.206  35.735  28.345  1.00  0.00     0.091 A 
ATOM     92  F   UNL A   1      45.382  34.099  26.818  1.00  0.00    -0.205 F 
ATOM     93  C   UNL A   1      46.654  36.055  29.637  1.00  0.00     0.022 A 
BRANCH  91  94
ATOM     94  S   UNL A   1      46.188  37.061  27.134  1.00  0.00     0.127 S 
ATOM     95  O   UNL A   1      44.760  37.366  27.047  1.00  0.00    -0.237 OA
ATOM     96  O   UNL A   1      46.992  38.091  27.793  1.00  0.00    -0.237 OA
ATOM     97  O   UNL A   1      46.780  36.511  25.923  1.00  0.00    -0.744 OA
ENDBRANCH  91  94
ENDBRANCH  64  87
ENDBRANCH  38  39
ENDBRANCH  30  33
ENDBRANCH  28  29
ENDBRANCH  27  28
ENDBRANCH  26  27
ENDBRANCH  25  26
ENDBRANCH   1  25
TORSDOF 22
ENDMDL
MODEL 2
REMARK VINA RESULT:      -9.6      5.906     11.772
REMARK SMILES COC(=O)[C@@H]1CCN(C(=O)NC(=O)COCC(=O)NCCCCCCNC(=O)c2ccc(-c3c4nc(c(-c5cccc(S(=O)(=O)[O-])c5F)c5ccc([nH]5)c(-c5cccc(S(=O)(=O)[O-])c5F)c5nc(c(-c6cccc(S(=O)(=O)[O-])c6F)c6ccc3[nH]6)C=C5)C=C4)cc2)C1
REMARK SMILES IDX 21 1 20 2 19 3 17 4 18 5 16 7 15 8 14 9 12 10 9 11 10 12
REMARK SMILES IDX 11 13 13 15 8 16 5 17 6 18 92 19 7 20 3 21 4 22 2 23 1 24
REMARK SMILES IDX 22 25 23 26 24 27 25 28 26 29 27 30 28 32 29 33 30 34 91 35
REMARK SMILES IDX 31 36 90 37 32 38 33 39 34 40 84 41 35 42 89 43 83 44 85 45
REMARK SMILES IDX 36 46 88 47 82 48 81 49 37 51 69 52 49 53 68 54 50 55 53 56
REMARK SMILES IDX 67 57 86 58 51 59 52 60 66 62 87 63 54 64 38 65 39 66 47 67
REMARK SMILES IDX 40 68 42 69 48 70 41 71 43 72 44 73 45 74 46 75 70 76 71 77
REMARK SMILES IDX 79 78 72 79 74 80 80 81 73 82 75 83 76 84 77 85 78 86 55 87
REMARK SMILES IDX 56 88 64 89 57 90 59 91 65 92 58 93 60 94 61 95 62 96 63 97
REMARK H PARENT 19 6 11 14 26 31 85 50 53 61
REMARK Flexibility Score: inf
ROOT
ATOM      1  C   UNL A   1      35.796  30.707  27.913  1.00  0.00     0.021 C 
ENDROOT
BRANCH   1   2
ATOM      2  C   UNL A   1      35.141  29.424  27.396  1.00  0.00     0.116 C 
BRANCH   2   3
ATOM      3  N   UNL A   1      33.706  29.420  27.624  1.00  0.00    -0.354 N 
ATOM      4  C   UNL A   1      32.785  28.502  27.206  1.00  0.00     0.246 C 
ATOM      5  O   UNL A   1      31.596  28.675  27.475  1.00  0.00    -0.272 OA
ATOM      6  H   UNL A   1      33.353  30.176  28.146  1.00  0.00     0.163 HD
BRANCH   4   7
ATOM      7  C   UNL A   1      33.260  27.285  26.411  1.00  0.00     0.260 C 
BRANCH   7   8
ATOM      8  O   UNL A   1      32.869  27.350  25.048  1.00  0.00    -0.362 OA
BRANCH   8   9
ATOM      9  C   UNL A   1      32.306  26.146  24.569  1.00  0.00     0.261 C 
BRANCH   9  10
ATOM     10  C   UNL A   1      30.913  25.867  25.107  1.00  0.00     0.254 C 
ATOM     11  C   UNL A   1      31.237  23.665  26.456  1.00  0.00     0.324 C 
ATOM     12  O   UNL A   1      30.785  23.333  27.556  1.00  0.00    -0.248 OA
ATOM     13  N   UNL A   1      30.626  24.739  25.854  1.00  0.00    -0.276 N 
ATOM     14  H   UNL A   1      29.654  24.687  26.006  1.00  0.00     0.174 HD
ATOM     15  O   UNL A   1      29.992  26.665  24.891  1.00  0.00    -0.272 OA
BRANCH  11  16
ATOM     16  N   UNL A   1      32.214  22.945  25.842  1.00  0.00    -0.324 N 
ATOM     17  C   UNL A   1      33.085  21.486  24.149  1.00  0.00     0.120 C 
ATOM     18  C   UNL A   1      33.988  22.706  24.336  1.00  0.00     0.039 C 
ATOM     19  C   UNL A   1      31.834  21.843  24.954  1.00  0.00     0.136 C 
ATOM     20  C   UNL A   1      33.633  23.202  25.725  1.00  0.00     0.122 C 
BRANCH  17  21
ATOM     21  C   UNL A   1      33.645  20.151  24.599  1.00  0.00     0.310 C 
ATOM     22  O   UNL A   1      34.826  19.975  24.854  1.00  0.00    -0.252 OA
BRANCH  21  23
ATOM     23  O   UNL A   1      32.672  19.216  24.764  1.00  0.00    -0.469 OA
ATOM     24  C   UNL A   1      32.515  18.332  23.650  1.00  0.00     0.282 C 
ENDBRANCH  21  23
ENDBRANCH  17  21
ENDBRANCH  11  16
ENDBRANCH   9  10
ENDBRANCH   8   9
ENDBRANCH   7   8
ENDBRANCH   4   7
ENDBRANCH   2   3
ENDBRANCH   1   2
BRANCH   1  25
ATOM     25  C   UNL A   1      34.834  31.880  28.136  1.00  0.00     0.002 C 
BRANCH  25  26
ATOM     26  C   UNL A   1      35.399  33.268  27.814  1.00  0.00     0.002 C 
BRANCH  26  27
ATOM     27  C   UNL A   1      34.385  34.411  27.854  1.00  0.00     0.021 C 
BRANCH  27  28
ATOM     28  C   UNL A   1      33.101  34.103  28.618  1.00  0.00     0.116 C 
BRANCH  28  29
ATOM     29  N   UNL A   1      32.865  35.030  29.714  1.00  0.00    -0.352 N 
ATOM     30  C   UNL A   1      33.471  35.091  30.946  1.00  0.00     0.251 C 
ATOM     31  H   UNL A   1      32.172  35.711  29.550  1.00  0.00     0.163 HD
ATOM     32  O   UNL A   1      33.038  35.844  31.812  1.00  0.00    -0.269 OA
BRANCH  30  33
ATOM     33  C   UNL A   1      34.635  34.223  31.231  1.00  0.00     0.039 A 
ATOM     34  C   UNL A   1      35.921  34.701  30.959  1.00  0.00     0.014 A 
ATOM     35  C   UNL A   1      34.459  32.953  31.785  1.00  0.00     0.014 A 
ATOM     36  C   UNL A   1      37.034  33.934  31.315  1.00  0.00     0.010 A 
ATOM     37  C   UNL A   1      35.568  32.223  32.204  1.00  0.00     0.010 A 
ATOM     38  C   UNL A   1      36.867  32.707  31.977  1.00  0.00    -0.014 A 
BRANCH  38  39
ATOM     39  C   UNL A   1      38.029  31.917  32.464  1.00  0.00     0.031 A 
ATOM     40  C   UNL A   1      38.696  32.278  33.764  1.00  0.00     0.074 A 
ATOM     41  C   UNL A   1      38.552  30.947  31.686  1.00  0.00     0.049 A 
ATOM     42  N   UNL A   1      39.788  31.790  34.294  1.00  0.00    -0.248 NA
ATOM     43  C   UNL A   1      38.066  33.344  34.560  1.00  0.00     0.031 C 
ATOM     44  C   UNL A   1      38.034  30.540  30.378  1.00  0.00     0.029 A 
ATOM     45  N   UNL A   1      39.658  30.152  31.865  1.00  0.00    -0.354 N 
ATOM     46  C   UNL A   1      39.999  32.515  35.460  1.00  0.00     0.074 A 
ATOM     47  C   UNL A   1      38.937  33.493  35.547  1.00  0.00     0.031 C 
ATOM     48  C   UNL A   1      38.823  29.578  29.873  1.00  0.00     0.029 A 
ATOM     49  C   UNL A   1      39.925  29.329  30.795  1.00  0.00     0.049 A 
ATOM     50  H   UNL A   1      40.207  30.170  32.682  1.00  0.00     0.167 HD
ATOM     51  C   UNL A   1      40.975  32.365  36.387  1.00  0.00     0.034 A 
ATOM     52  C   UNL A   1      40.953  28.486  30.571  1.00  0.00     0.034 A 
ATOM     53  C   UNL A   1      42.010  31.370  36.315  1.00  0.00     0.049 A 
ATOM     54  C   UNL A   1      42.022  28.336  31.620  1.00  0.00     0.074 A 
ATOM     55  C   UNL A   1      42.995  31.087  37.244  1.00  0.00     0.029 A 
ATOM     56  N   UNL A   1      42.204  30.504  35.250  1.00  0.00    -0.354 N 
ATOM     57  N   UNL A   1      42.126  28.931  32.783  1.00  0.00    -0.248 NA
ATOM     58  C   UNL A   1      43.100  27.375  31.340  1.00  0.00     0.031 C 
ATOM     59  C   UNL A   1      43.808  30.076  36.725  1.00  0.00     0.029 A 
ATOM     60  C   UNL A   1      43.303  29.697  35.491  1.00  0.00     0.049 A 
ATOM     61  H   UNL A   1      41.643  30.468  34.442  1.00  0.00     0.167 HD
ATOM     62  C   UNL A   1      43.253  28.388  33.390  1.00  0.00     0.074 A 
ATOM     63  C   UNL A   1      43.791  27.406  32.472  1.00  0.00     0.031 C 
ATOM     64  C   UNL A   1      43.796  28.683  34.596  1.00  0.00     0.034 A 
BRANCH  51  65
ATOM     65  C   UNL A   1      40.954  33.281  37.584  1.00  0.00     0.023 A 
ATOM     66  C   UNL A   1      41.858  34.360  37.656  1.00  0.00     0.012 A 
ATOM     67  C   UNL A   1      39.998  33.112  38.605  1.00  0.00     0.148 A 
ATOM     68  C   UNL A   1      41.839  35.233  38.742  1.00  0.00     0.002 A 
ATOM     69  C   UNL A   1      39.953  34.016  39.660  1.00  0.00     0.091 A 
ATOM     70  F   UNL A   1      39.159  32.071  38.530  1.00  0.00    -0.205 F 
ATOM     71  C   UNL A   1      40.880  35.067  39.737  1.00  0.00     0.022 A 
BRANCH  69  72
ATOM     72  S   UNL A   1      38.706  33.937  40.951  1.00  0.00     0.127 S 
ATOM     73  O   UNL A   1      37.583  33.330  40.237  1.00  0.00    -0.237 OA
ATOM     74  O   UNL A   1      39.342  33.065  41.939  1.00  0.00    -0.237 OA
ATOM     75  O   UNL A   1      38.495  35.307  41.393  1.00  0.00    -0.744 OA
ENDBRANCH  69  72
ENDBRANCH  51  65
BRANCH  52  76
ATOM     76  C   UNL A   1      41.002  27.686  29.313  1.00  0.00     0.023 A 
ATOM     77  C   UNL A   1      40.245  26.502  29.215  1.00  0.00     0.012 A 
ATOM     78  C   UNL A   1      41.781  28.096  28.214  1.00  0.00     0.148 A 
ATOM     79  C   UNL A   1      40.291  25.722  28.058  1.00  0.00     0.002 A 
ATOM     80  C   UNL A   1      41.776  27.345  27.044  1.00  0.00     0.091 A 
ATOM     81  F   UNL A   1      42.502  29.220  28.331  1.00  0.00    -0.205 F 
ATOM     82  C   UNL A   1      41.048  26.148  26.971  1.00  0.00     0.022 A 
BRANCH  80  83
ATOM     83  S   UNL A   1      42.615  27.884  25.550  1.00  0.00     0.127 S 
ATOM     84  O   UNL A   1      42.394  26.748  24.657  1.00  0.00    -0.237 OA
ATOM     85  O   UNL A   1      41.866  29.093  25.206  1.00  0.00    -0.237 OA
ATOM     86  O   UNL A   1      43.997  28.124  25.938  1.00  0.00    -0.744 OA
ENDBRANCH  80  83
ENDBRANCH  52  76
BRANCH  64  87
ATOM     87  C   UNL A   1      45.007  27.902  35.037  1.00  0.00     0.023 A 
ATOM     88  C   UNL A   1      46.299  28.340  34.688  1.00  0.00     0.012 A 
ATOM     89  C   UNL A   1      44.861  26.784  35.884  1.00  0.00     0.148 A 
ATOM     90  C   UNL A   1      47.426  27.664  35.156  1.00  0.00     0.002 A 
ATOM     91  C   UNL A   1      45.987  26.148  36.388  1.00  0.00     0.091 A 
ATOM     92  F   UNL A   1      43.621  26.374  36.190  1.00  0.00    -0.205 F 
ATOM     93  C   UNL A   1      47.271  26.579  36.016  1.00  0.00     0.022 A 
BRANCH  91  94
ATOM     94  S   UNL A   1      45.889  24.809  37.581  1.00  0.00     0.127 S 
ATOM     95  O   UNL A   1      47.239  24.809  38.141  1.00  0.00    -0.237 OA
ATOM     96  O   UNL A   1      44.850  25.285  38.494  1.00  0.00    -0.237 OA
ATOM     97  O   UNL A   1      45.531  23.618  36.823  1.00  0.00    -0.744 OA
ENDBRANCH  91  94
ENDBRANCH  64  87
ENDBRANCH  38  39
ENDBRANCH  30  33
ENDBRANCH  28  29
ENDBRANCH  27  28
ENDBRANCH  26  27
ENDBRANCH  25  26
ENDBRANCH   1  25
TORSDOF 22
ENDMDL
MODEL 3
REMARK VINA RESULT:      -9.5      1.731      2.410
REMARK SMILES COC(=O)[C@@H]1CCN(C(=O)NC(=O)COCC(=O)NCCCCCCNC(=O)c2ccc(-c3c4nc(c(-c5cccc(S(=O)(=O)[O-])c5F)c5ccc([nH]5)c(-c5cccc(S(=O)(=O)[O-])c5F)c5nc(c(-c6cccc(S(=O)(=O)[O-])c6F)c6ccc3[nH]6)C=C5)C=C4)cc2)C1
REMARK SMILES IDX 21 1 20 2 19 3 17 4 18 5 16 7 15 8 14 9 12 10 9 11 10 12
REMARK SMILES IDX 11 13 13 15 8 16 5 17 6 18 92 19 7 20 3 21 4 22 2 23 1 24
REMARK SMILES IDX 22 25 23 26 24 27 25 28 26 29 27 30 28 32 29 33 30 34 91 35
REMARK SMILES IDX 31 36 90 37 32 38 33 39 34 40 84 41 35 42 89 43 83 44 85 45
REMARK SMILES IDX 36 46 88 47 82 48 81 49 37 51 69 52 49 53 68 54 50 55 53 56
REMARK SMILES IDX 67 57 86 58 51 59 52 60 66 62 87 63 54 64 38 65 39 66 47 67
REMARK SMILES IDX 40 68 42 69 48 70 41 71 43 72 44 73 45 74 46 75 70 76 71 77
REMARK SMILES IDX 79 78 72 79 74 80 80 81 73 82 75 83 76 84 77 85 78 86 55 87
REMARK SMILES IDX 56 88 64 89 57 90 59 91 65 92 58 93 60 94 61 95 62 96 63 97
REMARK H PARENT 19 6 11 14 26 31 85 50 53 61
REMARK Flexibility Score: inf
ROOT
ATOM      1  C   UNL A   1      39.079  23.543  26.607  1.00  0.00     0.021 C 
ENDROOT
BRANCH   1   2
ATOM      2  C   UNL A   1      37.741  22.978  26.125  1.00  0.00     0.116 C 
BRANCH   2   3
ATOM      3  N   UNL A   1      37.526  23.233  24.711  1.00  0.00    -0.354 N 
ATOM      4  C   UNL A   1      36.394  23.022  23.975  1.00  0.00     0.246 C 
ATOM      5  O   UNL A   1      36.402  23.278  22.770  1.00  0.00    -0.272 OA
ATOM      6  H   UNL A   1      38.294  23.606  24.220  1.00  0.00     0.163 HD
BRANCH   4   7
ATOM      7  C   UNL A   1      35.151  22.468  24.672  1.00  0.00     0.260 C 
BRANCH   7   8
ATOM      8  O   UNL A   1      34.249  23.495  25.055  1.00  0.00    -0.362 OA
BRANCH   8   9
ATOM      9  C   UNL A   1      32.892  23.123  24.934  1.00  0.00     0.261 C 
BRANCH   9  10
ATOM     10  C   UNL A   1      32.560  22.448  23.614  1.00  0.00     0.254 C 
ATOM     11  C   UNL A   1      32.801  24.384  21.891  1.00  0.00     0.324 C 
ATOM     12  O   UNL A   1      33.309  24.388  20.765  1.00  0.00    -0.248 OA
ATOM     13  N   UNL A   1      32.522  23.147  22.421  1.00  0.00    -0.276 N 
ATOM     14  H   UNL A   1      32.178  22.559  21.709  1.00  0.00     0.174 HD
ATOM     15  O   UNL A   1      32.321  21.234  23.579  1.00  0.00    -0.272 OA
BRANCH  11  16
ATOM     16  N   UNL A   1      32.453  25.540  22.517  1.00  0.00    -0.324 N 
ATOM     17  C   UNL A   1      30.985  26.960  23.775  1.00  0.00     0.120 C 
ATOM     18  C   UNL A   1      32.393  26.966  24.371  1.00  0.00     0.039 C 
ATOM     19  C   UNL A   1      31.034  25.820  22.756  1.00  0.00     0.136 C 
ATOM     20  C   UNL A   1      33.268  26.506  23.220  1.00  0.00     0.122 C 
BRANCH  17  21
ATOM     21  C   UNL A   1      30.522  28.244  23.116  1.00  0.00     0.310 C 
ATOM     22  O   UNL A   1      30.216  28.315  21.936  1.00  0.00    -0.252 OA
BRANCH  21  23
ATOM     23  O   UNL A   1      30.409  29.266  24.006  1.00  0.00    -0.469 OA
ATOM     24  C   UNL A   1      29.495  30.291  23.606  1.00  0.00     0.282 C 
ENDBRANCH  21  23
ENDBRANCH  17  21
ENDBRANCH  11  16
ENDBRANCH   9  10
ENDBRANCH   8   9
ENDBRANCH   7   8
ENDBRANCH   4   7
ENDBRANCH   2   3
ENDBRANCH   1   2
BRANCH   1  25
ATOM     25  C   UNL A   1      40.297  22.655  26.323  1.00  0.00     0.002 C 
BRANCH  25  26
ATOM     26  C   UNL A   1      41.030  22.124  27.560  1.00  0.00     0.002 C 
BRANCH  26  27
ATOM     27  C   UNL A   1      41.717  20.770  27.381  1.00  0.00     0.021 C 
BRANCH  27  28
ATOM     28  C   UNL A   1      41.544  20.141  26.001  1.00  0.00     0.116 C 
BRANCH  28  29
ATOM     29  N   UNL A   1      42.726  19.414  25.564  1.00  0.00    -0.352 N 
ATOM     30  C   UNL A   1      43.971  19.897  25.238  1.00  0.00     0.251 C 
ATOM     31  H   UNL A   1      42.619  18.438  25.491  1.00  0.00     0.163 HD
ATOM     32  O   UNL A   1      44.809  19.155  24.736  1.00  0.00    -0.269 OA
BRANCH  30  33
ATOM     33  C   UNL A   1      44.286  21.323  25.471  1.00  0.00     0.039 A 
ATOM     34  C   UNL A   1      43.801  22.281  24.576  1.00  0.00     0.014 A 
ATOM     35  C   UNL A   1      45.036  21.714  26.583  1.00  0.00     0.014 A 
ATOM     36  C   UNL A   1      44.005  23.639  24.838  1.00  0.00     0.010 A 
ATOM     37  C   UNL A   1      45.175  23.068  26.879  1.00  0.00     0.010 A 
ATOM     38  C   UNL A   1      44.658  24.044  26.013  1.00  0.00    -0.014 A 
BRANCH  38  39
ATOM     39  C   UNL A   1      44.798  25.480  26.373  1.00  0.00     0.031 A 
ATOM     40  C   UNL A   1      46.145  26.148  26.304  1.00  0.00     0.074 A 
ATOM     41  C   UNL A   1      43.737  26.154  26.865  1.00  0.00     0.049 A 
ATOM     42  N   UNL A   1      46.490  27.349  26.690  1.00  0.00    -0.248 NA
ATOM     43  C   UNL A   1      47.254  25.353  25.753  1.00  0.00     0.031 C 
ATOM     44  C   UNL A   1      42.391  25.603  27.036  1.00  0.00     0.029 A 
ATOM     45  N   UNL A   1      43.633  27.435  27.346  1.00  0.00    -0.354 N 
ATOM     46  C   UNL A   1      47.859  27.440  26.467  1.00  0.00     0.074 A 
ATOM     47  C   UNL A   1      48.285  26.163  25.938  1.00  0.00     0.031 C 
ATOM     48  C   UNL A   1      41.601  26.537  27.588  1.00  0.00     0.029 A 
ATOM     49  C   UNL A   1      42.388  27.737  27.849  1.00  0.00     0.049 A 
ATOM     50  H   UNL A   1      44.379  28.078  27.332  1.00  0.00     0.167 HD
ATOM     51  C   UNL A   1      48.682  28.497  26.664  1.00  0.00     0.034 A 
ATOM     52  C   UNL A   1      41.938  28.843  28.473  1.00  0.00     0.034 A 
ATOM     53  C   UNL A   1      48.249  29.775  27.159  1.00  0.00     0.049 A 
ATOM     54  C   UNL A   1      42.874  30.005  28.675  1.00  0.00     0.074 A 
ATOM     55  C   UNL A   1      48.993  30.931  27.316  1.00  0.00     0.029 A 
ATOM     56  N   UNL A   1      46.964  30.065  27.589  1.00  0.00    -0.354 N 
ATOM     57  N   UNL A   1      44.132  30.121  28.328  1.00  0.00    -0.248 NA
ATOM     58  C   UNL A   1      42.320  31.202  29.327  1.00  0.00     0.031 C 
ATOM     59  C   UNL A   1      48.166  31.909  27.877  1.00  0.00     0.029 A 
ATOM     60  C   UNL A   1      46.896  31.376  28.027  1.00  0.00     0.049 A 
ATOM     61  H   UNL A   1      46.210  29.432  27.584  1.00  0.00     0.167 HD
ATOM     62  C   UNL A   1      44.508  31.413  28.679  1.00  0.00     0.074 A 
ATOM     63  C   UNL A   1      43.340  32.046  29.255  1.00  0.00     0.031 C 
ATOM     64  C   UNL A   1      45.715  32.015  28.545  1.00  0.00     0.034 A 
BRANCH  51  65
ATOM     65  C   UNL A   1      50.138  28.328  26.312  1.00  0.00     0.023 A 
ATOM     66  C   UNL A   1      50.564  28.523  24.982  1.00  0.00     0.012 A 
ATOM     67  C   UNL A   1      51.092  28.039  27.307  1.00  0.00     0.148 A 
ATOM     68  C   UNL A   1      51.909  28.396  24.640  1.00  0.00     0.002 A 
ATOM     69  C   UNL A   1      52.438  27.962  26.967  1.00  0.00     0.091 A 
ATOM     70  F   UNL A   1      50.668  27.838  28.562  1.00  0.00    -0.205 F 
ATOM     71  C   UNL A   1      52.846  28.126  25.633  1.00  0.00     0.022 A 
BRANCH  69  72
ATOM     72  S   UNL A   1      53.731  27.699  28.185  1.00  0.00     0.127 S 
ATOM     73  O   UNL A   1      53.598  26.267  28.451  1.00  0.00    -0.237 OA
ATOM     74  O   UNL A   1      54.934  28.071  27.440  1.00  0.00    -0.237 OA
ATOM     75  O   UNL A   1      53.414  28.572  29.306  1.00  0.00    -0.744 OA
ENDBRANCH  69  72
ENDBRANCH  51  65
BRANCH  52  76
ATOM     76  C   UNL A   1      40.516  28.924  28.919  1.00  0.00     0.023 A 
ATOM     77  C   UNL A   1      39.497  29.072  27.959  1.00  0.00     0.012 A 
ATOM     78  C   UNL A   1      40.171  28.841  30.281  1.00  0.00     0.148 A 
ATOM     79  C   UNL A   1      38.161  29.173  28.351  1.00  0.00     0.002 A 
ATOM     80  C   UNL A   1      38.834  28.884  30.659  1.00  0.00     0.091 A 
ATOM     81  F   UNL A   1      41.157  28.710  31.180  1.00  0.00    -0.205 F 
ATOM     82  C   UNL A   1      37.829  29.070  29.699  1.00  0.00     0.022 A 
BRANCH  80  83
ATOM     83  S   UNL A   1      38.303  28.626  32.356  1.00  0.00     0.127 S 
ATOM     84  O   UNL A   1      38.526  27.191  32.524  1.00  0.00    -0.237 OA
ATOM     85  O   UNL A   1      39.231  29.485  33.094  1.00  0.00    -0.237 OA
ATOM     86  O   UNL A   1      36.915  29.061  32.406  1.00  0.00    -0.744 OA
ENDBRANCH  80  83
ENDBRANCH  52  76
BRANCH  64  87
ATOM     87  C   UNL A   1      45.837  33.456  28.970  1.00  0.00     0.023 A 
ATOM     88  C   UNL A   1      46.370  33.779  30.232  1.00  0.00     0.012 A 
ATOM     89  C   UNL A   1      45.513  34.491  28.070  1.00  0.00     0.148 A 
ATOM     90  C   UNL A   1      46.557  35.111  30.602  1.00  0.00     0.002 A 
ATOM     91  C   UNL A   1      45.750  35.813  28.423  1.00  0.00     0.091 A 
ATOM     92  F   UNL A   1      44.991  34.161  26.879  1.00  0.00    -0.205 F 
ATOM     93  C   UNL A   1      46.261  36.126  29.694  1.00  0.00     0.022 A 
BRANCH  91  94
ATOM     94  S   UNL A   1      45.497  37.179  27.285  1.00  0.00     0.127 S 
ATOM     95  O   UNL A   1      46.420  36.840  26.203  1.00  0.00    -0.237 OA
ATOM     96  O   UNL A   1      44.081  37.038  26.946  1.00  0.00    -0.237 OA
ATOM     97  O   UNL A   1      45.826  38.389  28.026  1.00  0.00    -0.744 OA
ENDBRANCH  91  94
ENDBRANCH  64  87
ENDBRANCH  38  39
ENDBRANCH  30  33
ENDBRANCH  28  29
ENDBRANCH  27  28
ENDBRANCH  26  27
ENDBRANCH  25  26
ENDBRANCH   1  25
TORSDOF 22
ENDMDL
