MODEL 1
REMARK VINA RESULT:     -11.2      0.000      0.000
REMARK SMILES CCCCOC(=O)c1ccc(N2C[C@H](C(=O)NCCCCCCNC(=O)c3ccc(-c4c5nc(c(-c6cccc(S(=O)(=O)[O-])c6F)c6ccc([nH]6)c(-c6cccc(S(=O)(=O)[O-])c6F)c6nc(c(-c7cccc(S(=O)(=O)[O-])c7F)c7ccc4[nH]7)C=C6)C=C5)cc3)CC2=O)cc1
REMARK SMILES IDX 19 1 18 2 17 3 15 4 16 5 14 7 12 8 13 9 91 10 90 11 92 12
REMARK SMILES IDX 11 13 8 14 9 15 94 16 10 17 93 18 6 19 7 20 5 21 4 22 3 23
REMARK SMILES IDX 2 24 1 25 20 26 21 27 22 28 23 29 24 30 25 31 26 33 27 34
REMARK SMILES IDX 28 35 89 36 29 37 88 38 30 39 31 40 32 41 82 42 33 43 87 44
REMARK SMILES IDX 81 45 83 46 34 47 86 48 80 49 79 50 35 52 67 53 47 54 66 55
REMARK SMILES IDX 48 56 51 57 65 58 84 59 49 60 50 61 64 63 85 64 52 65 36 66
REMARK SMILES IDX 37 67 45 68 38 69 40 70 46 71 39 72 41 73 42 74 43 75 44 76
REMARK SMILES IDX 68 77 69 78 77 79 70 80 72 81 78 82 71 83 73 84 74 85 75 86
REMARK SMILES IDX 76 87 53 88 54 89 62 90 55 91 57 92 63 93 56 94 58 95 59 96
REMARK SMILES IDX 60 97 61 98
REMARK H PARENT 17 6 24 32 83 51 51 62
REMARK Flexibility Score: inf
ROOT
ATOM      1  C   UNL A   1      33.928  25.709  23.141  1.00  0.00     0.021 C 
ENDROOT
BRANCH   1   2
ATOM      2  C   UNL A   1      33.389  27.026  23.698  1.00  0.00     0.116 C 
BRANCH   2   3
ATOM      3  N   UNL A   1      32.405  27.634  22.819  1.00  0.00    -0.356 N 
ATOM      4  C   UNL A   1      31.048  27.636  22.831  1.00  0.00     0.225 C 
ATOM      5  O   UNL A   1      30.481  28.279  21.942  1.00  0.00    -0.275 OA
ATOM      6  H   UNL A   1      32.797  28.140  22.071  1.00  0.00     0.163 HD
BRANCH   4   7
ATOM      7  C   UNL A   1      30.208  26.865  23.838  1.00  0.00     0.107 C 
ATOM      8  N   UNL A   1      30.902  24.821  24.805  1.00  0.00    -0.312 N 
ATOM      9  C   UNL A   1      30.277  25.370  23.625  1.00  0.00     0.139 C 
ATOM     10  C   UNL A   1      30.988  25.773  25.830  1.00  0.00     0.227 C 
ATOM     11  C   UNL A   1      30.535  27.109  25.297  1.00  0.00     0.116 C 
ATOM     12  O   UNL A   1      31.404  25.645  26.971  1.00  0.00    -0.274 OA
BRANCH   8  13
ATOM     13  C   UNL A   1      31.409  23.490  24.860  1.00  0.00     0.044 A 
ATOM     14  C   UNL A   1      32.631  20.953  24.889  1.00  0.00     0.060 A 
ATOM     15  C   UNL A   1      32.094  21.443  23.703  1.00  0.00     0.018 A 
ATOM     16  C   UNL A   1      32.537  21.689  26.066  1.00  0.00     0.018 A 
ATOM     17  C   UNL A   1      31.468  22.696  23.698  1.00  0.00     0.027 A 
ATOM     18  C   UNL A   1      31.927  22.948  26.045  1.00  0.00     0.027 A 
BRANCH  14  19
ATOM     19  C   UNL A   1      33.403  19.708  24.883  1.00  0.00     0.338 C 
ATOM     20  O   UNL A   1      34.604  19.679  24.695  1.00  0.00    -0.246 OA
BRANCH  19  21
ATOM     21  O   UNL A   1      32.555  18.678  25.106  1.00  0.00    -0.462 OA
BRANCH  21  22
ATOM     22  C   UNL A   1      32.445  17.718  24.040  1.00  0.00     0.233 C 
BRANCH  22  23
ATOM     23  C   UNL A   1      33.186  16.429  24.389  1.00  0.00     0.041 C 
BRANCH  23  24
ATOM     24  C   UNL A   1      34.713  16.537  24.373  1.00  0.00     0.000 C 
ATOM     25  C   UNL A   1      35.392  15.636  25.394  1.00  0.00     0.004 C 
ENDBRANCH  23  24
ENDBRANCH  22  23
ENDBRANCH  21  22
ENDBRANCH  19  21
ENDBRANCH  14  19
ENDBRANCH   8  13
ENDBRANCH   4   7
ENDBRANCH   2   3
ENDBRANCH   1   2
BRANCH   1  26
ATOM     26  C   UNL A   1      34.644  24.824  24.169  1.00  0.00     0.002 C 
BRANCH  26  27
ATOM     27  C   UNL A   1      35.104  23.452  23.661  1.00  0.00     0.002 C 
BRANCH  27  28
ATOM     28  C   UNL A   1      36.489  22.996  24.130  1.00  0.00     0.021 C 
BRANCH  28  29
ATOM     29  C   UNL A   1      36.564  22.511  25.576  1.00  0.00     0.116 C 
BRANCH  29  30
ATOM     30  N   UNL A   1      37.573  21.479  25.759  1.00  0.00    -0.352 N 
ATOM     31  C   UNL A   1      38.895  21.601  26.111  1.00  0.00     0.251 C 
ATOM     32  H   UNL A   1      37.262  20.557  25.608  1.00  0.00     0.163 HD
ATOM     33  O   UNL A   1      39.631  20.620  26.050  1.00  0.00    -0.269 OA
BRANCH  31  34
ATOM     34  C   UNL A   1      39.437  22.908  26.549  1.00  0.00     0.039 A 
ATOM     35  C   UNL A   1      40.321  22.940  27.633  1.00  0.00     0.014 A 
ATOM     36  C   UNL A   1      39.055  24.097  25.921  1.00  0.00     0.014 A 
ATOM     37  C   UNL A   1      40.863  24.159  28.052  1.00  0.00     0.010 A 
ATOM     38  C   UNL A   1      39.640  25.302  26.303  1.00  0.00     0.010 A 
ATOM     39  C   UNL A   1      40.544  25.347  27.376  1.00  0.00    -0.014 A 
BRANCH  39  40
ATOM     40  C   UNL A   1      41.137  26.649  27.777  1.00  0.00     0.031 A 
ATOM     41  C   UNL A   1      42.584  26.942  27.482  1.00  0.00     0.074 A 
ATOM     42  C   UNL A   1      40.398  27.532  28.479  1.00  0.00     0.049 A 
ATOM     43  N   UNL A   1      43.300  27.983  27.818  1.00  0.00    -0.248 NA
ATOM     44  C   UNL A   1      43.328  25.920  26.728  1.00  0.00     0.031 C 
ATOM     45  C   UNL A   1      39.004  27.337  28.882  1.00  0.00     0.029 A 
ATOM     46  N   UNL A   1      40.726  28.757  29.002  1.00  0.00    -0.354 N 
ATOM     47  C   UNL A   1      44.583  27.730  27.349  1.00  0.00     0.074 A 
ATOM     48  C   UNL A   1      44.555  26.424  26.725  1.00  0.00     0.031 C 
ATOM     49  C   UNL A   1      38.598  28.404  29.589  1.00  0.00     0.029 A 
ATOM     50  C   UNL A   1      39.705  29.347  29.710  1.00  0.00     0.049 A 
ATOM     51  H   UNL A   1      41.609  29.176  28.882  1.00  0.00     0.167 HD
ATOM     52  C   UNL A   1      45.678  28.524  27.402  1.00  0.00     0.034 A 
ATOM     53  C   UNL A   1      39.667  30.515  30.382  1.00  0.00     0.034 A 
ATOM     54  C   UNL A   1      45.693  29.842  27.975  1.00  0.00     0.049 A 
ATOM     55  C   UNL A   1      40.888  31.395  30.387  1.00  0.00     0.074 A 
ATOM     56  C   UNL A   1      46.737  30.749  28.022  1.00  0.00     0.029 A 
ATOM     57  N   UNL A   1      44.610  30.444  28.595  1.00  0.00    -0.354 N 
ATOM     58  N   UNL A   1      42.050  31.198  29.814  1.00  0.00    -0.248 NA
ATOM     59  C   UNL A   1      40.780  32.677  31.101  1.00  0.00     0.031 C 
ATOM     60  C   UNL A   1      46.282  31.904  28.669  1.00  0.00     0.029 A 
ATOM     61  C   UNL A   1      44.956  31.715  29.021  1.00  0.00     0.049 A 
ATOM     62  H   UNL A   1      43.725  30.030  28.715  1.00  0.00     0.167 HD
ATOM     63  C   UNL A   1      42.797  32.344  30.063  1.00  0.00     0.074 A 
ATOM     64  C   UNL A   1      41.950  33.239  30.824  1.00  0.00     0.031 C 
ATOM     65  C   UNL A   1      44.076  32.622  29.711  1.00  0.00     0.034 A 
BRANCH  52  66
ATOM     66  C   UNL A   1      46.939  28.018  26.751  1.00  0.00     0.023 A 
ATOM     67  C   UNL A   1      47.936  27.432  27.558  1.00  0.00     0.012 A 
ATOM     68  C   UNL A   1      47.116  28.061  25.355  1.00  0.00     0.148 A 
ATOM     69  C   UNL A   1      49.103  26.923  26.990  1.00  0.00     0.002 A 
ATOM     70  C   UNL A   1      48.267  27.518  24.791  1.00  0.00     0.091 A 
ATOM     71  F   UNL A   1      46.167  28.640  24.606  1.00  0.00    -0.205 F 
ATOM     72  C   UNL A   1      49.264  26.957  25.608  1.00  0.00     0.022 A 
BRANCH  70  73
ATOM     73  S   UNL A   1      48.537  27.451  23.016  1.00  0.00     0.127 S 
ATOM     74  O   UNL A   1      49.895  27.978  22.903  1.00  0.00    -0.237 OA
ATOM     75  O   UNL A   1      48.413  26.020  22.737  1.00  0.00    -0.237 OA
ATOM     76  O   UNL A   1      47.492  28.274  22.422  1.00  0.00    -0.744 OA
ENDBRANCH  70  73
ENDBRANCH  52  66
BRANCH  53  77
ATOM     77  C   UNL A   1      38.402  30.964  31.029  1.00  0.00     0.023 A 
ATOM     78  C   UNL A   1      38.206  30.704  32.399  1.00  0.00     0.012 A 
ATOM     79  C   UNL A   1      37.409  31.661  30.315  1.00  0.00     0.148 A 
ATOM     80  C   UNL A   1      37.032  31.100  33.040  1.00  0.00     0.002 A 
ATOM     81  C   UNL A   1      36.261  32.097  30.971  1.00  0.00     0.091 A 
ATOM     82  F   UNL A   1      37.600  31.882  29.007  1.00  0.00    -0.205 F 
ATOM     83  C   UNL A   1      36.065  31.805  32.329  1.00  0.00     0.022 A 
BRANCH  81  84
ATOM     84  S   UNL A   1      35.032  33.119  30.152  1.00  0.00     0.127 S 
ATOM     85  O   UNL A   1      35.850  34.198  29.609  1.00  0.00    -0.237 OA
ATOM     86  O   UNL A   1      34.480  32.201  29.152  1.00  0.00    -0.237 OA
ATOM     87  O   UNL A   1      34.088  33.490  31.199  1.00  0.00    -0.744 OA
ENDBRANCH  81  84
ENDBRANCH  53  77
BRANCH  65  88
ATOM     88  C   UNL A   1      44.635  33.963  30.107  1.00  0.00     0.023 A 
ATOM     89  C   UNL A   1      45.383  34.079  31.294  1.00  0.00     0.012 A 
ATOM     90  C   UNL A   1      44.489  35.083  29.265  1.00  0.00     0.148 A 
ATOM     91  C   UNL A   1      45.959  35.297  31.650  1.00  0.00     0.002 A 
ATOM     92  C   UNL A   1      45.101  36.283  29.607  1.00  0.00     0.091 A 
ATOM     93  F   UNL A   1      43.754  34.956  28.151  1.00  0.00    -0.205 F 
ATOM     94  C   UNL A   1      45.830  36.395  30.801  1.00  0.00     0.022 A 
BRANCH  92  95
ATOM     95  S   UNL A   1      45.057  37.719  28.526  1.00  0.00     0.127 S 
ATOM     96  O   UNL A   1      45.523  37.155  27.260  1.00  0.00    -0.237 OA
ATOM     97  O   UNL A   1      43.640  38.085  28.545  1.00  0.00    -0.237 OA
ATOM     98  O   UNL A   1      45.938  38.703  29.140  1.00  0.00    -0.744 OA
ENDBRANCH  92  95
ENDBRANCH  65  88
ENDBRANCH  39  40
ENDBRANCH  31  34
ENDBRANCH  29  30
ENDBRANCH  28  29
ENDBRANCH  27  28
ENDBRANCH  26  27
ENDBRANCH   1  26
TORSDOF 22
ENDMDL
MODEL 2
REMARK VINA RESULT:     -10.9      0.990      7.414
REMARK SMILES CCCCOC(=O)c1ccc(N2C[C@H](C(=O)NCCCCCCNC(=O)c3ccc(-c4c5nc(c(-c6cccc(S(=O)(=O)[O-])c6F)c6ccc([nH]6)c(-c6cccc(S(=O)(=O)[O-])c6F)c6nc(c(-c7cccc(S(=O)(=O)[O-])c7F)c7ccc4[nH]7)C=C6)C=C5)cc3)CC2=O)cc1
REMARK SMILES IDX 19 1 18 2 17 3 15 4 16 5 14 7 12 8 13 9 91 10 90 11 92 12
REMARK SMILES IDX 11 13 8 14 9 15 94 16 10 17 93 18 6 19 7 20 5 21 4 22 3 23
REMARK SMILES IDX 2 24 1 25 20 26 21 27 22 28 23 29 24 30 25 31 26 33 27 34
REMARK SMILES IDX 28 35 89 36 29 37 88 38 30 39 31 40 32 41 82 42 33 43 87 44
REMARK SMILES IDX 81 45 83 46 34 47 86 48 80 49 79 50 35 52 67 53 47 54 66 55
REMARK SMILES IDX 48 56 51 57 65 58 84 59 49 60 50 61 64 63 85 64 52 65 36 66
REMARK SMILES IDX 37 67 45 68 38 69 40 70 46 71 39 72 41 73 42 74 43 75 44 76
REMARK SMILES IDX 68 77 69 78 77 79 70 80 72 81 78 82 71 83 73 84 74 85 75 86
REMARK SMILES IDX 76 87 53 88 54 89 62 90 55 91 57 92 63 93 56 94 58 95 59 96
REMARK SMILES IDX 60 97 61 98
REMARK H PARENT 17 6 24 32 83 51 51 62
REMARK Flexibility Score: inf
ROOT
ATOM      1  C   UNL A   1      33.949  27.017  24.741  1.00  0.00     0.021 C 
ENDROOT
BRANCH   1   2
ATOM      2  C   UNL A   1      32.482  27.337  25.026  1.00  0.00     0.116 C 
BRANCH   2   3
ATOM      3  N   UNL A   1      31.791  27.844  23.853  1.00  0.00    -0.356 N 
ATOM      4  C   UNL A   1      30.644  27.466  23.235  1.00  0.00     0.225 C 
ATOM      5  O   UNL A   1      30.295  28.124  22.249  1.00  0.00    -0.275 OA
ATOM      6  H   UNL A   1      32.242  28.606  23.423  1.00  0.00     0.163 HD
BRANCH   4   7
ATOM      7  C   UNL A   1      29.807  26.269  23.660  1.00  0.00     0.107 C 
ATOM      8  N   UNL A   1      30.746  24.244  24.442  1.00  0.00    -0.312 N 
ATOM      9  C   UNL A   1      30.415  24.954  23.229  1.00  0.00     0.139 C 
ATOM     10  C   UNL A   1      30.176  24.856  25.566  1.00  0.00     0.227 C 
ATOM     11  C   UNL A   1      29.528  26.151  25.144  1.00  0.00     0.116 C 
ATOM     12  O   UNL A   1      30.202  24.502  26.735  1.00  0.00    -0.274 OA
BRANCH   8  13
ATOM     13  C   UNL A   1      31.601  23.104  24.457  1.00  0.00     0.044 A 
ATOM     14  C   UNL A   1      33.084  20.711  24.495  1.00  0.00     0.060 A 
ATOM     15  C   UNL A   1      32.656  21.273  25.694  1.00  0.00     0.018 A 
ATOM     16  C   UNL A   1      32.818  21.339  23.283  1.00  0.00     0.018 A 
ATOM     17  C   UNL A   1      31.938  22.474  25.671  1.00  0.00     0.027 A 
ATOM     18  C   UNL A   1      32.082  22.529  23.271  1.00  0.00     0.027 A 
BRANCH  14  19
ATOM     19  C   UNL A   1      33.720  19.391  24.493  1.00  0.00     0.338 C 
ATOM     20  O   UNL A   1      34.773  19.167  25.059  1.00  0.00    -0.246 OA
BRANCH  19  21
ATOM     21  O   UNL A   1      32.947  18.544  23.777  1.00  0.00    -0.462 OA
BRANCH  21  22
ATOM     22  C   UNL A   1      33.648  17.514  23.058  1.00  0.00     0.233 C 
BRANCH  22  23
ATOM     23  C   UNL A   1      33.466  16.156  23.736  1.00  0.00     0.041 C 
BRANCH  23  24
ATOM     24  C   UNL A   1      32.737  16.198  25.081  1.00  0.00     0.000 C 
ATOM     25  C   UNL A   1      32.733  14.860  25.807  1.00  0.00     0.004 C 
ENDBRANCH  23  24
ENDBRANCH  22  23
ENDBRANCH  21  22
ENDBRANCH  19  21
ENDBRANCH  14  19
ENDBRANCH   8  13
ENDBRANCH   4   7
ENDBRANCH   2   3
ENDBRANCH   1   2
BRANCH   1  26
ATOM     26  C   UNL A   1      34.229  25.547  24.403  1.00  0.00     0.002 C 
BRANCH  26  27
ATOM     27  C   UNL A   1      34.756  24.687  25.558  1.00  0.00     0.002 C 
BRANCH  27  28
ATOM     28  C   UNL A   1      35.473  23.394  25.157  1.00  0.00     0.021 C 
BRANCH  28  29
ATOM     29  C   UNL A   1      35.861  22.474  26.311  1.00  0.00     0.116 C 
BRANCH  29  30
ATOM     30  N   UNL A   1      36.809  21.449  25.905  1.00  0.00    -0.352 N 
ATOM     31  C   UNL A   1      38.176  21.515  25.797  1.00  0.00     0.251 C 
ATOM     32  H   UNL A   1      36.411  20.579  25.673  1.00  0.00     0.163 HD
ATOM     33  O   UNL A   1      38.789  20.590  25.272  1.00  0.00    -0.269 OA
BRANCH  31  34
ATOM     34  C   UNL A   1      38.911  22.701  26.296  1.00  0.00     0.039 A 
ATOM     35  C   UNL A   1      39.900  22.518  27.268  1.00  0.00     0.014 A 
ATOM     36  C   UNL A   1      38.609  23.986  25.837  1.00  0.00     0.014 A 
ATOM     37  C   UNL A   1      40.623  23.619  27.740  1.00  0.00     0.010 A 
ATOM     38  C   UNL A   1      39.368  25.073  26.266  1.00  0.00     0.010 A 
ATOM     39  C   UNL A   1      40.378  24.902  27.226  1.00  0.00    -0.014 A 
BRANCH  39  40
ATOM     40  C   UNL A   1      41.158  26.080  27.681  1.00  0.00     0.031 A 
ATOM     41  C   UNL A   1      40.493  27.160  28.492  1.00  0.00     0.074 A 
ATOM     42  C   UNL A   1      42.443  26.220  27.295  1.00  0.00     0.049 A 
ATOM     43  N   UNL A   1      40.983  28.296  28.915  1.00  0.00    -0.248 NA
ATOM     44  C   UNL A   1      39.083  26.942  28.858  1.00  0.00     0.031 C 
ATOM     45  C   UNL A   1      43.182  25.275  26.457  1.00  0.00     0.029 A 
ATOM     46  N   UNL A   1      43.345  27.226  27.535  1.00  0.00    -0.354 N 
ATOM     47  C   UNL A   1      39.939  28.943  29.565  1.00  0.00     0.074 A 
ATOM     48  C   UNL A   1      38.779  28.084  29.459  1.00  0.00     0.031 C 
ATOM     49  C   UNL A   1      44.423  25.746  26.251  1.00  0.00     0.029 A 
ATOM     50  C   UNL A   1      44.562  27.035  26.922  1.00  0.00     0.049 A 
ATOM     51  H   UNL A   1      43.141  28.012  28.092  1.00  0.00     0.167 HD
ATOM     52  C   UNL A   1      39.951  30.128  30.218  1.00  0.00     0.034 A 
ATOM     53  C   UNL A   1      45.663  27.812  26.902  1.00  0.00     0.034 A 
ATOM     54  C   UNL A   1      41.116  30.957  30.366  1.00  0.00     0.049 A 
ATOM     55  C   UNL A   1      45.659  29.105  27.673  1.00  0.00     0.074 A 
ATOM     56  C   UNL A   1      41.245  32.146  31.063  1.00  0.00     0.029 A 
ATOM     57  N   UNL A   1      42.357  30.679  29.815  1.00  0.00    -0.354 N 
ATOM     58  N   UNL A   1      44.703  29.630  28.400  1.00  0.00    -0.248 NA
ATOM     59  C   UNL A   1      46.900  29.895  27.652  1.00  0.00     0.031 C 
ATOM     60  C   UNL A   1      42.567  32.586  30.934  1.00  0.00     0.029 A 
ATOM     61  C   UNL A   1      43.261  31.668  30.162  1.00  0.00     0.049 A 
ATOM     62  H   UNL A   1      42.565  29.894  29.259  1.00  0.00     0.167 HD
ATOM     63  C   UNL A   1      45.237  30.788  28.953  1.00  0.00     0.074 A 
ATOM     64  C   UNL A   1      46.607  30.879  28.492  1.00  0.00     0.031 C 
ATOM     65  C   UNL A   1      44.641  31.704  29.755  1.00  0.00     0.034 A 
BRANCH  52  66
ATOM     66  C   UNL A   1      38.678  30.566  30.893  1.00  0.00     0.023 A 
ATOM     67  C   UNL A   1      38.500  30.286  32.263  1.00  0.00     0.012 A 
ATOM     68  C   UNL A   1      37.692  31.299  30.203  1.00  0.00     0.148 A 
ATOM     69  C   UNL A   1      37.350  30.703  32.932  1.00  0.00     0.002 A 
ATOM     70  C   UNL A   1      36.564  31.743  30.885  1.00  0.00     0.091 A 
ATOM     71  F   UNL A   1      37.868  31.537  28.896  1.00  0.00    -0.205 F 
ATOM     72  C   UNL A   1      36.388  31.439  32.246  1.00  0.00     0.022 A 
BRANCH  70  73
ATOM     73  S   UNL A   1      35.300  32.757  30.108  1.00  0.00     0.127 S 
ATOM     74  O   UNL A   1      34.497  33.163  31.260  1.00  0.00    -0.237 OA
ATOM     75  O   UNL A   1      36.091  33.832  29.507  1.00  0.00    -0.237 OA
ATOM     76  O   UNL A   1      34.629  31.892  29.148  1.00  0.00    -0.744 OA
ENDBRANCH  70  73
ENDBRANCH  52  66
BRANCH  53  77
ATOM     77  C   UNL A   1      46.893  27.347  26.202  1.00  0.00     0.023 A 
ATOM     78  C   UNL A   1      47.786  26.497  26.883  1.00  0.00     0.012 A 
ATOM     79  C   UNL A   1      47.175  27.714  24.873  1.00  0.00     0.148 A 
ATOM     80  C   UNL A   1      48.953  26.047  26.266  1.00  0.00     0.002 A 
ATOM     81  C   UNL A   1      48.316  27.222  24.246  1.00  0.00     0.091 A 
ATOM     82  F   UNL A   1      46.327  28.540  24.245  1.00  0.00    -0.205 F 
ATOM     83  C   UNL A   1      49.214  26.401  24.945  1.00  0.00     0.022 A 
BRANCH  81  84
ATOM     84  S   UNL A   1      48.652  27.532  22.508  1.00  0.00     0.127 S 
ATOM     85  O   UNL A   1      47.657  28.551  22.187  1.00  0.00    -0.237 OA
ATOM     86  O   UNL A   1      50.036  28.011  22.539  1.00  0.00    -0.237 OA
ATOM     87  O   UNL A   1      48.486  26.241  21.853  1.00  0.00    -0.744 OA
ENDBRANCH  81  84
ENDBRANCH  53  77
BRANCH  65  88
ATOM     88  C   UNL A   1      45.471  32.870  30.222  1.00  0.00     0.023 A 
ATOM     89  C   UNL A   1      46.208  32.762  31.418  1.00  0.00     0.012 A 
ATOM     90  C   UNL A   1      45.586  34.035  29.439  1.00  0.00     0.148 A 
ATOM     91  C   UNL A   1      47.029  33.806  31.840  1.00  0.00     0.002 A 
ATOM     92  C   UNL A   1      46.438  35.055  29.846  1.00  0.00     0.091 A 
ATOM     93  F   UNL A   1      44.858  34.127  28.317  1.00  0.00    -0.205 F 
ATOM     94  C   UNL A   1      47.154  34.946  31.049  1.00  0.00     0.022 A 
BRANCH  92  95
ATOM     95  S   UNL A   1      46.723  36.518  28.842  1.00  0.00     0.127 S 
ATOM     96  O   UNL A   1      45.755  37.460  29.403  1.00  0.00    -0.237 OA
ATOM     97  O   UNL A   1      48.121  36.835  29.137  1.00  0.00    -0.237 OA
ATOM     98  O   UNL A   1      46.479  36.108  27.466  1.00  0.00    -0.744 OA
ENDBRANCH  92  95
ENDBRANCH  65  88
ENDBRANCH  39  40
ENDBRANCH  31  34
ENDBRANCH  29  30
ENDBRANCH  28  29
ENDBRANCH  27  28
ENDBRANCH  26  27
ENDBRANCH   1  26
TORSDOF 22
ENDMDL
MODEL 3
REMARK VINA RESULT:     -10.8      2.156      2.535
REMARK SMILES CCCCOC(=O)c1ccc(N2C[C@H](C(=O)NCCCCCCNC(=O)c3ccc(-c4c5nc(c(-c6cccc(S(=O)(=O)[O-])c6F)c6ccc([nH]6)c(-c6cccc(S(=O)(=O)[O-])c6F)c6nc(c(-c7cccc(S(=O)(=O)[O-])c7F)c7ccc4[nH]7)C=C6)C=C5)cc3)CC2=O)cc1
REMARK SMILES IDX 19 1 18 2 17 3 15 4 16 5 14 7 12 8 13 9 91 10 90 11 92 12
REMARK SMILES IDX 11 13 8 14 9 15 94 16 10 17 93 18 6 19 7 20 5 21 4 22 3 23
REMARK SMILES IDX 2 24 1 25 20 26 21 27 22 28 23 29 24 30 25 31 26 33 27 34
REMARK SMILES IDX 28 35 89 36 29 37 88 38 30 39 31 40 32 41 82 42 33 43 87 44
REMARK SMILES IDX 81 45 83 46 34 47 86 48 80 49 79 50 35 52 67 53 47 54 66 55
REMARK SMILES IDX 48 56 51 57 65 58 84 59 49 60 50 61 64 63 85 64 52 65 36 66
REMARK SMILES IDX 37 67 45 68 38 69 40 70 46 71 39 72 41 73 42 74 43 75 44 76
REMARK SMILES IDX 68 77 69 78 77 79 70 80 72 81 78 82 71 83 73 84 74 85 75 86
REMARK SMILES IDX 76 87 53 88 54 89 62 90 55 91 57 92 63 93 56 94 58 95 59 96
REMARK SMILES IDX 60 97 61 98
REMARK H PARENT 17 6 24 32 83 51 51 62
REMARK Flexibility Score: inf
ROOT
ATOM      1  C   UNL A   1      33.949  26.029  24.799  1.00  0.00     0.021 C 
ENDROOT
BRANCH   1   2
ATOM      2  C   UNL A   1      33.027  27.175  25.212  1.00  0.00     0.116 C 
BRANCH   2   3
ATOM      3  N   UNL A   1      32.553  27.939  24.071  1.00  0.00    -0.356 N 
ATOM      4  C   UNL A   1      31.398  27.898  23.361  1.00  0.00     0.225 C 
ATOM      5  O   UNL A   1      31.277  28.711  22.438  1.00  0.00    -0.275 OA
ATOM      6  H   UNL A   1      33.193  28.616  23.751  1.00  0.00     0.163 HD
BRANCH   4   7
ATOM      7  C   UNL A   1      30.285  26.891  23.610  1.00  0.00     0.107 C 
ATOM      8  N   UNL A   1      30.686  24.665  24.305  1.00  0.00    -0.312 N 
ATOM      9  C   UNL A   1      30.642  25.502  23.129  1.00  0.00     0.139 C 
ATOM     10  C   UNL A   1      30.143  25.318  25.420  1.00  0.00     0.227 C 
ATOM     11  C   UNL A   1      29.833  26.747  25.048  1.00  0.00     0.116 C 
ATOM     12  O   UNL A   1      29.970  24.898  26.553  1.00  0.00    -0.274 OA
BRANCH   8  13
ATOM     13  C   UNL A   1      31.273  23.367  24.304  1.00  0.00     0.044 A 
ATOM     14  C   UNL A   1      32.647  20.909  24.373  1.00  0.00     0.060 A 
ATOM     15  C   UNL A   1      32.715  21.703  23.232  1.00  0.00     0.018 A 
ATOM     16  C   UNL A   1      31.878  21.302  25.463  1.00  0.00     0.018 A 
ATOM     17  C   UNL A   1      32.013  22.914  23.194  1.00  0.00     0.027 A 
ATOM     18  C   UNL A   1      31.196  22.524  25.422  1.00  0.00     0.027 A 
BRANCH  14  19
ATOM     19  C   UNL A   1      33.478  19.708  24.478  1.00  0.00     0.338 C 
ATOM     20  O   UNL A   1      34.670  19.752  24.718  1.00  0.00    -0.246 OA
BRANCH  19  21
ATOM     21  O   UNL A   1      32.697  18.626  24.262  1.00  0.00    -0.462 OA
BRANCH  21  22
ATOM     22  C   UNL A   1      33.137  17.736  23.222  1.00  0.00     0.233 C 
BRANCH  22  23
ATOM     23  C   UNL A   1      33.761  16.472  23.813  1.00  0.00     0.041 C 
BRANCH  23  24
ATOM     24  C   UNL A   1      33.409  16.203  25.279  1.00  0.00     0.000 C 
ATOM     25  C   UNL A   1      32.680  14.884  25.491  1.00  0.00     0.004 C 
ENDBRANCH  23  24
ENDBRANCH  22  23
ENDBRANCH  21  22
ENDBRANCH  19  21
ENDBRANCH  14  19
ENDBRANCH   8  13
ENDBRANCH   4   7
ENDBRANCH   2   3
ENDBRANCH   1   2
BRANCH   1  26
ATOM     26  C   UNL A   1      33.884  24.795  25.708  1.00  0.00     0.002 C 
BRANCH  26  27
ATOM     27  C   UNL A   1      35.214  24.357  26.332  1.00  0.00     0.002 C 
BRANCH  27  28
ATOM     28  C   UNL A   1      35.888  23.143  25.686  1.00  0.00     0.021 C 
BRANCH  28  29
ATOM     29  C   UNL A   1      37.320  23.367  25.206  1.00  0.00     0.116 C 
BRANCH  29  30
ATOM     30  N   UNL A   1      38.230  22.340  25.689  1.00  0.00    -0.352 N 
ATOM     31  C   UNL A   1      39.432  22.473  26.340  1.00  0.00     0.251 C 
ATOM     32  H   UNL A   1      37.942  21.413  25.525  1.00  0.00     0.163 HD
ATOM     33  O   UNL A   1      40.139  21.484  26.517  1.00  0.00    -0.269 OA
BRANCH  31  34
ATOM     34  C   UNL A   1      39.885  23.801  26.814  1.00  0.00     0.039 A 
ATOM     35  C   UNL A   1      40.188  24.785  25.867  1.00  0.00     0.014 A 
ATOM     36  C   UNL A   1      40.043  24.068  28.176  1.00  0.00     0.014 A 
ATOM     37  C   UNL A   1      40.598  26.054  26.289  1.00  0.00     0.010 A 
ATOM     38  C   UNL A   1      40.396  25.349  28.596  1.00  0.00     0.010 A 
ATOM     39  C   UNL A   1      40.683  26.353  27.658  1.00  0.00    -0.014 A 
BRANCH  39  40
ATOM     40  C   UNL A   1      41.077  27.704  28.132  1.00  0.00     0.031 A 
ATOM     41  C   UNL A   1      42.530  28.094  28.179  1.00  0.00     0.074 A 
ATOM     42  C   UNL A   1      40.136  28.548  28.599  1.00  0.00     0.049 A 
ATOM     43  N   UNL A   1      43.076  29.193  28.631  1.00  0.00    -0.248 NA
ATOM     44  C   UNL A   1      43.499  27.110  27.668  1.00  0.00     0.031 C 
ATOM     45  C   UNL A   1      38.701  28.263  28.666  1.00  0.00     0.029 A 
ATOM     46  N   UNL A   1      40.248  29.808  29.133  1.00  0.00    -0.354 N 
ATOM     47  C   UNL A   1      44.448  29.022  28.493  1.00  0.00     0.074 A 
ATOM     48  C   UNL A   1      44.655  27.702  27.937  1.00  0.00     0.031 C 
ATOM     49  C   UNL A   1      38.068  29.316  29.210  1.00  0.00     0.029 A 
ATOM     50  C   UNL A   1      39.050  30.340  29.551  1.00  0.00     0.049 A 
ATOM     51  H   UNL A   1      41.105  30.286  29.209  1.00  0.00     0.167 HD
ATOM     52  C   UNL A   1      45.445  29.894  28.771  1.00  0.00     0.034 A 
ATOM     53  C   UNL A   1      38.776  31.518  30.144  1.00  0.00     0.034 A 
ATOM     54  C   UNL A   1      45.236  31.224  29.275  1.00  0.00     0.049 A 
ATOM     55  C   UNL A   1      39.901  32.486  30.403  1.00  0.00     0.074 A 
ATOM     56  C   UNL A   1      46.177  32.206  29.531  1.00  0.00     0.029 A 
ATOM     57  N   UNL A   1      43.999  31.762  29.592  1.00  0.00    -0.354 N 
ATOM     58  N   UNL A   1      41.177  32.359  30.133  1.00  0.00    -0.248 NA
ATOM     59  C   UNL A   1      39.542  33.774  31.015  1.00  0.00     0.031 C 
ATOM     60  C   UNL A   1      45.506  33.341  30.001  1.00  0.00     0.029 A 
ATOM     61  C   UNL A   1      44.149  33.066  30.034  1.00  0.00     0.049 A 
ATOM     62  H   UNL A   1      43.140  31.288  29.516  1.00  0.00     0.167 HD
ATOM     63  C   UNL A   1      41.767  33.562  30.503  1.00  0.00     0.074 A 
ATOM     64  C   UNL A   1      40.705  34.412  31.001  1.00  0.00     0.031 C 
ATOM     65  C   UNL A   1      43.072  33.923  30.455  1.00  0.00     0.034 A 
BRANCH  52  66
ATOM     66  C   UNL A   1      46.855  29.465  28.463  1.00  0.00     0.023 A 
ATOM     67  C   UNL A   1      47.424  29.827  27.224  1.00  0.00     0.012 A 
ATOM     68  C   UNL A   1      47.635  28.766  29.404  1.00  0.00     0.148 A 
ATOM     69  C   UNL A   1      48.737  29.477  26.915  1.00  0.00     0.002 A 
ATOM     70  C   UNL A   1      48.957  28.451  29.103  1.00  0.00     0.091 A 
ATOM     71  F   UNL A   1      47.071  28.412  30.567  1.00  0.00    -0.205 F 
ATOM     72  C   UNL A   1      49.505  28.798  27.857  1.00  0.00     0.022 A 
BRANCH  70  73
ATOM     73  S   UNL A   1      50.050  27.639  30.275  1.00  0.00     0.127 S 
ATOM     74  O   UNL A   1      51.307  27.602  29.530  1.00  0.00    -0.237 OA
ATOM     75  O   UNL A   1      50.038  28.569  31.405  1.00  0.00    -0.237 OA
ATOM     76  O   UNL A   1      49.446  26.344  30.553  1.00  0.00    -0.744 OA
ENDBRANCH  70  73
ENDBRANCH  52  66
BRANCH  53  77
ATOM     77  C   UNL A   1      37.367  31.891  30.451  1.00  0.00     0.023 A 
ATOM     78  C   UNL A   1      36.869  31.670  31.750  1.00  0.00     0.012 A 
ATOM     79  C   UNL A   1      36.527  32.478  29.486  1.00  0.00     0.148 A 
ATOM     80  C   UNL A   1      35.553  31.997  32.075  1.00  0.00     0.002 A 
ATOM     81  C   UNL A   1      35.230  32.848  29.830  1.00  0.00     0.091 A 
ATOM     82  F   UNL A   1      37.007  32.663  28.249  1.00  0.00    -0.205 F 
ATOM     83  C   UNL A   1      34.736  32.594  31.119  1.00  0.00     0.022 A 
BRANCH  81  84
ATOM     84  S   UNL A   1      34.163  33.736  28.690  1.00  0.00     0.127 S 
ATOM     85  O   UNL A   1      33.765  32.679  27.765  1.00  0.00    -0.237 OA
ATOM     86  O   UNL A   1      33.096  34.217  29.572  1.00  0.00    -0.237 OA
ATOM     87  O   UNL A   1      34.996  34.796  28.137  1.00  0.00    -0.744 OA
ENDBRANCH  81  84
ENDBRANCH  53  77
BRANCH  65  88
ATOM     88  C   UNL A   1      43.431  35.311  30.915  1.00  0.00     0.023 A 
ATOM     89  C   UNL A   1      43.818  35.520  32.254  1.00  0.00     0.012 A 
ATOM     90  C   UNL A   1      43.466  36.387  30.006  1.00  0.00     0.148 A 
ATOM     91  C   UNL A   1      44.211  36.785  32.687  1.00  0.00     0.002 A 
ATOM     92  C   UNL A   1      43.899  37.636  30.437  1.00  0.00     0.091 A 
ATOM     93  F   UNL A   1      43.073  36.171  28.743  1.00  0.00    -0.205 F 
ATOM     94  C   UNL A   1      44.264  37.839  31.777  1.00  0.00     0.022 A 
BRANCH  92  95
ATOM     95  S   UNL A   1      44.080  39.024  29.310  1.00  0.00     0.127 S 
ATOM     96  O   UNL A   1      42.773  39.049  28.654  1.00  0.00    -0.237 OA
ATOM     97  O   UNL A   1      44.325  40.142  30.222  1.00  0.00    -0.237 OA
ATOM     98  O   UNL A   1      45.209  38.692  28.451  1.00  0.00    -0.744 OA
ENDBRANCH  92  95
ENDBRANCH  65  88
ENDBRANCH  39  40
ENDBRANCH  31  34
ENDBRANCH  29  30
ENDBRANCH  28  29
ENDBRANCH  27  28
ENDBRANCH  26  27
ENDBRANCH   1  26
TORSDOF 22
ENDMDL
