MODEL 1
REMARK VINA RESULT:      -8.4      0.000      0.000
REMARK SMILES CCOc1cc2c(cc1/C=C1/C(=O)N(c3cccc(C(=O)NCCCCCCNC(=O)c4ccc(-c5c6nc(c(-c7cccc(S(=O)(=O)[O-])c7F)c7ccc([nH]7)c(-c7cccc(S(=O)(=O)[O-])c7F)c7nc(c(-c8cccc(S(=O)(=O)[O-])c8F)c8ccc5[nH]8)C=C7)C=C6)cc4)c3)C(=S)N=C1O)OCO2
REMARK SMILES IDX 25 1 24 2 23 3 22 4 20 5 21 6 19 8 15 9 16 10 95 11 17 12
REMARK SMILES IDX 18 13 14 14 10 15 11 16 12 17 99 18 13 19 98 20 96 21 97 22
REMARK SMILES IDX 9 23 4 24 5 25 6 26 8 27 7 28 103 29 101 30 102 31 3 32 2 33
REMARK SMILES IDX 1 34 100 35 26 37 27 38 28 39 29 40 30 41 31 43 32 44 33 45
REMARK SMILES IDX 94 46 34 47 93 48 35 49 36 50 37 51 87 52 38 53 92 54 86 55
REMARK SMILES IDX 88 56 39 57 91 58 85 59 84 60 40 62 72 63 52 64 71 65 53 66
REMARK SMILES IDX 56 67 70 68 89 69 54 70 55 71 69 73 90 74 57 75 41 76 42 77
REMARK SMILES IDX 50 78 43 79 45 80 51 81 44 82 46 83 47 84 48 85 49 86 73 87
REMARK SMILES IDX 74 88 82 89 75 90 77 91 83 92 76 93 78 94 79 95 80 96 81 97
REMARK SMILES IDX 58 98 59 99 67 100 60 101 62 102 68 103 61 104 63 105 64 106
REMARK SMILES IDX 65 107 66 108
REMARK H PARENT 22 7 100 36 29 42 88 61 56 72
REMARK Flexibility Score: inf
ROOT
ATOM      1  C   UNL A   1      43.866  24.748  28.796  1.00  0.00     0.002 C 
ENDROOT
BRANCH   1   2
ATOM      2  C   UNL A   1      42.428  24.237  28.764  1.00  0.00     0.021 C 
BRANCH   2   3
ATOM      3  C   UNL A   1      41.857  23.898  27.394  1.00  0.00     0.116 C 
BRANCH   3   4
ATOM      4  N   UNL A   1      40.404  23.926  27.317  1.00  0.00    -0.352 N 
ATOM      5  C   UNL A   1      39.506  24.973  27.326  1.00  0.00     0.251 C 
ATOM      6  O   UNL A   1      38.305  24.711  27.258  1.00  0.00    -0.269 OA
ATOM      7  H   UNL A   1      39.987  23.037  27.244  1.00  0.00     0.163 HD
BRANCH   5   8
ATOM      8  C   UNL A   1      39.925  26.398  27.487  1.00  0.00     0.041 A 
ATOM      9  C   UNL A   1      39.715  28.550  28.613  1.00  0.00     0.052 A 
ATOM     10  C   UNL A   1      40.447  29.144  27.581  1.00  0.00     0.027 A 
ATOM     11  C   UNL A   1      39.618  27.151  28.619  1.00  0.00     0.040 A 
ATOM     12  C   UNL A   1      40.903  28.381  26.502  1.00  0.00     0.003 A 
ATOM     13  C   UNL A   1      40.597  27.022  26.431  1.00  0.00     0.014 A 
BRANCH   9  14
ATOM     14  N   UNL A   1      38.882  29.294  29.546  1.00  0.00    -0.251 N 
ATOM     15  C   UNL A   1      39.091  30.797  32.886  1.00  0.00     0.031 C 
ATOM     16  C   UNL A   1      38.557  30.168  31.816  1.00  0.00     0.103 C 
ATOM     17  C   UNL A   1      39.484  29.648  30.772  1.00  0.00     0.270 C 
ATOM     18  C   UNL A   1      37.151  29.949  31.523  1.00  0.00     0.226 C 
ATOM     19  O   UNL A   1      40.692  29.561  31.003  1.00  0.00    -0.268 OA
ATOM     20  N   UNL A   1      36.653  29.655  30.388  1.00  0.00    -0.184 NA
ATOM     21  C   UNL A   1      37.481  29.436  29.314  1.00  0.00     0.210 C 
ATOM     22  S   UNL A   1      36.653  29.202  27.844  1.00  0.00    -0.038 S 
BRANCH  15  23
ATOM     23  C   UNL A   1      38.407  31.486  34.006  1.00  0.00     0.021 A 
ATOM     24  C   UNL A   1      37.758  32.735  33.803  1.00  0.00     0.130 A 
ATOM     25  C   UNL A   1      37.128  33.384  34.872  1.00  0.00     0.097 A 
ATOM     26  C   UNL A   1      37.211  32.818  36.125  1.00  0.00     0.169 A 
ATOM     27  C   UNL A   1      38.340  30.884  35.275  1.00  0.00     0.062 A 
ATOM     28  C   UNL A   1      37.794  31.596  36.318  1.00  0.00     0.166 A 
ATOM     29  O   UNL A   1      36.727  33.346  37.280  1.00  0.00    -0.453 OA
ATOM     30  O   UNL A   1      37.761  31.196  37.618  1.00  0.00    -0.454 OA
ATOM     31  C   UNL A   1      37.185  32.371  38.234  1.00  0.00     0.468 C 
BRANCH  24  32
ATOM     32  O   UNL A   1      37.660  33.204  32.515  1.00  0.00    -0.493 OA
BRANCH  32  33
ATOM     33  C   UNL A   1      36.351  33.581  32.075  1.00  0.00     0.226 C 
ATOM     34  C   UNL A   1      36.147  33.468  30.576  1.00  0.00     0.049 C 
ENDBRANCH  32  33
ENDBRANCH  24  32
ENDBRANCH  15  23
BRANCH  18  35
ATOM     35  O   UNL A   1      36.296  29.979  32.543  1.00  0.00    -0.493 OA
ATOM     36  H   UNL A   1      36.022  29.180  32.950  1.00  0.00     0.295 HD
ENDBRANCH  18  35
ENDBRANCH   9  14
ENDBRANCH   5   8
ENDBRANCH   3   4
ENDBRANCH   2   3
ENDBRANCH   1   2
BRANCH   1  37
ATOM     37  C   UNL A   1      44.965  23.684  28.742  1.00  0.00     0.002 C 
BRANCH  37  38
ATOM     38  C   UNL A   1      45.580  23.412  27.368  1.00  0.00     0.021 C 
BRANCH  38  39
ATOM     39  C   UNL A   1      46.926  24.077  27.105  1.00  0.00     0.116 C 
BRANCH  39  40
ATOM     40  N   UNL A   1      46.988  24.725  25.806  1.00  0.00    -0.352 N 
ATOM     41  C   UNL A   1      46.542  25.971  25.432  1.00  0.00     0.251 C 
ATOM     42  H   UNL A   1      47.409  24.197  25.091  1.00  0.00     0.163 HD
ATOM     43  O   UNL A   1      46.535  26.292  24.249  1.00  0.00    -0.269 OA
BRANCH  41  44
ATOM     44  C   UNL A   1      46.050  26.917  26.461  1.00  0.00     0.039 A 
ATOM     45  C   UNL A   1      44.684  27.207  26.515  1.00  0.00     0.014 A 
ATOM     46  C   UNL A   1      46.930  27.518  27.363  1.00  0.00     0.014 A 
ATOM     47  C   UNL A   1      44.194  28.058  27.512  1.00  0.00     0.010 A 
ATOM     48  C   UNL A   1      46.430  28.299  28.402  1.00  0.00     0.010 A 
ATOM     49  C   UNL A   1      45.058  28.588  28.483  1.00  0.00    -0.014 A 
BRANCH  49  50
ATOM     50  C   UNL A   1      44.563  29.473  29.572  1.00  0.00     0.031 A 
ATOM     51  C   UNL A   1      44.189  28.877  30.905  1.00  0.00     0.074 A 
ATOM     52  C   UNL A   1      44.387  30.791  29.348  1.00  0.00     0.049 A 
ATOM     53  N   UNL A   1      43.649  29.456  31.946  1.00  0.00    -0.248 NA
ATOM     54  C   UNL A   1      44.437  27.436  31.087  1.00  0.00     0.031 C 
ATOM     55  C   UNL A   1      44.696  31.495  28.100  1.00  0.00     0.029 A 
ATOM     56  N   UNL A   1      43.887  31.777  30.163  1.00  0.00    -0.354 N 
ATOM     57  C   UNL A   1      43.469  28.451  32.890  1.00  0.00     0.074 A 
ATOM     58  C   UNL A   1      43.914  27.216  32.284  1.00  0.00     0.031 C 
ATOM     59  C   UNL A   1      44.390  32.795  28.239  1.00  0.00     0.029 A 
ATOM     60  C   UNL A   1      43.810  33.010  29.558  1.00  0.00     0.049 A 
ATOM     61  H   UNL A   1      43.608  31.616  31.094  1.00  0.00     0.167 HD
ATOM     62  C   UNL A   1      43.006  28.551  34.160  1.00  0.00     0.034 A 
ATOM     63  C   UNL A   1      43.314  34.180  30.007  1.00  0.00     0.034 A 
ATOM     64  C   UNL A   1      42.600  29.787  34.772  1.00  0.00     0.049 A 
ATOM     65  C   UNL A   1      42.768  34.252  31.404  1.00  0.00     0.074 A 
ATOM     66  C   UNL A   1      42.180  30.004  36.073  1.00  0.00     0.029 A 
ATOM     67  N   UNL A   1      42.558  31.012  34.127  1.00  0.00    -0.354 N 
ATOM     68  N   UNL A   1      42.695  33.309  32.310  1.00  0.00    -0.248 NA
ATOM     69  C   UNL A   1      42.277  35.562  31.851  1.00  0.00     0.031 C 
ATOM     70  C   UNL A   1      41.853  31.357  36.204  1.00  0.00     0.029 A 
ATOM     71  C   UNL A   1      42.109  31.990  34.999  1.00  0.00     0.049 A 
ATOM     72  H   UNL A   1      42.810  31.165  33.188  1.00  0.00     0.167 HD
ATOM     73  C   UNL A   1      42.203  33.924  33.453  1.00  0.00     0.074 A 
ATOM     74  C   UNL A   1      41.996  35.320  33.124  1.00  0.00     0.031 C 
ATOM     75  C   UNL A   1      41.951  33.382  34.669  1.00  0.00     0.034 A 
BRANCH  62  76
ATOM     76  C   UNL A   1      42.955  27.293  34.991  1.00  0.00     0.023 A 
ATOM     77  C   UNL A   1      41.793  26.494  34.980  1.00  0.00     0.012 A 
ATOM     78  C   UNL A   1      44.076  26.867  35.730  1.00  0.00     0.148 A 
ATOM     79  C   UNL A   1      41.735  25.313  35.719  1.00  0.00     0.002 A 
ATOM     80  C   UNL A   1      44.028  25.664  36.424  1.00  0.00     0.091 A 
ATOM     81  F   UNL A   1      45.166  27.649  35.744  1.00  0.00    -0.205 F 
ATOM     82  C   UNL A   1      42.855  24.893  36.431  1.00  0.00     0.022 A 
BRANCH  80  83
ATOM     83  S   UNL A   1      45.443  24.995  37.306  1.00  0.00     0.127 S 
ATOM     84  O   UNL A   1      46.260  24.485  36.206  1.00  0.00    -0.237 OA
ATOM     85  O   UNL A   1      45.982  26.182  37.967  1.00  0.00    -0.237 OA
ATOM     86  O   UNL A   1      44.913  23.981  38.208  1.00  0.00    -0.744 OA
ENDBRANCH  80  83
ENDBRANCH  62  76
BRANCH  63  87
ATOM     87  C   UNL A   1      43.343  35.400  29.154  1.00  0.00     0.023 A 
ATOM     88  C   UNL A   1      42.247  35.697  28.324  1.00  0.00     0.012 A 
ATOM     89  C   UNL A   1      44.464  36.248  29.141  1.00  0.00     0.148 A 
ATOM     90  C   UNL A   1      42.278  36.808  27.481  1.00  0.00     0.002 A 
ATOM     91  C   UNL A   1      44.468  37.382  28.338  1.00  0.00     0.091 A 
ATOM     92  F   UNL A   1      45.502  35.925  29.921  1.00  0.00    -0.205 F 
ATOM     93  C   UNL A   1      43.385  37.654  27.492  1.00  0.00     0.022 A 
BRANCH  91  94
ATOM     94  S   UNL A   1      45.814  38.571  28.350  1.00  0.00     0.127 S 
ATOM     95  O   UNL A   1      45.829  39.008  29.745  1.00  0.00    -0.237 OA
ATOM     96  O   UNL A   1      46.943  37.731  27.956  1.00  0.00    -0.237 OA
ATOM     97  O   UNL A   1      45.434  39.599  27.392  1.00  0.00    -0.744 OA
ENDBRANCH  91  94
ENDBRANCH  63  87
BRANCH  75  98
ATOM     98  C   UNL A   1      41.485  34.308  35.759  1.00  0.00     0.023 A 
ATOM     99  C   UNL A   1      40.116  34.601  35.905  1.00  0.00     0.012 A 
ATOM    100  C   UNL A   1      42.411  34.834  36.683  1.00  0.00     0.148 A 
ATOM    101  C   UNL A   1      39.678  35.433  36.936  1.00  0.00     0.002 A 
ATOM    102  C   UNL A   1      41.961  35.616  37.739  1.00  0.00     0.091 A 
ATOM    103  F   UNL A   1      43.711  34.557  36.512  1.00  0.00    -0.205 F 
ATOM    104  C   UNL A   1      40.598  35.928  37.858  1.00  0.00     0.022 A 
BRANCH 102 105
ATOM    105  S   UNL A   1      43.057  36.212  39.029  1.00  0.00     0.127 S 
ATOM    106  O   UNL A   1      42.112  36.815  39.968  1.00  0.00    -0.237 OA
ATOM    107  O   UNL A   1      43.681  34.975  39.499  1.00  0.00    -0.237 OA
ATOM    108  O   UNL A   1      43.972  37.144  38.383  1.00  0.00    -0.744 OA
ENDBRANCH 102 105
ENDBRANCH  75  98
ENDBRANCH  49  50
ENDBRANCH  41  44
ENDBRANCH  39  40
ENDBRANCH  38  39
ENDBRANCH  37  38
ENDBRANCH   1  37
TORSDOF 21
ENDMDL
MODEL 2
REMARK VINA RESULT:      -8.0      2.879     11.957
REMARK SMILES CCOc1cc2c(cc1/C=C1/C(=O)N(c3cccc(C(=O)NCCCCCCNC(=O)c4ccc(-c5c6nc(c(-c7cccc(S(=O)(=O)[O-])c7F)c7ccc([nH]7)c(-c7cccc(S(=O)(=O)[O-])c7F)c7nc(c(-c8cccc(S(=O)(=O)[O-])c8F)c8ccc5[nH]8)C=C7)C=C6)cc4)c3)C(=S)N=C1O)OCO2
REMARK SMILES IDX 25 1 24 2 23 3 22 4 20 5 21 6 19 8 15 9 16 10 95 11 17 12
REMARK SMILES IDX 18 13 14 14 10 15 11 16 12 17 99 18 13 19 98 20 96 21 97 22
REMARK SMILES IDX 9 23 4 24 5 25 6 26 8 27 7 28 103 29 101 30 102 31 3 32 2 33
REMARK SMILES IDX 1 34 100 35 26 37 27 38 28 39 29 40 30 41 31 43 32 44 33 45
REMARK SMILES IDX 94 46 34 47 93 48 35 49 36 50 37 51 87 52 38 53 92 54 86 55
REMARK SMILES IDX 88 56 39 57 91 58 85 59 84 60 40 62 72 63 52 64 71 65 53 66
REMARK SMILES IDX 56 67 70 68 89 69 54 70 55 71 69 73 90 74 57 75 41 76 42 77
REMARK SMILES IDX 50 78 43 79 45 80 51 81 44 82 46 83 47 84 48 85 49 86 73 87
REMARK SMILES IDX 74 88 82 89 75 90 77 91 83 92 76 93 78 94 79 95 80 96 81 97
REMARK SMILES IDX 58 98 59 99 67 100 60 101 62 102 68 103 61 104 63 105 64 106
REMARK SMILES IDX 65 107 66 108
REMARK H PARENT 22 7 100 36 29 42 88 61 56 72
REMARK Flexibility Score: inf
ROOT
ATOM      1  C   UNL A   1      36.238  33.213  34.118  1.00  0.00     0.002 C 
ENDROOT
BRANCH   1   2
ATOM      2  C   UNL A   1      37.228  32.285  33.419  1.00  0.00     0.021 C 
BRANCH   2   3
ATOM      3  C   UNL A   1      36.642  31.061  32.729  1.00  0.00     0.116 C 
BRANCH   3   4
ATOM      4  N   UNL A   1      37.181  29.789  33.185  1.00  0.00    -0.352 N 
ATOM      5  C   UNL A   1      37.735  28.729  32.497  1.00  0.00     0.251 C 
ATOM      6  O   UNL A   1      38.108  27.748  33.141  1.00  0.00    -0.269 OA
ATOM      7  H   UNL A   1      37.144  29.662  34.160  1.00  0.00     0.163 HD
BRANCH   5   8
ATOM      8  C   UNL A   1      37.833  28.693  31.007  1.00  0.00     0.041 A 
ATOM      9  C   UNL A   1      38.918  27.889  28.977  1.00  0.00     0.052 A 
ATOM     10  C   UNL A   1      38.251  28.876  28.248  1.00  0.00     0.027 A 
ATOM     11  C   UNL A   1      38.557  27.719  30.322  1.00  0.00     0.040 A 
ATOM     12  C   UNL A   1      37.394  29.777  28.887  1.00  0.00     0.003 A 
ATOM     13  C   UNL A   1      37.228  29.717  30.271  1.00  0.00     0.014 A 
BRANCH   9  14
ATOM     14  N   UNL A   1      40.094  27.181  28.494  1.00  0.00    -0.251 N 
ATOM     15  C   UNL A   1      40.953  24.109  26.682  1.00  0.00     0.031 C 
ATOM     16  C   UNL A   1      41.059  25.123  27.568  1.00  0.00     0.103 C 
ATOM     17  C   UNL A   1      39.855  25.963  27.821  1.00  0.00     0.270 C 
ATOM     18  C   UNL A   1      42.238  25.536  28.311  1.00  0.00     0.226 C 
ATOM     19  O   UNL A   1      38.744  25.587  27.440  1.00  0.00    -0.268 OA
ATOM     20  N   UNL A   1      42.415  26.661  28.880  1.00  0.00    -0.184 NA
ATOM     21  C   UNL A   1      41.402  27.588  28.894  1.00  0.00     0.210 C 
ATOM     22  S   UNL A   1      41.852  29.089  29.563  1.00  0.00    -0.038 S 
BRANCH  15  23
ATOM     23  C   UNL A   1      42.002  23.193  26.175  1.00  0.00     0.021 A 
ATOM     24  C   UNL A   1      43.007  23.659  25.283  1.00  0.00     0.130 A 
ATOM     25  C   UNL A   1      43.984  22.780  24.800  1.00  0.00     0.097 A 
ATOM     26  C   UNL A   1      43.907  21.452  25.156  1.00  0.00     0.169 A 
ATOM     27  C   UNL A   1      42.054  21.859  26.619  1.00  0.00     0.062 A 
ATOM     28  C   UNL A   1      42.972  21.007  26.050  1.00  0.00     0.166 A 
ATOM     29  O   UNL A   1      44.721  20.455  24.722  1.00  0.00    -0.453 OA
ATOM     30  O   UNL A   1      43.068  19.671  26.289  1.00  0.00    -0.454 OA
ATOM     31  C   UNL A   1      44.107  19.314  25.350  1.00  0.00     0.468 C 
BRANCH  24  32
ATOM     32  O   UNL A   1      43.058  25.009  25.026  1.00  0.00    -0.493 OA
BRANCH  32  33
ATOM     33  C   UNL A   1      44.352  25.616  25.083  1.00  0.00     0.226 C 
ATOM     34  C   UNL A   1      44.323  27.104  25.381  1.00  0.00     0.049 C 
ENDBRANCH  32  33
ENDBRANCH  24  32
ENDBRANCH  15  23
BRANCH  18  35
ATOM     35  O   UNL A   1      43.203  24.635  28.488  1.00  0.00    -0.493 OA
ATOM     36  H   UNL A   1      43.452  24.379  29.354  1.00  0.00     0.295 HD
ENDBRANCH  18  35
ENDBRANCH   9  14
ENDBRANCH   5   8
ENDBRANCH   3   4
ENDBRANCH   2   3
ENDBRANCH   1   2
BRANCH   1  37
ATOM     37  C   UNL A   1      36.635  33.698  35.515  1.00  0.00     0.002 C 
BRANCH  37  38
ATOM     38  C   UNL A   1      37.689  32.866  36.248  1.00  0.00     0.021 C 
BRANCH  38  39
ATOM     39  C   UNL A   1      38.545  33.624  37.256  1.00  0.00     0.116 C 
BRANCH  39  40
ATOM     40  N   UNL A   1      38.747  35.015  36.887  1.00  0.00    -0.352 N 
ATOM     41  C   UNL A   1      39.671  35.564  36.029  1.00  0.00     0.251 C 
ATOM     42  H   UNL A   1      38.135  35.657  37.313  1.00  0.00     0.163 HD
ATOM     43  O   UNL A   1      39.798  36.781  35.960  1.00  0.00    -0.269 OA
BRANCH  41  44
ATOM     44  C   UNL A   1      40.526  34.680  35.203  1.00  0.00     0.039 A 
ATOM     45  C   UNL A   1      41.823  34.396  35.636  1.00  0.00     0.014 A 
ATOM     46  C   UNL A   1      40.053  34.138  34.006  1.00  0.00     0.014 A 
ATOM     47  C   UNL A   1      42.627  33.523  34.896  1.00  0.00     0.010 A 
ATOM     48  C   UNL A   1      40.824  33.206  33.315  1.00  0.00     0.010 A 
ATOM     49  C   UNL A   1      42.125  32.896  33.745  1.00  0.00    -0.014 A 
BRANCH  49  50
ATOM     50  C   UNL A   1      42.944  31.941  32.952  1.00  0.00     0.031 A 
ATOM     51  C   UNL A   1      43.470  32.351  31.600  1.00  0.00     0.074 A 
ATOM     52  C   UNL A   1      43.162  30.691  33.410  1.00  0.00     0.049 A 
ATOM     53  N   UNL A   1      44.117  31.639  30.714  1.00  0.00    -0.248 NA
ATOM     54  C   UNL A   1      43.220  33.741  31.179  1.00  0.00     0.031 C 
ATOM     55  C   UNL A   1      42.700  30.159  34.694  1.00  0.00     0.029 A 
ATOM     56  N   UNL A   1      43.818  29.630  32.835  1.00  0.00    -0.354 N 
ATOM     57  C   UNL A   1      44.325  32.480  29.627  1.00  0.00     0.074 A 
ATOM     58  C   UNL A   1      43.697  33.744  29.943  1.00  0.00     0.031 C 
ATOM     59  C   UNL A   1      43.096  28.881  34.812  1.00  0.00     0.029 A 
ATOM     60  C   UNL A   1      43.787  28.483  33.594  1.00  0.00     0.049 A 
ATOM     61  H   UNL A   1      44.268  29.685  31.961  1.00  0.00     0.167 HD
ATOM     62  C   UNL A   1      45.007  32.237  28.482  1.00  0.00     0.034 A 
ATOM     63  C   UNL A   1      44.249  27.244  33.331  1.00  0.00     0.034 A 
ATOM     64  C   UNL A   1      45.663  30.992  28.188  1.00  0.00     0.049 A 
ATOM     65  C   UNL A   1      44.963  26.990  32.036  1.00  0.00     0.074 A 
ATOM     66  C   UNL A   1      46.436  30.667  27.086  1.00  0.00     0.029 A 
ATOM     67  N   UNL A   1      45.621  29.866  28.994  1.00  0.00    -0.354 N 
ATOM     68  N   UNL A   1      45.230  27.827  31.065  1.00  0.00    -0.248 NA
ATOM     69  C   UNL A   1      45.478  25.631  31.823  1.00  0.00     0.031 C 
ATOM     70  C   UNL A   1      46.834  29.333  27.211  1.00  0.00     0.029 A 
ATOM     71  C   UNL A   1      46.345  28.840  28.410  1.00  0.00     0.049 A 
ATOM     72  H   UNL A   1      45.147  29.804  29.854  1.00  0.00     0.167 HD
ATOM     73  C   UNL A   1      45.992  27.112  30.151  1.00  0.00     0.074 A 
ATOM     74  C   UNL A   1      46.143  25.774  30.686  1.00  0.00     0.031 C 
ATOM     75  C   UNL A   1      46.524  27.529  28.976  1.00  0.00     0.034 A 
BRANCH  62  76
ATOM     76  C   UNL A   1      45.118  33.356  27.477  1.00  0.00     0.023 A 
ATOM     77  C   UNL A   1      44.150  33.478  26.457  1.00  0.00     0.012 A 
ATOM     78  C   UNL A   1      46.138  34.323  27.577  1.00  0.00     0.148 A 
ATOM     79  C   UNL A   1      44.217  34.522  25.535  1.00  0.00     0.002 A 
ATOM     80  C   UNL A   1      46.169  35.387  26.684  1.00  0.00     0.091 A 
ATOM     81  F   UNL A   1      47.059  34.180  28.541  1.00  0.00    -0.205 F 
ATOM     82  C   UNL A   1      45.219  35.481  25.655  1.00  0.00     0.022 A 
BRANCH  80  83
ATOM     83  S   UNL A   1      47.369  36.719  26.803  1.00  0.00     0.127 S 
ATOM     84  O   UNL A   1      48.620  36.012  26.533  1.00  0.00    -0.237 OA
ATOM     85  O   UNL A   1      46.934  37.619  25.736  1.00  0.00    -0.237 OA
ATOM     86  O   UNL A   1      47.238  37.260  28.149  1.00  0.00    -0.744 OA
ENDBRANCH  80  83
ENDBRANCH  62  76
BRANCH  63  87
ATOM     87  C   UNL A   1      44.096  26.146  34.326  1.00  0.00     0.023 A 
ATOM     88  C   UNL A   1      42.911  25.389  34.352  1.00  0.00     0.012 A 
ATOM     89  C   UNL A   1      45.107  25.872  35.263  1.00  0.00     0.148 A 
ATOM     90  C   UNL A   1      42.730  24.389  35.310  1.00  0.00     0.002 A 
ATOM     91  C   UNL A   1      44.944  24.841  36.181  1.00  0.00     0.091 A 
ATOM     92  F   UNL A   1      46.211  26.626  35.231  1.00  0.00    -0.205 F 
ATOM     93  C   UNL A   1      43.748  24.111  36.220  1.00  0.00     0.022 A 
BRANCH  91  94
ATOM     94  S   UNL A   1      46.234  24.358  37.334  1.00  0.00     0.127 S 
ATOM     95  O   UNL A   1      45.652  23.179  37.973  1.00  0.00    -0.237 OA
ATOM     96  O   UNL A   1      47.344  24.082  36.424  1.00  0.00    -0.237 OA
ATOM     97  O   UNL A   1      46.417  25.503  38.214  1.00  0.00    -0.744 OA
ENDBRANCH  91  94
ENDBRANCH  63  87
BRANCH  75  98
ATOM     98  C   UNL A   1      47.377  26.551  28.215  1.00  0.00     0.023 A 
ATOM     99  C   UNL A   1      46.779  25.555  27.420  1.00  0.00     0.012 A 
ATOM    100  C   UNL A   1      48.781  26.669  28.240  1.00  0.00     0.148 A 
ATOM    101  C   UNL A   1      47.567  24.668  26.687  1.00  0.00     0.002 A 
ATOM    102  C   UNL A   1      49.558  25.818  27.464  1.00  0.00     0.091 A 
ATOM    103  F   UNL A   1      49.329  27.612  29.020  1.00  0.00    -0.205 F 
ATOM    104  C   UNL A   1      48.953  24.809  26.699  1.00  0.00     0.022 A 
BRANCH 102 105
ATOM    105  S   UNL A   1      51.340  25.989  27.339  1.00  0.00     0.127 S 
ATOM    106  O   UNL A   1      51.694  24.828  26.523  1.00  0.00    -0.237 OA
ATOM    107  O   UNL A   1      51.478  27.278  26.660  1.00  0.00    -0.237 OA
ATOM    108  O   UNL A   1      51.845  25.968  28.705  1.00  0.00    -0.744 OA
ENDBRANCH 102 105
ENDBRANCH  75  98
ENDBRANCH  49  50
ENDBRANCH  41  44
ENDBRANCH  39  40
ENDBRANCH  38  39
ENDBRANCH  37  38
ENDBRANCH   1  37
TORSDOF 21
ENDMDL
MODEL 3
REMARK VINA RESULT:      -7.8      2.758     11.621
REMARK SMILES CCOc1cc2c(cc1/C=C1/C(=O)N(c3cccc(C(=O)NCCCCCCNC(=O)c4ccc(-c5c6nc(c(-c7cccc(S(=O)(=O)[O-])c7F)c7ccc([nH]7)c(-c7cccc(S(=O)(=O)[O-])c7F)c7nc(c(-c8cccc(S(=O)(=O)[O-])c8F)c8ccc5[nH]8)C=C7)C=C6)cc4)c3)C(=S)N=C1O)OCO2
REMARK SMILES IDX 25 1 24 2 23 3 22 4 20 5 21 6 19 8 15 9 16 10 95 11 17 12
REMARK SMILES IDX 18 13 14 14 10 15 11 16 12 17 99 18 13 19 98 20 96 21 97 22
REMARK SMILES IDX 9 23 4 24 5 25 6 26 8 27 7 28 103 29 101 30 102 31 3 32 2 33
REMARK SMILES IDX 1 34 100 35 26 37 27 38 28 39 29 40 30 41 31 43 32 44 33 45
REMARK SMILES IDX 94 46 34 47 93 48 35 49 36 50 37 51 87 52 38 53 92 54 86 55
REMARK SMILES IDX 88 56 39 57 91 58 85 59 84 60 40 62 72 63 52 64 71 65 53 66
REMARK SMILES IDX 56 67 70 68 89 69 54 70 55 71 69 73 90 74 57 75 41 76 42 77
REMARK SMILES IDX 50 78 43 79 45 80 51 81 44 82 46 83 47 84 48 85 49 86 73 87
REMARK SMILES IDX 74 88 82 89 75 90 77 91 83 92 76 93 78 94 79 95 80 96 81 97
REMARK SMILES IDX 58 98 59 99 67 100 60 101 62 102 68 103 61 104 63 105 64 106
REMARK SMILES IDX 65 107 66 108
REMARK H PARENT 22 7 100 36 29 42 88 61 56 72
REMARK Flexibility Score: inf
ROOT
ATOM      1  C   UNL A   1      41.151  35.164  35.475  1.00  0.00     0.002 C 
ENDROOT
BRANCH   1   2
ATOM      2  C   UNL A   1      40.031  35.454  34.481  1.00  0.00     0.021 C 
BRANCH   2   3
ATOM      3  C   UNL A   1      39.256  34.252  33.958  1.00  0.00     0.116 C 
BRANCH   3   4
ATOM      4  N   UNL A   1      38.658  33.418  34.988  1.00  0.00    -0.352 N 
ATOM      5  C   UNL A   1      37.865  32.291  34.909  1.00  0.00     0.251 C 
ATOM      6  O   UNL A   1      37.477  31.778  35.958  1.00  0.00    -0.269 OA
ATOM      7  H   UNL A   1      38.854  33.709  35.907  1.00  0.00     0.163 HD
BRANCH   5   8
ATOM      8  C   UNL A   1      37.402  31.717  33.610  1.00  0.00     0.041 A 
ATOM      9  C   UNL A   1      37.882  30.563  31.516  1.00  0.00     0.052 A 
ATOM     10  C   UNL A   1      36.626  30.941  31.037  1.00  0.00     0.027 A 
ATOM     11  C   UNL A   1      38.169  30.823  32.865  1.00  0.00     0.040 A 
ATOM     12  C   UNL A   1      35.766  31.713  31.825  1.00  0.00     0.003 A 
ATOM     13  C   UNL A   1      36.177  32.143  33.088  1.00  0.00     0.014 A 
BRANCH   9  14
ATOM     14  N   UNL A   1      38.973  30.116  30.663  1.00  0.00    -0.251 N 
ATOM     15  C   UNL A   1      40.258  27.024  29.166  1.00  0.00     0.031 C 
ATOM     16  C   UNL A   1      40.266  28.250  29.732  1.00  0.00     0.103 C 
ATOM     17  C   UNL A   1      39.014  28.735  30.376  1.00  0.00     0.270 C 
ATOM     18  C   UNL A   1      41.362  29.203  29.772  1.00  0.00     0.226 C 
ATOM     19  O   UNL A   1      38.094  27.950  30.615  1.00  0.00    -0.268 OA
ATOM     20  N   UNL A   1      41.269  30.451  30.011  1.00  0.00    -0.184 NA
ATOM     21  C   UNL A   1      40.052  30.994  30.345  1.00  0.00     0.210 C 
ATOM     22  S   UNL A   1      40.073  32.692  30.487  1.00  0.00    -0.038 S 
BRANCH  15  23
ATOM     23  C   UNL A   1      41.317  26.344  28.383  1.00  0.00     0.021 A 
ATOM     24  C   UNL A   1      41.535  26.671  27.016  1.00  0.00     0.130 A 
ATOM     25  C   UNL A   1      42.529  26.012  26.283  1.00  0.00     0.097 A 
ATOM     26  C   UNL A   1      43.238  25.004  26.897  1.00  0.00     0.169 A 
ATOM     27  C   UNL A   1      42.164  25.406  29.000  1.00  0.00     0.062 A 
ATOM     28  C   UNL A   1      43.065  24.716  28.223  1.00  0.00     0.166 A 
ATOM     29  O   UNL A   1      44.179  24.214  26.317  1.00  0.00    -0.453 OA
ATOM     30  O   UNL A   1      43.868  23.704  28.651  1.00  0.00    -0.454 OA
ATOM     31  C   UNL A   1      44.484  23.318  27.401  1.00  0.00     0.468 C 
BRANCH  24  32
ATOM     32  O   UNL A   1      40.834  27.732  26.492  1.00  0.00    -0.493 OA
BRANCH  32  33
ATOM     33  C   UNL A   1      41.562  28.603  25.621  1.00  0.00     0.226 C 
ATOM     34  C   UNL A   1      42.542  29.514  26.338  1.00  0.00     0.049 C 
ENDBRANCH  32  33
ENDBRANCH  24  32
ENDBRANCH  15  23
BRANCH  18  35
ATOM     35  O   UNL A   1      42.598  28.730  29.622  1.00  0.00    -0.493 OA
ATOM     36  H   UNL A   1      43.335  29.292  29.759  1.00  0.00     0.295 HD
ENDBRANCH  18  35
ENDBRANCH   9  14
ENDBRANCH   5   8
ENDBRANCH   3   4
ENDBRANCH   2   3
ENDBRANCH   1   2
BRANCH   1  37
ATOM     37  C   UNL A   1      41.475  36.276  36.476  1.00  0.00     0.002 C 
BRANCH  37  38
ATOM     38  C   UNL A   1      40.924  36.097  37.891  1.00  0.00     0.021 C 
BRANCH  38  39
ATOM     39  C   UNL A   1      39.991  34.908  38.091  1.00  0.00     0.116 C 
BRANCH  39  40
ATOM     40  N   UNL A   1      40.415  34.038  39.174  1.00  0.00    -0.352 N 
ATOM     41  C   UNL A   1      41.130  32.864  39.121  1.00  0.00     0.251 C 
ATOM     42  H   UNL A   1      40.153  34.330  40.077  1.00  0.00     0.163 HD
ATOM     43  O   UNL A   1      41.261  32.179  40.128  1.00  0.00    -0.269 OA
BRANCH  41  44
ATOM     44  C   UNL A   1      41.724  32.421  37.838  1.00  0.00     0.039 A 
ATOM     45  C   UNL A   1      43.082  32.655  37.604  1.00  0.00     0.014 A 
ATOM     46  C   UNL A   1      40.946  31.784  36.869  1.00  0.00     0.014 A 
ATOM     47  C   UNL A   1      43.671  32.198  36.420  1.00  0.00     0.010 A 
ATOM     48  C   UNL A   1      41.552  31.259  35.730  1.00  0.00     0.010 A 
ATOM     49  C   UNL A   1      42.918  31.470  35.486  1.00  0.00    -0.014 A 
BRANCH  49  50
ATOM     50  C   UNL A   1      43.523  30.947  34.231  1.00  0.00     0.031 A 
ATOM     51  C   UNL A   1      43.624  31.841  33.021  1.00  0.00     0.074 A 
ATOM     52  C   UNL A   1      43.918  29.659  34.154  1.00  0.00     0.049 A 
ATOM     53  N   UNL A   1      44.025  31.551  31.811  1.00  0.00    -0.248 NA
ATOM     54  C   UNL A   1      43.201  33.242  33.189  1.00  0.00     0.031 C 
ATOM     55  C   UNL A   1      43.864  28.682  35.245  1.00  0.00     0.029 A 
ATOM     56  N   UNL A   1      44.433  28.944  33.101  1.00  0.00    -0.354 N 
ATOM     57  C   UNL A   1      43.878  32.718  31.071  1.00  0.00     0.074 A 
ATOM     58  C   UNL A   1      43.308  33.711  31.955  1.00  0.00     0.031 C 
ATOM     59  C   UNL A   1      44.336  27.503  34.806  1.00  0.00     0.029 A 
ATOM     60  C   UNL A   1      44.671  27.620  33.393  1.00  0.00     0.049 A 
ATOM     61  H   UNL A   1      44.613  29.341  32.218  1.00  0.00     0.167 HD
ATOM     62  C   UNL A   1      44.218  32.955  29.781  1.00  0.00     0.034 A 
ATOM     63  C   UNL A   1      45.095  26.610  32.609  1.00  0.00     0.034 A 
ATOM     64  C   UNL A   1      44.820  31.977  28.916  1.00  0.00     0.049 A 
ATOM     65  C   UNL A   1      45.424  26.891  31.171  1.00  0.00     0.074 A 
ATOM     66  C   UNL A   1      45.263  32.137  27.615  1.00  0.00     0.029 A 
ATOM     67  N   UNL A   1      45.060  30.657  29.262  1.00  0.00    -0.354 N 
ATOM     68  N   UNL A   1      45.366  28.026  30.519  1.00  0.00    -0.248 NA
ATOM     69  C   UNL A   1      45.919  25.760  30.376  1.00  0.00     0.031 C 
ATOM     70  C   UNL A   1      45.741  30.903  27.163  1.00  0.00     0.029 A 
ATOM     71  C   UNL A   1      45.635  29.986  28.196  1.00  0.00     0.049 A 
ATOM     72  H   UNL A   1      44.852  30.255  30.136  1.00  0.00     0.167 HD
ATOM     73  C   UNL A   1      45.870  27.758  29.254  1.00  0.00     0.074 A 
ATOM     74  C   UNL A   1      46.228  26.354  29.232  1.00  0.00     0.031 C 
ATOM     75  C   UNL A   1      46.027  28.602  28.205  1.00  0.00     0.034 A 
BRANCH  62  76
ATOM     76  C   UNL A   1      43.987  34.342  29.236  1.00  0.00     0.023 A 
ATOM     77  C   UNL A   1      42.742  34.669  28.658  1.00  0.00     0.012 A 
ATOM     78  C   UNL A   1      44.975  35.340  29.352  1.00  0.00     0.148 A 
ATOM     79  C   UNL A   1      42.498  35.954  28.174  1.00  0.00     0.002 A 
ATOM     80  C   UNL A   1      44.706  36.631  28.912  1.00  0.00     0.091 A 
ATOM     81  F   UNL A   1      46.159  35.007  29.886  1.00  0.00    -0.205 F 
ATOM     82  C   UNL A   1      43.475  36.936  28.311  1.00  0.00     0.022 A 
BRANCH  80  83
ATOM     83  S   UNL A   1      45.866  37.987  29.115  1.00  0.00     0.127 S 
ATOM     84  O   UNL A   1      46.778  37.765  27.994  1.00  0.00    -0.237 OA
ATOM     85  O   UNL A   1      44.999  39.156  28.975  1.00  0.00    -0.237 OA
ATOM     86  O   UNL A   1      46.455  37.819  30.437  1.00  0.00    -0.744 OA
ENDBRANCH  80  83
ENDBRANCH  62  76
BRANCH  63  87
ATOM     87  C   UNL A   1      45.282  25.240  33.162  1.00  0.00     0.023 A 
ATOM     88  C   UNL A   1      44.234  24.306  33.078  1.00  0.00     0.012 A 
ATOM     89  C   UNL A   1      46.480  24.872  33.797  1.00  0.00     0.148 A 
ATOM     90  C   UNL A   1      44.372  23.034  33.636  1.00  0.00     0.002 A 
ATOM     91  C   UNL A   1      46.633  23.587  34.304  1.00  0.00     0.091 A 
ATOM     92  F   UNL A   1      47.449  25.791  33.885  1.00  0.00    -0.205 F 
ATOM     93  C   UNL A   1      45.573  22.672  34.243  1.00  0.00     0.022 A 
BRANCH  91  94
ATOM     94  S   UNL A   1      48.171  23.009  35.028  1.00  0.00     0.127 S 
ATOM     95  O   UNL A   1      48.259  23.808  36.248  1.00  0.00    -0.237 OA
ATOM     96  O   UNL A   1      47.875  21.593  35.238  1.00  0.00    -0.237 OA
ATOM     97  O   UNL A   1      49.198  23.293  34.036  1.00  0.00    -0.744 OA
ENDBRANCH  91  94
ENDBRANCH  63  87
BRANCH  75  98
ATOM     98  C   UNL A   1      46.673  28.052  26.963  1.00  0.00     0.023 A 
ATOM     99  C   UNL A   1      45.881  27.556  25.910  1.00  0.00     0.012 A 
ATOM    100  C   UNL A   1      48.074  28.091  26.818  1.00  0.00     0.148 A 
ATOM    101  C   UNL A   1      46.476  27.076  24.743  1.00  0.00     0.002 A 
ATOM    102  C   UNL A   1      48.657  27.664  25.632  1.00  0.00     0.091 A 
ATOM    103  F   UNL A   1      48.809  28.548  27.842  1.00  0.00    -0.205 F 
ATOM    104  C   UNL A   1      47.861  27.143  24.601  1.00  0.00     0.022 A 
BRANCH 102 105
ATOM    105  S   UNL A   1      50.419  27.805  25.320  1.00  0.00     0.127 S 
ATOM    106  O   UNL A   1      50.637  29.240  25.486  1.00  0.00    -0.237 OA
ATOM    107  O   UNL A   1      50.986  26.972  26.381  1.00  0.00    -0.237 OA
ATOM    108  O   UNL A   1      50.632  27.294  23.972  1.00  0.00    -0.744 OA
ENDBRANCH 102 105
ENDBRANCH  75  98
ENDBRANCH  49  50
ENDBRANCH  41  44
ENDBRANCH  39  40
ENDBRANCH  38  39
ENDBRANCH  37  38
ENDBRANCH   1  37
TORSDOF 21
ENDMDL
