MODEL 1
REMARK VINA RESULT:     -11.3      0.000      0.000
REMARK SMILES Cc1ccc(C)c(S(=O)(=O)[C@H](C)C(=O)NCCCCCCNC(=O)c2ccc(-c3c4nc(c(-c5cccc(S(=O)(=O)[O-])c5F)c5ccc([nH]5)c(-c5cccc(S(=O)(=O)[O-])c5F)c5nc(c(-c6cccc(S(=O)(=O)[O-])c6F)c6ccc3[nH]6)C=C5)C=C4)cc2)c1
REMARK SMILES IDX 19 1 18 2 17 3 16 4 15 5 13 6 14 7 11 9 12 10 8 11 9 12
REMARK SMILES IDX 10 13 7 14 1 15 2 16 3 17 88 18 4 19 5 20 6 21 20 22 21 23
REMARK SMILES IDX 22 24 23 25 24 27 25 28 26 29 87 30 27 31 86 32 28 33 29 34
REMARK SMILES IDX 30 35 80 36 31 37 85 38 79 39 81 40 32 41 84 42 78 43 77 44
REMARK SMILES IDX 33 46 65 47 45 48 64 49 46 50 49 51 63 52 82 53 47 54 48 55
REMARK SMILES IDX 62 57 83 58 50 59 34 60 35 61 43 62 36 63 38 64 44 65 37 66
REMARK SMILES IDX 39 67 40 68 41 69 42 70 66 71 67 72 75 73 68 74 70 75 76 76
REMARK SMILES IDX 69 77 71 78 72 79 73 80 74 81 51 82 52 83 60 84 53 85 55 86
REMARK SMILES IDX 61 87 54 88 56 89 57 90 58 91 59 92
REMARK H PARENT 15 8 22 26 81 45 49 56
REMARK Flexibility Score: inf
ROOT
ATOM      1  C   UNL A   1      36.508  22.672  23.520  1.00  0.00     0.002 C 
ENDROOT
BRANCH   1   2
ATOM      2  C   UNL A   1      35.147  23.371  23.637  1.00  0.00     0.002 C 
BRANCH   2   3
ATOM      3  C   UNL A   1      33.895  22.591  23.228  1.00  0.00     0.021 C 
BRANCH   3   4
ATOM      4  C   UNL A   1      32.610  23.404  23.114  1.00  0.00     0.116 C 
BRANCH   4   5
ATOM      5  N   UNL A   1      32.484  24.155  21.874  1.00  0.00    -0.355 N 
ATOM      6  C   UNL A   1      32.851  25.448  21.618  1.00  0.00     0.238 C 
ATOM      7  O   UNL A   1      33.016  25.760  20.431  1.00  0.00    -0.274 OA
ATOM      8  H   UNL A   1      32.081  23.669  21.120  1.00  0.00     0.163 HD
BRANCH   6   9
ATOM      9  C   UNL A   1      33.025  26.494  22.695  1.00  0.00     0.199 C 
ATOM     10  C   UNL A   1      34.028  27.581  22.349  1.00  0.00     0.036 C 
BRANCH   9  11
ATOM     11  S   UNL A   1      31.455  27.098  23.260  1.00  0.00     0.190 S 
ATOM     12  O   UNL A   1      30.576  25.974  23.543  1.00  0.00    -0.223 OA
ATOM     13  O   UNL A   1      31.014  28.149  22.362  1.00  0.00    -0.223 OA
BRANCH  11  14
ATOM     14  C   UNL A   1      31.620  27.936  24.840  1.00  0.00     0.071 A 
ATOM     15  C   UNL A   1      31.430  31.456  26.300  1.00  0.00     0.044 C 
ATOM     16  C   UNL A   1      31.580  29.966  26.185  1.00  0.00    -0.050 A 
ATOM     17  C   UNL A   1      31.742  29.196  27.339  1.00  0.00     0.004 A 
ATOM     18  C   UNL A   1      31.533  29.332  24.935  1.00  0.00     0.024 A 
ATOM     19  C   UNL A   1      31.854  27.811  27.250  1.00  0.00     0.005 A 
ATOM     20  C   UNL A   1      31.787  27.156  26.008  1.00  0.00    -0.032 A 
ATOM     21  C   UNL A   1      31.916  25.654  26.033  1.00  0.00     0.046 C 
ENDBRANCH  11  14
ENDBRANCH   9  11
ENDBRANCH   6   9
ENDBRANCH   4   5
ENDBRANCH   3   4
ENDBRANCH   2   3
ENDBRANCH   1   2
BRANCH   1  22
ATOM     22  C   UNL A   1      36.797  21.379  24.299  1.00  0.00     0.021 C 
BRANCH  22  23
ATOM     23  C   UNL A   1      37.736  21.413  25.506  1.00  0.00     0.116 C 
BRANCH  23  24
ATOM     24  N   UNL A   1      38.708  20.319  25.539  1.00  0.00    -0.352 N 
ATOM     25  C   UNL A   1      40.050  20.202  25.870  1.00  0.00     0.251 C 
ATOM     26  H   UNL A   1      38.315  19.461  25.258  1.00  0.00     0.163 HD
ATOM     27  O   UNL A   1      40.637  19.186  25.545  1.00  0.00    -0.269 OA
BRANCH  25  28
ATOM     28  C   UNL A   1      40.782  21.263  26.611  1.00  0.00     0.039 A 
ATOM     29  C   UNL A   1      41.022  21.181  27.991  1.00  0.00     0.014 A 
ATOM     30  C   UNL A   1      41.160  22.421  25.963  1.00  0.00     0.014 A 
ATOM     31  C   UNL A   1      41.507  22.315  28.657  1.00  0.00     0.010 A 
ATOM     32  C   UNL A   1      41.956  23.361  26.532  1.00  0.00     0.010 A 
ATOM     33  C   UNL A   1      41.910  23.420  27.901  1.00  0.00    -0.014 A 
BRANCH  33  34
ATOM     34  C   UNL A   1      42.215  24.736  28.433  1.00  0.00     0.031 A 
ATOM     35  C   UNL A   1      41.126  25.707  28.267  1.00  0.00     0.074 A 
ATOM     36  C   UNL A   1      43.172  24.952  29.369  1.00  0.00     0.049 A 
ATOM     37  N   UNL A   1      41.055  26.651  27.392  1.00  0.00    -0.248 NA
ATOM     38  C   UNL A   1      39.899  25.507  29.057  1.00  0.00     0.031 C 
ATOM     39  C   UNL A   1      43.985  23.942  30.069  1.00  0.00     0.029 A 
ATOM     40  N   UNL A   1      43.514  26.111  30.007  1.00  0.00    -0.354 N 
ATOM     41  C   UNL A   1      39.893  27.327  27.728  1.00  0.00     0.074 A 
ATOM     42  C   UNL A   1      39.096  26.425  28.516  1.00  0.00     0.031 C 
ATOM     43  C   UNL A   1      44.563  24.504  31.156  1.00  0.00     0.029 A 
ATOM     44  C   UNL A   1      44.296  25.932  31.143  1.00  0.00     0.049 A 
ATOM     45  H   UNL A   1      43.230  26.998  29.689  1.00  0.00     0.167 HD
ATOM     46  C   UNL A   1      39.841  28.684  27.685  1.00  0.00     0.034 A 
ATOM     47  C   UNL A   1      44.683  26.884  32.027  1.00  0.00     0.034 A 
ATOM     48  C   UNL A   1      41.043  29.245  27.126  1.00  0.00     0.049 A 
ATOM     49  C   UNL A   1      44.568  28.201  31.361  1.00  0.00     0.074 A 
ATOM     50  C   UNL A   1      41.616  29.386  25.884  1.00  0.00     0.029 A 
ATOM     51  N   UNL A   1      42.019  29.477  28.060  1.00  0.00    -0.354 N 
ATOM     52  N   UNL A   1      45.292  28.558  30.337  1.00  0.00    -0.248 NA
ATOM     53  C   UNL A   1      43.434  29.069  31.658  1.00  0.00     0.031 C 
ATOM     54  C   UNL A   1      43.008  29.603  26.105  1.00  0.00     0.029 A 
ATOM     55  C   UNL A   1      43.254  29.581  27.476  1.00  0.00     0.049 A 
ATOM     56  H   UNL A   1      41.853  29.559  29.027  1.00  0.00     0.167 HD
ATOM     57  C   UNL A   1      44.466  29.404  29.623  1.00  0.00     0.074 A 
ATOM     58  C   UNL A   1      43.440  29.831  30.562  1.00  0.00     0.031 C 
ATOM     59  C   UNL A   1      44.460  29.396  28.260  1.00  0.00     0.034 A 
BRANCH  46  60
ATOM     60  C   UNL A   1      38.940  29.545  28.529  1.00  0.00     0.023 A 
ATOM     61  C   UNL A   1      39.196  29.559  29.916  1.00  0.00     0.012 A 
ATOM     62  C   UNL A   1      37.738  30.143  28.091  1.00  0.00     0.148 A 
ATOM     63  C   UNL A   1      38.301  30.139  30.819  1.00  0.00     0.002 A 
ATOM     64  C   UNL A   1      36.903  30.807  28.980  1.00  0.00     0.091 A 
ATOM     65  F   UNL A   1      37.308  29.950  26.838  1.00  0.00    -0.205 F 
ATOM     66  C   UNL A   1      37.166  30.787  30.350  1.00  0.00     0.022 A 
BRANCH  64  67
ATOM     67  S   UNL A   1      35.479  31.727  28.388  1.00  0.00     0.127 S 
ATOM     68  O   UNL A   1      34.751  30.701  27.650  1.00  0.00    -0.237 OA
ATOM     69  O   UNL A   1      34.850  32.158  29.638  1.00  0.00    -0.237 OA
ATOM     70  O   UNL A   1      36.045  32.819  27.604  1.00  0.00    -0.744 OA
ENDBRANCH  64  67
ENDBRANCH  46  60
BRANCH  47  71
ATOM     71  C   UNL A   1      45.057  26.783  33.457  1.00  0.00     0.023 A 
ATOM     72  C   UNL A   1      46.344  27.177  33.876  1.00  0.00     0.012 A 
ATOM     73  C   UNL A   1      44.074  26.558  34.444  1.00  0.00     0.148 A 
ATOM     74  C   UNL A   1      46.633  27.379  35.230  1.00  0.00     0.002 A 
ATOM     75  C   UNL A   1      44.367  26.760  35.791  1.00  0.00     0.091 A 
ATOM     76  F   UNL A   1      42.838  26.218  34.052  1.00  0.00    -0.205 F 
ATOM     77  C   UNL A   1      45.642  27.184  36.186  1.00  0.00     0.022 A 
BRANCH  75  78
ATOM     78  S   UNL A   1      43.139  26.552  37.085  1.00  0.00     0.127 S 
ATOM     79  O   UNL A   1      43.975  26.541  38.287  1.00  0.00    -0.237 OA
ATOM     80  O   UNL A   1      42.314  27.745  36.919  1.00  0.00    -0.237 OA
ATOM     81  O   UNL A   1      42.480  25.285  36.799  1.00  0.00    -0.744 OA
ENDBRANCH  75  78
ENDBRANCH  47  71
BRANCH  59  82
ATOM     82  C   UNL A   1      45.703  28.944  27.552  1.00  0.00     0.023 A 
ATOM     83  C   UNL A   1      46.858  29.745  27.456  1.00  0.00     0.012 A 
ATOM     84  C   UNL A   1      45.740  27.634  27.042  1.00  0.00     0.148 A 
ATOM     85  C   UNL A   1      48.017  29.255  26.849  1.00  0.00     0.002 A 
ATOM     86  C   UNL A   1      46.907  27.135  26.478  1.00  0.00     0.091 A 
ATOM     87  F   UNL A   1      44.627  26.888  27.125  1.00  0.00    -0.205 F 
ATOM     88  C   UNL A   1      48.046  27.946  26.370  1.00  0.00     0.022 A 
BRANCH  86  89
ATOM     89  S   UNL A   1      47.035  25.424  25.952  1.00  0.00     0.127 S 
ATOM     90  O   UNL A   1      48.474  25.274  25.742  1.00  0.00    -0.237 OA
ATOM     91  O   UNL A   1      46.507  24.697  27.108  1.00  0.00    -0.237 OA
ATOM     92  O   UNL A   1      46.207  25.316  24.757  1.00  0.00    -0.744 OA
ENDBRANCH  86  89
ENDBRANCH  59  82
ENDBRANCH  33  34
ENDBRANCH  25  28
ENDBRANCH  23  24
ENDBRANCH  22  23
ENDBRANCH   1  22
TORSDOF 18
ENDMDL
MODEL 2
REMARK VINA RESULT:     -11.3      1.933      2.624
REMARK SMILES Cc1ccc(C)c(S(=O)(=O)[C@H](C)C(=O)NCCCCCCNC(=O)c2ccc(-c3c4nc(c(-c5cccc(S(=O)(=O)[O-])c5F)c5ccc([nH]5)c(-c5cccc(S(=O)(=O)[O-])c5F)c5nc(c(-c6cccc(S(=O)(=O)[O-])c6F)c6ccc3[nH]6)C=C5)C=C4)cc2)c1
REMARK SMILES IDX 19 1 18 2 17 3 16 4 15 5 13 6 14 7 11 9 12 10 8 11 9 12
REMARK SMILES IDX 10 13 7 14 1 15 2 16 3 17 88 18 4 19 5 20 6 21 20 22 21 23
REMARK SMILES IDX 22 24 23 25 24 27 25 28 26 29 87 30 27 31 86 32 28 33 29 34
REMARK SMILES IDX 30 35 80 36 31 37 85 38 79 39 81 40 32 41 84 42 78 43 77 44
REMARK SMILES IDX 33 46 65 47 45 48 64 49 46 50 49 51 63 52 82 53 47 54 48 55
REMARK SMILES IDX 62 57 83 58 50 59 34 60 35 61 43 62 36 63 38 64 44 65 37 66
REMARK SMILES IDX 39 67 40 68 41 69 42 70 66 71 67 72 75 73 68 74 70 75 76 76
REMARK SMILES IDX 69 77 71 78 72 79 73 80 74 81 51 82 52 83 60 84 53 85 55 86
REMARK SMILES IDX 61 87 54 88 56 89 57 90 58 91 59 92
REMARK H PARENT 15 8 22 26 81 45 49 56
REMARK Flexibility Score: inf
ROOT
ATOM      1  C   UNL A   1      35.182  20.239  25.224  1.00  0.00     0.002 C 
ENDROOT
BRANCH   1   2
ATOM      2  C   UNL A   1      33.675  20.248  25.516  1.00  0.00     0.002 C 
BRANCH   2   3
ATOM      3  C   UNL A   1      32.710  20.387  24.336  1.00  0.00     0.021 C 
BRANCH   3   4
ATOM      4  C   UNL A   1      31.656  21.481  24.462  1.00  0.00     0.116 C 
BRANCH   4   5
ATOM      5  N   UNL A   1      31.423  21.934  25.826  1.00  0.00    -0.355 N 
ATOM      6  C   UNL A   1      30.981  23.155  26.256  1.00  0.00     0.238 C 
ATOM      7  O   UNL A   1      30.489  23.206  27.391  1.00  0.00    -0.274 OA
ATOM      8  H   UNL A   1      31.609  21.275  26.532  1.00  0.00     0.163 HD
BRANCH   6   9
ATOM      9  C   UNL A   1      31.096  24.419  25.436  1.00  0.00     0.199 C 
ATOM     10  C   UNL A   1      30.231  25.564  25.936  1.00  0.00     0.036 C 
BRANCH   9  11
ATOM     11  S   UNL A   1      32.796  24.850  25.161  1.00  0.00     0.190 S 
ATOM     12  O   UNL A   1      33.175  24.486  23.805  1.00  0.00    -0.223 OA
ATOM     13  O   UNL A   1      33.582  24.369  26.282  1.00  0.00    -0.223 OA
BRANCH  11  14
ATOM     14  C   UNL A   1      33.024  26.630  25.218  1.00  0.00     0.071 A 
ATOM     15  C   UNL A   1      34.636  29.286  27.433  1.00  0.00     0.044 C 
ATOM     16  C   UNL A   1      33.906  28.627  26.299  1.00  0.00    -0.050 A 
ATOM     17  C   UNL A   1      33.489  29.392  25.207  1.00  0.00     0.004 A 
ATOM     18  C   UNL A   1      33.660  27.247  26.305  1.00  0.00     0.024 A 
ATOM     19  C   UNL A   1      32.835  28.791  24.135  1.00  0.00     0.005 A 
ATOM     20  C   UNL A   1      32.600  27.405  24.114  1.00  0.00    -0.032 A 
ATOM     21  C   UNL A   1      31.888  26.863  22.900  1.00  0.00     0.046 C 
ENDBRANCH  11  14
ENDBRANCH   9  11
ENDBRANCH   6   9
ENDBRANCH   4   5
ENDBRANCH   3   4
ENDBRANCH   2   3
ENDBRANCH   1   2
BRANCH   1  22
ATOM     22  C   UNL A   1      35.878  21.483  24.650  1.00  0.00     0.021 C 
BRANCH  22  23
ATOM     23  C   UNL A   1      37.401  21.605  24.724  1.00  0.00     0.116 C 
BRANCH  23  24
ATOM     24  N   UNL A   1      38.085  20.357  25.067  1.00  0.00    -0.352 N 
ATOM     25  C   UNL A   1      39.315  20.025  25.616  1.00  0.00     0.251 C 
ATOM     26  H   UNL A   1      37.543  19.563  24.856  1.00  0.00     0.163 HD
ATOM     27  O   UNL A   1      39.688  18.869  25.538  1.00  0.00    -0.269 OA
BRANCH  25  28
ATOM     28  C   UNL A   1      40.176  21.026  26.301  1.00  0.00     0.039 A 
ATOM     29  C   UNL A   1      40.813  20.754  27.521  1.00  0.00     0.014 A 
ATOM     30  C   UNL A   1      40.289  22.302  25.789  1.00  0.00     0.014 A 
ATOM     31  C   UNL A   1      41.413  21.814  28.215  1.00  0.00     0.010 A 
ATOM     32  C   UNL A   1      41.167  23.218  26.271  1.00  0.00     0.010 A 
ATOM     33  C   UNL A   1      41.520  23.058  27.586  1.00  0.00    -0.014 A 
BRANCH  33  34
ATOM     34  C   UNL A   1      41.900  24.299  28.237  1.00  0.00     0.031 A 
ATOM     35  C   UNL A   1      40.855  25.330  28.198  1.00  0.00     0.074 A 
ATOM     36  C   UNL A   1      42.887  24.377  29.163  1.00  0.00     0.049 A 
ATOM     37  N   UNL A   1      40.809  26.359  27.422  1.00  0.00    -0.248 NA
ATOM     38  C   UNL A   1      39.638  25.108  28.997  1.00  0.00     0.031 C 
ATOM     39  C   UNL A   1      43.667  23.267  29.736  1.00  0.00     0.029 A 
ATOM     40  N   UNL A   1      43.299  25.450  29.903  1.00  0.00    -0.354 N 
ATOM     41  C   UNL A   1      39.688  27.051  27.856  1.00  0.00     0.074 A 
ATOM     42  C   UNL A   1      38.868  26.111  28.572  1.00  0.00     0.031 C 
ATOM     43  C   UNL A   1      44.296  23.691  30.857  1.00  0.00     0.029 A 
ATOM     44  C   UNL A   1      44.098  25.123  30.993  1.00  0.00     0.049 A 
ATOM     45  H   UNL A   1      43.051  26.377  29.681  1.00  0.00     0.167 HD
ATOM     46  C   UNL A   1      39.700  28.406  27.948  1.00  0.00     0.034 A 
ATOM     47  C   UNL A   1      44.549  25.963  31.956  1.00  0.00     0.034 A 
ATOM     48  C   UNL A   1      40.914  28.965  27.414  1.00  0.00     0.049 A 
ATOM     49  C   UNL A   1      44.483  27.344  31.426  1.00  0.00     0.074 A 
ATOM     50  C   UNL A   1      41.465  29.203  26.177  1.00  0.00     0.029 A 
ATOM     51  N   UNL A   1      41.922  29.058  28.339  1.00  0.00    -0.354 N 
ATOM     52  N   UNL A   1      45.199  27.769  30.423  1.00  0.00    -0.248 NA
ATOM     53  C   UNL A   1      43.398  28.229  31.839  1.00  0.00     0.031 C 
ATOM     54  C   UNL A   1      42.871  29.334  26.379  1.00  0.00     0.029 A 
ATOM     55  C   UNL A   1      43.147  29.163  27.735  1.00  0.00     0.049 A 
ATOM     56  H   UNL A   1      41.783  29.050  29.314  1.00  0.00     0.167 HD
ATOM     57  C   UNL A   1      44.397  28.719  29.819  1.00  0.00     0.074 A 
ATOM     58  C   UNL A   1      43.415  29.095  30.824  1.00  0.00     0.031 C 
ATOM     59  C   UNL A   1      44.360  28.847  28.463  1.00  0.00     0.034 A 
BRANCH  46  60
ATOM     60  C   UNL A   1      38.862  29.218  28.898  1.00  0.00     0.023 A 
ATOM     61  C   UNL A   1      38.168  30.316  28.349  1.00  0.00     0.012 A 
ATOM     62  C   UNL A   1      38.897  29.118  30.306  1.00  0.00     0.148 A 
ATOM     63  C   UNL A   1      37.541  31.265  29.160  1.00  0.00     0.002 A 
ATOM     64  C   UNL A   1      38.186  30.006  31.104  1.00  0.00     0.091 A 
ATOM     65  F   UNL A   1      39.735  28.260  30.900  1.00  0.00    -0.205 F 
ATOM     66  C   UNL A   1      37.527  31.097  30.539  1.00  0.00     0.022 A 
BRANCH  64  67
ATOM     67  S   UNL A   1      38.079  29.759  32.880  1.00  0.00     0.127 S 
ATOM     68  O   UNL A   1      39.485  29.785  33.266  1.00  0.00    -0.237 OA
ATOM     69  O   UNL A   1      37.296  30.921  33.305  1.00  0.00    -0.237 OA
ATOM     70  O   UNL A   1      37.382  28.487  33.034  1.00  0.00    -0.744 OA
ENDBRANCH  64  67
ENDBRANCH  46  60
BRANCH  47  71
ATOM     71  C   UNL A   1      44.951  25.704  33.358  1.00  0.00     0.023 A 
ATOM     72  C   UNL A   1      46.316  25.579  33.686  1.00  0.00     0.012 A 
ATOM     73  C   UNL A   1      44.022  25.846  34.410  1.00  0.00     0.148 A 
ATOM     74  C   UNL A   1      46.748  25.633  35.016  1.00  0.00     0.002 A 
ATOM     75  C   UNL A   1      44.457  25.898  35.733  1.00  0.00     0.091 A 
ATOM     76  F   UNL A   1      42.727  26.001  34.105  1.00  0.00    -0.205 F 
ATOM     77  C   UNL A   1      45.821  25.806  36.039  1.00  0.00     0.022 A 
BRANCH  75  78
ATOM     78  S   UNL A   1      43.328  26.142  37.109  1.00  0.00     0.127 S 
ATOM     79  O   UNL A   1      42.367  25.057  36.900  1.00  0.00    -0.237 OA
ATOM     80  O   UNL A   1      44.208  25.973  38.261  1.00  0.00    -0.237 OA
ATOM     81  O   UNL A   1      42.776  27.478  36.929  1.00  0.00    -0.744 OA
ENDBRANCH  75  78
ENDBRANCH  47  71
BRANCH  59  82
ATOM     82  C   UNL A   1      45.564  28.412  27.679  1.00  0.00     0.023 A 
ATOM     83  C   UNL A   1      46.753  29.166  27.631  1.00  0.00     0.012 A 
ATOM     84  C   UNL A   1      45.526  27.159  27.043  1.00  0.00     0.148 A 
ATOM     85  C   UNL A   1      47.873  28.688  26.946  1.00  0.00     0.002 A 
ATOM     86  C   UNL A   1      46.656  26.667  26.400  1.00  0.00     0.091 A 
ATOM     87  F   UNL A   1      44.382  26.459  27.084  1.00  0.00    -0.205 F 
ATOM     88  C   UNL A   1      47.829  27.433  26.341  1.00  0.00     0.022 A 
BRANCH  86  89
ATOM     89  S   UNL A   1      46.690  25.012  25.707  1.00  0.00     0.127 S 
ATOM     90  O   UNL A   1      45.582  25.054  24.755  1.00  0.00    -0.237 OA
ATOM     91  O   UNL A   1      48.019  24.952  25.095  1.00  0.00    -0.237 OA
ATOM     92  O   UNL A   1      46.519  24.108  26.837  1.00  0.00    -0.744 OA
ENDBRANCH  86  89
ENDBRANCH  59  82
ENDBRANCH  33  34
ENDBRANCH  25  28
ENDBRANCH  23  24
ENDBRANCH  22  23
ENDBRANCH   1  22
TORSDOF 18
ENDMDL
MODEL 3
REMARK VINA RESULT:     -11.2      1.951      2.617
REMARK SMILES Cc1ccc(C)c(S(=O)(=O)[C@H](C)C(=O)NCCCCCCNC(=O)c2ccc(-c3c4nc(c(-c5cccc(S(=O)(=O)[O-])c5F)c5ccc([nH]5)c(-c5cccc(S(=O)(=O)[O-])c5F)c5nc(c(-c6cccc(S(=O)(=O)[O-])c6F)c6ccc3[nH]6)C=C5)C=C4)cc2)c1
REMARK SMILES IDX 19 1 18 2 17 3 16 4 15 5 13 6 14 7 11 9 12 10 8 11 9 12
REMARK SMILES IDX 10 13 7 14 1 15 2 16 3 17 88 18 4 19 5 20 6 21 20 22 21 23
REMARK SMILES IDX 22 24 23 25 24 27 25 28 26 29 87 30 27 31 86 32 28 33 29 34
REMARK SMILES IDX 30 35 80 36 31 37 85 38 79 39 81 40 32 41 84 42 78 43 77 44
REMARK SMILES IDX 33 46 65 47 45 48 64 49 46 50 49 51 63 52 82 53 47 54 48 55
REMARK SMILES IDX 62 57 83 58 50 59 34 60 35 61 43 62 36 63 38 64 44 65 37 66
REMARK SMILES IDX 39 67 40 68 41 69 42 70 66 71 67 72 75 73 68 74 70 75 76 76
REMARK SMILES IDX 69 77 71 78 72 79 73 80 74 81 51 82 52 83 60 84 53 85 55 86
REMARK SMILES IDX 61 87 54 88 56 89 57 90 58 91 59 92
REMARK H PARENT 15 8 22 26 81 45 49 56
REMARK Flexibility Score: inf
ROOT
ATOM      1  C   UNL A   1      38.816  22.526  26.281  1.00  0.00     0.002 C 
ENDROOT
BRANCH   1   2
ATOM      2  C   UNL A   1      38.054  23.763  25.786  1.00  0.00     0.002 C 
BRANCH   2   3
ATOM      3  C   UNL A   1      36.780  23.548  24.966  1.00  0.00     0.021 C 
BRANCH   3   4
ATOM      4  C   UNL A   1      35.604  22.928  25.711  1.00  0.00     0.116 C 
BRANCH   4   5
ATOM      5  N   UNL A   1      34.676  22.193  24.863  1.00  0.00    -0.355 N 
ATOM      6  C   UNL A   1      33.546  22.646  24.240  1.00  0.00     0.238 C 
ATOM      7  O   UNL A   1      33.131  21.985  23.279  1.00  0.00    -0.274 OA
ATOM      8  H   UNL A   1      34.891  21.243  24.720  1.00  0.00     0.163 HD
BRANCH   6   9
ATOM      9  C   UNL A   1      32.782  23.871  24.687  1.00  0.00     0.199 C 
ATOM     10  C   UNL A   1      32.602  23.975  26.192  1.00  0.00     0.036 C 
BRANCH   9  11
ATOM     11  S   UNL A   1      33.422  25.339  23.922  1.00  0.00     0.190 S 
ATOM     12  O   UNL A   1      34.026  24.996  22.644  1.00  0.00    -0.223 OA
ATOM     13  O   UNL A   1      34.191  26.076  24.907  1.00  0.00    -0.223 OA
BRANCH  11  14
ATOM     14  C   UNL A   1      32.095  26.469  23.492  1.00  0.00     0.071 A 
ATOM     15  C   UNL A   1      28.308  26.774  23.836  1.00  0.00     0.044 C 
ATOM     16  C   UNL A   1      29.737  27.082  23.498  1.00  0.00    -0.050 A 
ATOM     17  C   UNL A   1      30.065  28.318  22.936  1.00  0.00     0.004 A 
ATOM     18  C   UNL A   1      30.756  26.154  23.762  1.00  0.00     0.024 A 
ATOM     19  C   UNL A   1      31.390  28.627  22.642  1.00  0.00     0.005 A 
ATOM     20  C   UNL A   1      32.427  27.720  22.921  1.00  0.00    -0.032 A 
ATOM     21  C   UNL A   1      33.823  28.164  22.564  1.00  0.00     0.046 C 
ENDBRANCH  11  14
ENDBRANCH   9  11
ENDBRANCH   6   9
ENDBRANCH   4   5
ENDBRANCH   3   4
ENDBRANCH   2   3
ENDBRANCH   1   2
BRANCH   1  22
ATOM     22  C   UNL A   1      38.833  21.231  25.454  1.00  0.00     0.021 C 
BRANCH  22  23
ATOM     23  C   UNL A   1      39.226  19.910  26.117  1.00  0.00     0.116 C 
BRANCH  23  24
ATOM     24  N   UNL A   1      40.520  19.383  25.682  1.00  0.00    -0.352 N 
ATOM     25  C   UNL A   1      41.831  19.841  25.709  1.00  0.00     0.251 C 
ATOM     26  H   UNL A   1      40.444  18.492  25.271  1.00  0.00     0.163 HD
ATOM     27  O   UNL A   1      42.657  19.261  25.029  1.00  0.00    -0.269 OA
BRANCH  25  28
ATOM     28  C   UNL A   1      42.252  20.997  26.544  1.00  0.00     0.039 A 
ATOM     29  C   UNL A   1      42.253  20.946  27.946  1.00  0.00     0.014 A 
ATOM     30  C   UNL A   1      42.562  22.201  25.946  1.00  0.00     0.014 A 
ATOM     31  C   UNL A   1      42.437  22.137  28.661  1.00  0.00     0.010 A 
ATOM     32  C   UNL A   1      43.094  23.249  26.625  1.00  0.00     0.010 A 
ATOM     33  C   UNL A   1      42.798  23.294  27.963  1.00  0.00    -0.014 A 
BRANCH  33  34
ATOM     34  C   UNL A   1      42.804  24.638  28.511  1.00  0.00     0.031 A 
ATOM     35  C   UNL A   1      41.560  25.380  28.268  1.00  0.00     0.074 A 
ATOM     36  C   UNL A   1      43.634  25.027  29.510  1.00  0.00     0.049 A 
ATOM     37  N   UNL A   1      41.366  26.301  27.387  1.00  0.00    -0.248 NA
ATOM     38  C   UNL A   1      40.345  24.937  28.973  1.00  0.00     0.031 C 
ATOM     39  C   UNL A   1      44.580  24.188  30.266  1.00  0.00     0.029 A 
ATOM     40  N   UNL A   1      43.700  26.223  30.167  1.00  0.00    -0.354 N 
ATOM     41  C   UNL A   1      40.073  26.735  27.642  1.00  0.00     0.074 A 
ATOM     42  C   UNL A   1      39.417  25.686  28.376  1.00  0.00     0.031 C 
ATOM     43  C   UNL A   1      44.962  24.840  31.389  1.00  0.00     0.029 A 
ATOM     44  C   UNL A   1      44.424  26.188  31.353  1.00  0.00     0.049 A 
ATOM     45  H   UNL A   1      43.271  27.042  29.827  1.00  0.00     0.167 HD
ATOM     46  C   UNL A   1      39.761  28.056  27.591  1.00  0.00     0.034 A 
ATOM     47  C   UNL A   1      44.556  27.188  32.259  1.00  0.00     0.034 A 
ATOM     48  C   UNL A   1      40.865  28.846  27.113  1.00  0.00     0.049 A 
ATOM     49  C   UNL A   1      44.232  28.465  31.583  1.00  0.00     0.074 A 
ATOM     50  C   UNL A   1      41.482  29.109  25.914  1.00  0.00     0.029 A 
ATOM     51  N   UNL A   1      41.712  29.254  28.112  1.00  0.00    -0.354 N 
ATOM     52  N   UNL A   1      44.940  28.967  30.610  1.00  0.00    -0.248 NA
ATOM     53  C   UNL A   1      42.933  29.092  31.799  1.00  0.00     0.031 C 
ATOM     54  C   UNL A   1      42.787  29.591  26.228  1.00  0.00     0.029 A 
ATOM     55  C   UNL A   1      42.939  29.602  27.614  1.00  0.00     0.049 A 
ATOM     56  H   UNL A   1      41.468  29.292  29.065  1.00  0.00     0.167 HD
ATOM     57  C   UNL A   1      44.014  29.643  29.838  1.00  0.00     0.074 A 
ATOM     58  C   UNL A   1      42.864  29.852  30.704  1.00  0.00     0.031 C 
ATOM     59  C   UNL A   1      44.103  29.648  28.478  1.00  0.00     0.034 A 
BRANCH  46  60
ATOM     60  C   UNL A   1      38.655  28.716  28.369  1.00  0.00     0.023 A 
ATOM     61  C   UNL A   1      37.697  29.432  27.623  1.00  0.00     0.012 A 
ATOM     62  C   UNL A   1      38.627  28.874  29.773  1.00  0.00     0.148 A 
ATOM     63  C   UNL A   1      36.759  30.263  28.242  1.00  0.00     0.002 A 
ATOM     64  C   UNL A   1      37.629  29.619  30.389  1.00  0.00     0.091 A 
ATOM     65  F   UNL A   1      39.646  28.435  30.521  1.00  0.00    -0.205 F 
ATOM     66  C   UNL A   1      36.707  30.337  29.628  1.00  0.00     0.022 A 
BRANCH  64  67
ATOM     67  S   UNL A   1      37.488  29.658  32.179  1.00  0.00     0.127 S 
ATOM     68  O   UNL A   1      38.688  30.397  32.554  1.00  0.00    -0.237 OA
ATOM     69  O   UNL A   1      36.229  30.380  32.372  1.00  0.00    -0.237 OA
ATOM     70  O   UNL A   1      37.433  28.256  32.575  1.00  0.00    -0.744 OA
ENDBRANCH  64  67
ENDBRANCH  46  60
BRANCH  47  71
ATOM     71  C   UNL A   1      44.845  27.147  33.712  1.00  0.00     0.023 A 
ATOM     72  C   UNL A   1      45.972  27.821  34.223  1.00  0.00     0.012 A 
ATOM     73  C   UNL A   1      43.877  26.679  34.625  1.00  0.00     0.148 A 
ATOM     74  C   UNL A   1      46.114  28.057  35.595  1.00  0.00     0.002 A 
ATOM     75  C   UNL A   1      44.023  26.915  35.990  1.00  0.00     0.091 A 
ATOM     76  F   UNL A   1      42.785  26.069  34.144  1.00  0.00    -0.205 F 
ATOM     77  C   UNL A   1      45.133  27.616  36.478  1.00  0.00     0.022 A 
BRANCH  75  78
ATOM     78  S   UNL A   1      42.792  26.400  37.193  1.00  0.00     0.127 S 
ATOM     79  O   UNL A   1      41.664  27.268  36.854  1.00  0.00    -0.237 OA
ATOM     80  O   UNL A   1      42.609  24.991  36.859  1.00  0.00    -0.237 OA
ATOM     81  O   UNL A   1      43.385  26.666  38.497  1.00  0.00    -0.744 OA
ENDBRANCH  75  78
ENDBRANCH  47  71
BRANCH  59  82
ATOM     82  C   UNL A   1      45.455  29.454  27.858  1.00  0.00     0.023 A 
ATOM     83  C   UNL A   1      46.419  30.479  27.801  1.00  0.00     0.012 A 
ATOM     84  C   UNL A   1      45.798  28.172  27.397  1.00  0.00     0.148 A 
ATOM     85  C   UNL A   1      47.691  30.234  27.277  1.00  0.00     0.002 A 
ATOM     86  C   UNL A   1      47.078  27.919  26.918  1.00  0.00     0.091 A 
ATOM     87  F   UNL A   1      44.865  27.208  27.443  1.00  0.00    -0.205 F 
ATOM     88  C   UNL A   1      48.025  28.951  26.847  1.00  0.00     0.022 A 
BRANCH  86  89
ATOM     89  S   UNL A   1      47.595  26.263  26.460  1.00  0.00     0.127 S 
ATOM     90  O   UNL A   1      47.294  25.501  27.670  1.00  0.00    -0.237 OA
ATOM     91  O   UNL A   1      46.729  25.964  25.318  1.00  0.00    -0.237 OA
ATOM     92  O   UNL A   1      49.008  26.372  26.118  1.00  0.00    -0.744 OA
ENDBRANCH  86  89
ENDBRANCH  59  82
ENDBRANCH  33  34
ENDBRANCH  25  28
ENDBRANCH  23  24
ENDBRANCH  22  23
ENDBRANCH   1  22
TORSDOF 18
ENDMDL
