MODEL 1
REMARK VINA RESULT:     -11.6      0.000      0.000
REMARK SMILES O=C(Nc1cccc(C(=O)NCCCCCCNC(=O)c2ccc(-c3c4nc(c(-c5cccc(S(=O)(=O)[O-])c5F)c5ccc([nH]5)c(-c5cccc(S(=O)(=O)[O-])c5F)c5nc(c(-c6cccc(S(=O)(=O)[O-])c6F)c6ccc3[nH]6)C=C5)C=C4)cc2)c1)Nc1cc(Cl)c(Cl)cc1Cl
REMARK SMILES IDX 15 1 14 2 13 3 12 4 11 5 9 6 10 7 8 9 4 10 5 11 84 12 6 13
REMARK SMILES IDX 7 14 3 15 1 16 2 17 85 18 86 21 87 22 93 23 88 24 92 25
REMARK SMILES IDX 94 26 89 27 90 28 91 29 16 30 17 31 18 32 19 33 20 35 21 36
REMARK SMILES IDX 22 37 83 38 23 39 82 40 24 41 25 42 26 43 76 44 27 45 81 46
REMARK SMILES IDX 75 47 77 48 28 49 80 50 74 51 73 52 29 54 61 55 41 56 60 57
REMARK SMILES IDX 42 58 45 59 59 60 78 61 43 62 44 63 58 65 79 66 46 67 30 68
REMARK SMILES IDX 31 69 39 70 32 71 34 72 40 73 33 74 35 75 36 76 37 77 38 78
REMARK SMILES IDX 62 79 63 80 71 81 64 82 66 83 72 84 65 85 67 86 68 87 69 88
REMARK SMILES IDX 70 89 47 90 48 91 56 92 49 93 51 94 57 95 50 96 52 97 53 98
REMARK SMILES IDX 54 99 55 100
REMARK H PARENT 11 8 3 19 85 20 18 34 77 53 45 64
REMARK Flexibility Score: inf
ROOT
ATOM      1  C   UNL A   1      35.765  33.070  28.073  1.00  0.00     0.002 C 
ENDROOT
BRANCH   1   2
ATOM      2  C   UNL A   1      35.161  31.714  28.463  1.00  0.00     0.002 C 
BRANCH   2   3
ATOM      3  C   UNL A   1      35.713  30.519  27.672  1.00  0.00     0.021 C 
BRANCH   3   4
ATOM      4  C   UNL A   1      34.607  29.654  27.068  1.00  0.00     0.116 C 
BRANCH   4   5
ATOM      5  N   UNL A   1      33.421  30.452  26.827  1.00  0.00    -0.352 N 
ATOM      6  C   UNL A   1      32.193  30.201  26.277  1.00  0.00     0.251 C 
ATOM      7  O   UNL A   1      31.426  31.164  26.191  1.00  0.00    -0.269 OA
ATOM      8  H   UNL A   1      33.522  31.385  27.126  1.00  0.00     0.163 HD
BRANCH   6   9
ATOM      9  C   UNL A   1      31.708  28.858  25.835  1.00  0.00     0.041 A 
ATOM     10  C   UNL A   1      31.274  26.474  26.098  1.00  0.00     0.043 A 
ATOM     11  C   UNL A   1      30.642  26.438  24.856  1.00  0.00     0.026 A 
ATOM     12  C   UNL A   1      31.874  27.662  26.536  1.00  0.00     0.040 A 
ATOM     13  C   UNL A   1      30.519  27.606  24.109  1.00  0.00     0.003 A 
ATOM     14  C   UNL A   1      31.026  28.808  24.608  1.00  0.00     0.014 A 
BRANCH  10  15
ATOM     15  N   UNL A   1      31.313  25.300  26.864  1.00  0.00    -0.308 N 
ATOM     16  O   UNL A   1      31.783  23.161  27.343  1.00  0.00    -0.248 OA
ATOM     17  C   UNL A   1      32.080  24.168  26.709  1.00  0.00     0.323 C 
ATOM     18  N   UNL A   1      33.238  24.334  25.983  1.00  0.00    -0.306 N 
ATOM     19  H   UNL A   1      30.695  25.282  27.632  1.00  0.00     0.171 HD
ATOM     20  H   UNL A   1      33.442  25.242  25.661  1.00  0.00     0.171 HD
BRANCH  18  21
ATOM     21  C   UNL A   1      34.161  23.310  25.659  1.00  0.00     0.063 A 
ATOM     22  C   UNL A   1      35.504  23.572  25.971  1.00  0.00     0.049 A 
ATOM     23  C   UNL A   1      33.842  22.094  25.027  1.00  0.00     0.066 A 
ATOM     24  C   UNL A   1      36.501  22.619  25.725  1.00  0.00     0.061 A 
ATOM     25  C   UNL A   1      34.838  21.134  24.797  1.00  0.00     0.044 A 
ATOM     26  Cl  UNL A   1      32.305  21.804  24.285  1.00  0.00    -0.082 Cl
ATOM     27  Cl  UNL A   1      38.126  23.045  26.134  1.00  0.00    -0.083 Cl
ATOM     28  C   UNL A   1      36.165  21.392  25.148  1.00  0.00     0.061 A 
ATOM     29  Cl  UNL A   1      37.351  20.200  24.759  1.00  0.00    -0.083 Cl
ENDBRANCH  18  21
ENDBRANCH  10  15
ENDBRANCH   6   9
ENDBRANCH   4   5
ENDBRANCH   3   4
ENDBRANCH   2   3
ENDBRANCH   1   2
BRANCH   1  30
ATOM     30  C   UNL A   1      34.754  34.217  27.973  1.00  0.00     0.021 C 
BRANCH  30  31
ATOM     31  C   UNL A   1      33.396  33.900  28.589  1.00  0.00     0.116 C 
BRANCH  31  32
ATOM     32  N   UNL A   1      33.022  34.898  29.581  1.00  0.00    -0.352 N 
ATOM     33  C   UNL A   1      33.424  35.015  30.888  1.00  0.00     0.251 C 
ATOM     34  H   UNL A   1      32.391  35.587  29.270  1.00  0.00     0.163 HD
ATOM     35  O   UNL A   1      32.811  35.751  31.654  1.00  0.00    -0.269 OA
BRANCH  33  36
ATOM     36  C   UNL A   1      34.597  34.252  31.362  1.00  0.00     0.039 A 
ATOM     37  C   UNL A   1      34.404  32.990  31.926  1.00  0.00     0.014 A 
ATOM     38  C   UNL A   1      35.881  34.795  31.264  1.00  0.00     0.014 A 
ATOM     39  C   UNL A   1      35.508  32.252  32.354  1.00  0.00     0.010 A 
ATOM     40  C   UNL A   1      36.984  34.030  31.624  1.00  0.00     0.010 A 
ATOM     41  C   UNL A   1      36.809  32.756  32.184  1.00  0.00    -0.014 A 
BRANCH  41  42
ATOM     42  C   UNL A   1      37.999  31.967  32.585  1.00  0.00     0.031 A 
ATOM     43  C   UNL A   1      38.720  32.282  33.869  1.00  0.00     0.074 A 
ATOM     44  C   UNL A   1      38.477  31.021  31.753  1.00  0.00     0.049 A 
ATOM     45  N   UNL A   1      39.805  31.741  34.358  1.00  0.00    -0.248 NA
ATOM     46  C   UNL A   1      38.165  33.366  34.698  1.00  0.00     0.031 C 
ATOM     47  C   UNL A   1      37.910  30.678  30.447  1.00  0.00     0.029 A 
ATOM     48  N   UNL A   1      39.566  30.194  31.869  1.00  0.00    -0.354 N 
ATOM     49  C   UNL A   1      40.081  32.437  35.531  1.00  0.00     0.074 A 
ATOM     50  C   UNL A   1      39.070  33.463  35.659  1.00  0.00     0.031 C 
ATOM     51  C   UNL A   1      38.653  29.712  29.885  1.00  0.00     0.029 A 
ATOM     52  C   UNL A   1      39.765  29.388  30.774  1.00  0.00     0.049 A 
ATOM     53  H   UNL A   1      40.150  30.180  32.662  1.00  0.00     0.167 HD
ATOM     54  C   UNL A   1      41.066  32.220  36.435  1.00  0.00     0.034 A 
ATOM     55  C   UNL A   1      40.737  28.493  30.511  1.00  0.00     0.034 A 
ATOM     56  C   UNL A   1      42.046  31.174  36.318  1.00  0.00     0.049 A 
ATOM     57  C   UNL A   1      41.801  28.249  31.547  1.00  0.00     0.074 A 
ATOM     58  C   UNL A   1      43.036  30.820  37.216  1.00  0.00     0.029 A 
ATOM     59  N   UNL A   1      42.164  30.318  35.234  1.00  0.00    -0.354 N 
ATOM     60  N   UNL A   1      41.952  28.809  32.723  1.00  0.00    -0.248 NA
ATOM     61  C   UNL A   1      42.808  27.223  31.237  1.00  0.00     0.031 C 
ATOM     62  C   UNL A   1      43.770  29.765  36.663  1.00  0.00     0.029 A 
ATOM     63  C   UNL A   1      43.217  29.441  35.434  1.00  0.00     0.049 A 
ATOM     64  H   UNL A   1      41.585  30.332  34.438  1.00  0.00     0.167 HD
ATOM     65  C   UNL A   1      43.045  28.178  33.308  1.00  0.00     0.074 A 
ATOM     66  C   UNL A   1      43.503  27.179  32.365  1.00  0.00     0.031 C 
ATOM     67  C   UNL A   1      43.626  28.416  34.510  1.00  0.00     0.034 A 
BRANCH  54  68
ATOM     68  C   UNL A   1      41.100  33.100  37.658  1.00  0.00     0.023 A 
ATOM     69  C   UNL A   1      40.324  32.753  38.784  1.00  0.00     0.012 A 
ATOM     70  C   UNL A   1      41.937  34.231  37.720  1.00  0.00     0.148 A 
ATOM     71  C   UNL A   1      40.351  33.537  39.936  1.00  0.00     0.002 A 
ATOM     72  C   UNL A   1      41.994  34.982  38.888  1.00  0.00     0.091 A 
ATOM     73  F   UNL A   1      42.653  34.557  36.634  1.00  0.00    -0.205 F 
ATOM     74  C   UNL A   1      41.193  34.644  39.992  1.00  0.00     0.022 A 
BRANCH  72  75
ATOM     75  S   UNL A   1      43.106  36.379  39.092  1.00  0.00     0.127 S 
ATOM     76  O   UNL A   1      42.666  36.919  40.378  1.00  0.00    -0.237 OA
ATOM     77  O   UNL A   1      44.415  35.727  39.122  1.00  0.00    -0.237 OA
ATOM     78  O   UNL A   1      42.882  37.242  37.942  1.00  0.00    -0.744 OA
ENDBRANCH  72  75
ENDBRANCH  54  68
BRANCH  55  79
ATOM     79  C   UNL A   1      40.713  27.717  29.239  1.00  0.00     0.023 A 
ATOM     80  C   UNL A   1      39.783  26.671  29.084  1.00  0.00     0.012 A 
ATOM     81  C   UNL A   1      41.587  28.022  28.178  1.00  0.00     0.148 A 
ATOM     82  C   UNL A   1      39.748  25.919  27.910  1.00  0.00     0.002 A 
ATOM     83  C   UNL A   1      41.510  27.304  26.991  1.00  0.00     0.091 A 
ATOM     84  F   UNL A   1      42.473  29.014  28.348  1.00  0.00    -0.205 F 
ATOM     85  C   UNL A   1      40.604  26.240  26.861  1.00  0.00     0.022 A 
BRANCH  83  86
ATOM     86  S   UNL A   1      42.486  27.734  25.544  1.00  0.00     0.127 S 
ATOM     87  O   UNL A   1      43.826  27.851  26.112  1.00  0.00    -0.237 OA
ATOM     88  O   UNL A   1      42.281  26.570  24.682  1.00  0.00    -0.237 OA
ATOM     89  O   UNL A   1      41.903  28.967  25.032  1.00  0.00    -0.744 OA
ENDBRANCH  83  86
ENDBRANCH  55  79
BRANCH  67  90
ATOM     90  C   UNL A   1      44.798  27.554  34.902  1.00  0.00     0.023 A 
ATOM     91  C   UNL A   1      46.112  27.993  34.642  1.00  0.00     0.012 A 
ATOM     92  C   UNL A   1      44.598  26.342  35.592  1.00  0.00     0.148 A 
ATOM     93  C   UNL A   1      47.207  27.224  35.034  1.00  0.00     0.002 A 
ATOM     94  C   UNL A   1      45.694  25.606  36.025  1.00  0.00     0.091 A 
ATOM     95  F   UNL A   1      43.341  25.933  35.814  1.00  0.00    -0.205 F 
ATOM     96  C   UNL A   1      46.999  26.038  35.735  1.00  0.00     0.022 A 
BRANCH  94  97
ATOM     97  S   UNL A   1      45.525  24.120  37.019  1.00  0.00     0.127 S 
ATOM     98  O   UNL A   1      44.842  23.218  36.093  1.00  0.00    -0.237 OA
ATOM     99  O   UNL A   1      46.919  23.771  37.294  1.00  0.00    -0.237 OA
ATOM    100  O   UNL A   1      44.756  24.507  38.195  1.00  0.00    -0.744 OA
ENDBRANCH  94  97
ENDBRANCH  67  90
ENDBRANCH  41  42
ENDBRANCH  33  36
ENDBRANCH  31  32
ENDBRANCH  30  31
ENDBRANCH   1  30
TORSDOF 18
ENDMDL
MODEL 2
REMARK VINA RESULT:     -11.3      2.153      3.170
REMARK SMILES O=C(Nc1cccc(C(=O)NCCCCCCNC(=O)c2ccc(-c3c4nc(c(-c5cccc(S(=O)(=O)[O-])c5F)c5ccc([nH]5)c(-c5cccc(S(=O)(=O)[O-])c5F)c5nc(c(-c6cccc(S(=O)(=O)[O-])c6F)c6ccc3[nH]6)C=C5)C=C4)cc2)c1)Nc1cc(Cl)c(Cl)cc1Cl
REMARK SMILES IDX 15 1 14 2 13 3 12 4 11 5 9 6 10 7 8 9 4 10 5 11 84 12 6 13
REMARK SMILES IDX 7 14 3 15 1 16 2 17 85 18 86 21 87 22 93 23 88 24 92 25
REMARK SMILES IDX 94 26 89 27 90 28 91 29 16 30 17 31 18 32 19 33 20 35 21 36
REMARK SMILES IDX 22 37 83 38 23 39 82 40 24 41 25 42 26 43 76 44 27 45 81 46
REMARK SMILES IDX 75 47 77 48 28 49 80 50 74 51 73 52 29 54 61 55 41 56 60 57
REMARK SMILES IDX 42 58 45 59 59 60 78 61 43 62 44 63 58 65 79 66 46 67 30 68
REMARK SMILES IDX 31 69 39 70 32 71 34 72 40 73 33 74 35 75 36 76 37 77 38 78
REMARK SMILES IDX 62 79 63 80 71 81 64 82 66 83 72 84 65 85 67 86 68 87 69 88
REMARK SMILES IDX 70 89 47 90 48 91 56 92 49 93 51 94 57 95 50 96 52 97 53 98
REMARK SMILES IDX 54 99 55 100
REMARK H PARENT 11 8 3 19 85 20 18 34 77 53 45 64
REMARK Flexibility Score: inf
ROOT
ATOM      1  C   UNL A   1      33.627  28.823  25.487  1.00  0.00     0.002 C 
ENDROOT
BRANCH   1   2
ATOM      2  C   UNL A   1      34.065  28.652  24.026  1.00  0.00     0.002 C 
BRANCH   2   3
ATOM      3  C   UNL A   1      33.989  27.211  23.502  1.00  0.00     0.021 C 
BRANCH   3   4
ATOM      4  C   UNL A   1      33.210  27.105  22.190  1.00  0.00     0.116 C 
BRANCH   4   5
ATOM      5  N   UNL A   1      32.266  28.200  22.077  1.00  0.00    -0.352 N 
ATOM      6  C   UNL A   1      30.989  28.413  22.521  1.00  0.00     0.251 C 
ATOM      7  O   UNL A   1      30.464  29.478  22.186  1.00  0.00    -0.269 OA
ATOM      8  H   UNL A   1      32.624  28.962  21.566  1.00  0.00     0.163 HD
BRANCH   6   9
ATOM      9  C   UNL A   1      30.224  27.487  23.412  1.00  0.00     0.041 A 
ATOM     10  C   UNL A   1      29.953  25.953  25.286  1.00  0.00     0.043 A 
ATOM     11  C   UNL A   1      28.585  25.864  25.034  1.00  0.00     0.026 A 
ATOM     12  C   UNL A   1      30.769  26.694  24.423  1.00  0.00     0.040 A 
ATOM     13  C   UNL A   1      28.025  26.597  23.991  1.00  0.00     0.003 A 
ATOM     14  C   UNL A   1      28.836  27.419  23.204  1.00  0.00     0.014 A 
BRANCH  10  15
ATOM     15  N   UNL A   1      30.475  25.267  26.393  1.00  0.00    -0.308 N 
ATOM     16  O   UNL A   1      31.636  23.692  27.486  1.00  0.00    -0.248 OA
ATOM     17  C   UNL A   1      31.502  24.354  26.461  1.00  0.00     0.323 C 
ATOM     18  N   UNL A   1      32.408  24.403  25.426  1.00  0.00    -0.306 N 
ATOM     19  H   UNL A   1      30.040  25.470  27.253  1.00  0.00     0.171 HD
ATOM     20  H   UNL A   1      32.272  25.096  24.741  1.00  0.00     0.171 HD
BRANCH  18  21
ATOM     21  C   UNL A   1      33.518  23.539  25.262  1.00  0.00     0.063 A 
ATOM     22  C   UNL A   1      34.760  24.051  25.667  1.00  0.00     0.049 A 
ATOM     23  C   UNL A   1      33.473  22.251  24.699  1.00  0.00     0.066 A 
ATOM     24  C   UNL A   1      35.924  23.276  25.581  1.00  0.00     0.061 A 
ATOM     25  C   UNL A   1      34.635  21.469  24.629  1.00  0.00     0.044 A 
ATOM     26  Cl  UNL A   1      32.088  21.650  23.851  1.00  0.00    -0.082 Cl
ATOM     27  Cl  UNL A   1      37.404  24.005  26.095  1.00  0.00    -0.083 Cl
ATOM     28  C   UNL A   1      35.859  21.976  25.072  1.00  0.00     0.061 A 
ATOM     29  Cl  UNL A   1      37.262  20.990  24.879  1.00  0.00    -0.083 Cl
ENDBRANCH  18  21
ENDBRANCH  10  15
ENDBRANCH   6   9
ENDBRANCH   4   5
ENDBRANCH   3   4
ENDBRANCH   2   3
ENDBRANCH   1   2
BRANCH   1  30
ATOM     30  C   UNL A   1      32.289  29.545  25.675  1.00  0.00     0.021 C 
BRANCH  30  31
ATOM     31  C   UNL A   1      32.165  30.278  27.006  1.00  0.00     0.116 C 
BRANCH  31  32
ATOM     32  N   UNL A   1      32.316  31.716  26.831  1.00  0.00    -0.352 N 
ATOM     33  C   UNL A   1      33.245  32.563  27.381  1.00  0.00     0.251 C 
ATOM     34  H   UNL A   1      31.659  32.140  26.233  1.00  0.00     0.163 HD
ATOM     35  O   UNL A   1      33.068  33.776  27.340  1.00  0.00    -0.269 OA
BRANCH  33  36
ATOM     36  C   UNL A   1      34.455  32.005  28.017  1.00  0.00     0.039 A 
ATOM     37  C   UNL A   1      35.594  32.804  28.129  1.00  0.00     0.014 A 
ATOM     38  C   UNL A   1      34.467  30.686  28.482  1.00  0.00     0.014 A 
ATOM     39  C   UNL A   1      36.735  32.293  28.751  1.00  0.00     0.010 A 
ATOM     40  C   UNL A   1      35.578  30.205  29.165  1.00  0.00     0.010 A 
ATOM     41  C   UNL A   1      36.728  30.998  29.295  1.00  0.00    -0.014 A 
BRANCH  41  42
ATOM     42  C   UNL A   1      37.911  30.454  30.004  1.00  0.00     0.031 A 
ATOM     43  C   UNL A   1      38.240  30.919  31.397  1.00  0.00     0.074 A 
ATOM     44  C   UNL A   1      38.734  29.603  29.361  1.00  0.00     0.049 A 
ATOM     45  N   UNL A   1      39.257  30.600  32.154  1.00  0.00    -0.248 NA
ATOM     46  C   UNL A   1      37.319  31.891  32.011  1.00  0.00     0.031 C 
ATOM     47  C   UNL A   1      38.564  29.139  27.982  1.00  0.00     0.029 A 
ATOM     48  N   UNL A   1      39.895  28.998  29.772  1.00  0.00    -0.354 N 
ATOM     49  C   UNL A   1      39.118  31.352  33.316  1.00  0.00     0.074 A 
ATOM     50  C   UNL A   1      37.938  32.171  33.148  1.00  0.00     0.031 C 
ATOM     51  C   UNL A   1      39.579  28.322  27.663  1.00  0.00     0.029 A 
ATOM     52  C   UNL A   1      40.489  28.227  28.801  1.00  0.00     0.049 A 
ATOM     53  H   UNL A   1      40.268  29.106  30.677  1.00  0.00     0.167 HD
ATOM     54  C   UNL A   1      39.884  31.339  34.433  1.00  0.00     0.034 A 
ATOM     55  C   UNL A   1      41.640  27.528  28.822  1.00  0.00     0.034 A 
ATOM     56  C   UNL A   1      41.035  30.495  34.606  1.00  0.00     0.049 A 
ATOM     57  C   UNL A   1      42.455  27.504  30.087  1.00  0.00     0.074 A 
ATOM     58  C   UNL A   1      41.832  30.347  35.726  1.00  0.00     0.029 A 
ATOM     59  N   UNL A   1      41.558  29.660  33.630  1.00  0.00    -0.354 N 
ATOM     60  N   UNL A   1      42.221  28.100  31.232  1.00  0.00    -0.248 NA
ATOM     61  C   UNL A   1      43.674  26.682  30.077  1.00  0.00     0.031 C 
ATOM     62  C   UNL A   1      42.853  29.441  35.420  1.00  0.00     0.029 A 
ATOM     63  C   UNL A   1      42.673  29.000  34.119  1.00  0.00     0.049 A 
ATOM     64  H   UNL A   1      41.191  29.552  32.723  1.00  0.00     0.167 HD
ATOM     65  C   UNL A   1      43.239  27.695  32.088  1.00  0.00     0.074 A 
ATOM     66  C   UNL A   1      44.079  26.786  31.335  1.00  0.00     0.031 C 
ATOM     67  C   UNL A   1      43.467  28.056  33.375  1.00  0.00     0.034 A 
BRANCH  54  68
ATOM     68  C   UNL A   1      39.469  32.228  35.577  1.00  0.00     0.023 A 
ATOM     69  C   UNL A   1      38.646  31.706  36.597  1.00  0.00     0.012 A 
ATOM     70  C   UNL A   1      39.935  33.553  35.677  1.00  0.00     0.148 A 
ATOM     71  C   UNL A   1      38.263  32.499  37.678  1.00  0.00     0.002 A 
ATOM     72  C   UNL A   1      39.587  34.323  36.781  1.00  0.00     0.091 A 
ATOM     73  F   UNL A   1      40.700  34.038  34.689  1.00  0.00    -0.205 F 
ATOM     74  C   UNL A   1      38.742  33.802  37.775  1.00  0.00     0.022 A 
BRANCH  72  75
ATOM     75  S   UNL A   1      40.215  35.986  37.041  1.00  0.00     0.127 S 
ATOM     76  O   UNL A   1      41.654  35.744  37.143  1.00  0.00    -0.237 OA
ATOM     77  O   UNL A   1      39.798  36.668  35.816  1.00  0.00    -0.237 OA
ATOM     78  O   UNL A   1      39.577  36.472  38.256  1.00  0.00    -0.744 OA
ENDBRANCH  72  75
ENDBRANCH  54  68
BRANCH  55  79
ATOM     79  C   UNL A   1      42.057  26.742  27.626  1.00  0.00     0.023 A 
ATOM     80  C   UNL A   1      42.746  27.386  26.581  1.00  0.00     0.012 A 
ATOM     81  C   UNL A   1      41.794  25.362  27.528  1.00  0.00     0.148 A 
ATOM     82  C   UNL A   1      43.136  26.679  25.444  1.00  0.00     0.002 A 
ATOM     83  C   UNL A   1      42.233  24.652  26.417  1.00  0.00     0.091 A 
ATOM     84  F   UNL A   1      41.128  24.768  28.528  1.00  0.00    -0.205 F 
ATOM     85  C   UNL A   1      42.888  25.311  25.365  1.00  0.00     0.022 A 
BRANCH  83  86
ATOM     86  S   UNL A   1      42.070  22.867  26.293  1.00  0.00     0.127 S 
ATOM     87  O   UNL A   1      42.805  22.417  27.472  1.00  0.00    -0.237 OA
ATOM     88  O   UNL A   1      40.620  22.688  26.366  1.00  0.00    -0.237 OA
ATOM     89  O   UNL A   1      42.653  22.509  25.006  1.00  0.00    -0.744 OA
ENDBRANCH  83  86
ENDBRANCH  55  79
BRANCH  67  90
ATOM     90  C   UNL A   1      44.649  27.436  34.075  1.00  0.00     0.023 A 
ATOM     91  C   UNL A   1      45.903  28.077  34.038  1.00  0.00     0.012 A 
ATOM     92  C   UNL A   1      44.496  26.258  34.831  1.00  0.00     0.148 A 
ATOM     93  C   UNL A   1      46.996  27.535  34.714  1.00  0.00     0.002 A 
ATOM     94  C   UNL A   1      45.576  25.751  35.544  1.00  0.00     0.091 A 
ATOM     95  F   UNL A   1      43.299  25.653  34.840  1.00  0.00    -0.205 F 
ATOM     96  C   UNL A   1      46.830  26.380  35.475  1.00  0.00     0.022 A 
BRANCH  94  97
ATOM     97  S   UNL A   1      45.432  24.328  36.630  1.00  0.00     0.127 S 
ATOM     98  O   UNL A   1      46.792  24.212  37.153  1.00  0.00    -0.237 OA
ATOM     99  O   UNL A   1      44.439  24.782  37.605  1.00  0.00    -0.237 OA
ATOM    100  O   UNL A   1      44.991  23.223  35.789  1.00  0.00    -0.744 OA
ENDBRANCH  94  97
ENDBRANCH  67  90
ENDBRANCH  41  42
ENDBRANCH  33  36
ENDBRANCH  31  32
ENDBRANCH  30  31
ENDBRANCH   1  30
TORSDOF 18
ENDMDL
MODEL 3
REMARK VINA RESULT:     -11.3      5.511     10.323
REMARK SMILES O=C(Nc1cccc(C(=O)NCCCCCCNC(=O)c2ccc(-c3c4nc(c(-c5cccc(S(=O)(=O)[O-])c5F)c5ccc([nH]5)c(-c5cccc(S(=O)(=O)[O-])c5F)c5nc(c(-c6cccc(S(=O)(=O)[O-])c6F)c6ccc3[nH]6)C=C5)C=C4)cc2)c1)Nc1cc(Cl)c(Cl)cc1Cl
REMARK SMILES IDX 15 1 14 2 13 3 12 4 11 5 9 6 10 7 8 9 4 10 5 11 84 12 6 13
REMARK SMILES IDX 7 14 3 15 1 16 2 17 85 18 86 21 87 22 93 23 88 24 92 25
REMARK SMILES IDX 94 26 89 27 90 28 91 29 16 30 17 31 18 32 19 33 20 35 21 36
REMARK SMILES IDX 22 37 83 38 23 39 82 40 24 41 25 42 26 43 76 44 27 45 81 46
REMARK SMILES IDX 75 47 77 48 28 49 80 50 74 51 73 52 29 54 61 55 41 56 60 57
REMARK SMILES IDX 42 58 45 59 59 60 78 61 43 62 44 63 58 65 79 66 46 67 30 68
REMARK SMILES IDX 31 69 39 70 32 71 34 72 40 73 33 74 35 75 36 76 37 77 38 78
REMARK SMILES IDX 62 79 63 80 71 81 64 82 66 83 72 84 65 85 67 86 68 87 69 88
REMARK SMILES IDX 70 89 47 90 48 91 56 92 49 93 51 94 57 95 50 96 52 97 53 98
REMARK SMILES IDX 54 99 55 100
REMARK H PARENT 11 8 3 19 85 20 18 34 77 53 45 64
REMARK Flexibility Score: inf
ROOT
ATOM      1  C   UNL A   1      34.720  22.633  24.467  1.00  0.00     0.002 C 
ENDROOT
BRANCH   1   2
ATOM      2  C   UNL A   1      34.781  21.164  24.908  1.00  0.00     0.002 C 
BRANCH   2   3
ATOM      3  C   UNL A   1      33.868  20.816  26.092  1.00  0.00     0.021 C 
BRANCH   3   4
ATOM      4  C   UNL A   1      33.850  21.910  27.160  1.00  0.00     0.116 C 
BRANCH   4   5
ATOM      5  N   UNL A   1      32.484  22.226  27.531  1.00  0.00    -0.352 N 
ATOM      6  C   UNL A   1      31.499  23.004  26.986  1.00  0.00     0.251 C 
ATOM      7  O   UNL A   1      30.444  23.075  27.621  1.00  0.00    -0.269 OA
ATOM      8  H   UNL A   1      32.202  21.780  28.363  1.00  0.00     0.163 HD
BRANCH   6   9
ATOM      9  C   UNL A   1      31.593  23.714  25.673  1.00  0.00     0.041 A 
ATOM     10  C   UNL A   1      32.316  25.498  24.179  1.00  0.00     0.043 A 
ATOM     11  C   UNL A   1      31.739  24.842  23.093  1.00  0.00     0.026 A 
ATOM     12  C   UNL A   1      32.164  24.971  25.467  1.00  0.00     0.040 A 
ATOM     13  C   UNL A   1      31.109  23.615  23.283  1.00  0.00     0.003 A 
ATOM     14  C   UNL A   1      31.060  23.047  24.558  1.00  0.00     0.014 A 
BRANCH  10  15
ATOM     15  N   UNL A   1      33.013  26.693  23.945  1.00  0.00    -0.308 N 
ATOM     16  O   UNL A   1      33.320  28.804  23.258  1.00  0.00    -0.248 OA
ATOM     17  C   UNL A   1      32.537  27.954  23.670  1.00  0.00     0.323 C 
ATOM     18  N   UNL A   1      31.241  28.197  24.067  1.00  0.00    -0.306 N 
ATOM     19  H   UNL A   1      33.994  26.617  23.983  1.00  0.00     0.171 HD
ATOM     20  H   UNL A   1      30.771  27.472  24.537  1.00  0.00     0.171 HD
BRANCH  18  21
ATOM     21  C   UNL A   1      30.528  29.401  23.855  1.00  0.00     0.063 A 
ATOM     22  C   UNL A   1      29.761  29.463  22.681  1.00  0.00     0.049 A 
ATOM     23  C   UNL A   1      30.561  30.528  24.697  1.00  0.00     0.066 A 
ATOM     24  C   UNL A   1      28.988  30.593  22.382  1.00  0.00     0.061 A 
ATOM     25  C   UNL A   1      29.773  31.651  24.405  1.00  0.00     0.044 A 
ATOM     26  Cl  UNL A   1      31.721  30.709  25.969  1.00  0.00    -0.082 Cl
ATOM     27  Cl  UNL A   1      28.092  30.573  20.904  1.00  0.00    -0.083 Cl
ATOM     28  C   UNL A   1      28.985  31.685  23.253  1.00  0.00     0.061 A 
ATOM     29  Cl  UNL A   1      28.108  33.132  22.914  1.00  0.00    -0.083 Cl
ENDBRANCH  18  21
ENDBRANCH  10  15
ENDBRANCH   6   9
ENDBRANCH   4   5
ENDBRANCH   3   4
ENDBRANCH   2   3
ENDBRANCH   1   2
BRANCH   1  30
ATOM     30  C   UNL A   1      36.082  23.324  24.348  1.00  0.00     0.021 C 
BRANCH  30  31
ATOM     31  C   UNL A   1      36.767  23.574  25.687  1.00  0.00     0.116 C 
BRANCH  31  32
ATOM     32  N   UNL A   1      37.731  22.524  25.989  1.00  0.00    -0.352 N 
ATOM     33  C   UNL A   1      39.038  22.637  26.389  1.00  0.00     0.251 C 
ATOM     34  H   UNL A   1      37.396  21.603  25.892  1.00  0.00     0.163 HD
ATOM     35  O   UNL A   1      39.780  21.661  26.342  1.00  0.00    -0.269 OA
BRANCH  33  36
ATOM     36  C   UNL A   1      39.542  23.936  26.878  1.00  0.00     0.039 A 
ATOM     37  C   UNL A   1      40.043  24.860  25.958  1.00  0.00     0.014 A 
ATOM     38  C   UNL A   1      39.536  24.230  28.244  1.00  0.00     0.014 A 
ATOM     39  C   UNL A   1      40.500  26.100  26.408  1.00  0.00     0.010 A 
ATOM     40  C   UNL A   1      39.922  25.492  28.681  1.00  0.00     0.010 A 
ATOM     41  C   UNL A   1      40.420  26.435  27.770  1.00  0.00    -0.014 A 
BRANCH  41  42
ATOM     42  C   UNL A   1      40.852  27.766  28.263  1.00  0.00     0.031 A 
ATOM     43  C   UNL A   1      42.317  28.084  28.401  1.00  0.00     0.074 A 
ATOM     44  C   UNL A   1      39.923  28.657  28.662  1.00  0.00     0.049 A 
ATOM     45  N   UNL A   1      42.884  29.168  28.862  1.00  0.00    -0.248 NA
ATOM     46  C   UNL A   1      43.269  27.037  27.993  1.00  0.00     0.031 C 
ATOM     47  C   UNL A   1      38.475  28.434  28.648  1.00  0.00     0.029 A 
ATOM     48  N   UNL A   1      40.059  29.918  29.183  1.00  0.00    -0.354 N 
ATOM     49  C   UNL A   1      44.253  28.923  28.831  1.00  0.00     0.074 A 
ATOM     50  C   UNL A   1      44.428  27.574  28.340  1.00  0.00     0.031 C 
ATOM     51  C   UNL A   1      37.858  29.521  29.136  1.00  0.00     0.029 A 
ATOM     52  C   UNL A   1      38.864  30.505  29.524  1.00  0.00     0.049 A 
ATOM     53  H   UNL A   1      40.931  30.361  29.302  1.00  0.00     0.167 HD
ATOM     54  C   UNL A   1      45.272  29.757  29.151  1.00  0.00     0.034 A 
ATOM     55  C   UNL A   1      38.607  31.699  30.093  1.00  0.00     0.034 A 
ATOM     56  C   UNL A   1      45.090  31.109  29.604  1.00  0.00     0.049 A 
ATOM     57  C   UNL A   1      39.756  32.618  30.408  1.00  0.00     0.074 A 
ATOM     58  C   UNL A   1      46.055  32.061  29.879  1.00  0.00     0.029 A 
ATOM     59  N   UNL A   1      43.861  31.701  29.856  1.00  0.00    -0.354 N 
ATOM     60  N   UNL A   1      41.040  32.428  30.223  1.00  0.00    -0.248 NA
ATOM     61  C   UNL A   1      39.419  33.932  30.976  1.00  0.00     0.031 C 
ATOM     62  C   UNL A   1      45.410  33.221  30.321  1.00  0.00     0.029 A 
ATOM     63  C   UNL A   1      44.042  33.003  30.291  1.00  0.00     0.049 A 
ATOM     64  H   UNL A   1      42.988  31.260  29.742  1.00  0.00     0.167 HD
ATOM     65  C   UNL A   1      41.661  33.610  30.614  1.00  0.00     0.074 A 
ATOM     66  C   UNL A   1      40.608  34.516  31.026  1.00  0.00     0.031 C 
ATOM     67  C   UNL A   1      42.982  33.911  30.645  1.00  0.00     0.034 A 
BRANCH  54  68
ATOM     68  C   UNL A   1      46.678  29.245  28.970  1.00  0.00     0.023 A 
ATOM     69  C   UNL A   1      47.416  28.834  30.100  1.00  0.00     0.012 A 
ATOM     70  C   UNL A   1      47.247  29.113  27.689  1.00  0.00     0.148 A 
ATOM     71  C   UNL A   1      48.712  28.337  29.961  1.00  0.00     0.002 A 
ATOM     72  C   UNL A   1      48.521  28.574  27.555  1.00  0.00     0.091 A 
ATOM     73  F   UNL A   1      46.538  29.526  26.629  1.00  0.00    -0.205 F 
ATOM     74  C   UNL A   1      49.259  28.197  28.690  1.00  0.00     0.022 A 
BRANCH  72  75
ATOM     75  S   UNL A   1      49.286  28.276  25.956  1.00  0.00     0.127 S 
ATOM     76  O   UNL A   1      50.210  29.405  25.857  1.00  0.00    -0.237 OA
ATOM     77  O   UNL A   1      49.931  26.979  26.161  1.00  0.00    -0.237 OA
ATOM     78  O   UNL A   1      48.201  28.270  24.986  1.00  0.00    -0.744 OA
ENDBRANCH  72  75
ENDBRANCH  54  68
BRANCH  55  79
ATOM     79  C   UNL A   1      37.198  32.118  30.342  1.00  0.00     0.023 A 
ATOM     80  C   UNL A   1      36.605  31.842  31.589  1.00  0.00     0.012 A 
ATOM     81  C   UNL A   1      36.453  32.804  29.363  1.00  0.00     0.148 A 
ATOM     82  C   UNL A   1      35.284  32.210  31.845  1.00  0.00     0.002 A 
ATOM     83  C   UNL A   1      35.156  33.215  29.644  1.00  0.00     0.091 A 
ATOM     84  F   UNL A   1      37.031  33.048  28.179  1.00  0.00    -0.205 F 
ATOM     85  C   UNL A   1      34.562  32.904  30.877  1.00  0.00     0.022 A 
BRANCH  83  86
ATOM     86  S   UNL A   1      34.202  34.225  28.505  1.00  0.00     0.127 S 
ATOM     87  O   UNL A   1      34.203  33.398  27.300  1.00  0.00    -0.237 OA
ATOM     88  O   UNL A   1      32.911  34.317  29.187  1.00  0.00    -0.237 OA
ATOM     89  O   UNL A   1      34.919  35.489  28.408  1.00  0.00    -0.744 OA
ENDBRANCH  83  86
ENDBRANCH  55  79
BRANCH  67  90
ATOM     90  C   UNL A   1      43.373  35.294  31.100  1.00  0.00     0.023 A 
ATOM     91  C   UNL A   1      43.685  35.526  32.454  1.00  0.00     0.012 A 
ATOM     92  C   UNL A   1      43.502  36.344  30.170  1.00  0.00     0.148 A 
ATOM     93  C   UNL A   1      44.086  36.792  32.881  1.00  0.00     0.002 A 
ATOM     94  C   UNL A   1      43.951  37.589  30.593  1.00  0.00     0.091 A 
ATOM     95  F   UNL A   1      43.183  36.107  28.889  1.00  0.00    -0.205 F 
ATOM     96  C   UNL A   1      44.230  37.818  31.950  1.00  0.00     0.022 A 
BRANCH  94  97
ATOM     97  S   UNL A   1      44.262  38.940  29.452  1.00  0.00     0.127 S 
ATOM     98  O   UNL A   1      43.516  40.033  30.074  1.00  0.00    -0.237 OA
ATOM     99  O   UNL A   1      45.717  39.077  29.523  1.00  0.00    -0.237 OA
ATOM    100  O   UNL A   1      43.759  38.499  28.158  1.00  0.00    -0.744 OA
ENDBRANCH  94  97
ENDBRANCH  67  90
ENDBRANCH  41  42
ENDBRANCH  33  36
ENDBRANCH  31  32
ENDBRANCH  30  31
ENDBRANCH   1  30
TORSDOF 18
ENDMDL
