MODEL 1
REMARK VINA RESULT:     -11.6      0.000      0.000
REMARK SMILES C[C@@H]1[NH2+]CC[C@H]1C(=O)NCc1cccc(C(=O)NCCCCCCNC(=O)c2ccc(-c3c4nc(c(-c5cccc(S(=O)(=O)[O-])c5F)c5ccc([nH]5)c(-c5cccc(S(=O)(=O)[O-])c5F)c5nc(c(-c6cccc(S(=O)(=O)[O-])c6F)c6ccc3[nH]6)C=C5)C=C4)cc2)c1
REMARK SMILES IDX 21 1 20 2 19 3 18 4 16 5 17 6 15 8 11 9 12 10 91 11 13 12
REMARK SMILES IDX 14 13 10 14 9 15 7 16 8 17 6 19 1 20 2 21 3 22 4 23 5 26
REMARK SMILES IDX 22 27 23 28 24 29 25 30 26 31 27 33 28 34 29 35 90 36 30 37
REMARK SMILES IDX 89 38 31 39 32 40 33 41 83 42 34 43 88 44 82 45 84 46 35 47
REMARK SMILES IDX 87 48 81 49 80 50 36 52 68 53 48 54 67 55 49 56 52 57 66 58
REMARK SMILES IDX 85 59 50 60 51 61 65 63 86 64 53 65 37 66 38 67 46 68 39 69
REMARK SMILES IDX 41 70 47 71 40 72 42 73 43 74 44 75 45 76 69 77 70 78 78 79
REMARK SMILES IDX 71 80 73 81 79 82 72 83 74 84 75 85 76 86 77 87 54 88 55 89
REMARK SMILES IDX 63 90 56 91 58 92 64 93 57 94 59 95 60 96 61 97 62 98
REMARK H PARENT 18 7 9 18 3 24 3 25 25 32 84 51 52 62
REMARK Flexibility Score: inf
ROOT
ATOM      1  C   UNL A   1      35.655  23.958  25.324  1.00  0.00     0.002 C 
ENDROOT
BRANCH   1   2
ATOM      2  C   UNL A   1      34.566  24.729  24.584  1.00  0.00     0.021 C 
BRANCH   2   3
ATOM      3  C   UNL A   1      34.293  24.309  23.146  1.00  0.00     0.116 C 
BRANCH   3   4
ATOM      4  N   UNL A   1      33.570  23.055  22.992  1.00  0.00    -0.352 N 
ATOM      5  C   UNL A   1      32.269  22.708  23.306  1.00  0.00     0.251 C 
ATOM      6  O   UNL A   1      31.892  21.562  23.063  1.00  0.00    -0.269 OA
ATOM      7  H   UNL A   1      34.100  22.327  22.595  1.00  0.00     0.163 HD
BRANCH   5   8
ATOM      8  C   UNL A   1      31.343  23.640  24.015  1.00  0.00     0.040 A 
ATOM      9  C   UNL A   1      30.140  25.749  24.056  1.00  0.00    -0.028 A 
ATOM     10  C   UNL A   1      30.050  25.663  25.451  1.00  0.00     0.005 A 
ATOM     11  C   UNL A   1      30.646  24.648  23.354  1.00  0.00     0.019 A 
ATOM     12  C   UNL A   1      30.554  24.547  26.120  1.00  0.00     0.001 A 
ATOM     13  C   UNL A   1      31.246  23.564  25.409  1.00  0.00     0.014 A 
BRANCH   9  14
ATOM     14  C   UNL A   1      29.880  27.069  23.366  1.00  0.00     0.151 C 
BRANCH  14  15
ATOM     15  N   UNL A   1      31.078  27.705  22.860  1.00  0.00    -0.352 N 
ATOM     16  C   UNL A   1      31.981  28.525  23.454  1.00  0.00     0.229 C 
ATOM     17  O   UNL A   1      32.793  29.074  22.706  1.00  0.00    -0.275 OA
ATOM     18  H   UNL A   1      31.272  27.506  21.916  1.00  0.00     0.163 HD
BRANCH  16  19
ATOM     19  C   UNL A   1      31.998  28.761  24.955  1.00  0.00     0.142 C 
ATOM     20  C   UNL A   1      33.572  27.578  26.553  1.00  0.00     0.076 C 
ATOM     21  C   UNL A   1      33.403  28.722  25.557  1.00  0.00     0.192 C 
ATOM     22  N   UNL A   1      33.626  30.003  26.255  1.00  0.00    -0.343 N 
ATOM     23  C   UNL A   1      32.323  30.650  26.418  1.00  0.00     0.261 C 
ATOM     24  H   UNL A   1      34.243  30.598  25.703  1.00  0.00     0.346 HD
ATOM     25  H   UNL A   1      34.066  29.845  27.163  1.00  0.00     0.346 HD
ATOM     26  C   UNL A   1      31.395  30.100  25.353  1.00  0.00     0.081 C 
ENDBRANCH  16  19
ENDBRANCH  14  15
ENDBRANCH   9  14
ENDBRANCH   5   8
ENDBRANCH   3   4
ENDBRANCH   2   3
ENDBRANCH   1   2
BRANCH   1  27
ATOM     27  C   UNL A   1      35.187  22.763  26.157  1.00  0.00     0.002 C 
BRANCH  27  28
ATOM     28  C   UNL A   1      35.807  21.408  25.811  1.00  0.00     0.021 C 
BRANCH  28  29
ATOM     29  C   UNL A   1      37.124  21.457  25.042  1.00  0.00     0.116 C 
BRANCH  29  30
ATOM     30  N   UNL A   1      38.065  20.435  25.474  1.00  0.00    -0.352 N 
ATOM     31  C   UNL A   1      39.305  20.575  26.050  1.00  0.00     0.251 C 
ATOM     32  H   UNL A   1      37.769  19.507  25.334  1.00  0.00     0.163 HD
ATOM     33  O   UNL A   1      40.025  19.595  26.196  1.00  0.00    -0.269 OA
BRANCH  31  34
ATOM     34  C   UNL A   1      39.775  21.912  26.477  1.00  0.00     0.039 A 
ATOM     35  C   UNL A   1      40.850  21.998  27.366  1.00  0.00     0.014 A 
ATOM     36  C   UNL A   1      39.159  23.074  26.007  1.00  0.00     0.014 A 
ATOM     37  C   UNL A   1      41.347  23.250  27.733  1.00  0.00     0.010 A 
ATOM     38  C   UNL A   1      39.704  24.320  26.314  1.00  0.00     0.010 A 
ATOM     39  C   UNL A   1      40.801  24.422  27.181  1.00  0.00    -0.014 A 
BRANCH  39  40
ATOM     40  C   UNL A   1      41.377  25.759  27.483  1.00  0.00     0.031 A 
ATOM     41  C   UNL A   1      42.799  26.077  27.110  1.00  0.00     0.074 A 
ATOM     42  C   UNL A   1      40.645  26.657  28.173  1.00  0.00     0.049 A 
ATOM     43  N   UNL A   1      43.490  27.162  27.346  1.00  0.00    -0.248 NA
ATOM     44  C   UNL A   1      43.553  25.031  26.402  1.00  0.00     0.031 C 
ATOM     45  C   UNL A   1      39.279  26.442  28.655  1.00  0.00     0.029 A 
ATOM     46  N   UNL A   1      40.956  27.920  28.612  1.00  0.00    -0.354 N 
ATOM     47  C   UNL A   1      44.765  26.919  26.849  1.00  0.00     0.074 A 
ATOM     48  C   UNL A   1      44.762  25.569  26.328  1.00  0.00     0.031 C 
ATOM     49  C   UNL A   1      38.868  27.534  29.317  1.00  0.00     0.029 A 
ATOM     50  C   UNL A   1      39.950  28.513  29.340  1.00  0.00     0.049 A 
ATOM     51  H   UNL A   1      41.815  28.359  28.424  1.00  0.00     0.167 HD
ATOM     52  C   UNL A   1      45.833  27.750  26.804  1.00  0.00     0.034 A 
ATOM     53  C   UNL A   1      39.908  29.704  29.969  1.00  0.00     0.034 A 
ATOM     54  C   UNL A   1      45.823  29.101  27.297  1.00  0.00     0.049 A 
ATOM     55  C   UNL A   1      41.103  30.615  29.891  1.00  0.00     0.074 A 
ATOM     56  C   UNL A   1      46.828  30.050  27.224  1.00  0.00     0.029 A 
ATOM     57  N   UNL A   1      44.763  29.692  27.968  1.00  0.00    -0.354 N 
ATOM     58  N   UNL A   1      42.249  30.424  29.283  1.00  0.00    -0.248 NA
ATOM     59  C   UNL A   1      40.989  31.919  30.559  1.00  0.00     0.031 C 
ATOM     60  C   UNL A   1      46.388  31.203  27.884  1.00  0.00     0.029 A 
ATOM     61  C   UNL A   1      45.095  30.987  28.331  1.00  0.00     0.049 A 
ATOM     62  H   UNL A   1      43.902  29.256  28.158  1.00  0.00     0.167 HD
ATOM     63  C   UNL A   1      42.976  31.595  29.461  1.00  0.00     0.074 A 
ATOM     64  C   UNL A   1      42.133  32.498  30.219  1.00  0.00     0.031 C 
ATOM     65  C   UNL A   1      44.231  31.892  29.045  1.00  0.00     0.034 A 
BRANCH  52  66
ATOM     66  C   UNL A   1      47.097  27.232  26.165  1.00  0.00     0.023 A 
ATOM     67  C   UNL A   1      47.337  27.471  24.796  1.00  0.00     0.012 A 
ATOM     68  C   UNL A   1      48.071  26.555  26.927  1.00  0.00     0.148 A 
ATOM     69  C   UNL A   1      48.503  27.011  24.185  1.00  0.00     0.002 A 
ATOM     70  C   UNL A   1      49.252  26.142  26.322  1.00  0.00     0.091 A 
ATOM     71  F   UNL A   1      47.819  26.320  28.221  1.00  0.00    -0.205 F 
ATOM     72  C   UNL A   1      49.464  26.355  24.950  1.00  0.00     0.022 A 
BRANCH  70  73
ATOM     73  S   UNL A   1      50.588  25.362  27.236  1.00  0.00     0.127 S 
ATOM     74  O   UNL A   1      50.977  26.428  28.158  1.00  0.00    -0.237 OA
ATOM     75  O   UNL A   1      49.910  24.228  27.865  1.00  0.00    -0.237 OA
ATOM     76  O   UNL A   1      51.592  24.997  26.246  1.00  0.00    -0.744 OA
ENDBRANCH  70  73
ENDBRANCH  52  66
BRANCH  53  77
ATOM     77  C   UNL A   1      38.669  30.129  30.681  1.00  0.00     0.023 A 
ATOM     78  C   UNL A   1      38.511  29.815  32.045  1.00  0.00     0.012 A 
ATOM     79  C   UNL A   1      37.659  30.858  30.022  1.00  0.00     0.148 A 
ATOM     80  C   UNL A   1      37.358  30.191  32.733  1.00  0.00     0.002 A 
ATOM     81  C   UNL A   1      36.537  31.277  30.727  1.00  0.00     0.091 A 
ATOM     82  F   UNL A   1      37.825  31.140  28.723  1.00  0.00    -0.205 F 
ATOM     83  C   UNL A   1      36.376  30.928  32.078  1.00  0.00     0.022 A 
BRANCH  81  84
ATOM     84  S   UNL A   1      35.277  32.332  30.003  1.00  0.00     0.127 S 
ATOM     85  O   UNL A   1      34.361  32.517  31.126  1.00  0.00    -0.237 OA
ATOM     86  O   UNL A   1      36.053  33.518  29.639  1.00  0.00    -0.237 OA
ATOM     87  O   UNL A   1      34.741  31.590  28.871  1.00  0.00    -0.744 OA
ENDBRANCH  81  84
ENDBRANCH  53  77
BRANCH  65  88
ATOM     88  C   UNL A   1      44.767  33.266  29.357  1.00  0.00     0.023 A 
ATOM     89  C   UNL A   1      45.449  33.499  30.568  1.00  0.00     0.012 A 
ATOM     90  C   UNL A   1      44.659  34.308  28.414  1.00  0.00     0.148 A 
ATOM     91  C   UNL A   1      45.986  34.755  30.849  1.00  0.00     0.002 A 
ATOM     92  C   UNL A   1      45.243  35.541  28.677  1.00  0.00     0.091 A 
ATOM     93  F   UNL A   1      43.992  34.071  27.275  1.00  0.00    -0.205 F 
ATOM     94  C   UNL A   1      45.895  35.770  29.899  1.00  0.00     0.022 A 
BRANCH  92  95
ATOM     95  S   UNL A   1      45.264  36.875  27.476  1.00  0.00     0.127 S 
ATOM     96  O   UNL A   1      43.835  37.103  27.259  1.00  0.00    -0.237 OA
ATOM     97  O   UNL A   1      45.947  37.940  28.210  1.00  0.00    -0.237 OA
ATOM     98  O   UNL A   1      45.995  36.370  26.322  1.00  0.00    -0.744 OA
ENDBRANCH  92  95
ENDBRANCH  65  88
ENDBRANCH  39  40
ENDBRANCH  31  34
ENDBRANCH  29  30
ENDBRANCH  28  29
ENDBRANCH  27  28
ENDBRANCH   1  27
TORSDOF 19
ENDMDL
MODEL 2
REMARK VINA RESULT:     -11.5      1.863      7.809
REMARK SMILES C[C@@H]1[NH2+]CC[C@H]1C(=O)NCc1cccc(C(=O)NCCCCCCNC(=O)c2ccc(-c3c4nc(c(-c5cccc(S(=O)(=O)[O-])c5F)c5ccc([nH]5)c(-c5cccc(S(=O)(=O)[O-])c5F)c5nc(c(-c6cccc(S(=O)(=O)[O-])c6F)c6ccc3[nH]6)C=C5)C=C4)cc2)c1
REMARK SMILES IDX 21 1 20 2 19 3 18 4 16 5 17 6 15 8 11 9 12 10 91 11 13 12
REMARK SMILES IDX 14 13 10 14 9 15 7 16 8 17 6 19 1 20 2 21 3 22 4 23 5 26
REMARK SMILES IDX 22 27 23 28 24 29 25 30 26 31 27 33 28 34 29 35 90 36 30 37
REMARK SMILES IDX 89 38 31 39 32 40 33 41 83 42 34 43 88 44 82 45 84 46 35 47
REMARK SMILES IDX 87 48 81 49 80 50 36 52 68 53 48 54 67 55 49 56 52 57 66 58
REMARK SMILES IDX 85 59 50 60 51 61 65 63 86 64 53 65 37 66 38 67 46 68 39 69
REMARK SMILES IDX 41 70 47 71 40 72 42 73 43 74 44 75 45 76 69 77 70 78 78 79
REMARK SMILES IDX 71 80 73 81 79 82 72 83 74 84 75 85 76 86 77 87 54 88 55 89
REMARK SMILES IDX 63 90 56 91 58 92 64 93 57 94 59 95 60 96 61 97 62 98
REMARK H PARENT 18 7 9 18 3 24 3 25 25 32 84 51 52 62
REMARK Flexibility Score: inf
ROOT
ATOM      1  C   UNL A   1      33.442  21.219  24.723  1.00  0.00     0.002 C 
ENDROOT
BRANCH   1   2
ATOM      2  C   UNL A   1      32.390  21.304  23.621  1.00  0.00     0.021 C 
BRANCH   2   3
ATOM      3  C   UNL A   1      31.786  22.677  23.362  1.00  0.00     0.116 C 
BRANCH   3   4
ATOM      4  N   UNL A   1      32.460  23.469  22.344  1.00  0.00    -0.352 N 
ATOM      5  C   UNL A   1      33.063  24.712  22.405  1.00  0.00     0.251 C 
ATOM      6  O   UNL A   1      33.579  25.166  21.384  1.00  0.00    -0.269 OA
ATOM      7  H   UNL A   1      32.491  23.047  21.455  1.00  0.00     0.163 HD
BRANCH   5   8
ATOM      8  C   UNL A   1      33.023  25.558  23.635  1.00  0.00     0.040 A 
ATOM      9  C   UNL A   1      32.562  27.703  24.674  1.00  0.00    -0.028 A 
ATOM     10  C   UNL A   1      33.394  27.356  25.745  1.00  0.00     0.005 A 
ATOM     11  C   UNL A   1      32.267  26.724  23.717  1.00  0.00     0.019 A 
ATOM     12  C   UNL A   1      33.994  26.097  25.790  1.00  0.00     0.001 A 
ATOM     13  C   UNL A   1      33.851  25.221  24.712  1.00  0.00     0.014 A 
BRANCH   9  14
ATOM     14  C   UNL A   1      32.165  29.148  24.468  1.00  0.00     0.151 C 
BRANCH  14  15
ATOM     15  N   UNL A   1      31.736  29.444  23.117  1.00  0.00    -0.352 N 
ATOM     16  C   UNL A   1      30.504  29.463  22.549  1.00  0.00     0.229 C 
ATOM     17  O   UNL A   1      30.473  29.554  21.320  1.00  0.00    -0.275 OA
ATOM     18  H   UNL A   1      32.469  29.671  22.502  1.00  0.00     0.163 HD
BRANCH  16  19
ATOM     19  C   UNL A   1      29.229  29.377  23.371  1.00  0.00     0.142 C 
ATOM     20  C   UNL A   1      27.631  31.318  23.704  1.00  0.00     0.076 C 
ATOM     21  C   UNL A   1      28.073  30.186  22.781  1.00  0.00     0.192 C 
ATOM     22  N   UNL A   1      26.941  29.264  22.576  1.00  0.00    -0.343 N 
ATOM     23  C   UNL A   1      27.220  28.045  23.338  1.00  0.00     0.261 C 
ATOM     24  H   UNL A   1      26.848  29.040  21.584  1.00  0.00     0.346 HD
ATOM     25  H   UNL A   1      26.068  29.691  22.888  1.00  0.00     0.346 HD
ATOM     26  C   UNL A   1      28.721  27.953  23.532  1.00  0.00     0.081 C 
ENDBRANCH  16  19
ENDBRANCH  14  15
ENDBRANCH   9  14
ENDBRANCH   5   8
ENDBRANCH   3   4
ENDBRANCH   2   3
ENDBRANCH   1   2
BRANCH   1  27
ATOM     27  C   UNL A   1      34.812  21.815  24.393  1.00  0.00     0.002 C 
BRANCH  27  28
ATOM     28  C   UNL A   1      35.933  21.540  25.398  1.00  0.00     0.021 C 
BRANCH  28  29
ATOM     29  C   UNL A   1      37.348  21.532  24.828  1.00  0.00     0.116 C 
BRANCH  29  30
ATOM     30  N   UNL A   1      38.166  20.458  25.371  1.00  0.00    -0.352 N 
ATOM     31  C   UNL A   1      39.348  20.527  26.069  1.00  0.00     0.251 C 
ATOM     32  H   UNL A   1      37.821  19.549  25.217  1.00  0.00     0.163 HD
ATOM     33  O   UNL A   1      39.980  19.503  26.304  1.00  0.00    -0.269 OA
BRANCH  31  34
ATOM     34  C   UNL A   1      39.866  21.838  26.518  1.00  0.00     0.039 A 
ATOM     35  C   UNL A   1      40.860  21.871  27.502  1.00  0.00     0.014 A 
ATOM     36  C   UNL A   1      39.376  23.029  25.976  1.00  0.00     0.014 A 
ATOM     37  C   UNL A   1      41.404  23.095  27.895  1.00  0.00     0.010 A 
ATOM     38  C   UNL A   1      39.973  24.241  26.315  1.00  0.00     0.010 A 
ATOM     39  C   UNL A   1      40.991  24.289  27.279  1.00  0.00    -0.014 A 
BRANCH  39  40
ATOM     40  C   UNL A   1      41.625  25.591  27.614  1.00  0.00     0.031 A 
ATOM     41  C   UNL A   1      40.853  26.645  28.359  1.00  0.00     0.074 A 
ATOM     42  C   UNL A   1      42.870  25.856  27.170  1.00  0.00     0.049 A 
ATOM     43  N   UNL A   1      41.216  27.858  28.684  1.00  0.00    -0.248 NA
ATOM     44  C   UNL A   1      39.482  26.301  28.770  1.00  0.00     0.031 C 
ATOM     45  C   UNL A   1      43.697  24.945  26.376  1.00  0.00     0.029 A 
ATOM     46  N   UNL A   1      43.648  26.981  27.300  1.00  0.00    -0.354 N 
ATOM     47  C   UNL A   1      40.115  28.434  29.305  1.00  0.00     0.074 A 
ATOM     48  C   UNL A   1      39.056  27.448  29.280  1.00  0.00     0.031 C 
ATOM     49  C   UNL A   1      44.866  25.542  26.094  1.00  0.00     0.029 A 
ATOM     50  C   UNL A   1      44.859  26.890  26.653  1.00  0.00     0.049 A 
ATOM     51  H   UNL A   1      43.367  27.775  27.808  1.00  0.00     0.167 HD
ATOM     52  C   UNL A   1      40.000  29.660  29.869  1.00  0.00     0.034 A 
ATOM     53  C   UNL A   1      45.848  27.794  26.513  1.00  0.00     0.034 A 
ATOM     54  C   UNL A   1      41.064  30.626  29.917  1.00  0.00     0.049 A 
ATOM     55  C   UNL A   1      45.702  29.144  27.162  1.00  0.00     0.074 A 
ATOM     56  C   UNL A   1      41.075  31.863  30.538  1.00  0.00     0.029 A 
ATOM     57  N   UNL A   1      42.302  30.473  29.311  1.00  0.00    -0.354 N 
ATOM     58  N   UNL A   1      44.709  29.614  27.876  1.00  0.00    -0.248 NA
ATOM     59  C   UNL A   1      46.827  30.078  27.013  1.00  0.00     0.031 C 
ATOM     60  C   UNL A   1      42.305  32.474  30.273  1.00  0.00     0.029 A 
ATOM     61  C   UNL A   1      43.078  31.600  29.526  1.00  0.00     0.049 A 
ATOM     62  H   UNL A   1      42.587  29.680  28.803  1.00  0.00     0.167 HD
ATOM     63  C   UNL A   1      45.103  30.880  28.294  1.00  0.00     0.074 A 
ATOM     64  C   UNL A   1      46.435  31.096  27.767  1.00  0.00     0.031 C 
ATOM     65  C   UNL A   1      44.420  31.785  29.036  1.00  0.00     0.034 A 
BRANCH  52  66
ATOM     66  C   UNL A   1      38.684  30.014  30.515  1.00  0.00     0.023 A 
ATOM     67  C   UNL A   1      38.423  29.605  31.840  1.00  0.00     0.012 A 
ATOM     68  C   UNL A   1      37.728  30.793  29.834  1.00  0.00     0.148 A 
ATOM     69  C   UNL A   1      37.218  29.928  32.461  1.00  0.00     0.002 A 
ATOM     70  C   UNL A   1      36.550  31.153  30.477  1.00  0.00     0.091 A 
ATOM     71  F   UNL A   1      37.983  31.157  28.570  1.00  0.00    -0.205 F 
ATOM     72  C   UNL A   1      36.286  30.710  31.784  1.00  0.00     0.022 A 
BRANCH  70  73
ATOM     73  S   UNL A   1      35.321  32.225  29.723  1.00  0.00     0.127 S 
ATOM     74  O   UNL A   1      34.443  32.511  30.857  1.00  0.00    -0.237 OA
ATOM     75  O   UNL A   1      36.132  33.358  29.277  1.00  0.00    -0.237 OA
ATOM     76  O   UNL A   1      34.717  31.449  28.648  1.00  0.00    -0.744 OA
ENDBRANCH  70  73
ENDBRANCH  52  66
BRANCH  53  77
ATOM     77  C   UNL A   1      47.090  27.434  25.772  1.00  0.00     0.023 A 
ATOM     78  C   UNL A   1      48.130  26.765  26.446  1.00  0.00     0.012 A 
ATOM     79  C   UNL A   1      47.238  27.728  24.402  1.00  0.00     0.148 A 
ATOM     80  C   UNL A   1      49.308  26.425  25.781  1.00  0.00     0.002 A 
ATOM     81  C   UNL A   1      48.391  27.338  23.731  1.00  0.00     0.091 A 
ATOM     82  F   UNL A   1      46.240  28.371  23.780  1.00  0.00    -0.205 F 
ATOM     83  C   UNL A   1      49.434  26.703  24.423  1.00  0.00     0.022 A 
BRANCH  81  84
ATOM     84  S   UNL A   1      48.596  27.545  21.959  1.00  0.00     0.127 S 
ATOM     85  O   UNL A   1      47.303  28.104  21.572  1.00  0.00    -0.237 OA
ATOM     86  O   UNL A   1      49.717  28.484  21.895  1.00  0.00    -0.237 OA
ATOM     87  O   UNL A   1      48.889  26.218  21.436  1.00  0.00    -0.744 OA
ENDBRANCH  81  84
ENDBRANCH  53  77
BRANCH  65  88
ATOM     88  C   UNL A   1      45.109  33.084  29.367  1.00  0.00     0.023 A 
ATOM     89  C   UNL A   1      45.878  33.196  30.542  1.00  0.00     0.012 A 
ATOM     90  C   UNL A   1      45.056  34.171  28.471  1.00  0.00     0.148 A 
ATOM     91  C   UNL A   1      46.555  34.379  30.837  1.00  0.00     0.002 A 
ATOM     92  C   UNL A   1      45.776  35.327  28.744  1.00  0.00     0.091 A 
ATOM     93  F   UNL A   1      44.306  34.050  27.366  1.00  0.00    -0.205 F 
ATOM     94  C   UNL A   1      46.514  35.438  29.933  1.00  0.00     0.022 A 
BRANCH  92  95
ATOM     95  S   UNL A   1      45.865  36.704  27.594  1.00  0.00     0.127 S 
ATOM     96  O   UNL A   1      46.388  36.054  26.393  1.00  0.00    -0.237 OA
ATOM     97  O   UNL A   1      44.467  37.120  27.503  1.00  0.00    -0.237 OA
ATOM     98  O   UNL A   1      46.751  37.685  28.207  1.00  0.00    -0.744 OA
ENDBRANCH  92  95
ENDBRANCH  65  88
ENDBRANCH  39  40
ENDBRANCH  31  34
ENDBRANCH  29  30
ENDBRANCH  28  29
ENDBRANCH  27  28
ENDBRANCH   1  27
TORSDOF 19
ENDMDL
MODEL 3
REMARK VINA RESULT:     -11.4      4.705      7.793
REMARK SMILES C[C@@H]1[NH2+]CC[C@H]1C(=O)NCc1cccc(C(=O)NCCCCCCNC(=O)c2ccc(-c3c4nc(c(-c5cccc(S(=O)(=O)[O-])c5F)c5ccc([nH]5)c(-c5cccc(S(=O)(=O)[O-])c5F)c5nc(c(-c6cccc(S(=O)(=O)[O-])c6F)c6ccc3[nH]6)C=C5)C=C4)cc2)c1
REMARK SMILES IDX 21 1 20 2 19 3 18 4 16 5 17 6 15 8 11 9 12 10 91 11 13 12
REMARK SMILES IDX 14 13 10 14 9 15 7 16 8 17 6 19 1 20 2 21 3 22 4 23 5 26
REMARK SMILES IDX 22 27 23 28 24 29 25 30 26 31 27 33 28 34 29 35 90 36 30 37
REMARK SMILES IDX 89 38 31 39 32 40 33 41 83 42 34 43 88 44 82 45 84 46 35 47
REMARK SMILES IDX 87 48 81 49 80 50 36 52 68 53 48 54 67 55 49 56 52 57 66 58
REMARK SMILES IDX 85 59 50 60 51 61 65 63 86 64 53 65 37 66 38 67 46 68 39 69
REMARK SMILES IDX 41 70 47 71 40 72 42 73 43 74 44 75 45 76 69 77 70 78 78 79
REMARK SMILES IDX 71 80 73 81 79 82 72 83 74 84 75 85 76 86 77 87 54 88 55 89
REMARK SMILES IDX 63 90 56 91 58 92 64 93 57 94 59 95 60 96 61 97 62 98
REMARK H PARENT 18 7 9 18 3 24 3 25 25 32 84 51 52 62
REMARK Flexibility Score: inf
ROOT
ATOM      1  C   UNL A   1      31.700  25.876  25.711  1.00  0.00     0.002 C 
ENDROOT
BRANCH   1   2
ATOM      2  C   UNL A   1      30.229  26.275  25.763  1.00  0.00     0.021 C 
BRANCH   2   3
ATOM      3  C   UNL A   1      29.398  25.973  24.524  1.00  0.00     0.116 C 
BRANCH   3   4
ATOM      4  N   UNL A   1      29.175  27.104  23.634  1.00  0.00    -0.352 N 
ATOM      5  C   UNL A   1      29.968  27.658  22.646  1.00  0.00     0.251 C 
ATOM      6  O   UNL A   1      29.536  28.625  22.020  1.00  0.00    -0.269 OA
ATOM      7  H   UNL A   1      28.308  27.554  23.759  1.00  0.00     0.163 HD
BRANCH   5   8
ATOM      8  C   UNL A   1      31.360  27.186  22.382  1.00  0.00     0.040 A 
ATOM      9  C   UNL A   1      32.948  25.354  22.251  1.00  0.00    -0.028 A 
ATOM     10  C   UNL A   1      34.000  26.263  22.416  1.00  0.00     0.005 A 
ATOM     11  C   UNL A   1      31.654  25.861  22.074  1.00  0.00     0.019 A 
ATOM     12  C   UNL A   1      33.739  27.631  22.509  1.00  0.00     0.001 A 
ATOM     13  C   UNL A   1      32.419  28.086  22.545  1.00  0.00     0.014 A 
BRANCH   9  14
ATOM     14  C   UNL A   1      33.193  23.876  22.457  1.00  0.00     0.151 C 
BRANCH  14  15
ATOM     15  N   UNL A   1      34.453  23.582  23.106  1.00  0.00    -0.352 N 
ATOM     16  C   UNL A   1      34.740  23.164  24.364  1.00  0.00     0.229 C 
ATOM     17  O   UNL A   1      35.929  23.195  24.690  1.00  0.00    -0.275 OA
ATOM     18  H   UNL A   1      35.242  23.709  22.532  1.00  0.00     0.163 HD
BRANCH  16  19
ATOM     19  C   UNL A   1      33.666  22.684  25.325  1.00  0.00     0.142 C 
ATOM     20  C   UNL A   1      32.155  20.697  24.875  1.00  0.00     0.076 C 
ATOM     21  C   UNL A   1      33.524  21.161  25.362  1.00  0.00     0.192 C 
ATOM     22  N   UNL A   1      33.708  20.729  26.760  1.00  0.00    -0.343 N 
ATOM     23  C   UNL A   1      33.588  21.916  27.609  1.00  0.00     0.261 C 
ATOM     24  H   UNL A   1      34.631  20.310  26.877  1.00  0.00     0.346 HD
ATOM     25  H   UNL A   1      33.008  20.031  27.015  1.00  0.00     0.346 HD
ATOM     26  C   UNL A   1      33.909  23.129  26.759  1.00  0.00     0.081 C 
ENDBRANCH  16  19
ENDBRANCH  14  15
ENDBRANCH   9  14
ENDBRANCH   5   8
ENDBRANCH   3   4
ENDBRANCH   2   3
ENDBRANCH   1   2
BRANCH   1  27
ATOM     27  C   UNL A   1      32.699  26.917  26.221  1.00  0.00     0.002 C 
BRANCH  27  28
ATOM     28  C   UNL A   1      32.172  28.346  26.378  1.00  0.00     0.021 C 
BRANCH  28  29
ATOM     29  C   UNL A   1      32.961  29.428  25.648  1.00  0.00     0.116 C 
BRANCH  29  30
ATOM     30  N   UNL A   1      32.583  30.771  26.059  1.00  0.00    -0.352 N 
ATOM     31  C   UNL A   1      33.156  31.590  27.003  1.00  0.00     0.251 C 
ATOM     32  H   UNL A   1      31.803  31.148  25.593  1.00  0.00     0.163 HD
ATOM     33  O   UNL A   1      32.596  32.630  27.331  1.00  0.00    -0.269 OA
BRANCH  31  34
ATOM     34  C   UNL A   1      34.438  31.207  27.635  1.00  0.00     0.039 A 
ATOM     35  C   UNL A   1      35.410  32.190  27.841  1.00  0.00     0.014 A 
ATOM     36  C   UNL A   1      34.683  29.887  28.020  1.00  0.00     0.014 A 
ATOM     37  C   UNL A   1      36.602  31.861  28.491  1.00  0.00     0.010 A 
ATOM     38  C   UNL A   1      35.839  29.576  28.734  1.00  0.00     0.010 A 
ATOM     39  C   UNL A   1      36.811  30.558  28.976  1.00  0.00    -0.014 A 
BRANCH  39  40
ATOM     40  C   UNL A   1      38.029  30.210  29.753  1.00  0.00     0.031 A 
ATOM     41  C   UNL A   1      39.037  29.241  29.197  1.00  0.00     0.074 A 
ATOM     42  C   UNL A   1      38.184  30.701  30.999  1.00  0.00     0.049 A 
ATOM     43  N   UNL A   1      40.123  28.771  29.753  1.00  0.00    -0.248 NA
ATOM     44  C   UNL A   1      38.777  28.709  27.850  1.00  0.00     0.031 C 
ATOM     45  C   UNL A   1      37.242  31.592  31.680  1.00  0.00     0.029 A 
ATOM     46  N   UNL A   1      39.176  30.498  31.927  1.00  0.00    -0.354 N 
ATOM     47  C   UNL A   1      40.658  27.867  28.844  1.00  0.00     0.074 A 
ATOM     48  C   UNL A   1      39.757  27.827  27.712  1.00  0.00     0.031 C 
ATOM     49  C   UNL A   1      37.703  31.863  32.911  1.00  0.00     0.029 A 
ATOM     50  C   UNL A   1      38.951  31.138  33.123  1.00  0.00     0.049 A 
ATOM     51  H   UNL A   1      39.973  29.947  31.752  1.00  0.00     0.167 HD
ATOM     52  C   UNL A   1      41.807  27.154  28.927  1.00  0.00     0.034 A 
ATOM     53  C   UNL A   1      39.661  31.131  34.269  1.00  0.00     0.034 A 
ATOM     54  C   UNL A   1      42.714  27.219  30.042  1.00  0.00     0.049 A 
ATOM     55  C   UNL A   1      40.941  30.343  34.331  1.00  0.00     0.074 A 
ATOM     56  C   UNL A   1      43.943  26.600  30.186  1.00  0.00     0.029 A 
ATOM     57  N   UNL A   1      42.487  27.932  31.209  1.00  0.00    -0.354 N 
ATOM     58  N   UNL A   1      41.508  29.613  33.401  1.00  0.00    -0.248 NA
ATOM     59  C   UNL A   1      41.698  30.403  35.589  1.00  0.00     0.031 C 
ATOM     60  C   UNL A   1      44.441  26.909  31.456  1.00  0.00     0.029 A 
ATOM     61  C   UNL A   1      43.543  27.755  32.086  1.00  0.00     0.049 A 
ATOM     62  H   UNL A   1      41.692  28.484  31.387  1.00  0.00     0.167 HD
ATOM     63  C   UNL A   1      42.703  29.159  33.947  1.00  0.00     0.074 A 
ATOM     64  C   UNL A   1      42.788  29.712  35.283  1.00  0.00     0.031 C 
ATOM     65  C   UNL A   1      43.639  28.348  33.396  1.00  0.00     0.034 A 
BRANCH  52  66
ATOM     66  C   UNL A   1      42.167  26.267  27.762  1.00  0.00     0.023 A 
ATOM     67  C   UNL A   1      42.934  26.787  26.699  1.00  0.00     0.012 A 
ATOM     68  C   UNL A   1      41.795  24.909  27.743  1.00  0.00     0.148 A 
ATOM     69  C   UNL A   1      43.289  25.984  25.616  1.00  0.00     0.002 A 
ATOM     70  C   UNL A   1      42.193  24.102  26.684  1.00  0.00     0.091 A 
ATOM     71  F   UNL A   1      41.050  24.435  28.751  1.00  0.00    -0.205 F 
ATOM     72  C   UNL A   1      42.927  24.639  25.613  1.00  0.00     0.022 A 
BRANCH  70  73
ATOM     73  S   UNL A   1      41.848  22.339  26.624  1.00  0.00     0.127 S 
ATOM     74  O   UNL A   1      42.574  21.856  27.797  1.00  0.00    -0.237 OA
ATOM     75  O   UNL A   1      40.391  22.306  26.751  1.00  0.00    -0.237 OA
ATOM     76  O   UNL A   1      42.357  21.874  25.341  1.00  0.00    -0.744 OA
ENDBRANCH  70  73
ENDBRANCH  52  66
BRANCH  53  77
ATOM     77  C   UNL A   1      39.206  31.943  35.433  1.00  0.00     0.023 A 
ATOM     78  C   UNL A   1      38.284  31.391  36.344  1.00  0.00     0.012 A 
ATOM     79  C   UNL A   1      39.696  33.245  35.655  1.00  0.00     0.148 A 
ATOM     80  C   UNL A   1      37.833  32.131  37.437  1.00  0.00     0.002 A 
ATOM     81  C   UNL A   1      39.285  33.957  36.776  1.00  0.00     0.091 A 
ATOM     82  F   UNL A   1      40.567  33.754  34.773  1.00  0.00    -0.205 F 
ATOM     83  C   UNL A   1      38.339  33.409  37.658  1.00  0.00     0.022 A 
BRANCH  81  84
ATOM     84  S   UNL A   1      39.970  35.559  37.210  1.00  0.00     0.127 S 
ATOM     85  O   UNL A   1      39.271  35.854  38.458  1.00  0.00    -0.237 OA
ATOM     86  O   UNL A   1      41.392  35.247  37.358  1.00  0.00    -0.237 OA
ATOM     87  O   UNL A   1      39.658  36.439  36.093  1.00  0.00    -0.744 OA
ENDBRANCH  81  84
ENDBRANCH  53  77
BRANCH  65  88
ATOM     88  C   UNL A   1      44.866  28.037  34.214  1.00  0.00     0.023 A 
ATOM     89  C   UNL A   1      45.986  28.890  34.159  1.00  0.00     0.012 A 
ATOM     90  C   UNL A   1      44.878  26.937  35.095  1.00  0.00     0.148 A 
ATOM     91  C   UNL A   1      47.110  28.636  34.944  1.00  0.00     0.002 A 
ATOM     92  C   UNL A   1      45.980  26.720  35.913  1.00  0.00     0.091 A 
ATOM     93  F   UNL A   1      43.810  26.128  35.120  1.00  0.00    -0.205 F 
ATOM     94  C   UNL A   1      47.102  27.560  35.829  1.00  0.00     0.022 A 
BRANCH  92  95
ATOM     95  S   UNL A   1      46.021  25.422  37.153  1.00  0.00     0.127 S 
ATOM     96  O   UNL A   1      46.012  24.218  36.323  1.00  0.00    -0.237 OA
ATOM     97  O   UNL A   1      47.289  25.685  37.833  1.00  0.00    -0.237 OA
ATOM     98  O   UNL A   1      44.839  25.616  37.981  1.00  0.00    -0.744 OA
ENDBRANCH  92  95
ENDBRANCH  65  88
ENDBRANCH  39  40
ENDBRANCH  31  34
ENDBRANCH  29  30
ENDBRANCH  28  29
ENDBRANCH  27  28
ENDBRANCH   1  27
TORSDOF 19
ENDMDL
