MODEL 1
REMARK VINA RESULT:     -11.8      0.000      0.000
REMARK SMILES CC(C)[C@@H]1C(=O)Nc2ccccc2N1C(=O)N[C@H](Cc1ccccc1)C(=O)NCCCCCCNC(=O)c1ccc(-c2c3nc(c(-c4cccc(S(=O)(=O)[O-])c4F)c4ccc([nH]4)c(-c4cccc(S(=O)(=O)[O-])c4F)c4nc(c(-c5cccc(S(=O)(=O)[O-])c5F)c5ccc2[nH]5)C=C4)C=C3)cc1
REMARK SMILES IDX 31 1 30 2 29 3 28 4 26 5 27 6 18 8 17 9 15 10 16 11 14 13
REMARK SMILES IDX 4 14 5 15 6 16 7 17 13 18 8 19 12 21 9 22 11 23 10 24 2 25
REMARK SMILES IDX 1 26 3 27 19 28 20 29 21 30 25 31 22 32 24 33 23 34 32 35
REMARK SMILES IDX 33 36 34 37 35 38 36 39 37 41 38 42 39 43 100 44 40 45 99 46
REMARK SMILES IDX 41 47 42 48 43 49 93 50 44 51 98 52 92 53 94 54 45 55 97 56
REMARK SMILES IDX 91 57 90 58 46 60 78 61 58 62 77 63 59 64 62 65 76 66 95 67
REMARK SMILES IDX 60 68 61 69 75 71 96 72 63 73 47 74 48 75 56 76 49 77 51 78
REMARK SMILES IDX 57 79 50 80 52 81 53 82 54 83 55 84 79 85 80 86 88 87 81 88
REMARK SMILES IDX 83 89 89 90 82 91 84 92 85 93 86 94 87 95 64 96 65 97 73 98
REMARK SMILES IDX 66 99 68 100 74 101 67 102 69 103 70 104 71 105 72 106
REMARK H PARENT 28 7 17 12 7 20 35 40 94 59 62 70
REMARK Flexibility Score: inf
ROOT
ATOM      1  C   UNL A   1      34.917  23.948  25.714  1.00  0.00     0.002 C 
ENDROOT
BRANCH   1   2
ATOM      2  C   UNL A   1      34.902  24.283  24.210  1.00  0.00     0.021 C 
BRANCH   2   3
ATOM      3  C   UNL A   1      34.244  25.584  23.654  1.00  0.00     0.116 C 
BRANCH   3   4
ATOM      4  N   UNL A   1      33.421  25.497  22.442  1.00  0.00    -0.354 N 
ATOM      5  C   UNL A   1      32.064  25.459  22.223  1.00  0.00     0.242 C 
ATOM      6  O   UNL A   1      31.693  26.102  21.226  1.00  0.00    -0.273 OA
ATOM      7  H   UNL A   1      33.951  25.458  21.613  1.00  0.00     0.163 HD
BRANCH   5   8
ATOM      8  C   UNL A   1      30.972  24.616  23.001  1.00  0.00     0.177 C 
BRANCH   8   9
ATOM      9  N   UNL A   1      29.879  25.392  23.631  1.00  0.00    -0.326 N 
ATOM     10  C   UNL A   1      29.532  26.532  24.242  1.00  0.00     0.323 C 
ATOM     11  O   UNL A   1      28.405  26.393  24.748  1.00  0.00    -0.248 OA
ATOM     12  H   UNL A   1      29.067  24.838  23.577  1.00  0.00     0.166 HD
BRANCH  10  13
ATOM     13  N   UNL A   1      30.194  27.738  24.285  1.00  0.00    -0.280 N 
ATOM     14  C   UNL A   1      31.573  28.137  24.802  1.00  0.00     0.184 C 
ATOM     15  C   UNL A   1      31.833  29.625  25.092  1.00  0.00     0.247 C 
ATOM     16  O   UNL A   1      32.897  30.055  25.540  1.00  0.00    -0.272 OA
ATOM     17  N   UNL A   1      30.884  30.516  24.737  1.00  0.00    -0.322 N 
ATOM     18  C   UNL A   1      29.533  28.853  23.582  1.00  0.00     0.070 A 
ATOM     19  C   UNL A   1      29.855  30.188  23.869  1.00  0.00     0.065 A 
ATOM     20  H   UNL A   1      30.926  31.428  25.106  1.00  0.00     0.170 HD
ATOM     21  C   UNL A   1      28.685  28.640  22.475  1.00  0.00     0.028 A 
ATOM     22  C   UNL A   1      29.293  31.260  23.163  1.00  0.00     0.028 A 
ATOM     23  C   UNL A   1      28.200  29.705  21.704  1.00  0.00     0.002 A 
ATOM     24  C   UNL A   1      28.492  31.014  22.058  1.00  0.00     0.002 A 
BRANCH  14  25
ATOM     25  C   UNL A   1      32.057  27.393  26.034  1.00  0.00     0.015 C 
ATOM     26  C   UNL A   1      33.574  27.284  26.223  1.00  0.00     0.010 C 
ATOM     27  C   UNL A   1      31.309  27.746  27.312  1.00  0.00     0.010 C 
ENDBRANCH  14  25
ENDBRANCH  10  13
ENDBRANCH   8   9
BRANCH   8  28
ATOM     28  C   UNL A   1      31.626  23.581  24.001  1.00  0.00     0.070 C 
BRANCH  28  29
ATOM     29  C   UNL A   1      31.880  22.116  24.310  1.00  0.00    -0.045 A 
ATOM     30  C   UNL A   1      31.998  21.314  23.134  1.00  0.00     0.004 A 
ATOM     31  C   UNL A   1      32.254  21.524  25.509  1.00  0.00     0.004 A 
ATOM     32  C   UNL A   1      32.464  20.004  23.133  1.00  0.00     0.000 A 
ATOM     33  C   UNL A   1      32.711  20.183  25.515  1.00  0.00     0.000 A 
ATOM     34  C   UNL A   1      32.823  19.431  24.337  1.00  0.00     0.000 A 
ENDBRANCH  28  29
ENDBRANCH   8  28
ENDBRANCH   5   8
ENDBRANCH   3   4
ENDBRANCH   2   3
ENDBRANCH   1   2
BRANCH   1  35
ATOM     35  C   UNL A   1      36.079  22.981  26.116  1.00  0.00     0.002 C 
BRANCH  35  36
ATOM     36  C   UNL A   1      36.084  21.586  25.457  1.00  0.00     0.021 C 
BRANCH  36  37
ATOM     37  C   UNL A   1      37.322  21.232  24.622  1.00  0.00     0.116 C 
BRANCH  37  38
ATOM     38  N   UNL A   1      38.153  20.235  25.282  1.00  0.00    -0.352 N 
ATOM     39  C   UNL A   1      39.349  20.344  25.952  1.00  0.00     0.251 C 
ATOM     40  H   UNL A   1      37.794  19.320  25.242  1.00  0.00     0.163 HD
ATOM     41  O   UNL A   1      40.010  19.317  26.119  1.00  0.00    -0.269 OA
BRANCH  39  42
ATOM     42  C   UNL A   1      39.872  21.627  26.495  1.00  0.00     0.039 A 
ATOM     43  C   UNL A   1      39.508  22.819  25.849  1.00  0.00     0.014 A 
ATOM     44  C   UNL A   1      40.827  21.683  27.514  1.00  0.00     0.014 A 
ATOM     45  C   UNL A   1      40.085  24.042  26.220  1.00  0.00     0.010 A 
ATOM     46  C   UNL A   1      41.354  22.917  27.928  1.00  0.00     0.010 A 
ATOM     47  C   UNL A   1      41.012  24.111  27.270  1.00  0.00    -0.014 A 
BRANCH  47  48
ATOM     48  C   UNL A   1      41.646  25.408  27.656  1.00  0.00     0.031 A 
ATOM     49  C   UNL A   1      40.865  26.459  28.412  1.00  0.00     0.074 A 
ATOM     50  C   UNL A   1      42.921  25.673  27.297  1.00  0.00     0.049 A 
ATOM     51  N   UNL A   1      41.239  27.655  28.793  1.00  0.00    -0.248 NA
ATOM     52  C   UNL A   1      39.475  26.130  28.769  1.00  0.00     0.031 C 
ATOM     53  C   UNL A   1      43.783  24.775  26.527  1.00  0.00     0.029 A 
ATOM     54  N   UNL A   1      43.706  26.781  27.511  1.00  0.00    -0.354 N 
ATOM     55  C   UNL A   1      40.125  28.236  29.392  1.00  0.00     0.074 A 
ATOM     56  C   UNL A   1      39.053  27.268  29.302  1.00  0.00     0.031 C 
ATOM     57  C   UNL A   1      44.973  25.365  26.334  1.00  0.00     0.029 A 
ATOM     58  C   UNL A   1      44.951  26.697  26.931  1.00  0.00     0.049 A 
ATOM     59  H   UNL A   1      43.405  27.561  28.032  1.00  0.00     0.167 HD
ATOM     60  C   UNL A   1      40.004  29.451  29.982  1.00  0.00     0.034 A 
ATOM     61  C   UNL A   1      45.958  27.592  26.866  1.00  0.00     0.034 A 
ATOM     62  C   UNL A   1      41.079  30.400  30.111  1.00  0.00     0.049 A 
ATOM     63  C   UNL A   1      45.806  28.928  27.543  1.00  0.00     0.074 A 
ATOM     64  C   UNL A   1      41.075  31.618  30.769  1.00  0.00     0.029 A 
ATOM     65  N   UNL A   1      42.342  30.251  29.561  1.00  0.00    -0.354 N 
ATOM     66  N   UNL A   1      44.790  29.397  28.225  1.00  0.00    -0.248 NA
ATOM     67  C   UNL A   1      46.954  29.847  27.471  1.00  0.00     0.031 C 
ATOM     68  C   UNL A   1      42.322  32.224  30.579  1.00  0.00     0.029 A 
ATOM     69  C   UNL A   1      43.118  31.361  29.846  1.00  0.00     0.049 A 
ATOM     70  H   UNL A   1      42.643  29.469  29.042  1.00  0.00     0.167 HD
ATOM     71  C   UNL A   1      45.187  30.646  28.692  1.00  0.00     0.074 A 
ATOM     72  C   UNL A   1      46.544  30.853  28.232  1.00  0.00     0.031 C 
ATOM     73  C   UNL A   1      44.485  31.542  29.427  1.00  0.00     0.034 A 
BRANCH  60  74
ATOM     74  C   UNL A   1      38.665  29.823  30.569  1.00  0.00     0.023 A 
ATOM     75  C   UNL A   1      38.332  29.413  31.876  1.00  0.00     0.012 A 
ATOM     76  C   UNL A   1      37.765  30.640  29.854  1.00  0.00     0.148 A 
ATOM     77  C   UNL A   1      37.111  29.775  32.447  1.00  0.00     0.002 A 
ATOM     78  C   UNL A   1      36.571  31.037  30.448  1.00  0.00     0.091 A 
ATOM     79  F   UNL A   1      38.091  31.012  28.608  1.00  0.00    -0.205 F 
ATOM     80  C   UNL A   1      36.237  30.594  31.737  1.00  0.00     0.022 A 
BRANCH  78  81
ATOM     81  S   UNL A   1      35.417  32.161  29.653  1.00  0.00     0.127 S 
ATOM     82  O   UNL A   1      36.305  33.244  29.230  1.00  0.00    -0.237 OA
ATOM     83  O   UNL A   1      34.895  31.341  28.560  1.00  0.00    -0.237 OA
ATOM     84  O   UNL A   1      34.438  32.520  30.667  1.00  0.00    -0.744 OA
ENDBRANCH  78  81
ENDBRANCH  60  74
BRANCH  61  85
ATOM     85  C   UNL A   1      47.223  27.241  26.156  1.00  0.00     0.023 A 
ATOM     86  C   UNL A   1      47.369  27.556  24.791  1.00  0.00     0.012 A 
ATOM     87  C   UNL A   1      48.286  26.614  26.834  1.00  0.00     0.148 A 
ATOM     88  C   UNL A   1      48.538  27.222  24.106  1.00  0.00     0.002 A 
ATOM     89  C   UNL A   1      49.470  26.341  26.160  1.00  0.00     0.091 A 
ATOM     90  F   UNL A   1      48.122  26.313  28.130  1.00  0.00    -0.205 F 
ATOM     91  C   UNL A   1      49.592  26.625  24.792  1.00  0.00     0.022 A 
BRANCH  89  92
ATOM     92  S   UNL A   1      50.924  25.698  26.996  1.00  0.00     0.127 S 
ATOM     93  O   UNL A   1      51.130  26.699  28.045  1.00  0.00    -0.237 OA
ATOM     94  O   UNL A   1      50.442  24.399  27.474  1.00  0.00    -0.237 OA
ATOM     95  O   UNL A   1      51.960  25.621  25.984  1.00  0.00    -0.744 OA
ENDBRANCH  89  92
ENDBRANCH  61  85
BRANCH  73  96
ATOM     96  C   UNL A   1      45.177  32.819  29.833  1.00  0.00     0.023 A 
ATOM     97  C   UNL A   1      45.817  32.910  31.085  1.00  0.00     0.012 A 
ATOM     98  C   UNL A   1      45.257  33.903  28.937  1.00  0.00     0.148 A 
ATOM     99  C   UNL A   1      46.496  34.073  31.451  1.00  0.00     0.002 A 
ATOM    100  C   UNL A   1      45.981  35.037  29.285  1.00  0.00     0.091 A 
ATOM    101  F   UNL A   1      44.627  33.804  27.756  1.00  0.00    -0.205 F 
ATOM    102  C   UNL A   1      46.589  35.129  30.548  1.00  0.00     0.022 A 
BRANCH 100 103
ATOM    103  S   UNL A   1      46.238  36.406  28.151  1.00  0.00     0.127 S 
ATOM    104  O   UNL A   1      44.884  36.938  28.014  1.00  0.00    -0.237 OA
ATOM    105  O   UNL A   1      47.157  37.260  28.903  1.00  0.00    -0.237 OA
ATOM    106  O   UNL A   1      46.804  35.827  26.940  1.00  0.00    -0.744 OA
ENDBRANCH 100 103
ENDBRANCH  73  96
ENDBRANCH  47  48
ENDBRANCH  39  42
ENDBRANCH  37  38
ENDBRANCH  36  37
ENDBRANCH  35  36
ENDBRANCH   1  35
TORSDOF 21
ENDMDL
MODEL 2
REMARK VINA RESULT:     -11.4      2.483      7.803
REMARK SMILES CC(C)[C@@H]1C(=O)Nc2ccccc2N1C(=O)N[C@H](Cc1ccccc1)C(=O)NCCCCCCNC(=O)c1ccc(-c2c3nc(c(-c4cccc(S(=O)(=O)[O-])c4F)c4ccc([nH]4)c(-c4cccc(S(=O)(=O)[O-])c4F)c4nc(c(-c5cccc(S(=O)(=O)[O-])c5F)c5ccc2[nH]5)C=C4)C=C3)cc1
REMARK SMILES IDX 31 1 30 2 29 3 28 4 26 5 27 6 18 8 17 9 15 10 16 11 14 13
REMARK SMILES IDX 4 14 5 15 6 16 7 17 13 18 8 19 12 21 9 22 11 23 10 24 2 25
REMARK SMILES IDX 1 26 3 27 19 28 20 29 21 30 25 31 22 32 24 33 23 34 32 35
REMARK SMILES IDX 33 36 34 37 35 38 36 39 37 41 38 42 39 43 100 44 40 45 99 46
REMARK SMILES IDX 41 47 42 48 43 49 93 50 44 51 98 52 92 53 94 54 45 55 97 56
REMARK SMILES IDX 91 57 90 58 46 60 78 61 58 62 77 63 59 64 62 65 76 66 95 67
REMARK SMILES IDX 60 68 61 69 75 71 96 72 63 73 47 74 48 75 56 76 49 77 51 78
REMARK SMILES IDX 57 79 50 80 52 81 53 82 54 83 55 84 79 85 80 86 88 87 81 88
REMARK SMILES IDX 83 89 89 90 82 91 84 92 85 93 86 94 87 95 64 96 65 97 73 98
REMARK SMILES IDX 66 99 68 100 74 101 67 102 69 103 70 104 71 105 72 106
REMARK H PARENT 28 7 17 12 7 20 35 40 94 59 62 70
REMARK Flexibility Score: inf
ROOT
ATOM      1  C   UNL A   1      36.095  23.492  24.804  1.00  0.00     0.002 C 
ENDROOT
BRANCH   1   2
ATOM      2  C   UNL A   1      35.115  23.737  23.640  1.00  0.00     0.021 C 
BRANCH   2   3
ATOM      3  C   UNL A   1      34.150  24.964  23.609  1.00  0.00     0.116 C 
BRANCH   3   4
ATOM      4  N   UNL A   1      33.295  25.160  22.433  1.00  0.00    -0.354 N 
ATOM      5  C   UNL A   1      31.937  25.304  22.267  1.00  0.00     0.242 C 
ATOM      6  O   UNL A   1      31.619  26.134  21.398  1.00  0.00    -0.273 OA
ATOM      7  H   UNL A   1      33.797  25.196  21.587  1.00  0.00     0.163 HD
BRANCH   5   8
ATOM      8  C   UNL A   1      30.775  24.472  22.948  1.00  0.00     0.177 C 
BRANCH   8   9
ATOM      9  N   UNL A   1      29.793  25.251  23.737  1.00  0.00    -0.326 N 
ATOM     10  C   UNL A   1      29.554  26.383  24.410  1.00  0.00     0.323 C 
ATOM     11  O   UNL A   1      28.505  26.251  25.065  1.00  0.00    -0.248 OA
ATOM     12  H   UNL A   1      28.973  24.710  23.787  1.00  0.00     0.166 HD
BRANCH  10  13
ATOM     13  N   UNL A   1      30.236  27.579  24.382  1.00  0.00    -0.280 N 
ATOM     14  C   UNL A   1      31.647  27.968  24.811  1.00  0.00     0.184 C 
ATOM     15  C   UNL A   1      31.947  29.458  25.044  1.00  0.00     0.247 C 
ATOM     16  O   UNL A   1      33.040  29.883  25.420  1.00  0.00    -0.272 OA
ATOM     17  N   UNL A   1      30.994  30.356  24.715  1.00  0.00    -0.322 N 
ATOM     18  C   UNL A   1      29.555  28.685  23.684  1.00  0.00     0.070 A 
ATOM     19  C   UNL A   1      29.913  30.022  23.915  1.00  0.00     0.065 A 
ATOM     20  H   UNL A   1      31.070  31.277  25.055  1.00  0.00     0.170 HD
ATOM     21  C   UNL A   1      28.643  28.456  22.633  1.00  0.00     0.028 A 
ATOM     22  C   UNL A   1      29.330  31.084  23.211  1.00  0.00     0.028 A 
ATOM     23  C   UNL A   1      28.133  29.507  21.859  1.00  0.00     0.002 A 
ATOM     24  C   UNL A   1      28.465  30.821  22.158  1.00  0.00     0.002 A 
BRANCH  14  25
ATOM     25  C   UNL A   1      32.187  27.251  26.035  1.00  0.00     0.015 C 
ATOM     26  C   UNL A   1      33.695  26.976  26.066  1.00  0.00     0.010 C 
ATOM     27  C   UNL A   1      31.635  27.767  27.357  1.00  0.00     0.010 C 
ENDBRANCH  14  25
ENDBRANCH  10  13
ENDBRANCH   8   9
BRANCH   8  28
ATOM     28  C   UNL A   1      31.331  23.224  23.746  1.00  0.00     0.070 C 
BRANCH  28  29
ATOM     29  C   UNL A   1      31.926  22.728  25.051  1.00  0.00    -0.045 A 
ATOM     30  C   UNL A   1      32.653  21.508  24.900  1.00  0.00     0.004 A 
ATOM     31  C   UNL A   1      32.073  23.397  26.259  1.00  0.00     0.004 A 
ATOM     32  C   UNL A   1      33.486  20.976  25.879  1.00  0.00     0.000 A 
ATOM     33  C   UNL A   1      32.905  22.848  27.266  1.00  0.00     0.000 A 
ATOM     34  C   UNL A   1      33.611  21.652  27.076  1.00  0.00     0.000 A 
ENDBRANCH  28  29
ENDBRANCH   8  28
ENDBRANCH   5   8
ENDBRANCH   3   4
ENDBRANCH   2   3
ENDBRANCH   1   2
BRANCH   1  35
ATOM     35  C   UNL A   1      37.419  22.793  24.355  1.00  0.00     0.002 C 
BRANCH  35  36
ATOM     36  C   UNL A   1      37.945  21.655  25.254  1.00  0.00     0.021 C 
BRANCH  36  37
ATOM     37  C   UNL A   1      38.913  22.062  26.372  1.00  0.00     0.116 C 
BRANCH  37  38
ATOM     38  N   UNL A   1      40.297  21.773  26.022  1.00  0.00    -0.352 N 
ATOM     39  C   UNL A   1      41.401  22.588  25.920  1.00  0.00     0.251 C 
ATOM     40  H   UNL A   1      40.474  20.826  25.824  1.00  0.00     0.163 HD
ATOM     41  O   UNL A   1      42.369  22.168  25.283  1.00  0.00    -0.269 OA
BRANCH  39  42
ATOM     42  C   UNL A   1      41.490  23.933  26.552  1.00  0.00     0.039 A 
ATOM     43  C   UNL A   1      41.370  25.062  25.726  1.00  0.00     0.014 A 
ATOM     44  C   UNL A   1      41.842  24.118  27.891  1.00  0.00     0.014 A 
ATOM     45  C   UNL A   1      41.594  26.350  26.234  1.00  0.00     0.010 A 
ATOM     46  C   UNL A   1      42.000  25.411  28.414  1.00  0.00     0.010 A 
ATOM     47  C   UNL A   1      41.905  26.545  27.588  1.00  0.00    -0.014 A 
BRANCH  47  48
ATOM     48  C   UNL A   1      42.165  27.913  28.131  1.00  0.00     0.031 A 
ATOM     49  C   UNL A   1      43.570  28.466  28.199  1.00  0.00     0.074 A 
ATOM     50  C   UNL A   1      41.145  28.660  28.605  1.00  0.00     0.049 A 
ATOM     51  N   UNL A   1      43.988  29.613  28.675  1.00  0.00    -0.248 NA
ATOM     52  C   UNL A   1      44.651  27.610  27.683  1.00  0.00     0.031 C 
ATOM     53  C   UNL A   1      39.743  28.241  28.648  1.00  0.00     0.029 A 
ATOM     54  N   UNL A   1      41.131  29.916  29.164  1.00  0.00    -0.354 N 
ATOM     55  C   UNL A   1      45.375  29.599  28.558  1.00  0.00     0.074 A 
ATOM     56  C   UNL A   1      45.730  28.318  27.987  1.00  0.00     0.031 C 
ATOM     57  C   UNL A   1      39.008  29.219  29.199  1.00  0.00     0.029 A 
ATOM     58  C   UNL A   1      39.885  30.319  29.586  1.00  0.00     0.049 A 
ATOM     59  H   UNL A   1      41.937  30.475  29.251  1.00  0.00     0.167 HD
ATOM     60  C   UNL A   1      46.271  30.565  28.873  1.00  0.00     0.034 A 
ATOM     61  C   UNL A   1      39.488  31.437  30.229  1.00  0.00     0.034 A 
ATOM     62  C   UNL A   1      45.919  31.857  29.403  1.00  0.00     0.049 A 
ATOM     63  C   UNL A   1      40.500  32.503  30.553  1.00  0.00     0.074 A 
ATOM     64  C   UNL A   1      46.750  32.932  29.671  1.00  0.00     0.029 A 
ATOM     65  N   UNL A   1      44.639  32.248  29.760  1.00  0.00    -0.354 N 
ATOM     66  N   UNL A   1      41.786  32.523  30.303  1.00  0.00    -0.248 NA
ATOM     67  C   UNL A   1      40.001  33.717  31.220  1.00  0.00     0.031 C 
ATOM     68  C   UNL A   1      45.978  33.955  30.230  1.00  0.00     0.029 A 
ATOM     69  C   UNL A   1      44.659  33.537  30.265  1.00  0.00     0.049 A 
ATOM     70  H   UNL A   1      43.832  31.689  29.670  1.00  0.00     0.167 HD
ATOM     71  C   UNL A   1      42.243  33.761  30.746  1.00  0.00     0.074 A 
ATOM     72  C   UNL A   1      41.091  34.470  31.264  1.00  0.00     0.031 C 
ATOM     73  C   UNL A   1      43.503  34.257  30.734  1.00  0.00     0.034 A 
BRANCH  60  74
ATOM     74  C   UNL A   1      47.733  30.283  28.627  1.00  0.00     0.023 A 
ATOM     75  C   UNL A   1      48.334  30.688  27.417  1.00  0.00     0.012 A 
ATOM     76  C   UNL A   1      48.530  29.681  29.623  1.00  0.00     0.148 A 
ATOM     77  C   UNL A   1      49.691  30.463  27.185  1.00  0.00     0.002 A 
ATOM     78  C   UNL A   1      49.892  29.504  29.403  1.00  0.00     0.091 A 
ATOM     79  F   UNL A   1      47.942  29.290  30.762  1.00  0.00    -0.205 F 
ATOM     80  C   UNL A   1      50.471  29.881  28.181  1.00  0.00     0.022 A 
BRANCH  78  81
ATOM     81  S   UNL A   1      51.000  28.844  30.655  1.00  0.00     0.127 S 
ATOM     82  O   UNL A   1      52.291  28.913  29.970  1.00  0.00    -0.237 OA
ATOM     83  O   UNL A   1      50.837  29.805  31.746  1.00  0.00    -0.237 OA
ATOM     84  O   UNL A   1      50.522  27.501  30.949  1.00  0.00    -0.744 OA
ENDBRANCH  78  81
ENDBRANCH  60  74
BRANCH  61  85
ATOM     85  C   UNL A   1      38.051  31.624  30.582  1.00  0.00     0.023 A 
ATOM     86  C   UNL A   1      37.568  31.158  31.820  1.00  0.00     0.012 A 
ATOM     87  C   UNL A   1      37.167  32.279  29.703  1.00  0.00     0.148 A 
ATOM     88  C   UNL A   1      36.223  31.309  32.162  1.00  0.00     0.002 A 
ATOM     89  C   UNL A   1      35.843  32.481  30.076  1.00  0.00     0.091 A 
ATOM     90  F   UNL A   1      37.643  32.705  28.525  1.00  0.00    -0.205 F 
ATOM     91  C   UNL A   1      35.364  31.980  31.295  1.00  0.00     0.022 A 
BRANCH  89  92
ATOM     92  S   UNL A   1      34.703  33.450  29.084  1.00  0.00     0.127 S 
ATOM     93  O   UNL A   1      33.646  33.749  30.052  1.00  0.00    -0.237 OA
ATOM     94  O   UNL A   1      35.535  34.598  28.712  1.00  0.00    -0.237 OA
ATOM     95  O   UNL A   1      34.320  32.598  27.974  1.00  0.00    -0.744 OA
ENDBRANCH  89  92
ENDBRANCH  61  85
BRANCH  73  96
ATOM     96  C   UNL A   1      43.715  35.659  31.250  1.00  0.00     0.023 A 
ATOM     97  C   UNL A   1      43.787  36.741  30.350  1.00  0.00     0.012 A 
ATOM     98  C   UNL A   1      43.766  35.909  32.635  1.00  0.00     0.148 A 
ATOM     99  C   UNL A   1      43.940  38.046  30.821  1.00  0.00     0.002 A 
ATOM    100  C   UNL A   1      43.864  37.216  33.099  1.00  0.00     0.091 A 
ATOM    101  F   UNL A   1      43.713  34.864  33.476  1.00  0.00    -0.205 F 
ATOM    102  C   UNL A   1      43.965  38.284  32.193  1.00  0.00     0.022 A 
BRANCH 100 103
ATOM    103  S   UNL A   1      43.805  37.628  34.847  1.00  0.00     0.127 S 
ATOM    104  O   UNL A   1      42.463  37.181  35.213  1.00  0.00    -0.237 OA
ATOM    105  O   UNL A   1      44.890  36.812  35.392  1.00  0.00    -0.237 OA
ATOM    106  O   UNL A   1      44.026  39.065  34.930  1.00  0.00    -0.744 OA
ENDBRANCH 100 103
ENDBRANCH  73  96
ENDBRANCH  47  48
ENDBRANCH  39  42
ENDBRANCH  37  38
ENDBRANCH  36  37
ENDBRANCH  35  36
ENDBRANCH   1  35
TORSDOF 21
ENDMDL
MODEL 3
REMARK VINA RESULT:     -11.1      2.214      3.113
REMARK SMILES CC(C)[C@@H]1C(=O)Nc2ccccc2N1C(=O)N[C@H](Cc1ccccc1)C(=O)NCCCCCCNC(=O)c1ccc(-c2c3nc(c(-c4cccc(S(=O)(=O)[O-])c4F)c4ccc([nH]4)c(-c4cccc(S(=O)(=O)[O-])c4F)c4nc(c(-c5cccc(S(=O)(=O)[O-])c5F)c5ccc2[nH]5)C=C4)C=C3)cc1
REMARK SMILES IDX 31 1 30 2 29 3 28 4 26 5 27 6 18 8 17 9 15 10 16 11 14 13
REMARK SMILES IDX 4 14 5 15 6 16 7 17 13 18 8 19 12 21 9 22 11 23 10 24 2 25
REMARK SMILES IDX 1 26 3 27 19 28 20 29 21 30 25 31 22 32 24 33 23 34 32 35
REMARK SMILES IDX 33 36 34 37 35 38 36 39 37 41 38 42 39 43 100 44 40 45 99 46
REMARK SMILES IDX 41 47 42 48 43 49 93 50 44 51 98 52 92 53 94 54 45 55 97 56
REMARK SMILES IDX 91 57 90 58 46 60 78 61 58 62 77 63 59 64 62 65 76 66 95 67
REMARK SMILES IDX 60 68 61 69 75 71 96 72 63 73 47 74 48 75 56 76 49 77 51 78
REMARK SMILES IDX 57 79 50 80 52 81 53 82 54 83 55 84 79 85 80 86 88 87 81 88
REMARK SMILES IDX 83 89 89 90 82 91 84 92 85 93 86 94 87 95 64 96 65 97 73 98
REMARK SMILES IDX 66 99 68 100 74 101 67 102 69 103 70 104 71 105 72 106
REMARK H PARENT 28 7 17 12 7 20 35 40 94 59 62 70
REMARK Flexibility Score: inf
ROOT
ATOM      1  C   UNL A   1      36.507  23.754  26.079  1.00  0.00     0.002 C 
ENDROOT
BRANCH   1   2
ATOM      2  C   UNL A   1      35.167  23.665  25.322  1.00  0.00     0.021 C 
BRANCH   2   3
ATOM      3  C   UNL A   1      34.249  24.909  25.109  1.00  0.00     0.116 C 
BRANCH   3   4
ATOM      4  N   UNL A   1      34.250  25.572  23.800  1.00  0.00    -0.354 N 
ATOM      5  C   UNL A   1      33.252  26.060  22.988  1.00  0.00     0.242 C 
ATOM      6  O   UNL A   1      33.543  27.124  22.414  1.00  0.00    -0.273 OA
ATOM      7  H   UNL A   1      35.152  25.692  23.424  1.00  0.00     0.163 HD
BRANCH   5   8
ATOM      8  C   UNL A   1      31.871  25.380  22.620  1.00  0.00     0.177 C 
BRANCH   8   9
ATOM      9  N   UNL A   1      30.694  25.838  23.395  1.00  0.00    -0.326 N 
ATOM     10  C   UNL A   1      30.178  26.798  24.172  1.00  0.00     0.323 C 
ATOM     11  O   UNL A   1      29.133  26.376  24.698  1.00  0.00    -0.248 OA
ATOM     12  H   UNL A   1      30.001  25.147  23.296  1.00  0.00     0.166 HD
BRANCH  10  13
ATOM     13  N   UNL A   1      30.601  28.096  24.358  1.00  0.00    -0.280 N 
ATOM     14  C   UNL A   1      31.836  28.689  25.028  1.00  0.00     0.184 C 
ATOM     15  C   UNL A   1      31.794  30.170  25.439  1.00  0.00     0.247 C 
ATOM     16  O   UNL A   1      32.720  30.745  26.013  1.00  0.00    -0.272 OA
ATOM     17  N   UNL A   1      30.728  30.905  25.055  1.00  0.00    -0.322 N 
ATOM     18  C   UNL A   1      29.805  29.129  23.670  1.00  0.00     0.070 A 
ATOM     19  C   UNL A   1      29.851  30.472  24.075  1.00  0.00     0.065 A 
ATOM     20  H   UNL A   1      30.571  31.776  25.486  1.00  0.00     0.170 HD
ATOM     21  C   UNL A   1      29.103  28.860  22.477  1.00  0.00     0.028 A 
ATOM     22  C   UNL A   1      29.160  31.481  23.391  1.00  0.00     0.028 A 
ATOM     23  C   UNL A   1      28.494  29.882  21.735  1.00  0.00     0.002 A 
ATOM     24  C   UNL A   1      28.510  31.189  22.201  1.00  0.00     0.002 A 
BRANCH  14  25
ATOM     25  C   UNL A   1      32.348  27.944  26.248  1.00  0.00     0.015 C 
ATOM     26  C   UNL A   1      33.854  28.021  26.523  1.00  0.00     0.010 C 
ATOM     27  C   UNL A   1      31.492  28.122  27.494  1.00  0.00     0.010 C 
ENDBRANCH  14  25
ENDBRANCH  10  13
ENDBRANCH   8   9
BRANCH   8  28
ATOM     28  C   UNL A   1      31.982  23.803  22.574  1.00  0.00     0.070 C 
BRANCH  28  29
ATOM     29  C   UNL A   1      31.899  22.511  23.367  1.00  0.00    -0.045 A 
ATOM     30  C   UNL A   1      32.199  21.358  22.579  1.00  0.00     0.004 A 
ATOM     31  C   UNL A   1      31.833  22.327  24.741  1.00  0.00     0.004 A 
ATOM     32  C   UNL A   1      32.427  20.093  23.112  1.00  0.00     0.000 A 
ATOM     33  C   UNL A   1      32.045  21.037  25.286  1.00  0.00     0.000 A 
ATOM     34  C   UNL A   1      32.347  19.931  24.480  1.00  0.00     0.000 A 
ENDBRANCH  28  29
ENDBRANCH   8  28
ENDBRANCH   5   8
ENDBRANCH   3   4
ENDBRANCH   2   3
ENDBRANCH   1   2
BRANCH   1  35
ATOM     35  C   UNL A   1      37.727  23.279  25.224  1.00  0.00     0.002 C 
BRANCH  35  36
ATOM     36  C   UNL A   1      38.419  21.972  25.663  1.00  0.00     0.021 C 
BRANCH  36  37
ATOM     37  C   UNL A   1      39.563  22.115  26.677  1.00  0.00     0.116 C 
BRANCH  37  38
ATOM     38  N   UNL A   1      40.867  22.006  26.039  1.00  0.00    -0.352 N 
ATOM     39  C   UNL A   1      41.846  22.943  25.799  1.00  0.00     0.251 C 
ATOM     40  H   UNL A   1      41.089  21.101  25.723  1.00  0.00     0.163 HD
ATOM     41  O   UNL A   1      42.699  22.679  24.950  1.00  0.00    -0.269 OA
BRANCH  39  42
ATOM     42  C   UNL A   1      41.934  24.241  26.523  1.00  0.00     0.039 A 
ATOM     43  C   UNL A   1      41.775  25.424  25.784  1.00  0.00     0.014 A 
ATOM     44  C   UNL A   1      42.322  24.336  27.862  1.00  0.00     0.014 A 
ATOM     45  C   UNL A   1      41.995  26.676  26.376  1.00  0.00     0.010 A 
ATOM     46  C   UNL A   1      42.477  25.591  28.471  1.00  0.00     0.010 A 
ATOM     47  C   UNL A   1      42.343  26.779  27.731  1.00  0.00    -0.014 A 
BRANCH  47  48
ATOM     48  C   UNL A   1      42.599  28.109  28.363  1.00  0.00     0.031 A 
ATOM     49  C   UNL A   1      41.469  28.912  28.967  1.00  0.00     0.074 A 
ATOM     50  C   UNL A   1      43.845  28.629  28.368  1.00  0.00     0.049 A 
ATOM     51  N   UNL A   1      41.498  30.099  29.519  1.00  0.00    -0.248 NA
ATOM     52  C   UNL A   1      40.126  28.310  28.926  1.00  0.00     0.031 C 
ATOM     53  C   UNL A   1      45.025  27.991  27.783  1.00  0.00     0.029 A 
ATOM     54  N   UNL A   1      44.323  29.821  28.860  1.00  0.00    -0.354 N 
ATOM     55  C   UNL A   1      40.182  30.405  29.851  1.00  0.00     0.074 A 
ATOM     56  C   UNL A   1      39.374  29.286  29.415  1.00  0.00     0.031 C 
ATOM     57  C   UNL A   1      46.088  28.795  27.949  1.00  0.00     0.029 A 
ATOM     58  C   UNL A   1      45.663  30.021  28.617  1.00  0.00     0.049 A 
ATOM     59  H   UNL A   1      43.759  30.468  29.341  1.00  0.00     0.167 HD
ATOM     60  C   UNL A   1      39.687  31.501  30.477  1.00  0.00     0.034 A 
ATOM     61  C   UNL A   1      46.461  31.076  28.882  1.00  0.00     0.034 A 
ATOM     62  C   UNL A   1      40.492  32.597  30.950  1.00  0.00     0.049 A 
ATOM     63  C   UNL A   1      45.892  32.274  29.594  1.00  0.00     0.074 A 
ATOM     64  C   UNL A   1      40.092  33.708  31.673  1.00  0.00     0.029 A 
ATOM     65  N   UNL A   1      41.855  32.732  30.737  1.00  0.00    -0.354 N 
ATOM     66  N   UNL A   1      44.670  32.477  30.021  1.00  0.00    -0.248 NA
ATOM     67  C   UNL A   1      46.821  33.378  29.889  1.00  0.00     0.031 C 
ATOM     68  C   UNL A   1      41.204  34.535  31.859  1.00  0.00     0.029 A 
ATOM     69  C   UNL A   1      42.307  33.916  31.295  1.00  0.00     0.049 A 
ATOM     70  H   UNL A   1      42.419  32.082  30.257  1.00  0.00     0.167 HD
ATOM     71  C   UNL A   1      44.691  33.709  30.667  1.00  0.00     0.074 A 
ATOM     72  C   UNL A   1      46.052  34.199  30.591  1.00  0.00     0.031 C 
ATOM     73  C   UNL A   1      43.671  34.377  31.259  1.00  0.00     0.034 A 
BRANCH  60  74
ATOM     74  C   UNL A   1      38.200  31.565  30.724  1.00  0.00     0.023 A 
ATOM     75  C   UNL A   1      37.652  30.972  31.880  1.00  0.00     0.012 A 
ATOM     76  C   UNL A   1      37.353  32.275  29.847  1.00  0.00     0.148 A 
ATOM     77  C   UNL A   1      36.283  31.050  32.139  1.00  0.00     0.002 A 
ATOM     78  C   UNL A   1      35.998  32.389  30.138  1.00  0.00     0.091 A 
ATOM     79  F   UNL A   1      37.887  32.823  28.746  1.00  0.00    -0.205 F 
ATOM     80  C   UNL A   1      35.459  31.765  31.275  1.00  0.00     0.022 A 
BRANCH  78  81
ATOM     81  S   UNL A   1      34.868  33.362  29.136  1.00  0.00     0.127 S 
ATOM     82  O   UNL A   1      33.814  33.675  30.101  1.00  0.00    -0.237 OA
ATOM     83  O   UNL A   1      35.701  34.502  28.754  1.00  0.00    -0.237 OA
ATOM     84  O   UNL A   1      34.465  32.504  28.032  1.00  0.00    -0.744 OA
ENDBRANCH  78  81
ENDBRANCH  60  74
BRANCH  61  85
ATOM     85  C   UNL A   1      47.903  31.035  28.500  1.00  0.00     0.023 A 
ATOM     86  C   UNL A   1      48.316  31.579  27.268  1.00  0.00     0.012 A 
ATOM     87  C   UNL A   1      48.866  30.475  29.361  1.00  0.00     0.148 A 
ATOM     88  C   UNL A   1      49.657  31.535  26.886  1.00  0.00     0.002 A 
ATOM     89  C   UNL A   1      50.208  30.491  29.001  1.00  0.00     0.091 A 
ATOM     90  F   UNL A   1      48.451  29.953  30.524  1.00  0.00    -0.205 F 
ATOM     91  C   UNL A   1      50.604  31.002  27.756  1.00  0.00     0.022 A 
BRANCH  89  92
ATOM     92  S   UNL A   1      51.508  29.950  30.116  1.00  0.00     0.127 S 
ATOM     93  O   UNL A   1      52.692  30.041  29.259  1.00  0.00    -0.237 OA
ATOM     94  O   UNL A   1      51.436  30.965  31.171  1.00  0.00    -0.237 OA
ATOM     95  O   UNL A   1      51.136  28.614  30.539  1.00  0.00    -0.744 OA
ENDBRANCH  89  92
ENDBRANCH  61  85
BRANCH  73  96
ATOM     96  C   UNL A   1      43.982  35.694  31.924  1.00  0.00     0.023 A 
ATOM     97  C   UNL A   1      44.362  35.731  33.281  1.00  0.00     0.012 A 
ATOM     98  C   UNL A   1      43.971  36.890  31.179  1.00  0.00     0.148 A 
ATOM     99  C   UNL A   1      44.692  36.940  33.893  1.00  0.00     0.002 A 
ATOM    100  C   UNL A   1      44.354  38.083  31.779  1.00  0.00     0.091 A 
ATOM    101  F   UNL A   1      43.591  36.837  29.893  1.00  0.00    -0.205 F 
ATOM    102  C   UNL A   1      44.700  38.113  33.140  1.00  0.00     0.022 A 
BRANCH 100 103
ATOM    103  S   UNL A   1      44.490  39.624  30.866  1.00  0.00     0.127 S 
ATOM    104  O   UNL A   1      45.494  39.287  29.860  1.00  0.00    -0.237 OA
ATOM    105  O   UNL A   1      43.134  39.793  30.344  1.00  0.00    -0.237 OA
ATOM    106  O   UNL A   1      44.895  40.633  31.836  1.00  0.00    -0.744 OA
ENDBRANCH 100 103
ENDBRANCH  73  96
ENDBRANCH  47  48
ENDBRANCH  39  42
ENDBRANCH  37  38
ENDBRANCH  36  37
ENDBRANCH  35  36
ENDBRANCH   1  35
TORSDOF 21
ENDMDL
