MODEL 1
REMARK VINA RESULT:     -12.1      0.000      0.000
REMARK SMILES C[C@H]1[C@H](C(=O)NCCCCCCNC(=O)c2ccc(-c3c4nc(c(-c5cccc(S(=O)(=O)[O-])c5F)c5ccc([nH]5)c(-c5cccc(S(=O)(=O)[O-])c5F)c5nc(c(-c6cccc(S(=O)(=O)[O-])c6F)c6ccc3[nH]6)C=C5)C=C4)cc2)CCN1C(=O)c1ccc2ccccc2c1
REMARK SMILES IDX 10 1 9 2 8 3 7 4 6 5 4 6 5 7 3 9 1 10 2 11 81 12 79 13 80 14
REMARK SMILES IDX 82 15 83 16 84 17 85 18 93 19 86 20 92 21 87 22 91 23 88 24
REMARK SMILES IDX 90 25 89 26 11 27 12 28 13 29 14 30 15 32 16 33 17 34 78 35
REMARK SMILES IDX 18 36 77 37 19 38 20 39 21 40 71 41 22 42 76 43 70 44 72 45
REMARK SMILES IDX 23 46 75 47 69 48 68 49 24 51 56 52 36 53 55 54 37 55 40 56
REMARK SMILES IDX 54 57 73 58 38 59 39 60 53 62 74 63 41 64 25 65 26 66 34 67
REMARK SMILES IDX 27 68 29 69 35 70 28 71 30 72 31 73 32 74 33 75 57 76 58 77
REMARK SMILES IDX 66 78 59 79 61 80 67 81 60 82 62 83 63 84 64 85 65 86 42 87
REMARK SMILES IDX 43 88 51 89 44 90 46 91 52 92 45 93 47 94 48 95 49 96 50 97
REMARK H PARENT 6 8 13 31 72 50 40 61
REMARK Flexibility Score: inf
ROOT
ATOM      1  C   UNL A   1      37.025  20.965  24.666  1.00  0.00     0.002 C 
ENDROOT
BRANCH   1   2
ATOM      2  C   UNL A   1      35.585  20.551  24.988  1.00  0.00     0.002 C 
BRANCH   2   3
ATOM      3  C   UNL A   1      34.517  21.550  24.535  1.00  0.00     0.021 C 
BRANCH   3   4
ATOM      4  C   UNL A   1      33.116  21.222  25.040  1.00  0.00     0.116 C 
BRANCH   4   5
ATOM      5  N   UNL A   1      32.108  21.915  24.258  1.00  0.00    -0.356 N 
ATOM      6  C   UNL A   1      31.565  23.151  24.408  1.00  0.00     0.225 C 
ATOM      7  O   UNL A   1      30.657  23.475  23.638  1.00  0.00    -0.275 OA
ATOM      8  H   UNL A   1      31.759  21.404  23.492  1.00  0.00     0.163 HD
BRANCH   6   9
ATOM      9  C   UNL A   1      32.052  24.129  25.465  1.00  0.00     0.102 C 
ATOM     10  C   UNL A   1      34.356  25.136  25.460  1.00  0.00     0.032 C 
ATOM     11  C   UNL A   1      32.938  25.254  24.900  1.00  0.00     0.094 C 
ATOM     12  N   UNL A   1      32.270  26.494  25.306  1.00  0.00    -0.335 N 
ATOM     13  C   UNL A   1      30.908  24.793  26.237  1.00  0.00     0.037 C 
ATOM     14  C   UNL A   1      31.284  26.257  26.341  1.00  0.00     0.121 C 
BRANCH  12  15
ATOM     15  C   UNL A   1      32.423  27.770  24.791  1.00  0.00     0.254 C 
ATOM     16  O   UNL A   1      33.490  28.376  24.791  1.00  0.00    -0.269 OA
BRANCH  15  17
ATOM     17  C   UNL A   1      31.281  28.408  24.118  1.00  0.00     0.040 A 
ATOM     18  C   UNL A   1      30.742  27.737  23.020  1.00  0.00     0.014 A 
ATOM     19  C   UNL A   1      30.823  29.677  24.477  1.00  0.00     0.022 A 
ATOM     20  C   UNL A   1      29.678  28.300  22.320  1.00  0.00     0.009 A 
ATOM     21  C   UNL A   1      29.780  30.276  23.745  1.00  0.00    -0.018 A 
ATOM     22  C   UNL A   1      29.184  29.563  22.674  1.00  0.00    -0.018 A 
ATOM     23  C   UNL A   1      29.330  31.578  24.022  1.00  0.00     0.009 A 
ATOM     24  C   UNL A   1      28.132  30.145  21.952  1.00  0.00     0.009 A 
ATOM     25  C   UNL A   1      28.311  32.160  23.262  1.00  0.00     0.001 A 
ATOM     26  C   UNL A   1      27.704  31.440  22.239  1.00  0.00     0.001 A 
ENDBRANCH  15  17
ENDBRANCH  12  15
ENDBRANCH   6   9
ENDBRANCH   4   5
ENDBRANCH   3   4
ENDBRANCH   2   3
ENDBRANCH   1   2
BRANCH   1  27
ATOM     27  C   UNL A   1      38.078  19.879  24.903  1.00  0.00     0.021 C 
BRANCH  27  28
ATOM     28  C   UNL A   1      39.114  20.225  25.967  1.00  0.00     0.116 C 
BRANCH  28  29
ATOM     29  N   UNL A   1      40.184  19.241  26.017  1.00  0.00    -0.352 N 
ATOM     30  C   UNL A   1      41.541  19.436  26.086  1.00  0.00     0.251 C 
ATOM     31  H   UNL A   1      39.894  18.300  26.000  1.00  0.00     0.163 HD
ATOM     32  O   UNL A   1      42.306  18.497  25.896  1.00  0.00    -0.269 OA
BRANCH  30  33
ATOM     33  C   UNL A   1      42.073  20.784  26.379  1.00  0.00     0.039 A 
ATOM     34  C   UNL A   1      42.288  21.671  25.323  1.00  0.00     0.014 A 
ATOM     35  C   UNL A   1      42.361  21.168  27.692  1.00  0.00     0.014 A 
ATOM     36  C   UNL A   1      42.744  22.964  25.590  1.00  0.00     0.010 A 
ATOM     37  C   UNL A   1      42.738  22.479  27.962  1.00  0.00     0.010 A 
ATOM     38  C   UNL A   1      42.943  23.388  26.915  1.00  0.00    -0.014 A 
BRANCH  38  39
ATOM     39  C   UNL A   1      43.354  24.783  27.220  1.00  0.00     0.031 A 
ATOM     40  C   UNL A   1      42.384  25.741  27.856  1.00  0.00     0.074 A 
ATOM     41  C   UNL A   1      44.580  25.209  26.853  1.00  0.00     0.049 A 
ATOM     42  N   UNL A   1      42.549  27.002  28.160  1.00  0.00    -0.248 NA
ATOM     43  C   UNL A   1      41.042  25.221  28.171  1.00  0.00     0.031 C 
ATOM     44  C   UNL A   1      45.584  24.398  26.160  1.00  0.00     0.029 A 
ATOM     45  N   UNL A   1      45.180  26.435  26.988  1.00  0.00    -0.354 N 
ATOM     46  C   UNL A   1      41.332  27.435  28.668  1.00  0.00     0.074 A 
ATOM     47  C   UNL A   1      40.422  26.312  28.598  1.00  0.00     0.031 C 
ATOM     48  C   UNL A   1      46.677  25.146  25.941  1.00  0.00     0.029 A 
ATOM     49  C   UNL A   1      46.441  26.496  26.441  1.00  0.00     0.049 A 
ATOM     50  H   UNL A   1      44.749  27.199  27.436  1.00  0.00     0.167 HD
ATOM     51  C   UNL A   1      41.004  28.650  29.172  1.00  0.00     0.034 A 
ATOM     52  C   UNL A   1      47.304  27.525  26.342  1.00  0.00     0.034 A 
ATOM     53  C   UNL A   1      41.920  29.755  29.266  1.00  0.00     0.049 A 
ATOM     54  C   UNL A   1      46.923  28.858  26.928  1.00  0.00     0.074 A 
ATOM     55  C   UNL A   1      41.712  30.997  29.838  1.00  0.00     0.029 A 
ATOM     56  N   UNL A   1      43.211  29.759  28.761  1.00  0.00    -0.354 N 
ATOM     57  N   UNL A   1      45.822  29.202  27.550  1.00  0.00    -0.248 NA
ATOM     58  C   UNL A   1      47.918  29.935  26.828  1.00  0.00     0.031 C 
ATOM     59  C   UNL A   1      42.865  31.764  29.647  1.00  0.00     0.029 A 
ATOM     60  C   UNL A   1      43.806  30.987  28.993  1.00  0.00     0.049 A 
ATOM     61  H   UNL A   1      43.642  29.000  28.306  1.00  0.00     0.167 HD
ATOM     62  C   UNL A   1      46.004  30.522  27.946  1.00  0.00     0.074 A 
ATOM     63  C   UNL A   1      47.332  30.907  27.514  1.00  0.00     0.031 C 
ATOM     64  C   UNL A   1      45.146  31.345  28.597  1.00  0.00     0.034 A 
BRANCH  51  65
ATOM     65  C   UNL A   1      39.604  28.835  29.700  1.00  0.00     0.023 A 
ATOM     66  C   UNL A   1      39.299  28.449  31.021  1.00  0.00     0.012 A 
ATOM     67  C   UNL A   1      38.606  29.437  28.910  1.00  0.00     0.148 A 
ATOM     68  C   UNL A   1      38.014  28.622  31.535  1.00  0.00     0.002 A 
ATOM     69  C   UNL A   1      37.340  29.651  29.445  1.00  0.00     0.091 A 
ATOM     70  F   UNL A   1      38.907  29.781  27.650  1.00  0.00    -0.205 F 
ATOM     71  C   UNL A   1      37.039  29.233  30.751  1.00  0.00     0.022 A 
BRANCH  69  72
ATOM     72  S   UNL A   1      36.038  30.503  28.547  1.00  0.00     0.127 S 
ATOM     73  O   UNL A   1      35.325  29.383  27.931  1.00  0.00    -0.237 OA
ATOM     74  O   UNL A   1      35.309  31.170  29.625  1.00  0.00    -0.237 OA
ATOM     75  O   UNL A   1      36.709  31.401  27.619  1.00  0.00    -0.744 OA
ENDBRANCH  69  72
ENDBRANCH  51  65
BRANCH  52  76
ATOM     76  C   UNL A   1      48.639  27.321  25.710  1.00  0.00     0.023 A 
ATOM     77  C   UNL A   1      49.717  26.874  26.497  1.00  0.00     0.012 A 
ATOM     78  C   UNL A   1      48.839  27.544  24.334  1.00  0.00     0.148 A 
ATOM     79  C   UNL A   1      50.980  26.689  25.933  1.00  0.00     0.002 A 
ATOM     80  C   UNL A   1      50.085  27.303  23.768  1.00  0.00     0.091 A 
ATOM     81  F   UNL A   1      47.801  27.976  23.603  1.00  0.00    -0.205 F 
ATOM     82  C   UNL A   1      51.162  26.893  24.569  1.00  0.00     0.022 A 
BRANCH  80  83
ATOM     83  S   UNL A   1      50.380  27.413  21.999  1.00  0.00     0.127 S 
ATOM     84  O   UNL A   1      51.767  26.968  21.899  1.00  0.00    -0.237 OA
ATOM     85  O   UNL A   1      49.390  26.472  21.471  1.00  0.00    -0.237 OA
ATOM     86  O   UNL A   1      50.136  28.804  21.644  1.00  0.00    -0.744 OA
ENDBRANCH  80  83
ENDBRANCH  52  76
BRANCH  64  87
ATOM     87  C   UNL A   1      45.622  32.737  28.923  1.00  0.00     0.023 A 
ATOM     88  C   UNL A   1      46.253  32.997  30.155  1.00  0.00     0.012 A 
ATOM     89  C   UNL A   1      45.503  33.774  27.975  1.00  0.00     0.148 A 
ATOM     90  C   UNL A   1      46.726  34.274  30.454  1.00  0.00     0.002 A 
ATOM     91  C   UNL A   1      46.026  35.030  28.258  1.00  0.00     0.091 A 
ATOM     92  F   UNL A   1      44.884  33.511  26.814  1.00  0.00    -0.205 F 
ATOM     93  C   UNL A   1      46.624  35.285  29.502  1.00  0.00     0.022 A 
BRANCH  91  94
ATOM     94  S   UNL A   1      46.030  36.366  27.058  1.00  0.00     0.127 S 
ATOM     95  O   UNL A   1      44.669  36.884  27.184  1.00  0.00    -0.237 OA
ATOM     96  O   UNL A   1      47.070  37.250  27.583  1.00  0.00    -0.237 OA
ATOM     97  O   UNL A   1      46.348  35.754  25.774  1.00  0.00    -0.744 OA
ENDBRANCH  91  94
ENDBRANCH  64  87
ENDBRANCH  38  39
ENDBRANCH  30  33
ENDBRANCH  28  29
ENDBRANCH  27  28
ENDBRANCH   1  27
TORSDOF 18
ENDMDL
MODEL 2
REMARK VINA RESULT:     -12.0      2.168      8.401
REMARK SMILES C[C@H]1[C@H](C(=O)NCCCCCCNC(=O)c2ccc(-c3c4nc(c(-c5cccc(S(=O)(=O)[O-])c5F)c5ccc([nH]5)c(-c5cccc(S(=O)(=O)[O-])c5F)c5nc(c(-c6cccc(S(=O)(=O)[O-])c6F)c6ccc3[nH]6)C=C5)C=C4)cc2)CCN1C(=O)c1ccc2ccccc2c1
REMARK SMILES IDX 10 1 9 2 8 3 7 4 6 5 4 6 5 7 3 9 1 10 2 11 81 12 79 13 80 14
REMARK SMILES IDX 82 15 83 16 84 17 85 18 93 19 86 20 92 21 87 22 91 23 88 24
REMARK SMILES IDX 90 25 89 26 11 27 12 28 13 29 14 30 15 32 16 33 17 34 78 35
REMARK SMILES IDX 18 36 77 37 19 38 20 39 21 40 71 41 22 42 76 43 70 44 72 45
REMARK SMILES IDX 23 46 75 47 69 48 68 49 24 51 56 52 36 53 55 54 37 55 40 56
REMARK SMILES IDX 54 57 73 58 38 59 39 60 53 62 74 63 41 64 25 65 26 66 34 67
REMARK SMILES IDX 27 68 29 69 35 70 28 71 30 72 31 73 32 74 33 75 57 76 58 77
REMARK SMILES IDX 66 78 59 79 61 80 67 81 60 82 62 83 63 84 64 85 65 86 42 87
REMARK SMILES IDX 43 88 51 89 44 90 46 91 52 92 45 93 47 94 48 95 49 96 50 97
REMARK H PARENT 6 8 13 31 72 50 40 61
REMARK Flexibility Score: inf
ROOT
ATOM      1  C   UNL A   1      35.507  23.154  25.352  1.00  0.00     0.002 C 
ENDROOT
BRANCH   1   2
ATOM      2  C   UNL A   1      35.480  24.142  24.181  1.00  0.00     0.002 C 
BRANCH   2   3
ATOM      3  C   UNL A   1      34.574  23.729  23.018  1.00  0.00     0.021 C 
BRANCH   3   4
ATOM      4  C   UNL A   1      33.380  24.655  22.811  1.00  0.00     0.116 C 
BRANCH   4   5
ATOM      5  N   UNL A   1      33.783  25.879  22.143  1.00  0.00    -0.356 N 
ATOM      6  C   UNL A   1      33.629  27.179  22.507  1.00  0.00     0.225 C 
ATOM      7  O   UNL A   1      34.002  28.044  21.710  1.00  0.00    -0.275 OA
ATOM      8  H   UNL A   1      34.244  25.745  21.283  1.00  0.00     0.163 HD
BRANCH   6   9
ATOM      9  C   UNL A   1      33.039  27.582  23.849  1.00  0.00     0.102 C 
ATOM     10  C   UNL A   1      30.602  28.098  24.188  1.00  0.00     0.032 C 
ATOM     11  C   UNL A   1      31.645  26.984  24.112  1.00  0.00     0.094 C 
ATOM     12  N   UNL A   1      31.786  26.254  25.375  1.00  0.00    -0.335 N 
ATOM     13  C   UNL A   1      33.932  27.201  25.033  1.00  0.00     0.037 C 
ATOM     14  C   UNL A   1      32.996  26.629  26.079  1.00  0.00     0.121 C 
BRANCH  12  15
ATOM     15  C   UNL A   1      30.977  25.260  25.898  1.00  0.00     0.254 C 
ATOM     16  O   UNL A   1      29.846  25.466  26.329  1.00  0.00    -0.269 OA
BRANCH  15  17
ATOM     17  C   UNL A   1      31.441  23.865  25.853  1.00  0.00     0.040 A 
ATOM     18  C   UNL A   1      32.005  23.350  27.021  1.00  0.00     0.014 A 
ATOM     19  C   UNL A   1      31.431  23.119  24.674  1.00  0.00     0.022 A 
ATOM     20  C   UNL A   1      32.490  22.045  27.037  1.00  0.00     0.009 A 
ATOM     21  C   UNL A   1      31.965  21.816  24.667  1.00  0.00    -0.018 A 
ATOM     22  C   UNL A   1      32.471  21.267  25.872  1.00  0.00    -0.018 A 
ATOM     23  C   UNL A   1      32.041  21.049  23.491  1.00  0.00     0.009 A 
ATOM     24  C   UNL A   1      32.987  19.962  25.878  1.00  0.00     0.009 A 
ATOM     25  C   UNL A   1      32.601  19.769  23.507  1.00  0.00     0.001 A 
ATOM     26  C   UNL A   1      33.060  19.221  24.700  1.00  0.00     0.001 A 
ENDBRANCH  15  17
ENDBRANCH  12  15
ENDBRANCH   6   9
ENDBRANCH   4   5
ENDBRANCH   3   4
ENDBRANCH   2   3
ENDBRANCH   1   2
BRANCH   1  27
ATOM     27  C   UNL A   1      35.978  21.741  24.994  1.00  0.00     0.021 C 
BRANCH  27  28
ATOM     28  C   UNL A   1      37.433  21.655  24.544  1.00  0.00     0.116 C 
BRANCH  28  29
ATOM     29  N   UNL A   1      38.152  20.603  25.245  1.00  0.00    -0.352 N 
ATOM     30  C   UNL A   1      39.279  20.691  26.023  1.00  0.00     0.251 C 
ATOM     31  H   UNL A   1      37.775  19.698  25.149  1.00  0.00     0.163 HD
ATOM     32  O   UNL A   1      39.876  19.674  26.355  1.00  0.00    -0.269 OA
BRANCH  30  33
ATOM     33  C   UNL A   1      39.773  22.018  26.448  1.00  0.00     0.039 A 
ATOM     34  C   UNL A   1      40.811  22.088  27.378  1.00  0.00     0.014 A 
ATOM     35  C   UNL A   1      39.209  23.189  25.933  1.00  0.00     0.014 A 
ATOM     36  C   UNL A   1      41.321  23.334  27.752  1.00  0.00     0.010 A 
ATOM     37  C   UNL A   1      39.769  24.423  26.246  1.00  0.00     0.010 A 
ATOM     38  C   UNL A   1      40.824  24.510  27.166  1.00  0.00    -0.014 A 
BRANCH  38  39
ATOM     39  C   UNL A   1      41.407  25.836  27.495  1.00  0.00     0.031 A 
ATOM     40  C   UNL A   1      42.824  26.162  27.110  1.00  0.00     0.074 A 
ATOM     41  C   UNL A   1      40.681  26.720  28.209  1.00  0.00     0.049 A 
ATOM     42  N   UNL A   1      43.513  27.248  27.346  1.00  0.00    -0.248 NA
ATOM     43  C   UNL A   1      43.576  25.122  26.387  1.00  0.00     0.031 C 
ATOM     44  C   UNL A   1      39.322  26.493  28.707  1.00  0.00     0.029 A 
ATOM     45  N   UNL A   1      40.993  27.977  28.662  1.00  0.00    -0.354 N 
ATOM     46  C   UNL A   1      44.783  27.013  26.834  1.00  0.00     0.074 A 
ATOM     47  C   UNL A   1      44.781  25.666  26.305  1.00  0.00     0.031 C 
ATOM     48  C   UNL A   1      38.916  27.576  29.387  1.00  0.00     0.029 A 
ATOM     49  C   UNL A   1      39.994  28.559  29.407  1.00  0.00     0.049 A 
ATOM     50  H   UNL A   1      41.851  28.421  28.471  1.00  0.00     0.167 HD
ATOM     51  C   UNL A   1      45.847  27.851  26.782  1.00  0.00     0.034 A 
ATOM     52  C   UNL A   1      39.953  29.746  30.043  1.00  0.00     0.034 A 
ATOM     53  C   UNL A   1      45.835  29.199  27.283  1.00  0.00     0.049 A 
ATOM     54  C   UNL A   1      41.142  30.665  29.953  1.00  0.00     0.074 A 
ATOM     55  C   UNL A   1      46.831  30.155  27.201  1.00  0.00     0.029 A 
ATOM     56  N   UNL A   1      44.781  29.779  27.972  1.00  0.00    -0.354 N 
ATOM     57  N   UNL A   1      42.277  30.486  29.324  1.00  0.00    -0.248 NA
ATOM     58  C   UNL A   1      41.029  31.963  30.633  1.00  0.00     0.031 C 
ATOM     59  C   UNL A   1      46.394  31.300  27.874  1.00  0.00     0.029 A 
ATOM     60  C   UNL A   1      45.109  31.072  28.338  1.00  0.00     0.049 A 
ATOM     61  H   UNL A   1      43.925  29.335  28.172  1.00  0.00     0.167 HD
ATOM     62  C   UNL A   1      43.001  31.660  29.501  1.00  0.00     0.074 A 
ATOM     63  C   UNL A   1      42.164  32.552  30.277  1.00  0.00     0.031 C 
ATOM     64  C   UNL A   1      44.249  31.967  29.072  1.00  0.00     0.034 A 
BRANCH  51  65
ATOM     65  C   UNL A   1      47.106  27.344  26.124  1.00  0.00     0.023 A 
ATOM     66  C   UNL A   1      47.317  27.576  24.749  1.00  0.00     0.012 A 
ATOM     67  C   UNL A   1      48.101  26.686  26.873  1.00  0.00     0.148 A 
ATOM     68  C   UNL A   1      48.479  27.128  24.123  1.00  0.00     0.002 A 
ATOM     69  C   UNL A   1      49.278  26.286  26.252  1.00  0.00     0.091 A 
ATOM     70  F   UNL A   1      47.875  26.457  28.175  1.00  0.00    -0.205 F 
ATOM     71  C   UNL A   1      49.464  26.493  24.875  1.00  0.00     0.022 A 
BRANCH  69  72
ATOM     72  S   UNL A   1      50.641  25.533  27.148  1.00  0.00     0.127 S 
ATOM     73  O   UNL A   1      50.014  24.319  27.672  1.00  0.00    -0.237 OA
ATOM     74  O   UNL A   1      51.618  25.303  26.084  1.00  0.00    -0.237 OA
ATOM     75  O   UNL A   1      51.051  26.506  28.151  1.00  0.00    -0.744 OA
ENDBRANCH  69  72
ENDBRANCH  51  65
BRANCH  52  76
ATOM     76  C   UNL A   1      38.722  30.157  30.777  1.00  0.00     0.023 A 
ATOM     77  C   UNL A   1      38.565  29.789  32.127  1.00  0.00     0.012 A 
ATOM     78  C   UNL A   1      37.721  30.927  30.154  1.00  0.00     0.148 A 
ATOM     79  C   UNL A   1      37.416  30.147  32.833  1.00  0.00     0.002 A 
ATOM     80  C   UNL A   1      36.606  31.329  30.880  1.00  0.00     0.091 A 
ATOM     81  F   UNL A   1      37.886  31.262  28.866  1.00  0.00    -0.205 F 
ATOM     82  C   UNL A   1      36.442  30.925  32.214  1.00  0.00     0.022 A 
BRANCH  80  83
ATOM     83  S   UNL A   1      35.365  32.439  30.206  1.00  0.00     0.127 S 
ATOM     84  O   UNL A   1      36.152  33.638  29.932  1.00  0.00    -0.237 OA
ATOM     85  O   UNL A   1      34.922  31.707  29.018  1.00  0.00    -0.237 OA
ATOM     86  O   UNL A   1      34.350  32.572  31.242  1.00  0.00    -0.744 OA
ENDBRANCH  80  83
ENDBRANCH  52  76
BRANCH  64  87
ATOM     87  C   UNL A   1      44.782  33.340  29.394  1.00  0.00     0.023 A 
ATOM     88  C   UNL A   1      45.550  33.545  30.557  1.00  0.00     0.012 A 
ATOM     89  C   UNL A   1      44.576  34.414  28.504  1.00  0.00     0.148 A 
ATOM     90  C   UNL A   1      46.075  34.803  30.848  1.00  0.00     0.002 A 
ATOM     91  C   UNL A   1      45.149  35.651  28.773  1.00  0.00     0.091 A 
ATOM     92  F   UNL A   1      43.829  34.204  27.410  1.00  0.00    -0.205 F 
ATOM     93  C   UNL A   1      45.885  35.851  29.951  1.00  0.00     0.022 A 
BRANCH  91  94
ATOM     94  S   UNL A   1      45.043  37.033  27.629  1.00  0.00     0.127 S 
ATOM     95  O   UNL A   1      43.713  36.840  27.052  1.00  0.00    -0.237 OA
ATOM     96  O   UNL A   1      45.158  38.184  28.524  1.00  0.00    -0.237 OA
ATOM     97  O   UNL A   1      46.154  36.874  26.701  1.00  0.00    -0.744 OA
ENDBRANCH  91  94
ENDBRANCH  64  87
ENDBRANCH  38  39
ENDBRANCH  30  33
ENDBRANCH  28  29
ENDBRANCH  27  28
ENDBRANCH   1  27
TORSDOF 18
ENDMDL
MODEL 3
REMARK VINA RESULT:     -12.0      2.812      8.170
REMARK SMILES C[C@H]1[C@H](C(=O)NCCCCCCNC(=O)c2ccc(-c3c4nc(c(-c5cccc(S(=O)(=O)[O-])c5F)c5ccc([nH]5)c(-c5cccc(S(=O)(=O)[O-])c5F)c5nc(c(-c6cccc(S(=O)(=O)[O-])c6F)c6ccc3[nH]6)C=C5)C=C4)cc2)CCN1C(=O)c1ccc2ccccc2c1
REMARK SMILES IDX 10 1 9 2 8 3 7 4 6 5 4 6 5 7 3 9 1 10 2 11 81 12 79 13 80 14
REMARK SMILES IDX 82 15 83 16 84 17 85 18 93 19 86 20 92 21 87 22 91 23 88 24
REMARK SMILES IDX 90 25 89 26 11 27 12 28 13 29 14 30 15 32 16 33 17 34 78 35
REMARK SMILES IDX 18 36 77 37 19 38 20 39 21 40 71 41 22 42 76 43 70 44 72 45
REMARK SMILES IDX 23 46 75 47 69 48 68 49 24 51 56 52 36 53 55 54 37 55 40 56
REMARK SMILES IDX 54 57 73 58 38 59 39 60 53 62 74 63 41 64 25 65 26 66 34 67
REMARK SMILES IDX 27 68 29 69 35 70 28 71 30 72 31 73 32 74 33 75 57 76 58 77
REMARK SMILES IDX 66 78 59 79 61 80 67 81 60 82 62 83 63 84 64 85 65 86 42 87
REMARK SMILES IDX 43 88 51 89 44 90 46 91 52 92 45 93 47 94 48 95 49 96 50 97
REMARK H PARENT 6 8 13 31 72 50 40 61
REMARK Flexibility Score: inf
ROOT
ATOM      1  C   UNL A   1      35.026  22.557  23.961  1.00  0.00     0.002 C 
ENDROOT
BRANCH   1   2
ATOM      2  C   UNL A   1      34.671  21.483  24.994  1.00  0.00     0.002 C 
BRANCH   2   3
ATOM      3  C   UNL A   1      33.622  20.469  24.527  1.00  0.00     0.021 C 
BRANCH   3   4
ATOM      4  C   UNL A   1      32.218  20.755  25.047  1.00  0.00     0.116 C 
BRANCH   4   5
ATOM      5  N   UNL A   1      32.261  21.641  26.197  1.00  0.00    -0.356 N 
ATOM      6  C   UNL A   1      31.787  22.903  26.362  1.00  0.00     0.225 C 
ATOM      7  O   UNL A   1      32.024  23.468  27.432  1.00  0.00    -0.275 OA
ATOM      8  H   UNL A   1      32.709  21.264  26.989  1.00  0.00     0.163 HD
BRANCH   6   9
ATOM      9  C   UNL A   1      30.973  23.611  25.290  1.00  0.00     0.102 C 
ATOM     10  C   UNL A   1      29.718  25.751  25.698  1.00  0.00     0.032 C 
ATOM     11  C   UNL A   1      31.078  25.146  25.354  1.00  0.00     0.094 C 
ATOM     12  N   UNL A   1      31.554  25.541  24.025  1.00  0.00    -0.335 N 
ATOM     13  C   UNL A   1      31.355  23.184  23.870  1.00  0.00     0.037 C 
ATOM     14  C   UNL A   1      31.412  24.466  23.064  1.00  0.00     0.121 C 
BRANCH  12  15
ATOM     15  C   UNL A   1      32.146  26.729  23.633  1.00  0.00     0.254 C 
ATOM     16  O   UNL A   1      33.283  26.800  23.176  1.00  0.00    -0.269 OA
BRANCH  15  17
ATOM     17  C   UNL A   1      31.352  27.966  23.667  1.00  0.00     0.040 A 
ATOM     18  C   UNL A   1      31.672  28.895  24.659  1.00  0.00     0.014 A 
ATOM     19  C   UNL A   1      30.253  28.165  22.829  1.00  0.00     0.022 A 
ATOM     20  C   UNL A   1      30.940  30.074  24.763  1.00  0.00     0.009 A 
ATOM     21  C   UNL A   1      29.476  29.332  22.960  1.00  0.00    -0.018 A 
ATOM     22  C   UNL A   1      29.846  30.308  23.920  1.00  0.00    -0.018 A 
ATOM     23  C   UNL A   1      28.321  29.547  22.189  1.00  0.00     0.009 A 
ATOM     24  C   UNL A   1      29.089  31.483  24.044  1.00  0.00     0.009 A 
ATOM     25  C   UNL A   1      27.552  30.702  22.358  1.00  0.00     0.001 A 
ATOM     26  C   UNL A   1      27.943  31.674  23.273  1.00  0.00     0.001 A 
ENDBRANCH  15  17
ENDBRANCH  12  15
ENDBRANCH   6   9
ENDBRANCH   4   5
ENDBRANCH   3   4
ENDBRANCH   2   3
ENDBRANCH   1   2
BRANCH   1  27
ATOM     27  C   UNL A   1      36.500  22.970  23.939  1.00  0.00     0.021 C 
BRANCH  27  28
ATOM     28  C   UNL A   1      37.055  23.407  25.291  1.00  0.00     0.116 C 
BRANCH  28  29
ATOM     29  N   UNL A   1      38.016  22.449  25.814  1.00  0.00    -0.352 N 
ATOM     30  C   UNL A   1      39.201  22.677  26.468  1.00  0.00     0.251 C 
ATOM     31  H   UNL A   1      37.782  21.502  25.682  1.00  0.00     0.163 HD
ATOM     32  O   UNL A   1      39.992  21.757  26.642  1.00  0.00    -0.269 OA
BRANCH  30  33
ATOM     33  C   UNL A   1      39.522  24.037  26.950  1.00  0.00     0.039 A 
ATOM     34  C   UNL A   1      39.266  24.361  28.284  1.00  0.00     0.014 A 
ATOM     35  C   UNL A   1      40.069  24.991  26.086  1.00  0.00     0.014 A 
ATOM     36  C   UNL A   1      39.609  25.626  28.765  1.00  0.00     0.010 A 
ATOM     37  C   UNL A   1      40.482  26.221  26.586  1.00  0.00     0.010 A 
ATOM     38  C   UNL A   1      40.248  26.556  27.927  1.00  0.00    -0.014 A 
BRANCH  38  39
ATOM     39  C   UNL A   1      40.688  27.878  28.443  1.00  0.00     0.031 A 
ATOM     40  C   UNL A   1      42.152  28.179  28.617  1.00  0.00     0.074 A 
ATOM     41  C   UNL A   1      39.764  28.781  28.828  1.00  0.00     0.049 A 
ATOM     42  N   UNL A   1      42.722  29.257  29.088  1.00  0.00    -0.248 NA
ATOM     43  C   UNL A   1      43.102  27.119  28.235  1.00  0.00     0.031 C 
ATOM     44  C   UNL A   1      38.314  28.580  28.781  1.00  0.00     0.029 A 
ATOM     45  N   UNL A   1      39.906  30.039  29.358  1.00  0.00    -0.354 N 
ATOM     46  C   UNL A   1      44.087  28.998  29.091  1.00  0.00     0.074 A 
ATOM     47  C   UNL A   1      44.259  27.644  28.608  1.00  0.00     0.031 C 
ATOM     48  C   UNL A   1      37.702  29.677  29.253  1.00  0.00     0.029 A 
ATOM     49  C   UNL A   1      38.711  30.644  29.670  1.00  0.00     0.049 A 
ATOM     50  H   UNL A   1      40.781  30.468  29.501  1.00  0.00     0.167 HD
ATOM     51  C   UNL A   1      45.108  29.819  29.437  1.00  0.00     0.034 A 
ATOM     52  C   UNL A   1      38.456  31.839  30.238  1.00  0.00     0.034 A 
ATOM     53  C   UNL A   1      44.933  31.172  29.889  1.00  0.00     0.049 A 
ATOM     54  C   UNL A   1      39.608  32.739  30.595  1.00  0.00     0.074 A 
ATOM     55  C   UNL A   1      45.905  32.113  30.182  1.00  0.00     0.029 A 
ATOM     56  N   UNL A   1      43.708  31.776  30.129  1.00  0.00    -0.354 N 
ATOM     57  N   UNL A   1      40.893  32.536  30.439  1.00  0.00    -0.248 NA
ATOM     58  C   UNL A   1      39.272  34.047  31.175  1.00  0.00     0.031 C 
ATOM     59  C   UNL A   1      45.267  33.272  30.634  1.00  0.00     0.029 A 
ATOM     60  C   UNL A   1      43.898  33.069  30.584  1.00  0.00     0.049 A 
ATOM     61  H   UNL A   1      42.832  31.347  29.996  1.00  0.00     0.167 HD
ATOM     62  C   UNL A   1      41.519  33.701  30.868  1.00  0.00     0.074 A 
ATOM     63  C   UNL A   1      40.468  34.615  31.268  1.00  0.00     0.031 C 
ATOM     64  C   UNL A   1      42.843  33.986  30.937  1.00  0.00     0.034 A 
BRANCH  51  65
ATOM     65  C   UNL A   1      46.512  29.285  29.303  1.00  0.00     0.023 A 
ATOM     66  C   UNL A   1      47.129  28.657  30.404  1.00  0.00     0.012 A 
ATOM     67  C   UNL A   1      47.199  29.357  28.075  1.00  0.00     0.148 A 
ATOM     68  C   UNL A   1      48.421  28.145  30.299  1.00  0.00     0.002 A 
ATOM     69  C   UNL A   1      48.469  28.800  27.964  1.00  0.00     0.091 A 
ATOM     70  F   UNL A   1      46.606  29.973  27.044  1.00  0.00    -0.205 F 
ATOM     71  C   UNL A   1      49.087  28.207  29.077  1.00  0.00     0.022 A 
BRANCH  69  72
ATOM     72  S   UNL A   1      49.377  28.755  26.415  1.00  0.00     0.127 S 
ATOM     73  O   UNL A   1      49.862  30.132  26.319  1.00  0.00    -0.237 OA
ATOM     74  O   UNL A   1      50.413  27.762  26.696  1.00  0.00    -0.237 OA
ATOM     75  O   UNL A   1      48.416  28.360  25.396  1.00  0.00    -0.744 OA
ENDBRANCH  69  72
ENDBRANCH  51  65
BRANCH  52  76
ATOM     76  C   UNL A   1      37.048  32.277  30.454  1.00  0.00     0.023 A 
ATOM     77  C   UNL A   1      36.449  32.088  31.714  1.00  0.00     0.012 A 
ATOM     78  C   UNL A   1      36.308  32.898  29.428  1.00  0.00     0.148 A 
ATOM     79  C   UNL A   1      35.127  32.475  31.938  1.00  0.00     0.002 A 
ATOM     80  C   UNL A   1      35.012  33.333  29.676  1.00  0.00     0.091 A 
ATOM     81  F   UNL A   1      36.894  33.063  28.233  1.00  0.00    -0.205 F 
ATOM     82  C   UNL A   1      34.413  33.105  30.925  1.00  0.00     0.022 A 
BRANCH  80  83
ATOM     83  S   UNL A   1      34.061  34.270  28.474  1.00  0.00     0.127 S 
ATOM     84  O   UNL A   1      32.808  34.490  29.190  1.00  0.00    -0.237 OA
ATOM     85  O   UNL A   1      34.891  35.463  28.301  1.00  0.00    -0.237 OA
ATOM     86  O   UNL A   1      33.974  33.423  27.293  1.00  0.00    -0.744 OA
ENDBRANCH  80  83
ENDBRANCH  52  76
BRANCH  64  87
ATOM     87  C   UNL A   1      43.241  35.354  31.427  1.00  0.00     0.023 A 
ATOM     88  C   UNL A   1      43.455  35.577  32.801  1.00  0.00     0.012 A 
ATOM     89  C   UNL A   1      43.468  36.403  30.513  1.00  0.00     0.148 A 
ATOM     90  C   UNL A   1      43.854  36.830  33.263  1.00  0.00     0.002 A 
ATOM     91  C   UNL A   1      43.919  37.634  30.975  1.00  0.00     0.091 A 
ATOM     92  F   UNL A   1      43.242  36.177  29.210  1.00  0.00    -0.205 F 
ATOM     93  C   UNL A   1      44.098  37.854  32.350  1.00  0.00     0.022 A 
BRANCH  91  94
ATOM     94  S   UNL A   1      44.354  38.979  29.867  1.00  0.00     0.127 S 
ATOM     95  O   UNL A   1      43.045  39.566  29.583  1.00  0.00    -0.237 OA
ATOM     96  O   UNL A   1      45.222  39.803  30.708  1.00  0.00    -0.237 OA
ATOM     97  O   UNL A   1      45.021  38.364  28.727  1.00  0.00    -0.744 OA
ENDBRANCH  91  94
ENDBRANCH  64  87
ENDBRANCH  38  39
ENDBRANCH  30  33
ENDBRANCH  28  29
ENDBRANCH  27  28
ENDBRANCH   1  27
TORSDOF 18
ENDMDL
