MODEL 1
REMARK VINA RESULT:     -12.2      0.000      0.000
REMARK SMILES NC(=O)c1c(-c2ccc(Cl)cc2)csc1NC(=O)[C@H]1[C@@H](C(=O)NCCCCCCNC(=O)c2ccc(-c3c4nc(c(-c5cccc(S(=O)(=O)[O-])c5F)c5ccc([nH]5)c(-c5cccc(S(=O)(=O)[O-])c5F)c5nc(c(-c6cccc(S(=O)(=O)[O-])c6F)c6ccc3[nH]6)C=C5)C=C4)cc2)[C@@H]2CC[C@H]1O2
REMARK SMILES IDX 26 1 25 2 24 3 23 4 21 5 22 6 20 8 19 9 99 10 96 11 98 12
REMARK SMILES IDX 100 13 97 14 17 15 16 16 18 18 15 19 4 20 5 21 13 22 14 23
REMARK SMILES IDX 2 24 1 25 3 28 6 29 7 30 12 31 8 32 11 33 9 34 10 35 27 36
REMARK SMILES IDX 28 37 29 38 30 39 31 40 32 42 33 43 34 44 95 45 35 46 94 47
REMARK SMILES IDX 36 48 37 49 38 50 88 51 39 52 93 53 87 54 89 55 40 56 92 57
REMARK SMILES IDX 86 58 85 59 41 61 73 62 53 63 72 64 54 65 57 66 71 67 90 68
REMARK SMILES IDX 55 69 56 70 70 72 91 73 58 74 42 75 43 76 51 77 44 78 46 79
REMARK SMILES IDX 52 80 45 81 47 82 48 83 49 84 50 85 74 86 75 87 83 88 76 89
REMARK SMILES IDX 78 90 84 91 77 92 79 93 80 94 81 95 82 96 59 97 60 98 68 99
REMARK SMILES IDX 61 100 63 101 69 102 62 103 64 104 65 105 66 106 67 107
REMARK H PARENT 23 7 16 17 1 26 1 27 30 41 89 60 57 71
REMARK Flexibility Score: inf
ROOT
ATOM      1  C   UNL A   1      37.097  22.967  25.243  1.00  0.00     0.002 C 
ENDROOT
BRANCH   1   2
ATOM      2  C   UNL A   1      35.992  22.672  26.274  1.00  0.00     0.021 C 
BRANCH   2   3
ATOM      3  C   UNL A   1      34.825  23.668  26.263  1.00  0.00     0.116 C 
BRANCH   3   4
ATOM      4  N   UNL A   1      34.921  24.495  25.078  1.00  0.00    -0.356 N 
ATOM      5  C   UNL A   1      34.046  25.375  24.533  1.00  0.00     0.226 C 
ATOM      6  O   UNL A   1      34.233  25.662  23.350  1.00  0.00    -0.275 OA
ATOM      7  H   UNL A   1      35.768  24.404  24.583  1.00  0.00     0.163 HD
BRANCH   5   8
ATOM      8  C   UNL A   1      33.046  26.088  25.426  1.00  0.00     0.122 C 
ATOM      9  C   UNL A   1      31.660  26.515  24.899  1.00  0.00     0.123 C 
ATOM     10  C   UNL A   1      31.828  28.046  24.753  1.00  0.00     0.132 C 
ATOM     11  C   UNL A   1      33.674  27.458  25.731  1.00  0.00     0.132 C 
ATOM     12  C   UNL A   1      31.716  28.752  26.104  1.00  0.00     0.035 C 
ATOM     13  O   UNL A   1      33.252  28.217  24.573  1.00  0.00    -0.373 OA
ATOM     14  C   UNL A   1      32.928  28.190  26.849  1.00  0.00     0.035 C 
BRANCH   9  15
ATOM     15  C   UNL A   1      31.097  25.898  23.628  1.00  0.00     0.231 C 
ATOM     16  N   UNL A   1      30.937  24.543  23.457  1.00  0.00    -0.317 N 
ATOM     17  H   UNL A   1      30.515  24.324  22.595  1.00  0.00     0.170 HD
ATOM     18  O   UNL A   1      30.784  26.605  22.666  1.00  0.00    -0.274 OA
BRANCH  16  19
ATOM     19  C   UNL A   1      31.228  23.403  24.205  1.00  0.00     0.108 A 
ATOM     20  C   UNL A   1      31.879  22.252  23.747  1.00  0.00     0.082 A 
ATOM     21  C   UNL A   1      32.097  21.309  24.837  1.00  0.00     0.007 A 
ATOM     22  C   UNL A   1      31.543  21.762  26.016  1.00  0.00     0.076 A 
ATOM     23  S   UNL A   1      30.789  23.257  25.828  1.00  0.00    -0.125 S 
BRANCH  20  24
ATOM     24  C   UNL A   1      32.284  22.105  22.348  1.00  0.00     0.252 C 
ATOM     25  N   UNL A   1      31.716  21.099  21.631  1.00  0.00    -0.365 N 
ATOM     26  H   UNL A   1      31.961  20.968  20.687  1.00  0.00     0.159 HD
ATOM     27  H   UNL A   1      31.058  20.502  22.056  1.00  0.00     0.159 HD
ATOM     28  O   UNL A   1      33.062  22.888  21.795  1.00  0.00    -0.269 OA
ENDBRANCH  20  24
BRANCH  21  29
ATOM     29  C   UNL A   1      32.831  20.049  24.867  1.00  0.00    -0.017 A 
ATOM     30  C   UNL A   1      34.223  20.045  24.691  1.00  0.00     0.010 A 
ATOM     31  C   UNL A   1      32.153  18.834  25.023  1.00  0.00     0.010 A 
ATOM     32  C   UNL A   1      34.929  18.840  24.677  1.00  0.00     0.021 A 
ATOM     33  C   UNL A   1      32.862  17.629  25.014  1.00  0.00     0.021 A 
ATOM     34  C   UNL A   1      34.246  17.637  24.842  1.00  0.00     0.041 A 
ATOM     35  Cl  UNL A   1      35.118  16.155  24.828  1.00  0.00    -0.084 Cl
ENDBRANCH  21  29
ENDBRANCH  16  19
ENDBRANCH   9  15
ENDBRANCH   5   8
ENDBRANCH   3   4
ENDBRANCH   2   3
ENDBRANCH   1   2
BRANCH   1  36
ATOM     36  C   UNL A   1      37.475  21.785  24.349  1.00  0.00     0.002 C 
BRANCH  36  37
ATOM     37  C   UNL A   1      38.005  20.569  25.106  1.00  0.00     0.021 C 
BRANCH  37  38
ATOM     38  C   UNL A   1      39.291  20.819  25.888  1.00  0.00     0.116 C 
BRANCH  38  39
ATOM     39  N   UNL A   1      40.154  19.645  25.939  1.00  0.00    -0.352 N 
ATOM     40  C   UNL A   1      41.518  19.590  26.096  1.00  0.00     0.251 C 
ATOM     41  H   UNL A   1      39.699  18.777  25.850  1.00  0.00     0.163 HD
ATOM     42  O   UNL A   1      42.118  18.528  25.963  1.00  0.00    -0.269 OA
BRANCH  40  43
ATOM     43  C   UNL A   1      42.257  20.834  26.398  1.00  0.00     0.039 A 
ATOM     44  C   UNL A   1      42.648  21.665  25.347  1.00  0.00     0.014 A 
ATOM     45  C   UNL A   1      42.522  21.192  27.723  1.00  0.00     0.014 A 
ATOM     46  C   UNL A   1      43.245  22.897  25.629  1.00  0.00     0.010 A 
ATOM     47  C   UNL A   1      43.048  22.448  28.002  1.00  0.00     0.010 A 
ATOM     48  C   UNL A   1      43.414  23.314  26.960  1.00  0.00    -0.014 A 
BRANCH  48  49
ATOM     49  C   UNL A   1      43.954  24.657  27.296  1.00  0.00     0.031 A 
ATOM     50  C   UNL A   1      43.037  25.722  27.834  1.00  0.00     0.074 A 
ATOM     51  C   UNL A   1      45.238  24.951  27.011  1.00  0.00     0.049 A 
ATOM     52  N   UNL A   1      43.290  26.981  28.076  1.00  0.00    -0.248 NA
ATOM     53  C   UNL A   1      41.645  25.327  28.104  1.00  0.00     0.031 C 
ATOM     54  C   UNL A   1      46.208  24.025  26.421  1.00  0.00     0.029 A 
ATOM     55  N   UNL A   1      45.939  26.124  27.145  1.00  0.00    -0.354 N 
ATOM     56  C   UNL A   1      42.085  27.537  28.488  1.00  0.00     0.074 A 
ATOM     57  C   UNL A   1      41.093  26.486  28.432  1.00  0.00     0.031 C 
ATOM     58  C   UNL A   1      47.374  24.665  26.240  1.00  0.00     0.029 A 
ATOM     59  C   UNL A   1      47.227  26.055  26.663  1.00  0.00     0.049 A 
ATOM     60  H   UNL A   1      45.558  26.937  27.547  1.00  0.00     0.167 HD
ATOM     61  C   UNL A   1      41.831  28.803  28.897  1.00  0.00     0.034 A 
ATOM     62  C   UNL A   1      48.176  27.006  26.559  1.00  0.00     0.034 A 
ATOM     63  C   UNL A   1      42.829  29.833  28.991  1.00  0.00     0.049 A 
ATOM     64  C   UNL A   1      47.877  28.395  27.053  1.00  0.00     0.074 A 
ATOM     65  C   UNL A   1      42.690  31.122  29.477  1.00  0.00     0.029 A 
ATOM     66  N   UNL A   1      44.147  29.699  28.584  1.00  0.00    -0.354 N 
ATOM     67  N   UNL A   1      46.771  28.864  27.578  1.00  0.00    -0.248 NA
ATOM     68  C   UNL A   1      48.966  29.379  26.974  1.00  0.00     0.031 C 
ATOM     69  C   UNL A   1      43.920  31.774  29.339  1.00  0.00     0.029 A 
ATOM     70  C   UNL A   1      44.832  30.881  28.799  1.00  0.00     0.049 A 
ATOM     71  H   UNL A   1      44.538  28.881  28.200  1.00  0.00     0.167 HD
ATOM     72  C   UNL A   1      47.043  30.180  27.932  1.00  0.00     0.074 A 
ATOM     73  C   UNL A   1      48.424  30.432  27.571  1.00  0.00     0.031 C 
ATOM     74  C   UNL A   1      46.222  31.100  28.494  1.00  0.00     0.034 A 
BRANCH  61  75
ATOM     75  C   UNL A   1      40.424  29.133  29.322  1.00  0.00     0.023 A 
ATOM     76  C   UNL A   1      39.503  29.615  28.371  1.00  0.00     0.012 A 
ATOM     77  C   UNL A   1      39.995  28.908  30.645  1.00  0.00     0.148 A 
ATOM     78  C   UNL A   1      38.188  29.904  28.735  1.00  0.00     0.002 A 
ATOM     79  C   UNL A   1      38.670  29.152  30.990  1.00  0.00     0.091 A 
ATOM     80  F   UNL A   1      40.890  28.468  31.542  1.00  0.00    -0.205 F 
ATOM     81  C   UNL A   1      37.770  29.662  30.041  1.00  0.00     0.022 A 
BRANCH  79  82
ATOM     82  S   UNL A   1      38.013  28.793  32.623  1.00  0.00     0.127 S 
ATOM     83  O   UNL A   1      38.903  29.577  33.478  1.00  0.00    -0.237 OA
ATOM     84  O   UNL A   1      36.648  29.314  32.525  1.00  0.00    -0.237 OA
ATOM     85  O   UNL A   1      38.102  27.350  32.784  1.00  0.00    -0.744 OA
ENDBRANCH  79  82
ENDBRANCH  61  75
BRANCH  62  86
ATOM     86  C   UNL A   1      49.520  26.660  26.015  1.00  0.00     0.023 A 
ATOM     87  C   UNL A   1      50.394  25.868  26.785  1.00  0.00     0.012 A 
ATOM     88  C   UNL A   1      49.928  27.086  24.736  1.00  0.00     0.148 A 
ATOM     89  C   UNL A   1      51.663  25.536  26.307  1.00  0.00     0.002 A 
ATOM     90  C   UNL A   1      51.171  26.705  24.242  1.00  0.00     0.091 A 
ATOM     91  F   UNL A   1      49.086  27.847  24.022  1.00  0.00    -0.205 F 
ATOM     92  C   UNL A   1      52.046  25.945  25.034  1.00  0.00     0.022 A 
BRANCH  90  93
ATOM     93  S   UNL A   1      51.697  27.075  22.565  1.00  0.00     0.127 S 
ATOM     94  O   UNL A   1      51.981  28.506  22.649  1.00  0.00    -0.237 OA
ATOM     95  O   UNL A   1      52.875  26.220  22.421  1.00  0.00    -0.237 OA
ATOM     96  O   UNL A   1      50.578  26.702  21.709  1.00  0.00    -0.744 OA
ENDBRANCH  90  93
ENDBRANCH  62  86
BRANCH  74  97
ATOM     97  C   UNL A   1      46.795  32.456  28.812  1.00  0.00     0.023 A 
ATOM     98  C   UNL A   1      47.524  32.654  30.000  1.00  0.00     0.012 A 
ATOM     99  C   UNL A   1      46.688  33.509  27.882  1.00  0.00     0.148 A 
ATOM    100  C   UNL A   1      48.116  33.888  30.270  1.00  0.00     0.002 A 
ATOM    101  C   UNL A   1      47.323  34.719  28.133  1.00  0.00     0.091 A 
ATOM    102  F   UNL A   1      45.975  33.306  26.764  1.00  0.00    -0.205 F 
ATOM    103  C   UNL A   1      48.027  34.914  29.333  1.00  0.00     0.022 A 
BRANCH 101 104
ATOM    104  S   UNL A   1      47.347  36.063  26.941  1.00  0.00     0.127 S 
ATOM    105  O   UNL A   1      48.220  37.032  27.602  1.00  0.00    -0.237 OA
ATOM    106  O   UNL A   1      47.929  35.420  25.763  1.00  0.00    -0.237 OA
ATOM    107  O   UNL A   1      45.961  36.482  26.779  1.00  0.00    -0.744 OA
ENDBRANCH 101 104
ENDBRANCH  74  97
ENDBRANCH  48  49
ENDBRANCH  40  43
ENDBRANCH  38  39
ENDBRANCH  37  38
ENDBRANCH  36  37
ENDBRANCH   1  36
TORSDOF 20
ENDMDL
MODEL 2
REMARK VINA RESULT:     -11.2      2.447      4.325
REMARK SMILES NC(=O)c1c(-c2ccc(Cl)cc2)csc1NC(=O)[C@H]1[C@@H](C(=O)NCCCCCCNC(=O)c2ccc(-c3c4nc(c(-c5cccc(S(=O)(=O)[O-])c5F)c5ccc([nH]5)c(-c5cccc(S(=O)(=O)[O-])c5F)c5nc(c(-c6cccc(S(=O)(=O)[O-])c6F)c6ccc3[nH]6)C=C5)C=C4)cc2)[C@@H]2CC[C@H]1O2
REMARK SMILES IDX 26 1 25 2 24 3 23 4 21 5 22 6 20 8 19 9 99 10 96 11 98 12
REMARK SMILES IDX 100 13 97 14 17 15 16 16 18 18 15 19 4 20 5 21 13 22 14 23
REMARK SMILES IDX 2 24 1 25 3 28 6 29 7 30 12 31 8 32 11 33 9 34 10 35 27 36
REMARK SMILES IDX 28 37 29 38 30 39 31 40 32 42 33 43 34 44 95 45 35 46 94 47
REMARK SMILES IDX 36 48 37 49 38 50 88 51 39 52 93 53 87 54 89 55 40 56 92 57
REMARK SMILES IDX 86 58 85 59 41 61 73 62 53 63 72 64 54 65 57 66 71 67 90 68
REMARK SMILES IDX 55 69 56 70 70 72 91 73 58 74 42 75 43 76 51 77 44 78 46 79
REMARK SMILES IDX 52 80 45 81 47 82 48 83 49 84 50 85 74 86 75 87 83 88 76 89
REMARK SMILES IDX 78 90 84 91 77 92 79 93 80 94 81 95 82 96 59 97 60 98 68 99
REMARK SMILES IDX 61 100 63 101 69 102 62 103 64 104 65 105 66 106 67 107
REMARK H PARENT 23 7 16 17 1 26 1 27 30 41 89 60 57 71
REMARK Flexibility Score: inf
ROOT
ATOM      1  C   UNL A   1      35.592  20.498  25.287  1.00  0.00     0.002 C 
ENDROOT
BRANCH   1   2
ATOM      2  C   UNL A   1      34.414  19.725  24.666  1.00  0.00     0.021 C 
BRANCH   2   3
ATOM      3  C   UNL A   1      33.090  19.859  25.429  1.00  0.00     0.116 C 
BRANCH   3   4
ATOM      4  N   UNL A   1      32.179  20.677  24.656  1.00  0.00    -0.356 N 
ATOM      5  C   UNL A   1      31.970  22.015  24.652  1.00  0.00     0.226 C 
ATOM      6  O   UNL A   1      30.903  22.396  24.167  1.00  0.00    -0.275 OA
ATOM      7  H   UNL A   1      31.615  20.175  24.024  1.00  0.00     0.163 HD
BRANCH   5   8
ATOM      8  C   UNL A   1      33.100  22.953  25.041  1.00  0.00     0.122 C 
ATOM      9  C   UNL A   1      32.837  24.231  25.863  1.00  0.00     0.123 C 
ATOM     10  C   UNL A   1      32.989  25.339  24.793  1.00  0.00     0.132 C 
ATOM     11  C   UNL A   1      33.604  23.556  23.720  1.00  0.00     0.132 C 
ATOM     12  C   UNL A   1      34.460  25.632  24.498  1.00  0.00     0.035 C 
ATOM     13  O   UNL A   1      32.683  24.661  23.555  1.00  0.00    -0.373 OA
ATOM     14  C   UNL A   1      34.927  24.303  23.903  1.00  0.00     0.035 C 
BRANCH   9  15
ATOM     15  C   UNL A   1      31.541  24.391  26.643  1.00  0.00     0.231 C 
ATOM     16  N   UNL A   1      30.750  25.514  26.564  1.00  0.00    -0.317 N 
ATOM     17  H   UNL A   1      29.927  25.427  27.097  1.00  0.00     0.170 HD
ATOM     18  O   UNL A   1      31.157  23.513  27.419  1.00  0.00    -0.274 OA
BRANCH  16  19
ATOM     19  C   UNL A   1      30.831  26.745  25.916  1.00  0.00     0.108 A 
ATOM     20  C   UNL A   1      30.121  27.132  24.773  1.00  0.00     0.082 A 
ATOM     21  C   UNL A   1      30.389  28.526  24.441  1.00  0.00     0.007 A 
ATOM     22  C   UNL A   1      31.323  29.078  25.292  1.00  0.00     0.076 A 
ATOM     23  S   UNL A   1      31.863  27.973  26.443  1.00  0.00    -0.125 S 
BRANCH  20  24
ATOM     24  C   UNL A   1      29.223  26.208  24.079  1.00  0.00     0.252 C 
ATOM     25  N   UNL A   1      27.898  26.513  24.062  1.00  0.00    -0.365 N 
ATOM     26  H   UNL A   1      27.262  25.917  23.605  1.00  0.00     0.159 HD
ATOM     27  H   UNL A   1      27.575  27.330  24.505  1.00  0.00     0.159 HD
ATOM     28  O   UNL A   1      29.631  25.214  23.470  1.00  0.00    -0.269 OA
ENDBRANCH  20  24
BRANCH  21  29
ATOM     29  C   UNL A   1      29.794  29.389  23.427  1.00  0.00    -0.017 A 
ATOM     30  C   UNL A   1      30.376  29.477  22.153  1.00  0.00     0.010 A 
ATOM     31  C   UNL A   1      28.670  30.168  23.726  1.00  0.00     0.010 A 
ATOM     32  C   UNL A   1      29.838  30.332  21.189  1.00  0.00     0.021 A 
ATOM     33  C   UNL A   1      28.128  31.019  22.757  1.00  0.00     0.021 A 
ATOM     34  C   UNL A   1      28.714  31.096  21.494  1.00  0.00     0.041 A 
ATOM     35  Cl  UNL A   1      28.049  32.144  20.303  1.00  0.00    -0.084 Cl
ENDBRANCH  21  29
ENDBRANCH  16  19
ENDBRANCH   9  15
ENDBRANCH   5   8
ENDBRANCH   3   4
ENDBRANCH   2   3
ENDBRANCH   1   2
BRANCH   1  36
ATOM     36  C   UNL A   1      36.977  19.938  24.951  1.00  0.00     0.002 C 
BRANCH  36  37
ATOM     37  C   UNL A   1      38.086  20.987  24.915  1.00  0.00     0.021 C 
BRANCH  37  38
ATOM     38  C   UNL A   1      39.059  20.923  26.089  1.00  0.00     0.116 C 
BRANCH  38  39
ATOM     39  N   UNL A   1      39.967  19.787  26.003  1.00  0.00    -0.352 N 
ATOM     40  C   UNL A   1      41.341  19.782  26.051  1.00  0.00     0.251 C 
ATOM     41  H   UNL A   1      39.541  18.906  25.897  1.00  0.00     0.163 HD
ATOM     42  O   UNL A   1      41.970  18.757  25.808  1.00  0.00    -0.269 OA
BRANCH  40  43
ATOM     43  C   UNL A   1      42.053  21.037  26.370  1.00  0.00     0.039 A 
ATOM     44  C   UNL A   1      42.347  21.933  25.340  1.00  0.00     0.014 A 
ATOM     45  C   UNL A   1      42.387  21.342  27.692  1.00  0.00     0.014 A 
ATOM     46  C   UNL A   1      42.916  23.172  25.647  1.00  0.00     0.010 A 
ATOM     47  C   UNL A   1      42.884  22.602  28.002  1.00  0.00     0.010 A 
ATOM     48  C   UNL A   1      43.153  23.531  26.984  1.00  0.00    -0.014 A 
BRANCH  48  49
ATOM     49  C   UNL A   1      43.665  24.876  27.353  1.00  0.00     0.031 A 
ATOM     50  C   UNL A   1      42.718  25.922  27.876  1.00  0.00     0.074 A 
ATOM     51  C   UNL A   1      44.953  25.190  27.113  1.00  0.00     0.049 A 
ATOM     52  N   UNL A   1      42.947  27.181  28.142  1.00  0.00    -0.248 NA
ATOM     53  C   UNL A   1      41.324  25.506  28.098  1.00  0.00     0.031 C 
ATOM     54  C   UNL A   1      45.953  24.284  26.542  1.00  0.00     0.029 A 
ATOM     55  N   UNL A   1      45.635  26.369  27.283  1.00  0.00    -0.354 N 
ATOM     56  C   UNL A   1      41.722  27.717  28.523  1.00  0.00     0.074 A 
ATOM     57  C   UNL A   1      40.747  26.654  28.423  1.00  0.00     0.031 C 
ATOM     58  C   UNL A   1      47.116  24.941  26.406  1.00  0.00     0.029 A 
ATOM     59  C   UNL A   1      46.938  26.323  26.842  1.00  0.00     0.049 A 
ATOM     60  H   UNL A   1      45.231  27.173  27.684  1.00  0.00     0.167 HD
ATOM     61  C   UNL A   1      41.439  28.974  28.940  1.00  0.00     0.034 A 
ATOM     62  C   UNL A   1      47.877  27.287  26.779  1.00  0.00     0.034 A 
ATOM     63  C   UNL A   1      42.420  30.015  29.078  1.00  0.00     0.049 A 
ATOM     64  C   UNL A   1      47.544  28.666  27.281  1.00  0.00     0.074 A 
ATOM     65  C   UNL A   1      42.250  31.296  29.576  1.00  0.00     0.029 A 
ATOM     66  N   UNL A   1      43.752  29.903  28.711  1.00  0.00    -0.354 N 
ATOM     67  N   UNL A   1      46.417  29.114  27.777  1.00  0.00    -0.248 NA
ATOM     68  C   UNL A   1      48.623  29.665  27.249  1.00  0.00     0.031 C 
ATOM     69  C   UNL A   1      43.474  31.965  29.484  1.00  0.00     0.029 A 
ATOM     70  C   UNL A   1      44.415  31.091  28.963  1.00  0.00     0.049 A 
ATOM     71  H   UNL A   1      44.166  29.095  28.329  1.00  0.00     0.167 HD
ATOM     72  C   UNL A   1      46.661  30.429  28.156  1.00  0.00     0.074 A 
ATOM     73  C   UNL A   1      48.049  30.703  27.842  1.00  0.00     0.031 C 
ATOM     74  C   UNL A   1      45.810  31.331  28.704  1.00  0.00     0.034 A 
BRANCH  61  75
ATOM     75  C   UNL A   1      40.015  29.280  29.325  1.00  0.00     0.023 A 
ATOM     76  C   UNL A   1      39.048  29.479  28.319  1.00  0.00     0.012 A 
ATOM     77  C   UNL A   1      39.621  29.310  30.677  1.00  0.00     0.148 A 
ATOM     78  C   UNL A   1      37.719  29.740  28.651  1.00  0.00     0.002 A 
ATOM     79  C   UNL A   1      38.285  29.522  31.000  1.00  0.00     0.091 A 
ATOM     80  F   UNL A   1      40.558  29.139  31.621  1.00  0.00    -0.205 F 
ATOM     81  C   UNL A   1      37.336  29.750  29.989  1.00  0.00     0.022 A 
BRANCH  79  82
ATOM     82  S   UNL A   1      37.676  29.470  32.689  1.00  0.00     0.127 S 
ATOM     83  O   UNL A   1      36.374  30.122  32.553  1.00  0.00    -0.237 OA
ATOM     84  O   UNL A   1      37.614  28.031  32.948  1.00  0.00    -0.237 OA
ATOM     85  O   UNL A   1      38.655  30.189  33.491  1.00  0.00    -0.744 OA
ENDBRANCH  79  82
ENDBRANCH  61  75
BRANCH  62  86
ATOM     86  C   UNL A   1      49.242  26.966  26.273  1.00  0.00     0.023 A 
ATOM     87  C   UNL A   1      50.143  26.276  27.107  1.00  0.00     0.012 A 
ATOM     88  C   UNL A   1      49.643  27.312  24.969  1.00  0.00     0.148 A 
ATOM     89  C   UNL A   1      51.431  25.970  26.666  1.00  0.00     0.002 A 
ATOM     90  C   UNL A   1      50.908  26.955  24.514  1.00  0.00     0.091 A 
ATOM     91  F   UNL A   1      48.775  27.977  24.193  1.00  0.00    -0.205 F 
ATOM     92  C   UNL A   1      51.809  26.300  25.368  1.00  0.00     0.022 A 
BRANCH  90  93
ATOM     93  S   UNL A   1      51.435  27.222  22.818  1.00  0.00     0.127 S 
ATOM     94  O   UNL A   1      50.348  26.602  22.066  1.00  0.00    -0.237 OA
ATOM     95  O   UNL A   1      51.484  28.682  22.742  1.00  0.00    -0.237 OA
ATOM     96  O   UNL A   1      52.735  26.574  22.702  1.00  0.00    -0.744 OA
ENDBRANCH  90  93
ENDBRANCH  62  86
BRANCH  74  97
ATOM     97  C   UNL A   1      46.356  32.690  29.056  1.00  0.00     0.023 A 
ATOM     98  C   UNL A   1      46.869  32.932  30.345  1.00  0.00     0.012 A 
ATOM     99  C   UNL A   1      46.444  33.698  28.075  1.00  0.00     0.148 A 
ATOM    100  C   UNL A   1      47.438  34.166  30.660  1.00  0.00     0.002 A 
ATOM    101  C   UNL A   1      47.057  34.906  28.381  1.00  0.00     0.091 A 
ATOM    102  F   UNL A   1      45.933  33.453  26.859  1.00  0.00    -0.205 F 
ATOM    103  C   UNL A   1      47.543  35.147  29.676  1.00  0.00     0.022 A 
BRANCH 101 104
ATOM    104  S   UNL A   1      47.328  36.189  27.152  1.00  0.00     0.127 S 
ATOM    105  O   UNL A   1      48.458  36.917  27.726  1.00  0.00    -0.237 OA
ATOM    106  O   UNL A   1      47.647  35.409  25.957  1.00  0.00    -0.237 OA
ATOM    107  O   UNL A   1      46.081  36.938  27.070  1.00  0.00    -0.744 OA
ENDBRANCH 101 104
ENDBRANCH  74  97
ENDBRANCH  48  49
ENDBRANCH  40  43
ENDBRANCH  38  39
ENDBRANCH  37  38
ENDBRANCH  36  37
ENDBRANCH   1  36
TORSDOF 20
ENDMDL
MODEL 3
REMARK VINA RESULT:     -11.0      1.747      7.290
REMARK SMILES NC(=O)c1c(-c2ccc(Cl)cc2)csc1NC(=O)[C@H]1[C@@H](C(=O)NCCCCCCNC(=O)c2ccc(-c3c4nc(c(-c5cccc(S(=O)(=O)[O-])c5F)c5ccc([nH]5)c(-c5cccc(S(=O)(=O)[O-])c5F)c5nc(c(-c6cccc(S(=O)(=O)[O-])c6F)c6ccc3[nH]6)C=C5)C=C4)cc2)[C@@H]2CC[C@H]1O2
REMARK SMILES IDX 26 1 25 2 24 3 23 4 21 5 22 6 20 8 19 9 99 10 96 11 98 12
REMARK SMILES IDX 100 13 97 14 17 15 16 16 18 18 15 19 4 20 5 21 13 22 14 23
REMARK SMILES IDX 2 24 1 25 3 28 6 29 7 30 12 31 8 32 11 33 9 34 10 35 27 36
REMARK SMILES IDX 28 37 29 38 30 39 31 40 32 42 33 43 34 44 95 45 35 46 94 47
REMARK SMILES IDX 36 48 37 49 38 50 88 51 39 52 93 53 87 54 89 55 40 56 92 57
REMARK SMILES IDX 86 58 85 59 41 61 73 62 53 63 72 64 54 65 57 66 71 67 90 68
REMARK SMILES IDX 55 69 56 70 70 72 91 73 58 74 42 75 43 76 51 77 44 78 46 79
REMARK SMILES IDX 52 80 45 81 47 82 48 83 49 84 50 85 74 86 75 87 83 88 76 89
REMARK SMILES IDX 78 90 84 91 77 92 79 93 80 94 81 95 82 96 59 97 60 98 68 99
REMARK SMILES IDX 61 100 63 101 69 102 62 103 64 104 65 105 66 106 67 107
REMARK H PARENT 23 7 16 17 1 26 1 27 30 41 89 60 57 71
REMARK Flexibility Score: inf
ROOT
ATOM      1  C   UNL A   1      37.194  22.814  25.241  1.00  0.00     0.002 C 
ENDROOT
BRANCH   1   2
ATOM      2  C   UNL A   1      36.414  23.834  26.090  1.00  0.00     0.021 C 
BRANCH   2   3
ATOM      3  C   UNL A   1      34.951  24.027  25.671  1.00  0.00     0.116 C 
BRANCH   3   4
ATOM      4  N   UNL A   1      34.874  25.099  24.701  1.00  0.00    -0.356 N 
ATOM      5  C   UNL A   1      33.982  26.108  24.558  1.00  0.00     0.226 C 
ATOM      6  O   UNL A   1      33.951  26.653  23.453  1.00  0.00    -0.275 OA
ATOM      7  H   UNL A   1      35.595  25.095  24.030  1.00  0.00     0.163 HD
BRANCH   5   8
ATOM      8  C   UNL A   1      33.241  26.632  25.775  1.00  0.00     0.122 C 
ATOM      9  C   UNL A   1      31.760  27.055  25.694  1.00  0.00     0.123 C 
ATOM     10  C   UNL A   1      31.862  28.599  25.744  1.00  0.00     0.132 C 
ATOM     11  C   UNL A   1      33.908  27.976  26.114  1.00  0.00     0.132 C 
ATOM     12  C   UNL A   1      32.098  29.097  27.170  1.00  0.00     0.035 C 
ATOM     13  O   UNL A   1      33.186  28.869  25.232  1.00  0.00    -0.373 OA
ATOM     14  C   UNL A   1      33.470  28.499  27.483  1.00  0.00     0.035 C 
BRANCH   9  15
ATOM     15  C   UNL A   1      30.892  26.598  24.532  1.00  0.00     0.231 C 
ATOM     16  N   UNL A   1      30.614  25.275  24.275  1.00  0.00    -0.317 N 
ATOM     17  H   UNL A   1      29.999  25.165  23.515  1.00  0.00     0.170 HD
ATOM     18  O   UNL A   1      30.418  27.413  23.736  1.00  0.00    -0.274 OA
BRANCH  16  19
ATOM     19  C   UNL A   1      30.993  24.053  24.828  1.00  0.00     0.108 A 
ATOM     20  C   UNL A   1      31.674  23.019  24.174  1.00  0.00     0.082 A 
ATOM     21  C   UNL A   1      31.986  21.936  25.098  1.00  0.00     0.007 A 
ATOM     22  C   UNL A   1      31.468  22.176  26.353  1.00  0.00     0.076 A 
ATOM     23  S   UNL A   1      30.638  23.641  26.427  1.00  0.00    -0.125 S 
BRANCH  20  24
ATOM     24  C   UNL A   1      32.019  23.107  22.754  1.00  0.00     0.252 C 
ATOM     25  N   UNL A   1      31.922  21.971  22.013  1.00  0.00    -0.365 N 
ATOM     26  H   UNL A   1      32.144  21.989  21.054  1.00  0.00     0.159 HD
ATOM     27  H   UNL A   1      31.629  21.131  22.434  1.00  0.00     0.159 HD
ATOM     28  O   UNL A   1      32.328  24.171  22.209  1.00  0.00    -0.269 OA
ENDBRANCH  20  24
BRANCH  21  29
ATOM     29  C   UNL A   1      32.778  20.727  24.905  1.00  0.00    -0.017 A 
ATOM     30  C   UNL A   1      32.140  19.508  24.626  1.00  0.00     0.010 A 
ATOM     31  C   UNL A   1      34.171  20.760  25.042  1.00  0.00     0.010 A 
ATOM     32  C   UNL A   1      32.888  18.338  24.481  1.00  0.00     0.021 A 
ATOM     33  C   UNL A   1      34.919  19.587  24.890  1.00  0.00     0.021 A 
ATOM     34  C   UNL A   1      34.275  18.383  24.610  1.00  0.00     0.041 A 
ATOM     35  Cl  UNL A   1      35.193  16.940  24.426  1.00  0.00    -0.084 Cl
ENDBRANCH  21  29
ENDBRANCH  16  19
ENDBRANCH   9  15
ENDBRANCH   5   8
ENDBRANCH   3   4
ENDBRANCH   2   3
ENDBRANCH   1   2
BRANCH   1  36
ATOM     36  C   UNL A   1      38.559  22.415  25.807  1.00  0.00     0.002 C 
BRANCH  36  37
ATOM     37  C   UNL A   1      38.993  20.994  25.457  1.00  0.00     0.021 C 
BRANCH  37  38
ATOM     38  C   UNL A   1      39.606  20.214  26.617  1.00  0.00     0.116 C 
BRANCH  38  39
ATOM     39  N   UNL A   1      40.852  19.552  26.252  1.00  0.00    -0.352 N 
ATOM     40  C   UNL A   1      42.094  20.108  26.063  1.00  0.00     0.251 C 
ATOM     41  H   UNL A   1      40.796  18.577  26.124  1.00  0.00     0.163 HD
ATOM     42  O   UNL A   1      43.014  19.437  25.605  1.00  0.00    -0.269 OA
BRANCH  40  43
ATOM     43  C   UNL A   1      42.301  21.533  26.392  1.00  0.00     0.039 A 
ATOM     44  C   UNL A   1      42.553  21.897  27.717  1.00  0.00     0.014 A 
ATOM     45  C   UNL A   1      42.288  22.499  25.383  1.00  0.00     0.014 A 
ATOM     46  C   UNL A   1      42.863  23.225  28.019  1.00  0.00     0.010 A 
ATOM     47  C   UNL A   1      42.669  23.804  25.674  1.00  0.00     0.010 A 
ATOM     48  C   UNL A   1      42.961  24.181  26.995  1.00  0.00    -0.014 A 
BRANCH  48  49
ATOM     49  C   UNL A   1      43.385  25.578  27.267  1.00  0.00     0.031 A 
ATOM     50  C   UNL A   1      44.835  25.962  27.145  1.00  0.00     0.074 A 
ATOM     51  C   UNL A   1      42.487  26.470  27.732  1.00  0.00     0.049 A 
ATOM     52  N   UNL A   1      45.417  27.092  27.449  1.00  0.00    -0.248 NA
ATOM     53  C   UNL A   1      45.756  24.928  26.645  1.00  0.00     0.031 C 
ATOM     54  C   UNL A   1      41.065  26.199  27.962  1.00  0.00     0.029 A 
ATOM     55  N   UNL A   1      42.644  27.774  28.131  1.00  0.00    -0.354 N 
ATOM     56  C   UNL A   1      46.773  26.894  27.218  1.00  0.00     0.074 A 
ATOM     57  C   UNL A   1      46.931  25.526  26.777  1.00  0.00     0.031 C 
ATOM     58  C   UNL A   1      40.483  27.300  28.463  1.00  0.00     0.029 A 
ATOM     59  C   UNL A   1      41.492  28.342  28.629  1.00  0.00     0.049 A 
ATOM     60  H   UNL A   1      43.498  28.259  28.067  1.00  0.00     0.167 HD
ATOM     61  C   UNL A   1      47.792  27.778  27.339  1.00  0.00     0.034 A 
ATOM     62  C   UNL A   1      41.277  29.556  29.172  1.00  0.00     0.034 A 
ATOM     63  C   UNL A   1      47.623  29.148  27.736  1.00  0.00     0.049 A 
ATOM     64  C   UNL A   1      42.421  30.529  29.262  1.00  0.00     0.074 A 
ATOM     65  C   UNL A   1      48.580  30.147  27.804  1.00  0.00     0.029 A 
ATOM     66  N   UNL A   1      46.425  29.715  28.142  1.00  0.00    -0.354 N 
ATOM     67  N   UNL A   1      43.670  30.371  28.899  1.00  0.00    -0.248 NA
ATOM     68  C   UNL A   1      42.120  31.862  29.806  1.00  0.00     0.031 C 
ATOM     69  C   UNL A   1      47.963  31.310  28.276  1.00  0.00     0.029 A 
ATOM     70  C   UNL A   1      46.617  31.045  28.469  1.00  0.00     0.049 A 
ATOM     71  H   UNL A   1      45.564  29.240  28.189  1.00  0.00     0.167 HD
ATOM     72  C   UNL A   1      44.293  31.593  29.126  1.00  0.00     0.074 A 
ATOM     73  C   UNL A   1      43.279  32.487  29.649  1.00  0.00     0.031 C 
ATOM     74  C   UNL A   1      45.588  31.941  28.929  1.00  0.00     0.034 A 
BRANCH  61  75
ATOM     75  C   UNL A   1      49.178  27.302  26.990  1.00  0.00     0.023 A 
ATOM     76  C   UNL A   1      49.508  27.041  25.645  1.00  0.00     0.012 A 
ATOM     77  C   UNL A   1      50.170  27.173  27.981  1.00  0.00     0.148 A 
ATOM     78  C   UNL A   1      50.791  26.624  25.294  1.00  0.00     0.002 A 
ATOM     79  C   UNL A   1      51.461  26.803  27.619  1.00  0.00     0.091 A 
ATOM     80  F   UNL A   1      49.834  27.404  29.258  1.00  0.00    -0.205 F 
ATOM     81  C   UNL A   1      51.769  26.516  26.279  1.00  0.00     0.022 A 
BRANCH  79  82
ATOM     82  S   UNL A   1      52.812  26.717  28.800  1.00  0.00     0.127 S 
ATOM     83  O   UNL A   1      53.002  28.128  29.133  1.00  0.00    -0.237 OA
ATOM     84  O   UNL A   1      52.229  25.910  29.873  1.00  0.00    -0.237 OA
ATOM     85  O   UNL A   1      53.919  26.085  28.098  1.00  0.00    -0.744 OA
ENDBRANCH  79  82
ENDBRANCH  61  75
BRANCH  62  86
ATOM     86  C   UNL A   1      39.908  29.940  29.619  1.00  0.00     0.023 A 
ATOM     87  C   UNL A   1      38.965  30.370  28.665  1.00  0.00     0.012 A 
ATOM     88  C   UNL A   1      39.526  29.857  30.972  1.00  0.00     0.148 A 
ATOM     89  C   UNL A   1      37.679  30.746  29.054  1.00  0.00     0.002 A 
ATOM     90  C   UNL A   1      38.226  30.179  31.346  1.00  0.00     0.091 A 
ATOM     91  F   UNL A   1      40.440  29.454  31.866  1.00  0.00    -0.205 F 
ATOM     92  C   UNL A   1      37.306  30.641  30.390  1.00  0.00     0.022 A 
BRANCH  90  93
ATOM     93  S   UNL A   1      37.619  29.951  33.021  1.00  0.00     0.127 S 
ATOM     94  O   UNL A   1      38.776  30.352  33.816  1.00  0.00    -0.237 OA
ATOM     95  O   UNL A   1      36.490  30.879  33.063  1.00  0.00    -0.237 OA
ATOM     96  O   UNL A   1      37.242  28.546  33.116  1.00  0.00    -0.744 OA
ENDBRANCH  90  93
ENDBRANCH  62  86
BRANCH  74  97
ATOM     97  C   UNL A   1      45.989  33.362  29.226  1.00  0.00     0.023 A 
ATOM     98  C   UNL A   1      46.705  33.664  30.400  1.00  0.00     0.012 A 
ATOM     99  C   UNL A   1      45.734  34.383  28.289  1.00  0.00     0.148 A 
ATOM    100  C   UNL A   1      47.139  34.966  30.650  1.00  0.00     0.002 A 
ATOM    101  C   UNL A   1      46.213  35.667  28.519  1.00  0.00     0.091 A 
ATOM    102  F   UNL A   1      45.035  34.078  27.185  1.00  0.00    -0.205 F 
ATOM    103  C   UNL A   1      46.904  35.962  29.706  1.00  0.00     0.022 A 
BRANCH 101 104
ATOM    104  S   UNL A   1      46.046  36.990  27.316  1.00  0.00     0.127 S 
ATOM    105  O   UNL A   1      46.304  38.172  28.135  1.00  0.00    -0.237 OA
ATOM    106  O   UNL A   1      47.104  36.669  26.357  1.00  0.00    -0.237 OA
ATOM    107  O   UNL A   1      44.695  36.883  26.784  1.00  0.00    -0.744 OA
ENDBRANCH 101 104
ENDBRANCH  74  97
ENDBRANCH  48  49
ENDBRANCH  40  43
ENDBRANCH  38  39
ENDBRANCH  37  38
ENDBRANCH  36  37
ENDBRANCH   1  36
TORSDOF 20
ENDMDL
