MODEL 1
REMARK VINA RESULT:     -11.3      0.000      0.000
REMARK SMILES CN(C)S(=O)(=O)c1ccc(N(CC(=O)NCCCCCCNC(=O)c2ccc(-c3c4nc(c(-c5cccc(S(=O)(=O)[O-])c5F)c5ccc([nH]5)c(-c5cccc(S(=O)(=O)[O-])c5F)c5nc(c(-c6cccc(S(=O)(=O)[O-])c6F)c6ccc3[nH]6)C=C5)C=C4)cc2)C(C)(C)C)cc1
REMARK SMILES IDX 18 1 17 2 16 3 15 4 13 5 14 6 12 8 11 9 10 10 7 11 8 12
REMARK SMILES IDX 93 13 9 14 92 15 4 16 5 17 6 18 2 19 1 20 3 21 88 22 89 23
REMARK SMILES IDX 90 24 91 25 19 26 20 27 21 28 22 29 23 30 24 32 25 33 26 34
REMARK SMILES IDX 87 35 27 36 86 37 28 38 29 39 30 40 80 41 31 42 85 43 79 44
REMARK SMILES IDX 81 45 32 46 84 47 78 48 77 49 33 51 65 52 45 53 64 54 46 55
REMARK SMILES IDX 49 56 63 57 82 58 47 59 48 60 62 62 83 63 50 64 34 65 35 66
REMARK SMILES IDX 43 67 36 68 38 69 44 70 37 71 39 72 40 73 41 74 42 75 66 76
REMARK SMILES IDX 67 77 75 78 68 79 70 80 76 81 69 82 71 83 72 84 73 85 74 86
REMARK SMILES IDX 51 87 52 88 60 89 53 90 55 91 61 92 54 93 56 94 57 95 58 96
REMARK SMILES IDX 59 97
REMARK H PARENT 15 7 22 31 81 50 49 61
REMARK Flexibility Score: inf
ROOT
ATOM      1  C   UNL A   1      36.134  22.957  26.041  1.00  0.00     0.002 C 
ENDROOT
BRANCH   1   2
ATOM      2  C   UNL A   1      35.006  23.946  26.353  1.00  0.00     0.021 C 
BRANCH   2   3
ATOM      3  C   UNL A   1      33.608  23.381  26.123  1.00  0.00     0.116 C 
BRANCH   3   4
ATOM      4  N   UNL A   1      32.581  24.298  26.577  1.00  0.00    -0.355 N 
ATOM      5  C   UNL A   1      31.456  24.710  25.923  1.00  0.00     0.239 C 
ATOM      6  O   UNL A   1      30.680  25.451  26.538  1.00  0.00    -0.273 OA
ATOM      7  H   UNL A   1      32.713  24.673  27.477  1.00  0.00     0.163 HD
BRANCH   5   8
ATOM      8  C   UNL A   1      31.116  24.176  24.524  1.00  0.00     0.217 C 
BRANCH   8   9
ATOM      9  N   UNL A   1      31.484  25.069  23.380  1.00  0.00    -0.357 N 
BRANCH   9  10
ATOM     10  C   UNL A   1      30.689  26.214  23.135  1.00  0.00     0.038 A 
ATOM     11  C   UNL A   1      29.113  28.597  22.754  1.00  0.00     0.082 A 
ATOM     12  C   UNL A   1      30.400  28.521  22.244  1.00  0.00     0.024 A 
ATOM     13  C   UNL A   1      28.584  27.504  23.421  1.00  0.00     0.024 A 
ATOM     14  C   UNL A   1      31.154  27.346  22.423  1.00  0.00     0.027 A 
ATOM     15  C   UNL A   1      29.365  26.348  23.602  1.00  0.00     0.027 A 
BRANCH  11  16
ATOM     16  S   UNL A   1      28.133  30.054  22.484  1.00  0.00     0.242 S 
ATOM     17  O   UNL A   1      27.010  30.003  23.394  1.00  0.00    -0.207 OA
ATOM     18  O   UNL A   1      27.931  30.142  21.051  1.00  0.00    -0.207 OA
BRANCH  16  19
ATOM     19  N   UNL A   1      29.160  31.318  22.984  1.00  0.00    -0.204 NA
ATOM     20  C   UNL A   1      28.560  32.670  22.819  1.00  0.00     0.124 C 
ATOM     21  C   UNL A   1      29.749  31.175  24.334  1.00  0.00     0.124 C 
ENDBRANCH  16  19
ENDBRANCH  11  16
ENDBRANCH   9  10
BRANCH   9  22
ATOM     22  C   UNL A   1      32.822  24.832  22.695  1.00  0.00     0.032 C 
ATOM     23  C   UNL A   1      33.246  23.349  22.769  1.00  0.00     0.034 C 
ATOM     24  C   UNL A   1      32.796  25.372  21.246  1.00  0.00     0.034 C 
ATOM     25  C   UNL A   1      34.010  25.591  23.350  1.00  0.00     0.034 C 
ENDBRANCH   9  22
ENDBRANCH   8   9
ENDBRANCH   5   8
ENDBRANCH   3   4
ENDBRANCH   2   3
ENDBRANCH   1   2
BRANCH   1  26
ATOM     26  C   UNL A   1      35.700  21.700  25.280  1.00  0.00     0.002 C 
BRANCH  26  27
ATOM     27  C   UNL A   1      36.829  20.723  24.941  1.00  0.00     0.021 C 
BRANCH  27  28
ATOM     28  C   UNL A   1      38.204  21.121  25.475  1.00  0.00     0.116 C 
BRANCH  28  29
ATOM     29  N   UNL A   1      39.056  19.964  25.706  1.00  0.00    -0.352 N 
ATOM     30  C   UNL A   1      40.381  19.921  26.063  1.00  0.00     0.251 C 
ATOM     31  H   UNL A   1      38.621  19.089  25.591  1.00  0.00     0.163 HD
ATOM     32  O   UNL A   1      40.997  18.860  26.031  1.00  0.00    -0.269 OA
BRANCH  30  33
ATOM     33  C   UNL A   1      41.069  21.164  26.469  1.00  0.00     0.039 A 
ATOM     34  C   UNL A   1      41.647  21.972  25.486  1.00  0.00     0.014 A 
ATOM     35  C   UNL A   1      41.131  21.536  27.815  1.00  0.00     0.014 A 
ATOM     36  C   UNL A   1      42.221  23.194  25.845  1.00  0.00     0.010 A 
ATOM     37  C   UNL A   1      41.657  22.777  28.165  1.00  0.00     0.010 A 
ATOM     38  C   UNL A   1      42.196  23.622  27.182  1.00  0.00    -0.014 A 
BRANCH  38  39
ATOM     39  C   UNL A   1      42.663  24.976  27.570  1.00  0.00     0.031 A 
ATOM     40  C   UNL A   1      41.706  25.987  28.133  1.00  0.00     0.074 A 
ATOM     41  C   UNL A   1      43.929  25.338  27.286  1.00  0.00     0.049 A 
ATOM     42  N   UNL A   1      41.919  27.240  28.438  1.00  0.00    -0.248 NA
ATOM     43  C   UNL A   1      40.322  25.539  28.356  1.00  0.00     0.031 C 
ATOM     44  C   UNL A   1      44.928  24.477  26.648  1.00  0.00     0.029 A 
ATOM     45  N   UNL A   1      44.579  26.536  27.452  1.00  0.00    -0.354 N 
ATOM     46  C   UNL A   1      40.693  27.745  28.851  1.00  0.00     0.074 A 
ATOM     47  C   UNL A   1      39.735  26.665  28.740  1.00  0.00     0.031 C 
ATOM     48  C   UNL A   1      46.054  25.182  26.453  1.00  0.00     0.029 A 
ATOM     49  C   UNL A   1      45.851  26.547  26.929  1.00  0.00     0.049 A 
ATOM     50  H   UNL A   1      44.173  27.312  27.901  1.00  0.00     0.167 HD
ATOM     51  C   UNL A   1      40.398  28.984  29.308  1.00  0.00     0.034 A 
ATOM     52  C   UNL A   1      46.748  27.547  26.821  1.00  0.00     0.034 A 
ATOM     53  C   UNL A   1      41.363  30.039  29.468  1.00  0.00     0.049 A 
ATOM     54  C   UNL A   1      46.414  28.902  27.376  1.00  0.00     0.074 A 
ATOM     55  C   UNL A   1      41.194  31.277  30.061  1.00  0.00     0.029 A 
ATOM     56  N   UNL A   1      42.671  29.989  29.013  1.00  0.00    -0.354 N 
ATOM     57  N   UNL A   1      45.310  29.300  27.959  1.00  0.00    -0.248 NA
ATOM     58  C   UNL A   1      47.454  29.936  27.285  1.00  0.00     0.031 C 
ATOM     59  C   UNL A   1      42.396  31.986  29.946  1.00  0.00     0.029 A 
ATOM     60  C   UNL A   1      43.315  31.185  29.287  1.00  0.00     0.049 A 
ATOM     61  H   UNL A   1      43.083  29.217  28.562  1.00  0.00     0.167 HD
ATOM     62  C   UNL A   1      45.523  30.626  28.315  1.00  0.00     0.074 A 
ATOM     63  C   UNL A   1      46.875  30.954  27.910  1.00  0.00     0.031 C 
ATOM     64  C   UNL A   1      44.668  31.497  28.906  1.00  0.00     0.034 A 
BRANCH  51  65
ATOM     65  C   UNL A   1      38.978  29.251  29.729  1.00  0.00     0.023 A 
ATOM     66  C   UNL A   1      38.574  28.931  31.041  1.00  0.00     0.012 A 
ATOM     67  C   UNL A   1      38.061  29.861  28.852  1.00  0.00     0.148 A 
ATOM     68  C   UNL A   1      37.270  29.185  31.465  1.00  0.00     0.002 A 
ATOM     69  C   UNL A   1      36.773  30.144  29.294  1.00  0.00     0.091 A 
ATOM     70  F   UNL A   1      38.453  30.132  27.600  1.00  0.00    -0.205 F 
ATOM     71  C   UNL A   1      36.374  29.800  30.595  1.00  0.00     0.022 A 
BRANCH  69  72
ATOM     72  S   UNL A   1      35.574  30.997  28.263  1.00  0.00     0.127 S 
ATOM     73  O   UNL A   1      36.341  32.159  27.817  1.00  0.00    -0.237 OA
ATOM     74  O   UNL A   1      35.302  30.010  27.216  1.00  0.00    -0.237 OA
ATOM     75  O   UNL A   1      34.440  31.281  29.130  1.00  0.00    -0.744 OA
ENDBRANCH  69  72
ENDBRANCH  51  65
BRANCH  52  76
ATOM     76  C   UNL A   1      48.065  27.272  26.188  1.00  0.00     0.023 A 
ATOM     77  C   UNL A   1      49.100  26.704  26.953  1.00  0.00     0.012 A 
ATOM     78  C   UNL A   1      48.266  27.495  24.812  1.00  0.00     0.148 A 
ATOM     79  C   UNL A   1      50.320  26.372  26.360  1.00  0.00     0.002 A 
ATOM     80  C   UNL A   1      49.461  27.110  24.216  1.00  0.00     0.091 A 
ATOM     81  F   UNL A   1      47.269  28.050  24.106  1.00  0.00    -0.205 F 
ATOM     82  C   UNL A   1      50.495  26.561  24.991  1.00  0.00     0.022 A 
BRANCH  80  83
ATOM     83  S   UNL A   1      49.709  27.182  22.439  1.00  0.00     0.127 S 
ATOM     84  O   UNL A   1      51.096  26.744  22.313  1.00  0.00    -0.237 OA
ATOM     85  O   UNL A   1      48.712  26.225  21.956  1.00  0.00    -0.237 OA
ATOM     86  O   UNL A   1      49.445  28.564  22.061  1.00  0.00    -0.744 OA
ENDBRANCH  80  83
ENDBRANCH  52  76
BRANCH  64  87
ATOM     87  C   UNL A   1      45.156  32.902  29.137  1.00  0.00     0.023 A 
ATOM     88  C   UNL A   1      45.970  33.173  30.255  1.00  0.00     0.012 A 
ATOM     89  C   UNL A   1      44.877  33.932  28.218  1.00  0.00     0.148 A 
ATOM     90  C   UNL A   1      46.481  34.452  30.466  1.00  0.00     0.002 A 
ATOM     91  C   UNL A   1      45.424  35.196  28.413  1.00  0.00     0.091 A 
ATOM     92  F   UNL A   1      44.082  33.660  27.173  1.00  0.00    -0.205 F 
ATOM     93  C   UNL A   1      46.220  35.459  29.541  1.00  0.00     0.022 A 
BRANCH  91  94
ATOM     94  S   UNL A   1      45.209  36.531  27.230  1.00  0.00     0.127 S 
ATOM     95  O   UNL A   1      45.446  37.708  28.064  1.00  0.00    -0.237 OA
ATOM     96  O   UNL A   1      46.260  36.254  26.251  1.00  0.00    -0.237 OA
ATOM     97  O   UNL A   1      43.853  36.392  26.715  1.00  0.00    -0.744 OA
ENDBRANCH  91  94
ENDBRANCH  64  87
ENDBRANCH  38  39
ENDBRANCH  30  33
ENDBRANCH  28  29
ENDBRANCH  27  28
ENDBRANCH  26  27
ENDBRANCH   1  26
TORSDOF 21
ENDMDL
MODEL 2
REMARK VINA RESULT:     -11.2      6.036     10.476
REMARK SMILES CN(C)S(=O)(=O)c1ccc(N(CC(=O)NCCCCCCNC(=O)c2ccc(-c3c4nc(c(-c5cccc(S(=O)(=O)[O-])c5F)c5ccc([nH]5)c(-c5cccc(S(=O)(=O)[O-])c5F)c5nc(c(-c6cccc(S(=O)(=O)[O-])c6F)c6ccc3[nH]6)C=C5)C=C4)cc2)C(C)(C)C)cc1
REMARK SMILES IDX 18 1 17 2 16 3 15 4 13 5 14 6 12 8 11 9 10 10 7 11 8 12
REMARK SMILES IDX 93 13 9 14 92 15 4 16 5 17 6 18 2 19 1 20 3 21 88 22 89 23
REMARK SMILES IDX 90 24 91 25 19 26 20 27 21 28 22 29 23 30 24 32 25 33 26 34
REMARK SMILES IDX 87 35 27 36 86 37 28 38 29 39 30 40 80 41 31 42 85 43 79 44
REMARK SMILES IDX 81 45 32 46 84 47 78 48 77 49 33 51 65 52 45 53 64 54 46 55
REMARK SMILES IDX 49 56 63 57 82 58 47 59 48 60 62 62 83 63 50 64 34 65 35 66
REMARK SMILES IDX 43 67 36 68 38 69 44 70 37 71 39 72 40 73 41 74 42 75 66 76
REMARK SMILES IDX 67 77 75 78 68 79 70 80 76 81 69 82 71 83 72 84 73 85 74 86
REMARK SMILES IDX 51 87 52 88 60 89 53 90 55 91 61 92 54 93 56 94 57 95 58 96
REMARK SMILES IDX 59 97
REMARK H PARENT 15 7 22 31 81 50 49 61
REMARK Flexibility Score: inf
ROOT
ATOM      1  C   UNL A   1      32.102  30.431  25.921  1.00  0.00     0.002 C 
ENDROOT
BRANCH   1   2
ATOM      2  C   UNL A   1      31.409  29.097  26.219  1.00  0.00     0.021 C 
BRANCH   2   3
ATOM      3  C   UNL A   1      32.191  28.192  27.166  1.00  0.00     0.116 C 
BRANCH   3   4
ATOM      4  N   UNL A   1      31.614  26.865  27.232  1.00  0.00    -0.355 N 
ATOM      5  C   UNL A   1      31.819  25.802  26.400  1.00  0.00     0.239 C 
ATOM      6  O   UNL A   1      31.268  24.735  26.693  1.00  0.00    -0.273 OA
ATOM      7  H   UNL A   1      30.991  26.708  27.978  1.00  0.00     0.163 HD
BRANCH   5   8
ATOM      8  C   UNL A   1      32.791  25.904  25.216  1.00  0.00     0.217 C 
BRANCH   8   9
ATOM      9  N   UNL A   1      32.178  25.769  23.857  1.00  0.00    -0.357 N 
BRANCH   9  10
ATOM     10  C   UNL A   1      31.233  26.739  23.445  1.00  0.00     0.038 A 
ATOM     11  C   UNL A   1      29.321  28.772  22.726  1.00  0.00     0.082 A 
ATOM     12  C   UNL A   1      30.666  28.944  22.437  1.00  0.00     0.024 A 
ATOM     13  C   UNL A   1      28.904  27.601  23.336  1.00  0.00     0.024 A 
ATOM     14  C   UNL A   1      31.588  27.937  22.779  1.00  0.00     0.027 A 
ATOM     15  C   UNL A   1      29.848  26.617  23.683  1.00  0.00     0.027 A 
BRANCH  11  16
ATOM     16  S   UNL A   1      28.142  30.013  22.249  1.00  0.00     0.242 S 
ATOM     17  O   UNL A   1      26.986  29.875  23.107  1.00  0.00    -0.207 OA
ATOM     18  O   UNL A   1      28.020  29.916  20.807  1.00  0.00    -0.207 OA
BRANCH  16  19
ATOM     19  N   UNL A   1      28.924  31.474  22.646  1.00  0.00    -0.204 NA
ATOM     20  C   UNL A   1      28.377  32.655  21.924  1.00  0.00     0.124 C 
ATOM     21  C   UNL A   1      29.050  31.765  24.091  1.00  0.00     0.124 C 
ENDBRANCH  16  19
ENDBRANCH  11  16
ENDBRANCH   9  10
BRANCH   9  22
ATOM     22  C   UNL A   1      32.775  24.743  22.906  1.00  0.00     0.032 C 
ATOM     23  C   UNL A   1      32.691  25.210  21.436  1.00  0.00     0.034 C 
ATOM     24  C   UNL A   1      34.216  24.378  23.334  1.00  0.00     0.034 C 
ATOM     25  C   UNL A   1      32.033  23.376  22.904  1.00  0.00     0.034 C 
ENDBRANCH   9  22
ENDBRANCH   8   9
ENDBRANCH   5   8
ENDBRANCH   3   4
ENDBRANCH   2   3
ENDBRANCH   1   2
BRANCH   1  26
ATOM     26  C   UNL A   1      31.705  31.587  26.846  1.00  0.00     0.002 C 
BRANCH  26  27
ATOM     27  C   UNL A   1      32.849  32.180  27.672  1.00  0.00     0.021 C 
BRANCH  27  28
ATOM     28  C   UNL A   1      33.243  33.606  27.291  1.00  0.00     0.116 C 
BRANCH  28  29
ATOM     29  N   UNL A   1      32.874  34.568  28.319  1.00  0.00    -0.352 N 
ATOM     30  C   UNL A   1      33.376  34.716  29.589  1.00  0.00     0.251 C 
ATOM     31  H   UNL A   1      32.165  35.203  28.069  1.00  0.00     0.163 HD
ATOM     32  O   UNL A   1      32.819  35.457  30.393  1.00  0.00    -0.269 OA
BRANCH  30  33
ATOM     33  C   UNL A   1      34.582  33.962  29.990  1.00  0.00     0.039 A 
ATOM     34  C   UNL A   1      35.829  34.369  29.508  1.00  0.00     0.014 A 
ATOM     35  C   UNL A   1      34.481  32.865  30.850  1.00  0.00     0.014 A 
ATOM     36  C   UNL A   1      36.986  33.723  29.950  1.00  0.00     0.010 A 
ATOM     37  C   UNL A   1      35.638  32.255  31.329  1.00  0.00     0.010 A 
ATOM     38  C   UNL A   1      36.901  32.686  30.893  1.00  0.00    -0.014 A 
BRANCH  38  39
ATOM     39  C   UNL A   1      38.118  32.083  31.491  1.00  0.00     0.031 A 
ATOM     40  C   UNL A   1      38.818  30.938  30.818  1.00  0.00     0.074 A 
ATOM     41  C   UNL A   1      38.513  32.485  32.715  1.00  0.00     0.049 A 
ATOM     42  N   UNL A   1      39.834  30.233  31.242  1.00  0.00    -0.248 NA
ATOM     43  C   UNL A   1      38.290  30.511  29.513  1.00  0.00     0.031 C 
ATOM     44  C   UNL A   1      37.854  33.520  33.514  1.00  0.00     0.029 A 
ATOM     45  N   UNL A   1      39.531  32.038  33.520  1.00  0.00    -0.354 N 
ATOM     46  C   UNL A   1      40.047  29.256  30.279  1.00  0.00     0.074 A 
ATOM     47  C   UNL A   1      39.039  29.446  29.257  1.00  0.00     0.031 C 
ATOM     48  C   UNL A   1      38.469  33.612  34.704  1.00  0.00     0.029 A 
ATOM     49  C   UNL A   1      39.546  32.629  34.763  1.00  0.00     0.049 A 
ATOM     50  H   UNL A   1      40.186  31.361  33.237  1.00  0.00     0.167 HD
ATOM     51  C   UNL A   1      41.008  28.303  30.236  1.00  0.00     0.034 A 
ATOM     52  C   UNL A   1      40.322  32.392  35.838  1.00  0.00     0.034 A 
ATOM     53  C   UNL A   1      42.040  28.149  31.227  1.00  0.00     0.049 A 
ATOM     54  C   UNL A   1      41.412  31.362  35.751  1.00  0.00     0.074 A 
ATOM     55  C   UNL A   1      43.144  27.317  31.197  1.00  0.00     0.029 A 
ATOM     56  N   UNL A   1      42.083  28.828  32.435  1.00  0.00    -0.354 N 
ATOM     57  N   UNL A   1      41.730  30.589  34.742  1.00  0.00    -0.248 NA
ATOM     58  C   UNL A   1      42.266  31.191  36.934  1.00  0.00     0.031 C 
ATOM     59  C   UNL A   1      43.845  27.475  32.398  1.00  0.00     0.029 A 
ATOM     60  C   UNL A   1      43.180  28.413  33.172  1.00  0.00     0.049 A 
ATOM     61  H   UNL A   1      41.431  29.505  32.726  1.00  0.00     0.167 HD
ATOM     62  C   UNL A   1      42.827  29.846  35.162  1.00  0.00     0.074 A 
ATOM     63  C   UNL A   1      43.138  30.285  36.507  1.00  0.00     0.031 C 
ATOM     64  C   UNL A   1      43.501  28.874  34.499  1.00  0.00     0.034 A 
BRANCH  51  65
ATOM     65  C   UNL A   1      41.028  27.388  29.042  1.00  0.00     0.023 A 
ATOM     66  C   UNL A   1      40.146  26.290  28.997  1.00  0.00     0.012 A 
ATOM     67  C   UNL A   1      41.876  27.639  27.946  1.00  0.00     0.148 A 
ATOM     68  C   UNL A   1      40.129  25.436  27.896  1.00  0.00     0.002 A 
ATOM     69  C   UNL A   1      41.827  26.803  26.835  1.00  0.00     0.091 A 
ATOM     70  F   UNL A   1      42.729  28.670  28.017  1.00  0.00    -0.205 F 
ATOM     71  C   UNL A   1      40.961  25.699  26.811  1.00  0.00     0.022 A 
BRANCH  69  72
ATOM     72  S   UNL A   1      42.816  27.108  25.366  1.00  0.00     0.127 S 
ATOM     73  O   UNL A   1      42.191  28.318  24.834  1.00  0.00    -0.237 OA
ATOM     74  O   UNL A   1      44.154  27.309  25.924  1.00  0.00    -0.237 OA
ATOM     75  O   UNL A   1      42.681  25.912  24.546  1.00  0.00    -0.744 OA
ENDBRANCH  69  72
ENDBRANCH  51  65
BRANCH  52  76
ATOM     76  C   UNL A   1      40.105  33.187  37.077  1.00  0.00     0.023 A 
ATOM     77  C   UNL A   1      39.098  32.802  37.982  1.00  0.00     0.012 A 
ATOM     78  C   UNL A   1      40.946  34.269  37.398  1.00  0.00     0.148 A 
ATOM     79  C   UNL A   1      38.925  33.491  39.183  1.00  0.00     0.002 A 
ATOM     80  C   UNL A   1      40.806  34.914  38.621  1.00  0.00     0.091 A 
ATOM     81  F   UNL A   1      41.889  34.626  36.513  1.00  0.00    -0.205 F 
ATOM     82  C   UNL A   1      39.787  34.536  39.509  1.00  0.00     0.022 A 
BRANCH  80  83
ATOM     83  S   UNL A   1      41.965  36.167  39.179  1.00  0.00     0.127 S 
ATOM     84  O   UNL A   1      41.486  37.353  38.475  1.00  0.00    -0.237 OA
ATOM     85  O   UNL A   1      41.735  36.169  40.624  1.00  0.00    -0.237 OA
ATOM     86  O   UNL A   1      43.283  35.687  38.783  1.00  0.00    -0.744 OA
ENDBRANCH  80  83
ENDBRANCH  52  76
BRANCH  64  87
ATOM     87  C   UNL A   1      44.635  28.197  35.221  1.00  0.00     0.023 A 
ATOM     88  C   UNL A   1      45.878  28.854  35.317  1.00  0.00     0.012 A 
ATOM     89  C   UNL A   1      44.456  26.958  35.865  1.00  0.00     0.148 A 
ATOM     90  C   UNL A   1      46.931  28.278  36.026  1.00  0.00     0.002 A 
ATOM     91  C   UNL A   1      45.498  26.408  36.604  1.00  0.00     0.091 A 
ATOM     92  F   UNL A   1      43.272  26.339  35.743  1.00  0.00    -0.205 F 
ATOM     93  C   UNL A   1      46.738  27.064  36.678  1.00  0.00     0.022 A 
BRANCH  91  94
ATOM     94  S   UNL A   1      45.314  24.890  37.546  1.00  0.00     0.127 S 
ATOM     95  O   UNL A   1      46.695  24.610  37.932  1.00  0.00    -0.237 OA
ATOM     96  O   UNL A   1      44.444  25.307  38.646  1.00  0.00    -0.237 OA
ATOM     97  O   UNL A   1      44.711  23.926  36.633  1.00  0.00    -0.744 OA
ENDBRANCH  91  94
ENDBRANCH  64  87
ENDBRANCH  38  39
ENDBRANCH  30  33
ENDBRANCH  28  29
ENDBRANCH  27  28
ENDBRANCH  26  27
ENDBRANCH   1  26
TORSDOF 21
ENDMDL
MODEL 3
REMARK VINA RESULT:     -10.8      2.050      2.520
REMARK SMILES CN(C)S(=O)(=O)c1ccc(N(CC(=O)NCCCCCCNC(=O)c2ccc(-c3c4nc(c(-c5cccc(S(=O)(=O)[O-])c5F)c5ccc([nH]5)c(-c5cccc(S(=O)(=O)[O-])c5F)c5nc(c(-c6cccc(S(=O)(=O)[O-])c6F)c6ccc3[nH]6)C=C5)C=C4)cc2)C(C)(C)C)cc1
REMARK SMILES IDX 18 1 17 2 16 3 15 4 13 5 14 6 12 8 11 9 10 10 7 11 8 12
REMARK SMILES IDX 93 13 9 14 92 15 4 16 5 17 6 18 2 19 1 20 3 21 88 22 89 23
REMARK SMILES IDX 90 24 91 25 19 26 20 27 21 28 22 29 23 30 24 32 25 33 26 34
REMARK SMILES IDX 87 35 27 36 86 37 28 38 29 39 30 40 80 41 31 42 85 43 79 44
REMARK SMILES IDX 81 45 32 46 84 47 78 48 77 49 33 51 65 52 45 53 64 54 46 55
REMARK SMILES IDX 49 56 63 57 82 58 47 59 48 60 62 62 83 63 50 64 34 65 35 66
REMARK SMILES IDX 43 67 36 68 38 69 44 70 37 71 39 72 40 73 41 74 42 75 66 76
REMARK SMILES IDX 67 77 75 78 68 79 70 80 76 81 69 82 71 83 72 84 73 85 74 86
REMARK SMILES IDX 51 87 52 88 60 89 53 90 55 91 61 92 54 93 56 94 57 95 58 96
REMARK SMILES IDX 59 97
REMARK H PARENT 15 7 22 31 81 50 49 61
REMARK Flexibility Score: inf
ROOT
ATOM      1  C   UNL A   1      36.309  22.210  26.370  1.00  0.00     0.002 C 
ENDROOT
BRANCH   1   2
ATOM      2  C   UNL A   1      34.898  22.790  26.510  1.00  0.00     0.021 C 
BRANCH   2   3
ATOM      3  C   UNL A   1      33.886  21.816  27.107  1.00  0.00     0.116 C 
BRANCH   3   4
ATOM      4  N   UNL A   1      32.703  22.503  27.584  1.00  0.00    -0.355 N 
ATOM      5  C   UNL A   1      31.512  22.695  26.946  1.00  0.00     0.239 C 
ATOM      6  O   UNL A   1      30.611  23.257  27.579  1.00  0.00    -0.273 OA
ATOM      7  H   UNL A   1      32.767  22.881  28.491  1.00  0.00     0.163 HD
BRANCH   5   8
ATOM      8  C   UNL A   1      31.271  22.129  25.539  1.00  0.00     0.217 C 
BRANCH   8   9
ATOM      9  N   UNL A   1      31.898  22.893  24.414  1.00  0.00    -0.357 N 
BRANCH   9  10
ATOM     10  C   UNL A   1      31.917  24.306  24.487  1.00  0.00     0.038 A 
ATOM     11  C   UNL A   1      31.920  27.175  24.766  1.00  0.00     0.082 A 
ATOM     12  C   UNL A   1      33.082  26.450  24.985  1.00  0.00     0.024 A 
ATOM     13  C   UNL A   1      30.768  26.508  24.384  1.00  0.00     0.024 A 
ATOM     14  C   UNL A   1      33.072  25.051  24.830  1.00  0.00     0.027 A 
ATOM     15  C   UNL A   1      30.781  25.107  24.253  1.00  0.00     0.027 A 
BRANCH  11  16
ATOM     16  S   UNL A   1      31.937  28.946  24.904  1.00  0.00     0.242 S 
ATOM     17  O   UNL A   1      30.659  29.436  24.437  1.00  0.00    -0.207 OA
ATOM     18  O   UNL A   1      33.176  29.385  24.290  1.00  0.00    -0.207 OA
BRANCH  16  19
ATOM     19  N   UNL A   1      32.022  29.210  26.585  1.00  0.00    -0.204 NA
ATOM     20  C   UNL A   1      31.502  28.072  27.392  1.00  0.00     0.124 C 
ATOM     21  C   UNL A   1      33.336  29.650  27.103  1.00  0.00     0.124 C 
ENDBRANCH  16  19
ENDBRANCH  11  16
ENDBRANCH   9  10
BRANCH   9  22
ATOM     22  C   UNL A   1      32.687  22.110  23.376  1.00  0.00     0.032 C 
ATOM     23  C   UNL A   1      33.250  20.796  23.960  1.00  0.00     0.034 C 
ATOM     24  C   UNL A   1      31.836  21.879  22.104  1.00  0.00     0.034 C 
ATOM     25  C   UNL A   1      33.947  22.852  22.847  1.00  0.00     0.034 C 
ENDBRANCH   9  22
ENDBRANCH   8   9
ENDBRANCH   5   8
ENDBRANCH   3   4
ENDBRANCH   2   3
ENDBRANCH   1   2
BRANCH   1  26
ATOM     26  C   UNL A   1      36.625  21.604  24.997  1.00  0.00     0.002 C 
BRANCH  26  27
ATOM     27  C   UNL A   1      38.062  21.103  24.824  1.00  0.00     0.021 C 
BRANCH  27  28
ATOM     28  C   UNL A   1      38.837  20.913  26.126  1.00  0.00     0.116 C 
BRANCH  28  29
ATOM     29  N   UNL A   1      39.755  19.786  26.056  1.00  0.00    -0.352 N 
ATOM     30  C   UNL A   1      41.128  19.781  26.098  1.00  0.00     0.251 C 
ATOM     31  H   UNL A   1      39.333  18.901  25.966  1.00  0.00     0.163 HD
ATOM     32  O   UNL A   1      41.752  18.758  25.835  1.00  0.00    -0.269 OA
BRANCH  30  33
ATOM     33  C   UNL A   1      41.852  21.022  26.445  1.00  0.00     0.039 A 
ATOM     34  C   UNL A   1      42.228  21.897  25.422  1.00  0.00     0.014 A 
ATOM     35  C   UNL A   1      42.145  21.325  27.777  1.00  0.00     0.014 A 
ATOM     36  C   UNL A   1      42.833  23.114  25.742  1.00  0.00     0.010 A 
ATOM     37  C   UNL A   1      42.700  22.561  28.098  1.00  0.00     0.010 A 
ATOM     38  C   UNL A   1      43.038  23.472  27.085  1.00  0.00    -0.014 A 
BRANCH  38  39
ATOM     39  C   UNL A   1      43.539  24.818  27.459  1.00  0.00     0.031 A 
ATOM     40  C   UNL A   1      42.595  25.883  27.938  1.00  0.00     0.074 A 
ATOM     41  C   UNL A   1      44.833  25.119  27.237  1.00  0.00     0.049 A 
ATOM     42  N   UNL A   1      42.843  27.135  28.219  1.00  0.00    -0.248 NA
ATOM     43  C   UNL A   1      41.184  25.498  28.095  1.00  0.00     0.031 C 
ATOM     44  C   UNL A   1      45.828  24.200  26.681  1.00  0.00     0.029 A 
ATOM     45  N   UNL A   1      45.522  26.295  27.405  1.00  0.00    -0.354 N 
ATOM     46  C   UNL A   1      41.619  27.701  28.548  1.00  0.00     0.074 A 
ATOM     47  C   UNL A   1      40.624  26.658  28.413  1.00  0.00     0.031 C 
ATOM     48  C   UNL A   1      46.992  24.852  26.530  1.00  0.00     0.029 A 
ATOM     49  C   UNL A   1      46.821  26.238  26.955  1.00  0.00     0.049 A 
ATOM     50  H   UNL A   1      45.125  27.100  27.808  1.00  0.00     0.167 HD
ATOM     51  C   UNL A   1      41.351  28.965  28.952  1.00  0.00     0.034 A 
ATOM     52  C   UNL A   1      47.763  27.197  26.869  1.00  0.00     0.034 A 
ATOM     53  C   UNL A   1      42.349  29.985  29.135  1.00  0.00     0.049 A 
ATOM     54  C   UNL A   1      47.456  28.581  27.365  1.00  0.00     0.074 A 
ATOM     55  C   UNL A   1      42.200  31.247  29.683  1.00  0.00     0.029 A 
ATOM     56  N   UNL A   1      43.677  29.868  28.756  1.00  0.00    -0.354 N 
ATOM     57  N   UNL A   1      46.339  29.041  27.873  1.00  0.00    -0.248 NA
ATOM     58  C   UNL A   1      48.541  29.569  27.303  1.00  0.00     0.031 C 
ATOM     59  C   UNL A   1      43.435  31.903  29.615  1.00  0.00     0.029 A 
ATOM     60  C   UNL A   1      44.354  31.045  29.033  1.00  0.00     0.049 A 
ATOM     61  H   UNL A   1      44.081  29.067  28.351  1.00  0.00     0.167 HD
ATOM     62  C   UNL A   1      46.588  30.368  28.203  1.00  0.00     0.074 A 
ATOM     63  C   UNL A   1      47.972  30.629  27.865  1.00  0.00     0.031 C 
ATOM     64  C   UNL A   1      45.739  31.290  28.720  1.00  0.00     0.034 A 
BRANCH  51  65
ATOM     65  C   UNL A   1      39.923  29.302  29.284  1.00  0.00     0.023 A 
ATOM     66  C   UNL A   1      39.004  29.526  28.239  1.00  0.00     0.012 A 
ATOM     67  C   UNL A   1      39.477  29.345  30.619  1.00  0.00     0.148 A 
ATOM     68  C   UNL A   1      37.670  29.820  28.517  1.00  0.00     0.002 A 
ATOM     69  C   UNL A   1      38.136  29.604  30.886  1.00  0.00     0.091 A 
ATOM     70  F   UNL A   1      40.369  29.159  31.601  1.00  0.00    -0.205 F 
ATOM     71  C   UNL A   1      37.235  29.848  29.839  1.00  0.00     0.022 A 
BRANCH  69  72
ATOM     72  S   UNL A   1      37.475  29.592  32.557  1.00  0.00     0.127 S 
ATOM     73  O   UNL A   1      38.383  30.513  33.240  1.00  0.00    -0.237 OA
ATOM     74  O   UNL A   1      36.119  30.108  32.362  1.00  0.00    -0.237 OA
ATOM     75  O   UNL A   1      37.533  28.204  32.994  1.00  0.00    -0.744 OA
ENDBRANCH  69  72
ENDBRANCH  51  65
BRANCH  52  76
ATOM     76  C   UNL A   1      49.101  26.850  26.319  1.00  0.00     0.023 A 
ATOM     77  C   UNL A   1      49.943  25.980  27.035  1.00  0.00     0.012 A 
ATOM     78  C   UNL A   1      49.504  27.314  25.052  1.00  0.00     0.148 A 
ATOM     79  C   UNL A   1      51.172  25.585  26.502  1.00  0.00     0.002 A 
ATOM     80  C   UNL A   1      50.701  26.873  24.503  1.00  0.00     0.091 A 
ATOM     81  F   UNL A   1      48.690  28.154  24.394  1.00  0.00    -0.205 F 
ATOM     82  C   UNL A   1      51.543  26.019  25.232  1.00  0.00     0.022 A 
BRANCH  80  83
ATOM     83  S   UNL A   1      51.181  27.265  22.817  1.00  0.00     0.127 S 
ATOM     84  O   UNL A   1      50.235  26.467  22.043  1.00  0.00    -0.237 OA
ATOM     85  O   UNL A   1      50.956  28.711  22.768  1.00  0.00    -0.237 OA
ATOM     86  O   UNL A   1      52.580  26.873  22.706  1.00  0.00    -0.744 OA
ENDBRANCH  80  83
ENDBRANCH  52  76
BRANCH  64  87
ATOM     87  C   UNL A   1      46.271  32.681  28.937  1.00  0.00     0.023 A 
ATOM     88  C   UNL A   1      46.921  32.987  30.149  1.00  0.00     0.012 A 
ATOM     89  C   UNL A   1      46.199  33.658  27.925  1.00  0.00     0.148 A 
ATOM     90  C   UNL A   1      47.473  34.250  30.359  1.00  0.00     0.002 A 
ATOM     91  C   UNL A   1      46.786  34.902  28.126  1.00  0.00     0.091 A 
ATOM     92  F   UNL A   1      45.557  33.355  26.788  1.00  0.00    -0.205 F 
ATOM     93  C   UNL A   1      47.417  35.202  29.345  1.00  0.00     0.022 A 
BRANCH  91  94
ATOM     94  S   UNL A   1      46.836  36.161  26.845  1.00  0.00     0.127 S 
ATOM     95  O   UNL A   1      45.433  36.567  26.772  1.00  0.00    -0.237 OA
ATOM     96  O   UNL A   1      47.732  37.162  27.424  1.00  0.00    -0.237 OA
ATOM     97  O   UNL A   1      47.359  35.499  25.656  1.00  0.00    -0.744 OA
ENDBRANCH  91  94
ENDBRANCH  64  87
ENDBRANCH  38  39
ENDBRANCH  30  33
ENDBRANCH  28  29
ENDBRANCH  27  28
ENDBRANCH  26  27
ENDBRANCH   1  26
TORSDOF 21
ENDMDL
