MODEL 1
REMARK VINA RESULT:     -11.1      0.000      0.000
REMARK SMILES CC(C)(C)NC(=O)c1ccccc1C(=O)NCCCCCCNC(=O)c1ccc(-c2c3nc(c(-c4cccc(S(=O)(=O)[O-])c4F)c4ccc([nH]4)c(-c4cccc(S(=O)(=O)[O-])c4F)c4nc(c(-c5cccc(S(=O)(=O)[O-])c5F)c5ccc2[nH]5)C=C4)C=C3)cc1
REMARK SMILES IDX 20 1 19 2 18 3 17 4 16 5 14 6 15 7 13 9 8 10 9 11 10 12
REMARK SMILES IDX 12 13 11 14 6 15 5 16 7 18 2 19 1 20 3 21 4 22 21 23 22 24
REMARK SMILES IDX 23 25 24 26 25 28 26 29 27 30 88 31 28 32 87 33 29 34 30 35
REMARK SMILES IDX 31 36 81 37 32 38 86 39 80 40 82 41 33 42 85 43 79 44 78 45
REMARK SMILES IDX 34 47 66 48 46 49 65 50 47 51 50 52 64 53 83 54 48 55 49 56
REMARK SMILES IDX 63 58 84 59 51 60 35 61 36 62 44 63 37 64 39 65 45 66 38 67
REMARK SMILES IDX 40 68 41 69 42 70 43 71 67 72 68 73 76 74 69 75 71 76 77 77
REMARK SMILES IDX 70 78 72 79 73 80 74 81 75 82 52 83 53 84 61 85 54 86 56 87
REMARK SMILES IDX 62 88 55 89 57 90 58 91 59 92 60 93
REMARK H PARENT 16 8 5 17 23 27 82 46 50 57
REMARK Flexibility Score: inf
ROOT
ATOM      1  C   UNL A   1      37.926  21.455  24.946  1.00  0.00     0.002 C 
ENDROOT
BRANCH   1   2
ATOM      2  C   UNL A   1      38.376  22.401  26.069  1.00  0.00     0.002 C 
BRANCH   2   3
ATOM      3  C   UNL A   1      37.749  23.802  26.118  1.00  0.00     0.021 C 
BRANCH   3   4
ATOM      4  C   UNL A   1      36.237  23.843  25.931  1.00  0.00     0.116 C 
BRANCH   4   5
ATOM      5  N   UNL A   1      35.490  22.962  26.800  1.00  0.00    -0.352 N 
ATOM      6  C   UNL A   1      34.249  22.389  26.659  1.00  0.00     0.252 C 
ATOM      7  O   UNL A   1      33.875  21.649  27.576  1.00  0.00    -0.269 OA
ATOM      8  H   UNL A   1      35.950  22.732  27.639  1.00  0.00     0.163 HD
BRANCH   6   9
ATOM      9  C   UNL A   1      33.301  22.627  25.530  1.00  0.00     0.052 A 
ATOM     10  C   UNL A   1      32.069  23.288  25.548  1.00  0.00     0.052 A 
ATOM     11  C   UNL A   1      31.256  23.307  24.393  1.00  0.00     0.014 A 
ATOM     12  C   UNL A   1      31.704  22.779  23.187  1.00  0.00     0.001 A 
ATOM     13  C   UNL A   1      33.758  22.150  24.278  1.00  0.00     0.014 A 
ATOM     14  C   UNL A   1      32.976  22.233  23.120  1.00  0.00     0.001 A 
BRANCH  10  15
ATOM     15  C   UNL A   1      31.457  23.958  26.693  1.00  0.00     0.252 C 
ATOM     16  N   UNL A   1      31.454  25.311  26.878  1.00  0.00    -0.347 N 
ATOM     17  H   UNL A   1      31.009  25.560  27.720  1.00  0.00     0.164 HD
ATOM     18  O   UNL A   1      30.870  23.250  27.512  1.00  0.00    -0.269 OA
BRANCH  16  19
ATOM     19  C   UNL A   1      31.942  26.500  26.150  1.00  0.00     0.032 C 
ATOM     20  C   UNL A   1      31.141  26.811  24.883  1.00  0.00     0.034 C 
ATOM     21  C   UNL A   1      33.434  26.395  25.807  1.00  0.00     0.034 C 
ATOM     22  C   UNL A   1      31.793  27.686  27.126  1.00  0.00     0.034 C 
ENDBRANCH  16  19
ENDBRANCH  10  15
ENDBRANCH   6   9
ENDBRANCH   4   5
ENDBRANCH   3   4
ENDBRANCH   2   3
ENDBRANCH   1   2
BRANCH   1  23
ATOM     23  C   UNL A   1      38.446  20.020  24.967  1.00  0.00     0.021 C 
BRANCH  23  24
ATOM     24  C   UNL A   1      39.149  19.582  26.242  1.00  0.00     0.116 C 
BRANCH  24  25
ATOM     25  N   UNL A   1      40.395  18.872  26.004  1.00  0.00    -0.352 N 
ATOM     26  C   UNL A   1      41.685  19.353  26.004  1.00  0.00     0.251 C 
ATOM     27  H   UNL A   1      40.303  17.911  25.816  1.00  0.00     0.163 HD
ATOM     28  O   UNL A   1      42.611  18.615  25.704  1.00  0.00    -0.269 OA
BRANCH  26  29
ATOM     29  C   UNL A   1      41.939  20.776  26.330  1.00  0.00     0.039 A 
ATOM     30  C   UNL A   1      42.282  21.109  27.644  1.00  0.00     0.014 A 
ATOM     31  C   UNL A   1      41.859  21.772  25.355  1.00  0.00     0.014 A 
ATOM     32  C   UNL A   1      42.608  22.429  27.962  1.00  0.00     0.010 A 
ATOM     33  C   UNL A   1      42.264  23.070  25.654  1.00  0.00     0.010 A 
ATOM     34  C   UNL A   1      42.637  23.414  26.962  1.00  0.00    -0.014 A 
BRANCH  34  35
ATOM     35  C   UNL A   1      43.062  24.806  27.260  1.00  0.00     0.031 A 
ATOM     36  C   UNL A   1      42.100  25.770  27.903  1.00  0.00     0.074 A 
ATOM     37  C   UNL A   1      44.282  25.227  26.871  1.00  0.00     0.049 A 
ATOM     38  N   UNL A   1      42.267  27.036  28.185  1.00  0.00    -0.248 NA
ATOM     39  C   UNL A   1      40.764  25.253  28.246  1.00  0.00     0.031 C 
ATOM     40  C   UNL A   1      45.273  24.412  26.166  1.00  0.00     0.029 A 
ATOM     41  N   UNL A   1      44.888  26.454  26.990  1.00  0.00    -0.354 N 
ATOM     42  C   UNL A   1      41.054  27.474  28.703  1.00  0.00     0.074 A 
ATOM     43  C   UNL A   1      40.147  26.348  28.662  1.00  0.00     0.031 C 
ATOM     44  C   UNL A   1      46.362  25.159  25.919  1.00  0.00     0.029 A 
ATOM     45  C   UNL A   1      46.137  26.511  26.417  1.00  0.00     0.049 A 
ATOM     46  H   UNL A   1      44.467  27.221  27.443  1.00  0.00     0.167 HD
ATOM     47  C   UNL A   1      40.731  28.694  29.194  1.00  0.00     0.034 A 
ATOM     48  C   UNL A   1      47.000  27.539  26.298  1.00  0.00     0.034 A 
ATOM     49  C   UNL A   1      41.650  29.796  29.271  1.00  0.00     0.049 A 
ATOM     50  C   UNL A   1      46.632  28.873  26.891  1.00  0.00     0.074 A 
ATOM     51  C   UNL A   1      41.449  31.044  29.834  1.00  0.00     0.029 A 
ATOM     52  N   UNL A   1      42.939  29.789  28.762  1.00  0.00    -0.354 N 
ATOM     53  N   UNL A   1      45.537  29.221  27.521  1.00  0.00    -0.248 NA
ATOM     54  C   UNL A   1      47.633  29.944  26.790  1.00  0.00     0.031 C 
ATOM     55  C   UNL A   1      42.609  31.802  29.641  1.00  0.00     0.029 A 
ATOM     56  C   UNL A   1      43.544  31.013  28.989  1.00  0.00     0.049 A 
ATOM     57  H   UNL A   1      43.362  29.026  28.307  1.00  0.00     0.167 HD
ATOM     58  C   UNL A   1      45.732  30.536  27.927  1.00  0.00     0.074 A 
ATOM     59  C   UNL A   1      47.059  30.916  27.488  1.00  0.00     0.031 C 
ATOM     60  C   UNL A   1      44.886  31.358  28.595  1.00  0.00     0.034 A 
BRANCH  47  61
ATOM     61  C   UNL A   1      39.338  28.887  29.735  1.00  0.00     0.023 A 
ATOM     62  C   UNL A   1      39.053  28.538  31.071  1.00  0.00     0.012 A 
ATOM     63  C   UNL A   1      38.328  29.471  28.945  1.00  0.00     0.148 A 
ATOM     64  C   UNL A   1      37.779  28.732  31.601  1.00  0.00     0.002 A 
ATOM     65  C   UNL A   1      37.073  29.705  29.495  1.00  0.00     0.091 A 
ATOM     66  F   UNL A   1      38.610  29.779  27.671  1.00  0.00    -0.205 F 
ATOM     67  C   UNL A   1      36.793  29.325  30.818  1.00  0.00     0.022 A 
BRANCH  65  68
ATOM     68  S   UNL A   1      35.760  30.539  28.597  1.00  0.00     0.127 S 
ATOM     69  O   UNL A   1      35.082  31.263  29.672  1.00  0.00    -0.237 OA
ATOM     70  O   UNL A   1      36.511  31.387  27.671  1.00  0.00    -0.237 OA
ATOM     71  O   UNL A   1      34.976  29.490  27.962  1.00  0.00    -0.744 OA
ENDBRANCH  65  68
ENDBRANCH  47  61
BRANCH  48  72
ATOM     72  C   UNL A   1      48.324  27.330  25.645  1.00  0.00     0.023 A 
ATOM     73  C   UNL A   1      49.420  26.905  26.422  1.00  0.00     0.012 A 
ATOM     74  C   UNL A   1      48.501  27.529  24.263  1.00  0.00     0.148 A 
ATOM     75  C   UNL A   1      50.675  26.717  25.841  1.00  0.00     0.002 A 
ATOM     76  C   UNL A   1      49.739  27.286  23.679  1.00  0.00     0.091 A 
ATOM     77  F   UNL A   1      47.449  27.943  23.541  1.00  0.00    -0.205 F 
ATOM     78  C   UNL A   1      50.832  26.897  24.470  1.00  0.00     0.022 A 
BRANCH  76  79
ATOM     79  S   UNL A   1      50.002  27.365  21.904  1.00  0.00     0.127 S 
ATOM     80  O   UNL A   1      49.890  28.798  21.649  1.00  0.00    -0.237 OA
ATOM     81  O   UNL A   1      51.354  26.820  21.776  1.00  0.00    -0.237 OA
ATOM     82  O   UNL A   1      48.961  26.533  21.315  1.00  0.00    -0.744 OA
ENDBRANCH  76  79
ENDBRANCH  48  72
BRANCH  60  83
ATOM     83  C   UNL A   1      45.377  32.740  28.940  1.00  0.00     0.023 A 
ATOM     84  C   UNL A   1      46.006  32.977  30.178  1.00  0.00     0.012 A 
ATOM     85  C   UNL A   1      45.287  33.784  27.998  1.00  0.00     0.148 A 
ATOM     86  C   UNL A   1      46.508  34.241  30.486  1.00  0.00     0.002 A 
ATOM     87  C   UNL A   1      45.836  35.027  28.291  1.00  0.00     0.091 A 
ATOM     88  F   UNL A   1      44.669  33.542  26.833  1.00  0.00    -0.205 F 
ATOM     89  C   UNL A   1      46.434  35.261  29.539  1.00  0.00     0.022 A 
BRANCH  87  90
ATOM     90  S   UNL A   1      45.877  36.367  27.096  1.00  0.00     0.127 S 
ATOM     91  O   UNL A   1      44.461  36.722  26.998  1.00  0.00    -0.237 OA
ATOM     92  O   UNL A   1      46.709  37.361  27.774  1.00  0.00    -0.237 OA
ATOM     93  O   UNL A   1      46.466  35.810  25.886  1.00  0.00    -0.744 OA
ENDBRANCH  87  90
ENDBRANCH  60  83
ENDBRANCH  34  35
ENDBRANCH  26  29
ENDBRANCH  24  25
ENDBRANCH  23  24
ENDBRANCH   1  23
TORSDOF 18
ENDMDL
MODEL 2
REMARK VINA RESULT:     -11.0      5.006      8.439
REMARK SMILES CC(C)(C)NC(=O)c1ccccc1C(=O)NCCCCCCNC(=O)c1ccc(-c2c3nc(c(-c4cccc(S(=O)(=O)[O-])c4F)c4ccc([nH]4)c(-c4cccc(S(=O)(=O)[O-])c4F)c4nc(c(-c5cccc(S(=O)(=O)[O-])c5F)c5ccc2[nH]5)C=C4)C=C3)cc1
REMARK SMILES IDX 20 1 19 2 18 3 17 4 16 5 14 6 15 7 13 9 8 10 9 11 10 12
REMARK SMILES IDX 12 13 11 14 6 15 5 16 7 18 2 19 1 20 3 21 4 22 21 23 22 24
REMARK SMILES IDX 23 25 24 26 25 28 26 29 27 30 88 31 28 32 87 33 29 34 30 35
REMARK SMILES IDX 31 36 81 37 32 38 86 39 80 40 82 41 33 42 85 43 79 44 78 45
REMARK SMILES IDX 34 47 66 48 46 49 65 50 47 51 50 52 64 53 83 54 48 55 49 56
REMARK SMILES IDX 63 58 84 59 51 60 35 61 36 62 44 63 37 64 39 65 45 66 38 67
REMARK SMILES IDX 40 68 41 69 42 70 43 71 67 72 68 73 76 74 69 75 71 76 77 77
REMARK SMILES IDX 70 78 72 79 73 80 74 81 75 82 52 83 53 84 61 85 54 86 56 87
REMARK SMILES IDX 62 88 55 89 57 90 58 91 59 92 60 93
REMARK H PARENT 16 8 5 17 23 27 82 46 50 57
REMARK Flexibility Score: inf
ROOT
ATOM      1  C   UNL A   1      32.063  27.575  26.323  1.00  0.00     0.002 C 
ENDROOT
BRANCH   1   2
ATOM      2  C   UNL A   1      31.628  28.023  24.920  1.00  0.00     0.002 C 
BRANCH   2   3
ATOM      3  C   UNL A   1      30.319  27.446  24.360  1.00  0.00     0.021 C 
BRANCH   3   4
ATOM      4  C   UNL A   1      29.866  26.134  24.990  1.00  0.00     0.116 C 
BRANCH   4   5
ATOM      5  N   UNL A   1      29.931  24.982  24.119  1.00  0.00    -0.352 N 
ATOM      6  C   UNL A   1      30.947  24.091  23.870  1.00  0.00     0.252 C 
ATOM      7  O   UNL A   1      30.697  23.177  23.076  1.00  0.00    -0.269 OA
ATOM      8  H   UNL A   1      29.104  24.805  23.617  1.00  0.00     0.163 HD
BRANCH   6   9
ATOM      9  C   UNL A   1      32.330  24.166  24.428  1.00  0.00     0.052 A 
ATOM     10  C   UNL A   1      32.876  23.466  25.508  1.00  0.00     0.052 A 
ATOM     11  C   UNL A   1      34.180  23.764  25.963  1.00  0.00     0.014 A 
ATOM     12  C   UNL A   1      34.992  24.666  25.282  1.00  0.00     0.001 A 
ATOM     13  C   UNL A   1      33.196  25.033  23.719  1.00  0.00     0.014 A 
ATOM     14  C   UNL A   1      34.511  25.274  24.133  1.00  0.00     0.001 A 
BRANCH  10  15
ATOM     15  C   UNL A   1      32.210  22.441  26.307  1.00  0.00     0.252 C 
ATOM     16  N   UNL A   1      32.292  21.101  26.058  1.00  0.00    -0.347 N 
ATOM     17  H   UNL A   1      31.756  20.580  26.698  1.00  0.00     0.164 HD
ATOM     18  O   UNL A   1      31.573  22.819  27.292  1.00  0.00    -0.269 OA
BRANCH  16  19
ATOM     19  C   UNL A   1      32.974  20.225  25.083  1.00  0.00     0.032 C 
ATOM     20  C   UNL A   1      34.492  20.418  25.048  1.00  0.00     0.034 C 
ATOM     21  C   UNL A   1      32.399  20.379  23.669  1.00  0.00     0.034 C 
ATOM     22  C   UNL A   1      32.674  18.779  25.530  1.00  0.00     0.034 C 
ENDBRANCH  16  19
ENDBRANCH  10  15
ENDBRANCH   6   9
ENDBRANCH   4   5
ENDBRANCH   3   4
ENDBRANCH   2   3
ENDBRANCH   1   2
BRANCH   1  23
ATOM     23  C   UNL A   1      33.540  27.703  26.689  1.00  0.00     0.021 C 
BRANCH  23  24
ATOM     24  C   UNL A   1      34.273  28.899  26.103  1.00  0.00     0.116 C 
BRANCH  24  25
ATOM     25  N   UNL A   1      33.843  30.172  26.656  1.00  0.00    -0.352 N 
ATOM     26  C   UNL A   1      34.438  30.946  27.626  1.00  0.00     0.251 C 
ATOM     27  H   UNL A   1      33.006  30.531  26.284  1.00  0.00     0.163 HD
ATOM     28  O   UNL A   1      33.884  31.960  28.022  1.00  0.00    -0.269 OA
BRANCH  26  29
ATOM     29  C   UNL A   1      35.732  30.524  28.213  1.00  0.00     0.039 A 
ATOM     30  C   UNL A   1      35.715  29.723  29.359  1.00  0.00     0.014 A 
ATOM     31  C   UNL A   1      36.948  30.894  27.637  1.00  0.00     0.014 A 
ATOM     32  C   UNL A   1      36.916  29.241  29.885  1.00  0.00     0.010 A 
ATOM     33  C   UNL A   1      38.136  30.346  28.112  1.00  0.00     0.010 A 
ATOM     34  C   UNL A   1      38.134  29.519  29.245  1.00  0.00    -0.014 A 
BRANCH  34  35
ATOM     35  C   UNL A   1      39.414  28.949  29.737  1.00  0.00     0.031 A 
ATOM     36  C   UNL A   1      40.155  29.615  30.866  1.00  0.00     0.074 A 
ATOM     37  C   UNL A   1      39.953  27.884  29.111  1.00  0.00     0.049 A 
ATOM     38  N   UNL A   1      41.311  29.301  31.392  1.00  0.00    -0.248 NA
ATOM     39  C   UNL A   1      39.532  30.809  31.463  1.00  0.00     0.031 C 
ATOM     40  C   UNL A   1      39.373  27.201  27.954  1.00  0.00     0.029 A 
ATOM     41  N   UNL A   1      41.125  27.205  29.342  1.00  0.00    -0.354 N 
ATOM     42  C   UNL A   1      41.569  30.274  32.351  1.00  0.00     0.074 A 
ATOM     43  C   UNL A   1      40.468  31.210  32.310  1.00  0.00     0.031 C 
ATOM     44  C   UNL A   1      40.186  26.200  27.579  1.00  0.00     0.029 A 
ATOM     45  C   UNL A   1      41.360  26.188  28.446  1.00  0.00     0.049 A 
ATOM     46  H   UNL A   1      41.738  27.426  30.080  1.00  0.00     0.167 HD
ATOM     47  C   UNL A   1      42.614  30.365  33.208  1.00  0.00     0.034 A 
ATOM     48  C   UNL A   1      42.407  25.348  28.329  1.00  0.00     0.034 A 
ATOM     49  C   UNL A   1      43.684  29.408  33.273  1.00  0.00     0.049 A 
ATOM     50  C   UNL A   1      43.534  25.444  29.322  1.00  0.00     0.074 A 
ATOM     51  C   UNL A   1      44.740  29.359  34.165  1.00  0.00     0.029 A 
ATOM     52  N   UNL A   1      43.842  28.337  32.407  1.00  0.00    -0.354 N 
ATOM     53  N   UNL A   1      43.680  26.276  30.325  1.00  0.00    -0.248 NA
ATOM     54  C   UNL A   1      44.622  24.465  29.191  1.00  0.00     0.031 C 
ATOM     55  C   UNL A   1      45.553  28.274  33.821  1.00  0.00     0.029 A 
ATOM     56  C   UNL A   1      44.982  27.626  32.737  1.00  0.00     0.049 A 
ATOM     57  H   UNL A   1      43.232  28.115  31.667  1.00  0.00     0.167 HD
ATOM     58  C   UNL A   1      44.851  25.895  30.969  1.00  0.00     0.074 A 
ATOM     59  C   UNL A   1      45.366  24.746  30.252  1.00  0.00     0.031 C 
ATOM     60  C   UNL A   1      45.453  26.451  32.049  1.00  0.00     0.034 A 
BRANCH  47  61
ATOM     61  C   UNL A   1      42.625  31.515  34.182  1.00  0.00     0.023 A 
ATOM     62  C   UNL A   1      43.276  32.716  33.835  1.00  0.00     0.012 A 
ATOM     63  C   UNL A   1      41.940  31.433  35.410  1.00  0.00     0.148 A 
ATOM     64  C   UNL A   1      43.278  33.803  34.708  1.00  0.00     0.002 A 
ATOM     65  C   UNL A   1      41.906  32.536  36.255  1.00  0.00     0.091 A 
ATOM     66  F   UNL A   1      41.342  30.277  35.733  1.00  0.00    -0.205 F 
ATOM     67  C   UNL A   1      42.585  33.717  35.912  1.00  0.00     0.022 A 
BRANCH  65  68
ATOM     68  S   UNL A   1      40.971  32.557  37.788  1.00  0.00     0.127 S 
ATOM     69  O   UNL A   1      40.840  33.993  38.034  1.00  0.00    -0.237 OA
ATOM     70  O   UNL A   1      39.727  31.890  37.399  1.00  0.00    -0.237 OA
ATOM     71  O   UNL A   1      41.773  31.829  38.760  1.00  0.00    -0.744 OA
ENDBRANCH  65  68
ENDBRANCH  47  61
BRANCH  48  72
ATOM     72  C   UNL A   1      42.407  24.299  27.270  1.00  0.00     0.023 A 
ATOM     73  C   UNL A   1      43.248  24.445  26.149  1.00  0.00     0.012 A 
ATOM     74  C   UNL A   1      41.599  23.150  27.374  1.00  0.00     0.148 A 
ATOM     75  C   UNL A   1      43.257  23.487  25.135  1.00  0.00     0.002 A 
ATOM     76  C   UNL A   1      41.654  22.171  26.388  1.00  0.00     0.091 A 
ATOM     77  F   UNL A   1      40.798  23.032  28.443  1.00  0.00    -0.205 F 
ATOM     78  C   UNL A   1      42.468  22.347  25.259  1.00  0.00     0.022 A 
BRANCH  76  79
ATOM     79  S   UNL A   1      40.774  20.612  26.527  1.00  0.00     0.127 S 
ATOM     80  O   UNL A   1      41.546  19.753  25.633  1.00  0.00    -0.237 OA
ATOM     81  O   UNL A   1      40.921  20.309  27.951  1.00  0.00    -0.237 OA
ATOM     82  O   UNL A   1      39.407  20.893  26.110  1.00  0.00    -0.744 OA
ENDBRANCH  76  79
ENDBRANCH  48  72
BRANCH  60  83
ATOM     83  C   UNL A   1      46.713  25.804  32.561  1.00  0.00     0.023 A 
ATOM     84  C   UNL A   1      46.656  24.914  33.652  1.00  0.00     0.012 A 
ATOM     85  C   UNL A   1      47.941  26.018  31.905  1.00  0.00     0.148 A 
ATOM     86  C   UNL A   1      47.809  24.273  34.102  1.00  0.00     0.002 A 
ATOM     87  C   UNL A   1      49.076  25.335  32.326  1.00  0.00     0.091 A 
ATOM     88  F   UNL A   1      47.977  26.882  30.880  1.00  0.00    -0.205 F 
ATOM     89  C   UNL A   1      49.015  24.473  33.432  1.00  0.00     0.022 A 
BRANCH  87  90
ATOM     90  S   UNL A   1      50.646  25.453  31.463  1.00  0.00     0.127 S 
ATOM     91  O   UNL A   1      50.982  26.864  31.647  1.00  0.00    -0.237 OA
ATOM     92  O   UNL A   1      51.486  24.523  32.219  1.00  0.00    -0.237 OA
ATOM     93  O   UNL A   1      50.382  25.049  30.089  1.00  0.00    -0.744 OA
ENDBRANCH  87  90
ENDBRANCH  60  83
ENDBRANCH  34  35
ENDBRANCH  26  29
ENDBRANCH  24  25
ENDBRANCH  23  24
ENDBRANCH   1  23
TORSDOF 18
ENDMDL
MODEL 3
REMARK VINA RESULT:     -10.8      2.090      8.202
REMARK SMILES CC(C)(C)NC(=O)c1ccccc1C(=O)NCCCCCCNC(=O)c1ccc(-c2c3nc(c(-c4cccc(S(=O)(=O)[O-])c4F)c4ccc([nH]4)c(-c4cccc(S(=O)(=O)[O-])c4F)c4nc(c(-c5cccc(S(=O)(=O)[O-])c5F)c5ccc2[nH]5)C=C4)C=C3)cc1
REMARK SMILES IDX 20 1 19 2 18 3 17 4 16 5 14 6 15 7 13 9 8 10 9 11 10 12
REMARK SMILES IDX 12 13 11 14 6 15 5 16 7 18 2 19 1 20 3 21 4 22 21 23 22 24
REMARK SMILES IDX 23 25 24 26 25 28 26 29 27 30 88 31 28 32 87 33 29 34 30 35
REMARK SMILES IDX 31 36 81 37 32 38 86 39 80 40 82 41 33 42 85 43 79 44 78 45
REMARK SMILES IDX 34 47 66 48 46 49 65 50 47 51 50 52 64 53 83 54 48 55 49 56
REMARK SMILES IDX 63 58 84 59 51 60 35 61 36 62 44 63 37 64 39 65 45 66 38 67
REMARK SMILES IDX 40 68 41 69 42 70 43 71 67 72 68 73 76 74 69 75 71 76 77 77
REMARK SMILES IDX 70 78 72 79 73 80 74 81 75 82 52 83 53 84 61 85 54 86 56 87
REMARK SMILES IDX 62 88 55 89 57 90 58 91 59 92 60 93
REMARK H PARENT 16 8 5 17 23 27 82 46 50 57
REMARK Flexibility Score: inf
ROOT
ATOM      1  C   UNL A   1      34.571  22.479  24.385  1.00  0.00     0.002 C 
ENDROOT
BRANCH   1   2
ATOM      2  C   UNL A   1      34.356  23.373  25.615  1.00  0.00     0.002 C 
BRANCH   2   3
ATOM      3  C   UNL A   1      34.232  24.887  25.386  1.00  0.00     0.021 C 
BRANCH   3   4
ATOM      4  C   UNL A   1      33.737  25.295  24.003  1.00  0.00     0.116 C 
BRANCH   4   5
ATOM      5  N   UNL A   1      32.305  25.214  23.819  1.00  0.00    -0.352 N 
ATOM      6  C   UNL A   1      31.294  26.063  24.198  1.00  0.00     0.252 C 
ATOM      7  O   UNL A   1      30.147  25.735  23.876  1.00  0.00    -0.269 OA
ATOM      8  H   UNL A   1      32.002  24.412  23.336  1.00  0.00     0.163 HD
BRANCH   6   9
ATOM      9  C   UNL A   1      31.457  27.308  25.008  1.00  0.00     0.052 A 
ATOM     10  C   UNL A   1      31.714  28.609  24.568  1.00  0.00     0.052 A 
ATOM     11  C   UNL A   1      31.955  29.641  25.502  1.00  0.00     0.014 A 
ATOM     12  C   UNL A   1      31.826  29.420  26.870  1.00  0.00     0.001 A 
ATOM     13  C   UNL A   1      31.273  27.123  26.399  1.00  0.00     0.014 A 
ATOM     14  C   UNL A   1      31.445  28.165  27.318  1.00  0.00     0.001 A 
BRANCH  10  15
ATOM     15  C   UNL A   1      31.824  29.054  23.181  1.00  0.00     0.252 C 
ATOM     16  N   UNL A   1      30.798  29.609  22.470  1.00  0.00    -0.347 N 
ATOM     17  H   UNL A   1      31.070  29.821  21.548  1.00  0.00     0.164 HD
ATOM     18  O   UNL A   1      32.929  28.958  22.644  1.00  0.00    -0.269 OA
BRANCH  16  19
ATOM     19  C   UNL A   1      29.389  29.975  22.718  1.00  0.00     0.032 C 
ATOM     20  C   UNL A   1      29.219  31.053  23.791  1.00  0.00     0.034 C 
ATOM     21  C   UNL A   1      28.528  28.754  23.069  1.00  0.00     0.034 C 
ATOM     22  C   UNL A   1      28.852  30.527  21.381  1.00  0.00     0.034 C 
ENDBRANCH  16  19
ENDBRANCH  10  15
ENDBRANCH   6   9
ENDBRANCH   4   5
ENDBRANCH   3   4
ENDBRANCH   2   3
ENDBRANCH   1   2
BRANCH   1  23
ATOM     23  C   UNL A   1      35.729  21.483  24.418  1.00  0.00     0.021 C 
BRANCH  23  24
ATOM     24  C   UNL A   1      37.039  22.000  24.990  1.00  0.00     0.116 C 
BRANCH  24  25
ATOM     25  N   UNL A   1      37.952  20.944  25.394  1.00  0.00    -0.352 N 
ATOM     26  C   UNL A   1      39.147  21.036  26.072  1.00  0.00     0.251 C 
ATOM     27  H   UNL A   1      37.678  20.032  25.146  1.00  0.00     0.163 HD
ATOM     28  O   UNL A   1      39.822  20.036  26.258  1.00  0.00    -0.269 OA
BRANCH  26  29
ATOM     29  C   UNL A   1      39.625  22.359  26.541  1.00  0.00     0.039 A 
ATOM     30  C   UNL A   1      40.769  22.409  27.343  1.00  0.00     0.014 A 
ATOM     31  C   UNL A   1      38.969  23.538  26.183  1.00  0.00     0.014 A 
ATOM     32  C   UNL A   1      41.290  23.646  27.730  1.00  0.00     0.010 A 
ATOM     33  C   UNL A   1      39.536  24.770  26.499  1.00  0.00     0.010 A 
ATOM     34  C   UNL A   1      40.699  24.837  27.281  1.00  0.00    -0.014 A 
BRANCH  34  35
ATOM     35  C   UNL A   1      41.284  26.163  27.610  1.00  0.00     0.031 A 
ATOM     36  C   UNL A   1      42.700  26.484  27.211  1.00  0.00     0.074 A 
ATOM     37  C   UNL A   1      40.572  27.041  28.343  1.00  0.00     0.049 A 
ATOM     38  N   UNL A   1      43.402  27.560  27.460  1.00  0.00    -0.248 NA
ATOM     39  C   UNL A   1      43.435  25.451  26.461  1.00  0.00     0.031 C 
ATOM     40  C   UNL A   1      39.221  26.814  28.859  1.00  0.00     0.029 A 
ATOM     41  N   UNL A   1      40.896  28.294  28.806  1.00  0.00    -0.354 N 
ATOM     42  C   UNL A   1      44.665  27.320  26.932  1.00  0.00     0.074 A 
ATOM     43  C   UNL A   1      44.646  25.983  26.382  1.00  0.00     0.031 C 
ATOM     44  C   UNL A   1      38.830  27.889  29.562  1.00  0.00     0.029 A 
ATOM     45  C   UNL A   1      39.911  28.869  29.575  1.00  0.00     0.049 A 
ATOM     46  H   UNL A   1      41.751  28.737  28.605  1.00  0.00     0.167 HD
ATOM     47  C   UNL A   1      45.737  28.147  26.885  1.00  0.00     0.034 A 
ATOM     48  C   UNL A   1      39.885  30.049  30.227  1.00  0.00     0.034 A 
ATOM     49  C   UNL A   1      45.736  29.490  27.396  1.00  0.00     0.049 A 
ATOM     50  C   UNL A   1      41.074  30.966  30.121  1.00  0.00     0.074 A 
ATOM     51  C   UNL A   1      46.739  30.440  27.315  1.00  0.00     0.029 A 
ATOM     52  N   UNL A   1      44.688  30.072  28.091  1.00  0.00    -0.354 N 
ATOM     53  N   UNL A   1      42.203  30.783  29.479  1.00  0.00    -0.248 NA
ATOM     54  C   UNL A   1      40.972  32.267  30.797  1.00  0.00     0.031 C 
ATOM     55  C   UNL A   1      46.307  31.589  27.987  1.00  0.00     0.029 A 
ATOM     56  C   UNL A   1      45.021  31.366  28.454  1.00  0.00     0.049 A 
ATOM     57  H   UNL A   1      43.832  29.632  28.295  1.00  0.00     0.167 HD
ATOM     58  C   UNL A   1      42.927  31.958  29.639  1.00  0.00     0.074 A 
ATOM     59  C   UNL A   1      42.102  32.854  30.422  1.00  0.00     0.031 C 
ATOM     60  C   UNL A   1      44.168  32.266  29.186  1.00  0.00     0.034 A 
BRANCH  47  61
ATOM     61  C   UNL A   1      46.986  27.640  26.212  1.00  0.00     0.023 A 
ATOM     62  C   UNL A   1      47.908  26.865  26.946  1.00  0.00     0.012 A 
ATOM     63  C   UNL A   1      47.218  27.873  24.843  1.00  0.00     0.148 A 
ATOM     64  C   UNL A   1      49.058  26.363  26.339  1.00  0.00     0.002 A 
ATOM     65  C   UNL A   1      48.343  27.329  24.232  1.00  0.00     0.091 A 
ATOM     66  F   UNL A   1      46.342  28.627  24.164  1.00  0.00    -0.205 F 
ATOM     67  C   UNL A   1      49.270  26.585  24.981  1.00  0.00     0.022 A 
BRANCH  65  68
ATOM     68  S   UNL A   1      48.664  27.485  22.473  1.00  0.00     0.127 S 
ATOM     69  O   UNL A   1      48.672  26.085  22.049  1.00  0.00    -0.237 OA
ATOM     70  O   UNL A   1      47.506  28.254  22.015  1.00  0.00    -0.237 OA
ATOM     71  O   UNL A   1      49.939  28.178  22.355  1.00  0.00    -0.744 OA
ENDBRANCH  65  68
ENDBRANCH  47  61
BRANCH  48  72
ATOM     72  C   UNL A   1      38.667  30.458  30.983  1.00  0.00     0.023 A 
ATOM     73  C   UNL A   1      38.580  30.178  32.360  1.00  0.00     0.012 A 
ATOM     74  C   UNL A   1      37.607  31.137  30.353  1.00  0.00     0.148 A 
ATOM     75  C   UNL A   1      37.445  30.535  33.090  1.00  0.00     0.002 A 
ATOM     76  C   UNL A   1      36.503  31.540  31.097  1.00  0.00     0.091 A 
ATOM     77  F   UNL A   1      37.703  31.386  29.040  1.00  0.00    -0.205 F 
ATOM     78  C   UNL A   1      36.412  31.224  32.461  1.00  0.00     0.022 A 
BRANCH  76  79
ATOM     79  S   UNL A   1      35.187  32.545  30.402  1.00  0.00     0.127 S 
ATOM     80  O   UNL A   1      34.265  32.652  31.529  1.00  0.00    -0.237 OA
ATOM     81  O   UNL A   1      35.896  33.781  30.067  1.00  0.00    -0.237 OA
ATOM     82  O   UNL A   1      34.693  31.805  29.249  1.00  0.00    -0.744 OA
ENDBRANCH  76  79
ENDBRANCH  48  72
BRANCH  60  83
ATOM     83  C   UNL A   1      44.700  33.643  29.480  1.00  0.00     0.023 A 
ATOM     84  C   UNL A   1      45.348  33.903  30.704  1.00  0.00     0.012 A 
ATOM     85  C   UNL A   1      44.629  34.658  28.506  1.00  0.00     0.148 A 
ATOM     86  C   UNL A   1      45.887  35.162  30.966  1.00  0.00     0.002 A 
ATOM     87  C   UNL A   1      45.215  35.894  28.752  1.00  0.00     0.091 A 
ATOM     88  F   UNL A   1      43.992  34.396  27.355  1.00  0.00    -0.205 F 
ATOM     89  C   UNL A   1      45.831  36.152  29.987  1.00  0.00     0.022 A 
BRANCH  87  90
ATOM     90  S   UNL A   1      45.280  37.193  27.514  1.00  0.00     0.127 S 
ATOM     91  O   UNL A   1      46.192  38.152  28.136  1.00  0.00    -0.237 OA
ATOM     92  O   UNL A   1      45.834  36.489  26.357  1.00  0.00    -0.237 OA
ATOM     93  O   UNL A   1      43.910  37.655  27.342  1.00  0.00    -0.744 OA
ENDBRANCH  87  90
ENDBRANCH  60  83
ENDBRANCH  34  35
ENDBRANCH  26  29
ENDBRANCH  24  25
ENDBRANCH  23  24
ENDBRANCH   1  23
TORSDOF 18
ENDMDL
