MODEL 1
REMARK VINA RESULT:     -10.8      0.000      0.000
REMARK SMILES CCOc1cc2nccc(Nc3ccc(C(=O)NCCCCCCNC(=O)c4ccc(-c5c6nc(c(-c7cccc(S(=O)(=O)[O-])c7F)c7ccc([nH]7)c(-c7cccc(S(=O)(=O)[O-])c7F)c7nc(c(-c8cccc(S(=O)(=O)[O-])c8F)c8ccc5[nH]8)C=C7)C=C6)cc4)cc3)c2cc1OCC
REMARK SMILES IDX 21 1 20 2 19 3 18 4 16 5 17 6 15 8 12 9 13 10 92 11 14 12
REMARK SMILES IDX 91 13 11 14 10 16 4 17 5 18 95 19 6 20 94 21 7 22 93 23 8 24
REMARK SMILES IDX 9 25 3 26 2 27 1 28 96 29 97 30 98 31 22 32 23 33 24 34
REMARK SMILES IDX 25 35 26 36 27 38 28 39 29 40 90 41 30 42 89 43 31 44 32 45
REMARK SMILES IDX 33 46 83 47 34 48 88 49 82 50 84 51 35 52 87 53 81 54 80 55
REMARK SMILES IDX 36 57 68 58 48 59 67 60 49 61 52 62 66 63 85 64 50 65 51 66
REMARK SMILES IDX 65 68 86 69 53 70 37 71 38 72 46 73 39 74 41 75 47 76 40 77
REMARK SMILES IDX 42 78 43 79 44 80 45 81 69 82 70 83 78 84 71 85 73 86 79 87
REMARK SMILES IDX 72 88 74 89 75 90 76 91 77 92 54 93 55 94 63 95 56 96 58 97
REMARK SMILES IDX 64 98 57 99 59 100 60 101 61 102 62 103
REMARK H PARENT 18 7 11 15 25 37 84 56 52 67
REMARK Flexibility Score: inf
ROOT
ATOM      1  C   UNL A   1      32.137  29.561  25.161  1.00  0.00     0.002 C 
ENDROOT
BRANCH   1   2
ATOM      2  C   UNL A   1      30.814  30.011  24.526  1.00  0.00     0.021 C 
BRANCH   2   3
ATOM      3  C   UNL A   1      30.515  29.272  23.220  1.00  0.00     0.116 C 
BRANCH   3   4
ATOM      4  N   UNL A   1      29.483  28.282  23.463  1.00  0.00    -0.352 N 
ATOM      5  C   UNL A   1      29.552  26.954  23.787  1.00  0.00     0.251 C 
ATOM      6  O   UNL A   1      28.499  26.320  23.858  1.00  0.00    -0.269 OA
ATOM      7  H   UNL A   1      28.565  28.628  23.380  1.00  0.00     0.163 HD
BRANCH   5   8
ATOM      8  C   UNL A   1      30.830  26.288  24.153  1.00  0.00     0.039 A 
ATOM      9  C   UNL A   1      33.284  25.270  25.072  1.00  0.00     0.038 A 
ATOM     10  C   UNL A   1      32.241  25.526  25.967  1.00  0.00     0.027 A 
ATOM     11  C   UNL A   1      33.073  25.473  23.710  1.00  0.00     0.027 A 
ATOM     12  C   UNL A   1      31.028  26.042  25.515  1.00  0.00     0.016 A 
ATOM     13  C   UNL A   1      31.832  25.923  23.248  1.00  0.00     0.016 A 
BRANCH   9  14
ATOM     14  N   UNL A   1      34.505  24.817  25.578  1.00  0.00    -0.355 N 
ATOM     15  H   UNL A   1      34.875  25.385  26.292  1.00  0.00     0.167 HD
BRANCH  14  16
ATOM     16  C   UNL A   1      35.311  23.700  25.262  1.00  0.00     0.050 A 
ATOM     17  C   UNL A   1      33.554  19.854  25.136  1.00  0.00     0.163 A 
ATOM     18  C   UNL A   1      34.939  20.018  24.981  1.00  0.00     0.079 A 
ATOM     19  C   UNL A   1      32.743  20.980  25.245  1.00  0.00     0.161 A 
ATOM     20  C   UNL A   1      35.534  21.285  24.980  1.00  0.00     0.076 A 
ATOM     21  C   UNL A   1      33.325  22.239  25.269  1.00  0.00     0.063 A 
ATOM     22  N   UNL A   1      36.865  21.403  24.832  1.00  0.00    -0.256 NA
ATOM     23  C   UNL A   1      34.714  22.417  25.168  1.00  0.00     0.028 A 
ATOM     24  C   UNL A   1      37.405  22.647  24.848  1.00  0.00     0.114 A 
ATOM     25  C   UNL A   1      36.681  23.808  25.051  1.00  0.00     0.047 A 
BRANCH  17  26
ATOM     26  O   UNL A   1      32.989  18.624  25.337  1.00  0.00    -0.490 OA
BRANCH  26  27
ATOM     27  C   UNL A   1      33.295  17.636  24.351  1.00  0.00     0.226 C 
ATOM     28  C   UNL A   1      32.598  18.060  23.062  1.00  0.00     0.049 C 
ENDBRANCH  26  27
ENDBRANCH  17  26
BRANCH  19  29
ATOM     29  O   UNL A   1      31.383  21.020  25.365  1.00  0.00    -0.490 OA
BRANCH  29  30
ATOM     30  C   UNL A   1      30.785  22.307  25.490  1.00  0.00     0.226 C 
ATOM     31  C   UNL A   1      30.040  22.544  26.800  1.00  0.00     0.049 C 
ENDBRANCH  29  30
ENDBRANCH  19  29
ENDBRANCH  14  16
ENDBRANCH   9  14
ENDBRANCH   5   8
ENDBRANCH   3   4
ENDBRANCH   2   3
ENDBRANCH   1   2
BRANCH   1  32
ATOM     32  C   UNL A   1      32.076  29.395  26.685  1.00  0.00     0.002 C 
BRANCH  32  33
ATOM     33  C   UNL A   1      33.277  28.666  27.293  1.00  0.00     0.021 C 
BRANCH  33  34
ATOM     34  C   UNL A   1      34.544  29.514  27.363  1.00  0.00     0.116 C 
BRANCH  34  35
ATOM     35  N   UNL A   1      34.258  30.854  27.858  1.00  0.00    -0.352 N 
ATOM     36  C   UNL A   1      34.874  31.556  28.864  1.00  0.00     0.251 C 
ATOM     37  H   UNL A   1      33.519  31.322  27.407  1.00  0.00     0.163 HD
ATOM     38  O   UNL A   1      34.349  32.563  29.325  1.00  0.00    -0.269 OA
BRANCH  36  39
ATOM     39  C   UNL A   1      36.172  31.083  29.390  1.00  0.00     0.039 A 
ATOM     40  C   UNL A   1      36.185  30.085  30.368  1.00  0.00     0.014 A 
ATOM     41  C   UNL A   1      37.370  31.620  28.911  1.00  0.00     0.014 A 
ATOM     42  C   UNL A   1      37.405  29.581  30.819  1.00  0.00     0.010 A 
ATOM     43  C   UNL A   1      38.582  31.066  29.309  1.00  0.00     0.010 A 
ATOM     44  C   UNL A   1      38.613  30.041  30.266  1.00  0.00    -0.014 A 
BRANCH  44  45
ATOM     45  C   UNL A   1      39.911  29.426  30.640  1.00  0.00     0.031 A 
ATOM     46  C   UNL A   1      40.740  30.003  31.753  1.00  0.00     0.074 A 
ATOM     47  C   UNL A   1      40.392  28.409  29.900  1.00  0.00     0.049 A 
ATOM     48  N   UNL A   1      41.922  29.634  32.174  1.00  0.00    -0.248 NA
ATOM     49  C   UNL A   1      40.183  31.162  32.467  1.00  0.00     0.031 C 
ATOM     50  C   UNL A   1      39.724  27.824  28.735  1.00  0.00     0.029 A 
ATOM     51  N   UNL A   1      41.571  27.712  29.991  1.00  0.00    -0.354 N 
ATOM     52  C   UNL A   1      42.267  30.535  33.173  1.00  0.00     0.074 A 
ATOM     53  C   UNL A   1      41.181  31.487  33.275  1.00  0.00     0.031 C 
ATOM     54  C   UNL A   1      40.505  26.866  28.214  1.00  0.00     0.029 A 
ATOM     55  C   UNL A   1      41.744  26.791  28.984  1.00  0.00     0.049 A 
ATOM     56  H   UNL A   1      42.230  27.857  30.708  1.00  0.00     0.167 HD
ATOM     57  C   UNL A   1      43.378  30.557  33.948  1.00  0.00     0.034 A 
ATOM     58  C   UNL A   1      42.789  25.992  28.694  1.00  0.00     0.034 A 
ATOM     59  C   UNL A   1      44.441  29.592  33.859  1.00  0.00     0.049 A 
ATOM     60  C   UNL A   1      43.994  26.007  29.591  1.00  0.00     0.074 A 
ATOM     61  C   UNL A   1      45.551  29.458  34.674  1.00  0.00     0.029 A 
ATOM     62  N   UNL A   1      44.544  28.613  32.882  1.00  0.00    -0.354 N 
ATOM     63  N   UNL A   1      44.220  26.742  30.652  1.00  0.00    -0.248 NA
ATOM     64  C   UNL A   1      45.073  25.061  29.274  1.00  0.00     0.031 C 
ATOM     65  C   UNL A   1      46.347  28.427  34.163  1.00  0.00     0.029 A 
ATOM     66  C   UNL A   1      45.712  27.891  33.054  1.00  0.00     0.049 A 
ATOM     67  H   UNL A   1      43.882  28.455  32.170  1.00  0.00     0.167 HD
ATOM     68  C   UNL A   1      45.456  26.334  31.142  1.00  0.00     0.074 A 
ATOM     69  C   UNL A   1      45.915  25.268  30.277  1.00  0.00     0.031 C 
ATOM     70  C   UNL A   1      46.150  26.811  32.205  1.00  0.00     0.034 A 
BRANCH  57  71
ATOM     71  C   UNL A   1      43.487  31.648  34.983  1.00  0.00     0.023 A 
ATOM     72  C   UNL A   1      44.217  32.819  34.696  1.00  0.00     0.012 A 
ATOM     73  C   UNL A   1      42.832  31.532  36.225  1.00  0.00     0.148 A 
ATOM     74  C   UNL A   1      44.331  33.838  35.642  1.00  0.00     0.002 A 
ATOM     75  C   UNL A   1      42.908  32.571  37.144  1.00  0.00     0.091 A 
ATOM     76  F   UNL A   1      42.160  30.402  36.491  1.00  0.00    -0.205 F 
ATOM     77  C   UNL A   1      43.668  33.718  36.860  1.00  0.00     0.022 A 
BRANCH  75  78
ATOM     78  S   UNL A   1      42.023  32.547  38.707  1.00  0.00     0.127 S 
ATOM     79  O   UNL A   1      40.654  32.284  38.266  1.00  0.00    -0.237 OA
ATOM     80  O   UNL A   1      42.663  31.434  39.407  1.00  0.00    -0.237 OA
ATOM     81  O   UNL A   1      42.245  33.853  39.313  1.00  0.00    -0.744 OA
ENDBRANCH  75  78
ENDBRANCH  57  71
BRANCH  58  82
ATOM     82  C   UNL A   1      42.714  25.092  27.510  1.00  0.00     0.023 A 
ATOM     83  C   UNL A   1      43.281  25.496  26.286  1.00  0.00     0.012 A 
ATOM     84  C   UNL A   1      42.139  23.810  27.612  1.00  0.00     0.148 A 
ATOM     85  C   UNL A   1      43.256  24.649  25.178  1.00  0.00     0.002 A 
ATOM     86  C   UNL A   1      42.172  22.948  26.523  1.00  0.00     0.091 A 
ATOM     87  F   UNL A   1      41.598  23.450  28.785  1.00  0.00    -0.205 F 
ATOM     88  C   UNL A   1      42.713  23.370  25.300  1.00  0.00     0.022 A 
BRANCH  86  89
ATOM     89  S   UNL A   1      41.631  21.238  26.633  1.00  0.00     0.127 S 
ATOM     90  O   UNL A   1      42.244  20.655  25.443  1.00  0.00    -0.237 OA
ATOM     91  O   UNL A   1      42.224  20.818  27.902  1.00  0.00    -0.237 OA
ATOM     92  O   UNL A   1      40.175  21.282  26.636  1.00  0.00    -0.744 OA
ENDBRANCH  86  89
ENDBRANCH  58  82
BRANCH  70  93
ATOM     93  C   UNL A   1      47.484  26.177  32.509  1.00  0.00     0.023 A 
ATOM     94  C   UNL A   1      48.653  26.678  31.902  1.00  0.00     0.012 A 
ATOM     95  C   UNL A   1      47.587  25.136  33.452  1.00  0.00     0.148 A 
ATOM     96  C   UNL A   1      49.900  26.132  32.206  1.00  0.00     0.002 A 
ATOM     97  C   UNL A   1      48.837  24.632  33.788  1.00  0.00     0.091 A 
ATOM     98  F   UNL A   1      46.462  24.662  34.006  1.00  0.00    -0.205 F 
ATOM     99  C   UNL A   1      49.993  25.119  33.157  1.00  0.00     0.022 A 
BRANCH  97 100
ATOM    100  S   UNL A   1      49.067  23.393  35.069  1.00  0.00     0.127 S 
ATOM    101  O   UNL A   1      48.536  24.080  36.246  1.00  0.00    -0.237 OA
ATOM    102  O   UNL A   1      48.240  22.289  34.583  1.00  0.00    -0.237 OA
ATOM    103  O   UNL A   1      50.496  23.111  35.106  1.00  0.00    -0.744 OA
ENDBRANCH  97 100
ENDBRANCH  70  93
ENDBRANCH  44  45
ENDBRANCH  36  39
ENDBRANCH  34  35
ENDBRANCH  33  34
ENDBRANCH  32  33
ENDBRANCH   1  32
TORSDOF 22
ENDMDL
MODEL 2
REMARK VINA RESULT:      -9.7     10.327     15.671
REMARK SMILES CCOc1cc2nccc(Nc3ccc(C(=O)NCCCCCCNC(=O)c4ccc(-c5c6nc(c(-c7cccc(S(=O)(=O)[O-])c7F)c7ccc([nH]7)c(-c7cccc(S(=O)(=O)[O-])c7F)c7nc(c(-c8cccc(S(=O)(=O)[O-])c8F)c8ccc5[nH]8)C=C7)C=C6)cc4)cc3)c2cc1OCC
REMARK SMILES IDX 21 1 20 2 19 3 18 4 16 5 17 6 15 8 12 9 13 10 92 11 14 12
REMARK SMILES IDX 91 13 11 14 10 16 4 17 5 18 95 19 6 20 94 21 7 22 93 23 8 24
REMARK SMILES IDX 9 25 3 26 2 27 1 28 96 29 97 30 98 31 22 32 23 33 24 34
REMARK SMILES IDX 25 35 26 36 27 38 28 39 29 40 90 41 30 42 89 43 31 44 32 45
REMARK SMILES IDX 33 46 83 47 34 48 88 49 82 50 84 51 35 52 87 53 81 54 80 55
REMARK SMILES IDX 36 57 68 58 48 59 67 60 49 61 52 62 66 63 85 64 50 65 51 66
REMARK SMILES IDX 65 68 86 69 53 70 37 71 38 72 46 73 39 74 41 75 47 76 40 77
REMARK SMILES IDX 42 78 43 79 44 80 45 81 69 82 70 83 78 84 71 85 73 86 79 87
REMARK SMILES IDX 72 88 74 89 75 90 76 91 77 92 54 93 55 94 63 95 56 96 58 97
REMARK SMILES IDX 64 98 57 99 59 100 60 101 61 102 62 103
REMARK H PARENT 18 7 11 15 25 37 84 56 52 67
REMARK Flexibility Score: inf
ROOT
ATOM      1  C   UNL A   1      41.659  40.247  28.017  1.00  0.00     0.002 C 
ENDROOT
BRANCH   1   2
ATOM      2  C   UNL A   1      41.899  39.728  26.593  1.00  0.00     0.021 C 
BRANCH   2   3
ATOM      3  C   UNL A   1      42.016  40.862  25.573  1.00  0.00     0.116 C 
BRANCH   3   4
ATOM      4  N   UNL A   1      42.927  41.867  26.084  1.00  0.00    -0.352 N 
ATOM      5  C   UNL A   1      43.796  42.715  25.453  1.00  0.00     0.251 C 
ATOM      6  O   UNL A   1      44.521  43.426  26.150  1.00  0.00    -0.269 OA
ATOM      7  H   UNL A   1      42.918  41.958  27.064  1.00  0.00     0.163 HD
BRANCH   5   8
ATOM      8  C   UNL A   1      43.819  42.879  23.976  1.00  0.00     0.039 A 
ATOM      9  C   UNL A   1      43.598  42.984  21.174  1.00  0.00     0.038 A 
ATOM     10  C   UNL A   1      42.497  43.274  21.985  1.00  0.00     0.027 A 
ATOM     11  C   UNL A   1      44.823  42.696  21.773  1.00  0.00     0.027 A 
ATOM     12  C   UNL A   1      42.601  43.211  23.373  1.00  0.00     0.016 A 
ATOM     13  C   UNL A   1      44.946  42.703  23.167  1.00  0.00     0.016 A 
BRANCH   9  14
ATOM     14  N   UNL A   1      43.431  42.994  19.788  1.00  0.00    -0.355 N 
ATOM     15  H   UNL A   1      43.868  42.240  19.329  1.00  0.00     0.167 HD
BRANCH  14  16
ATOM     16  C   UNL A   1      42.753  43.877  18.917  1.00  0.00     0.050 A 
ATOM     17  C   UNL A   1      44.377  47.717  18.196  1.00  0.00     0.163 A 
ATOM     18  C   UNL A   1      43.126  47.355  17.674  1.00  0.00     0.079 A 
ATOM     19  C   UNL A   1      45.127  46.768  18.885  1.00  0.00     0.161 A 
ATOM     20  C   UNL A   1      42.589  46.076  17.868  1.00  0.00     0.076 A 
ATOM     21  C   UNL A   1      44.595  45.506  19.103  1.00  0.00     0.063 A 
ATOM     22  N   UNL A   1      41.386  45.766  17.356  1.00  0.00    -0.256 NA
ATOM     23  C   UNL A   1      43.322  45.144  18.633  1.00  0.00     0.028 A 
ATOM     24  C   UNL A   1      40.896  44.521  17.575  1.00  0.00     0.114 A 
ATOM     25  C   UNL A   1      41.534  43.555  18.333  1.00  0.00     0.047 A 
BRANCH  17  26
ATOM     26  O   UNL A   1      44.819  49.011  18.184  1.00  0.00    -0.490 OA
BRANCH  26  27
ATOM     27  C   UNL A   1      43.872  49.991  18.615  1.00  0.00     0.226 C 
ATOM     28  C   UNL A   1      44.065  50.167  20.118  1.00  0.00     0.049 C 
ENDBRANCH  26  27
ENDBRANCH  17  26
BRANCH  19  29
ATOM     29  O   UNL A   1      46.370  46.923  19.429  1.00  0.00    -0.490 OA
BRANCH  29  30
ATOM     30  C   UNL A   1      46.453  47.659  20.646  1.00  0.00     0.226 C 
ATOM     31  C   UNL A   1      47.293  47.002  21.737  1.00  0.00     0.049 C 
ENDBRANCH  29  30
ENDBRANCH  19  29
ENDBRANCH  14  16
ENDBRANCH   9  14
ENDBRANCH   5   8
ENDBRANCH   3   4
ENDBRANCH   2   3
ENDBRANCH   1   2
BRANCH   1  32
ATOM     32  C   UNL A   1      42.808  39.960  28.992  1.00  0.00     0.002 C 
BRANCH  32  33
ATOM     33  C   UNL A   1      43.487  38.602  28.793  1.00  0.00     0.021 C 
BRANCH  33  34
ATOM     34  C   UNL A   1      43.972  37.958  30.088  1.00  0.00     0.116 C 
BRANCH  34  35
ATOM     35  N   UNL A   1      45.424  38.009  30.193  1.00  0.00    -0.352 N 
ATOM     36  C   UNL A   1      46.328  36.976  30.218  1.00  0.00     0.251 C 
ATOM     37  H   UNL A   1      45.812  38.912  30.255  1.00  0.00     0.163 HD
ATOM     38  O   UNL A   1      47.485  37.177  30.569  1.00  0.00    -0.269 OA
BRANCH  36  39
ATOM     39  C   UNL A   1      45.892  35.620  29.825  1.00  0.00     0.039 A 
ATOM     40  C   UNL A   1      46.017  34.575  30.743  1.00  0.00     0.014 A 
ATOM     41  C   UNL A   1      45.354  35.388  28.557  1.00  0.00     0.014 A 
ATOM     42  C   UNL A   1      45.542  33.306  30.408  1.00  0.00     0.010 A 
ATOM     43  C   UNL A   1      44.816  34.142  28.253  1.00  0.00     0.010 A 
ATOM     44  C   UNL A   1      44.904  33.088  29.175  1.00  0.00    -0.014 A 
BRANCH  44  45
ATOM     45  C   UNL A   1      44.279  31.780  28.855  1.00  0.00     0.031 A 
ATOM     46  C   UNL A   1      42.915  31.433  29.385  1.00  0.00     0.074 A 
ATOM     47  C   UNL A   1      44.991  30.861  28.175  1.00  0.00     0.049 A 
ATOM     48  N   UNL A   1      42.243  30.318  29.255  1.00  0.00    -0.248 NA
ATOM     49  C   UNL A   1      42.230  32.459  30.185  1.00  0.00     0.031 C 
ATOM     50  C   UNL A   1      46.361  31.046  27.692  1.00  0.00     0.029 A 
ATOM     51  N   UNL A   1      44.678  29.578  27.804  1.00  0.00    -0.354 N 
ATOM     52  C   UNL A   1      41.076  30.493  29.988  1.00  0.00     0.074 A 
ATOM     53  C   UNL A   1      41.144  31.811  30.582  1.00  0.00     0.031 C 
ATOM     54  C   UNL A   1      46.774  29.916  27.099  1.00  0.00     0.029 A 
ATOM     55  C   UNL A   1      45.715  28.915  27.190  1.00  0.00     0.049 A 
ATOM     56  H   UNL A   1      43.796  29.169  27.964  1.00  0.00     0.167 HD
ATOM     57  C   UNL A   1      40.033  29.641  30.137  1.00  0.00     0.034 A 
ATOM     58  C   UNL A   1      45.815  27.640  26.769  1.00  0.00     0.034 A 
ATOM     59  C   UNL A   1      39.960  28.343  29.521  1.00  0.00     0.049 A 
ATOM     60  C   UNL A   1      44.632  26.726  26.909  1.00  0.00     0.074 A 
ATOM     61  C   UNL A   1      38.900  27.454  29.514  1.00  0.00     0.029 A 
ATOM     62  N   UNL A   1      40.994  27.734  28.827  1.00  0.00    -0.354 N 
ATOM     63  N   UNL A   1      43.460  26.974  27.441  1.00  0.00    -0.248 NA
ATOM     64  C   UNL A   1      44.769  25.368  26.363  1.00  0.00     0.031 C 
ATOM     65  C   UNL A   1      39.309  26.290  28.855  1.00  0.00     0.029 A 
ATOM     66  C   UNL A   1      40.611  26.470  28.414  1.00  0.00     0.049 A 
ATOM     67  H   UNL A   1      41.874  28.143  28.654  1.00  0.00     0.167 HD
ATOM     68  C   UNL A   1      42.713  25.813  27.276  1.00  0.00     0.074 A 
ATOM     69  C   UNL A   1      43.556  24.872  26.569  1.00  0.00     0.031 C 
ATOM     70  C   UNL A   1      41.447  25.549  27.686  1.00  0.00     0.034 A 
BRANCH  57  71
ATOM     71  C   UNL A   1      38.870  30.100  30.979  1.00  0.00     0.023 A 
ATOM     72  C   UNL A   1      38.833  29.794  32.355  1.00  0.00     0.012 A 
ATOM     73  C   UNL A   1      37.832  30.871  30.417  1.00  0.00     0.148 A 
ATOM     74  C   UNL A   1      37.765  30.209  33.149  1.00  0.00     0.002 A 
ATOM     75  C   UNL A   1      36.795  31.322  31.225  1.00  0.00     0.091 A 
ATOM     76  F   UNL A   1      37.870  31.134  29.103  1.00  0.00    -0.205 F 
ATOM     77  C   UNL A   1      36.753  30.980  32.586  1.00  0.00     0.022 A 
BRANCH  75  78
ATOM     78  S   UNL A   1      35.488  32.390  30.612  1.00  0.00     0.127 S 
ATOM     79  O   UNL A   1      36.216  33.632  30.356  1.00  0.00    -0.237 OA
ATOM     80  O   UNL A   1      35.049  31.683  29.409  1.00  0.00    -0.237 OA
ATOM     81  O   UNL A   1      34.493  32.455  31.674  1.00  0.00    -0.744 OA
ENDBRANCH  75  78
ENDBRANCH  57  71
BRANCH  58  82
ATOM     82  C   UNL A   1      47.086  27.174  26.146  1.00  0.00     0.023 A 
ATOM     83  C   UNL A   1      47.952  26.332  26.868  1.00  0.00     0.012 A 
ATOM     84  C   UNL A   1      47.405  27.513  24.816  1.00  0.00     0.148 A 
ATOM     85  C   UNL A   1      49.125  25.853  26.285  1.00  0.00     0.002 A 
ATOM     86  C   UNL A   1      48.544  26.984  24.221  1.00  0.00     0.091 A 
ATOM     87  F   UNL A   1      46.570  28.323  24.151  1.00  0.00    -0.205 F 
ATOM     88  C   UNL A   1      49.415  26.168  24.959  1.00  0.00     0.022 A 
BRANCH  86  89
ATOM     89  S   UNL A   1      48.916  27.216  22.480  1.00  0.00     0.127 S 
ATOM     90  O   UNL A   1      48.165  28.430  22.173  1.00  0.00    -0.237 OA
ATOM     91  O   UNL A   1      50.370  27.379  22.503  1.00  0.00    -0.237 OA
ATOM     92  O   UNL A   1      48.459  26.005  21.811  1.00  0.00    -0.744 OA
ENDBRANCH  86  89
ENDBRANCH  58  82
BRANCH  70  93
ATOM     93  C   UNL A   1      40.881  24.188  27.371  1.00  0.00     0.023 A 
ATOM     94  C   UNL A   1      41.488  23.035  27.909  1.00  0.00     0.012 A 
ATOM     95  C   UNL A   1      39.706  24.056  26.606  1.00  0.00     0.148 A 
ATOM     96  C   UNL A   1      40.951  21.771  27.664  1.00  0.00     0.002 A 
ATOM     97  C   UNL A   1      39.148  22.799  26.408  1.00  0.00     0.091 A 
ATOM     98  F   UNL A   1      39.153  25.163  26.089  1.00  0.00    -0.205 F 
ATOM     99  C   UNL A   1      39.776  21.655  26.925  1.00  0.00     0.022 A 
BRANCH  97 100
ATOM    100  S   UNL A   1      37.587  22.558  25.553  1.00  0.00     0.127 S 
ATOM    101  O   UNL A   1      36.630  23.089  26.523  1.00  0.00    -0.237 OA
ATOM    102  O   UNL A   1      37.761  23.380  24.355  1.00  0.00    -0.237 OA
ATOM    103  O   UNL A   1      37.483  21.128  25.297  1.00  0.00    -0.744 OA
ENDBRANCH  97 100
ENDBRANCH  70  93
ENDBRANCH  44  45
ENDBRANCH  36  39
ENDBRANCH  34  35
ENDBRANCH  33  34
ENDBRANCH  32  33
ENDBRANCH   1  32
TORSDOF 22
ENDMDL
MODEL 3
REMARK VINA RESULT:      -9.7      7.787     16.362
REMARK SMILES CCOc1cc2nccc(Nc3ccc(C(=O)NCCCCCCNC(=O)c4ccc(-c5c6nc(c(-c7cccc(S(=O)(=O)[O-])c7F)c7ccc([nH]7)c(-c7cccc(S(=O)(=O)[O-])c7F)c7nc(c(-c8cccc(S(=O)(=O)[O-])c8F)c8ccc5[nH]8)C=C7)C=C6)cc4)cc3)c2cc1OCC
REMARK SMILES IDX 21 1 20 2 19 3 18 4 16 5 17 6 15 8 12 9 13 10 92 11 14 12
REMARK SMILES IDX 91 13 11 14 10 16 4 17 5 18 95 19 6 20 94 21 7 22 93 23 8 24
REMARK SMILES IDX 9 25 3 26 2 27 1 28 96 29 97 30 98 31 22 32 23 33 24 34
REMARK SMILES IDX 25 35 26 36 27 38 28 39 29 40 90 41 30 42 89 43 31 44 32 45
REMARK SMILES IDX 33 46 83 47 34 48 88 49 82 50 84 51 35 52 87 53 81 54 80 55
REMARK SMILES IDX 36 57 68 58 48 59 67 60 49 61 52 62 66 63 85 64 50 65 51 66
REMARK SMILES IDX 65 68 86 69 53 70 37 71 38 72 46 73 39 74 41 75 47 76 40 77
REMARK SMILES IDX 42 78 43 79 44 80 45 81 69 82 70 83 78 84 71 85 73 86 79 87
REMARK SMILES IDX 72 88 74 89 75 90 76 91 77 92 54 93 55 94 63 95 56 96 58 97
REMARK SMILES IDX 64 98 57 99 59 100 60 101 61 102 62 103
REMARK H PARENT 18 7 11 15 25 37 84 56 52 67
REMARK Flexibility Score: inf
ROOT
ATOM      1  C   UNL A   1      45.669  22.175  35.842  1.00  0.00     0.002 C 
ENDROOT
BRANCH   1   2
ATOM      2  C   UNL A   1      46.211  20.794  36.235  1.00  0.00     0.021 C 
BRANCH   2   3
ATOM      3  C   UNL A   1      45.981  20.479  37.715  1.00  0.00     0.116 C 
BRANCH   3   4
ATOM      4  N   UNL A   1      47.154  19.810  38.244  1.00  0.00    -0.352 N 
ATOM      5  C   UNL A   1      47.297  18.845  39.204  1.00  0.00     0.251 C 
ATOM      6  O   UNL A   1      48.438  18.506  39.520  1.00  0.00    -0.269 OA
ATOM      7  H   UNL A   1      48.002  20.102  37.838  1.00  0.00     0.163 HD
BRANCH   5   8
ATOM      8  C   UNL A   1      46.135  18.129  39.794  1.00  0.00     0.039 A 
ATOM      9  C   UNL A   1      43.768  16.868  40.639  1.00  0.00     0.038 A 
ATOM     10  C   UNL A   1      44.304  16.599  39.376  1.00  0.00     0.027 A 
ATOM     11  C   UNL A   1      44.451  17.727  41.496  1.00  0.00     0.027 A 
ATOM     12  C   UNL A   1      45.471  17.232  38.951  1.00  0.00     0.016 A 
ATOM     13  C   UNL A   1      45.660  18.307  41.097  1.00  0.00     0.016 A 
BRANCH   9  14
ATOM     14  N   UNL A   1      42.561  16.263  40.997  1.00  0.00    -0.355 N 
ATOM     15  H   UNL A   1      41.824  16.900  41.140  1.00  0.00     0.167 HD
BRANCH  14  16
ATOM     16  C   UNL A   1      42.194  14.912  41.192  1.00  0.00     0.050 A 
ATOM     17  C   UNL A   1      43.035  13.059  44.901  1.00  0.00     0.163 A 
ATOM     18  C   UNL A   1      42.504  12.322  43.832  1.00  0.00     0.079 A 
ATOM     19  C   UNL A   1      43.205  14.434  44.762  1.00  0.00     0.161 A 
ATOM     20  C   UNL A   1      42.181  12.924  42.610  1.00  0.00     0.076 A 
ATOM     21  C   UNL A   1      42.910  15.037  43.548  1.00  0.00     0.063 A 
ATOM     22  N   UNL A   1      41.677  12.185  41.607  1.00  0.00    -0.256 NA
ATOM     23  C   UNL A   1      42.428  14.304  42.452  1.00  0.00     0.028 A 
ATOM     24  C   UNL A   1      41.388  12.804  40.436  1.00  0.00     0.114 A 
ATOM     25  C   UNL A   1      41.621  14.145  40.184  1.00  0.00     0.047 A 
BRANCH  17  26
ATOM     26  O   UNL A   1      43.535  12.453  46.020  1.00  0.00    -0.490 OA
BRANCH  26  27
ATOM     27  C   UNL A   1      44.561  11.484  45.791  1.00  0.00     0.226 C 
ATOM     28  C   UNL A   1      45.810  11.978  46.514  1.00  0.00     0.049 C 
ENDBRANCH  26  27
ENDBRANCH  17  26
BRANCH  19  29
ATOM     29  O   UNL A   1      43.669  15.315  45.696  1.00  0.00    -0.490 OA
BRANCH  29  30
ATOM     30  C   UNL A   1      44.989  15.819  45.505  1.00  0.00     0.226 C 
ATOM     31  C   UNL A   1      45.614  16.463  46.737  1.00  0.00     0.049 C 
ENDBRANCH  29  30
ENDBRANCH  19  29
ENDBRANCH  14  16
ENDBRANCH   9  14
ENDBRANCH   5   8
ENDBRANCH   3   4
ENDBRANCH   2   3
ENDBRANCH   1   2
BRANCH   1  32
ATOM     32  C   UNL A   1      46.660  23.035  35.048  1.00  0.00     0.002 C 
BRANCH  32  33
ATOM     33  C   UNL A   1      47.926  23.421  35.817  1.00  0.00     0.021 C 
BRANCH  33  34
ATOM     34  C   UNL A   1      48.604  24.686  35.299  1.00  0.00     0.116 C 
BRANCH  34  35
ATOM     35  N   UNL A   1      48.665  25.715  36.329  1.00  0.00    -0.352 N 
ATOM     36  C   UNL A   1      47.970  26.895  36.416  1.00  0.00     0.251 C 
ATOM     37  H   UNL A   1      49.293  25.538  37.066  1.00  0.00     0.163 HD
ATOM     38  O   UNL A   1      48.325  27.762  37.207  1.00  0.00    -0.269 OA
BRANCH  36  39
ATOM     39  C   UNL A   1      46.797  27.114  35.545  1.00  0.00     0.039 A 
ATOM     40  C   UNL A   1      45.621  26.404  35.799  1.00  0.00     0.014 A 
ATOM     41  C   UNL A   1      46.860  28.023  34.486  1.00  0.00     0.014 A 
ATOM     42  C   UNL A   1      44.487  26.656  35.027  1.00  0.00     0.010 A 
ATOM     43  C   UNL A   1      45.708  28.325  33.767  1.00  0.00     0.010 A 
ATOM     44  C   UNL A   1      44.509  27.645  34.029  1.00  0.00    -0.014 A 
BRANCH  44  45
ATOM     45  C   UNL A   1      43.279  28.016  33.288  1.00  0.00     0.031 A 
ATOM     46  C   UNL A   1      43.099  27.612  31.851  1.00  0.00     0.074 A 
ATOM     47  C   UNL A   1      42.370  28.813  33.882  1.00  0.00     0.049 A 
ATOM     48  N   UNL A   1      42.119  27.898  31.034  1.00  0.00    -0.248 NA
ATOM     49  C   UNL A   1      44.170  26.805  31.247  1.00  0.00     0.031 C 
ATOM     50  C   UNL A   1      42.480  29.350  35.240  1.00  0.00     0.029 A 
ATOM     51  N   UNL A   1      41.196  29.343  33.410  1.00  0.00    -0.354 N 
ATOM     52  C   UNL A   1      42.471  27.343  29.810  1.00  0.00     0.074 A 
ATOM     53  C   UNL A   1      43.769  26.725  29.986  1.00  0.00     0.031 C 
ATOM     54  C   UNL A   1      41.424  30.139  35.488  1.00  0.00     0.029 A 
ATOM     55  C   UNL A   1      40.581  30.195  34.297  1.00  0.00     0.049 A 
ATOM     56  H   UNL A   1      40.828  29.134  32.520  1.00  0.00     0.167 HD
ATOM     57  C   UNL A   1      41.770  27.329  28.651  1.00  0.00     0.034 A 
ATOM     58  C   UNL A   1      39.477  30.955  34.164  1.00  0.00     0.034 A 
ATOM     59  C   UNL A   1      40.468  27.921  28.492  1.00  0.00     0.049 A 
ATOM     60  C   UNL A   1      38.695  30.894  32.883  1.00  0.00     0.074 A 
ATOM     61  C   UNL A   1      39.626  27.862  27.396  1.00  0.00     0.029 A 
ATOM     62  N   UNL A   1      39.831  28.704  29.442  1.00  0.00    -0.354 N 
ATOM     63  N   UNL A   1      38.949  30.206  31.796  1.00  0.00    -0.248 NA
ATOM     64  C   UNL A   1      37.457  31.684  32.819  1.00  0.00     0.031 C 
ATOM     65  C   UNL A   1      38.500  28.645  27.667  1.00  0.00     0.029 A 
ATOM     66  C   UNL A   1      38.621  29.159  28.948  1.00  0.00     0.049 A 
ATOM     67  H   UNL A   1      40.187  28.906  30.338  1.00  0.00     0.167 HD
ATOM     68  C   UNL A   1      37.895  30.463  30.927  1.00  0.00     0.074 A 
ATOM     69  C   UNL A   1      36.985  31.348  31.626  1.00  0.00     0.031 C 
ATOM     70  C   UNL A   1      37.706  30.017  29.660  1.00  0.00     0.034 A 
BRANCH  57  71
ATOM     71  C   UNL A   1      42.386  26.626  27.469  1.00  0.00     0.023 A 
ATOM     72  C   UNL A   1      43.150  27.357  26.536  1.00  0.00     0.012 A 
ATOM     73  C   UNL A   1      42.245  25.234  27.303  1.00  0.00     0.148 A 
ATOM     74  C   UNL A   1      43.727  26.725  25.435  1.00  0.00     0.002 A 
ATOM     75  C   UNL A   1      42.862  24.603  26.230  1.00  0.00     0.091 A 
ATOM     76  F   UNL A   1      41.497  24.558  28.186  1.00  0.00    -0.205 F 
ATOM     77  C   UNL A   1      43.591  25.348  25.288  1.00  0.00     0.022 A 
BRANCH  75  78
ATOM     78  S   UNL A   1      42.815  22.822  26.000  1.00  0.00     0.127 S 
ATOM     79  O   UNL A   1      43.202  22.696  24.596  1.00  0.00    -0.237 OA
ATOM     80  O   UNL A   1      43.824  22.361  26.953  1.00  0.00    -0.237 OA
ATOM     81  O   UNL A   1      41.453  22.413  26.314  1.00  0.00    -0.744 OA
ENDBRANCH  75  78
ENDBRANCH  57  71
BRANCH  58  82
ATOM     82  C   UNL A   1      39.041  31.815  35.299  1.00  0.00     0.023 A 
ATOM     83  C   UNL A   1      38.164  31.299  36.271  1.00  0.00     0.012 A 
ATOM     84  C   UNL A   1      39.546  33.121  35.452  1.00  0.00     0.148 A 
ATOM     85  C   UNL A   1      37.778  32.076  37.363  1.00  0.00     0.002 A 
ATOM     86  C   UNL A   1      39.206  33.868  36.573  1.00  0.00     0.091 A 
ATOM     87  F   UNL A   1      40.374  33.595  34.509  1.00  0.00    -0.205 F 
ATOM     88  C   UNL A   1      38.309  33.355  37.521  1.00  0.00     0.022 A 
BRANCH  86  89
ATOM     89  S   UNL A   1      39.955  35.461  36.931  1.00  0.00     0.127 S 
ATOM     90  O   UNL A   1      39.447  35.734  38.273  1.00  0.00    -0.237 OA
ATOM     91  O   UNL A   1      41.381  35.144  36.863  1.00  0.00    -0.237 OA
ATOM     92  O   UNL A   1      39.490  36.362  35.885  1.00  0.00    -0.744 OA
ENDBRANCH  86  89
ENDBRANCH  58  82
BRANCH  70  93
ATOM     93  C   UNL A   1      36.459  30.463  28.941  1.00  0.00     0.023 A 
ATOM     94  C   UNL A   1      35.571  29.503  28.417  1.00  0.00     0.012 A 
ATOM     95  C   UNL A   1      36.131  31.830  28.850  1.00  0.00     0.148 A 
ATOM     96  C   UNL A   1      34.390  29.898  27.787  1.00  0.00     0.002 A 
ATOM     97  C   UNL A   1      34.930  32.214  28.267  1.00  0.00     0.091 A 
ATOM     98  F   UNL A   1      36.998  32.728  29.339  1.00  0.00    -0.205 F 
ATOM     99  C   UNL A   1      34.065  31.251  27.723  1.00  0.00     0.022 A 
BRANCH  97 100
ATOM    100  S   UNL A   1      34.379  33.923  28.223  1.00  0.00     0.127 S 
ATOM    101  O   UNL A   1      33.006  33.782  27.742  1.00  0.00    -0.237 OA
ATOM    102  O   UNL A   1      34.497  34.321  29.626  1.00  0.00    -0.237 OA
ATOM    103  O   UNL A   1      35.286  34.617  27.318  1.00  0.00    -0.744 OA
ENDBRANCH  97 100
ENDBRANCH  70  93
ENDBRANCH  44  45
ENDBRANCH  36  39
ENDBRANCH  34  35
ENDBRANCH  33  34
ENDBRANCH  32  33
ENDBRANCH   1  32
TORSDOF 22
ENDMDL
