MODEL 1
REMARK VINA RESULT:     -12.7      0.000      0.000
REMARK SMILES CC[C@@]1(CC(=O)NCCCCCCNC(=O)c2ccc(-c3c4nc(c(-c5cccc(S(=O)(=O)[O-])c5F)c5ccc([nH]5)c(-c5cccc(S(=O)(=O)[O-])c5F)c5nc(c(-c6cccc(S(=O)(=O)[O-])c6F)c6ccc3[nH]6)C=C5)C=C4)cc2)OC[C@H](Cc2ccccc2)c2c1[nH]c1ccccc21
REMARK SMILES IDX 10 1 9 2 8 3 7 4 5 5 6 6 4 8 3 9 80 10 91 11 81 12 90 13
REMARK SMILES IDX 92 14 82 15 98 16 93 17 97 19 94 20 96 21 95 22 2 23 1 24
REMARK SMILES IDX 83 25 84 26 85 27 89 28 86 29 88 30 87 31 11 32 12 33 13 34
REMARK SMILES IDX 14 35 15 36 16 38 17 39 18 40 79 41 19 42 78 43 20 44 21 45
REMARK SMILES IDX 22 46 72 47 23 48 77 49 71 50 73 51 24 52 76 53 70 54 69 55
REMARK SMILES IDX 25 57 57 58 37 59 56 60 38 61 41 62 55 63 74 64 39 65 40 66
REMARK SMILES IDX 54 68 75 69 42 70 26 71 27 72 35 73 28 74 30 75 36 76 29 77
REMARK SMILES IDX 31 78 32 79 33 80 34 81 58 82 59 83 67 84 60 85 62 86 68 87
REMARK SMILES IDX 61 88 63 89 64 90 65 91 66 92 43 93 44 94 52 95 45 96 47 97
REMARK SMILES IDX 53 98 46 99 48 100 49 101 50 102 51 103
REMARK H PARENT 7 7 92 18 14 37 73 56 41 67
REMARK Flexibility Score: inf
ROOT
ATOM      1  C   UNL A   1      32.913  30.091  26.570  1.00  0.00     0.002 C 
ENDROOT
BRANCH   1   2
ATOM      2  C   UNL A   1      31.781  29.326  27.249  1.00  0.00     0.021 C 
BRANCH   2   3
ATOM      3  C   UNL A   1      32.055  27.838  27.433  1.00  0.00     0.116 C 
BRANCH   3   4
ATOM      4  N   UNL A   1      30.979  27.062  26.844  1.00  0.00    -0.356 N 
ATOM      5  C   UNL A   1      31.033  25.900  26.129  1.00  0.00     0.223 C 
ATOM      6  O   UNL A   1      30.011  25.504  25.569  1.00  0.00    -0.275 OA
ATOM      7  H   UNL A   1      30.076  27.429  26.979  1.00  0.00     0.163 HD
BRANCH   5   8
ATOM      8  C   UNL A   1      32.305  25.090  26.126  1.00  0.00     0.142 C 
BRANCH   8   9
ATOM      9  C   UNL A   1      33.018  24.870  24.771  1.00  0.00     0.117 C 
ATOM     10  O   UNL A   1      32.247  24.078  23.845  1.00  0.00    -0.368 OA
ATOM     11  C   UNL A   1      34.274  24.076  25.053  1.00  0.00     0.052 A 
ATOM     12  C   UNL A   1      32.046  22.708  24.190  1.00  0.00     0.170 C 
ATOM     13  C   UNL A   1      34.466  22.731  24.824  1.00  0.00    -0.011 A 
ATOM     14  N   UNL A   1      35.422  24.585  25.602  1.00  0.00    -0.356 N 
ATOM     15  C   UNL A   1      33.362  21.882  24.266  1.00  0.00     0.052 C 
ATOM     16  C   UNL A   1      35.833  22.445  25.111  1.00  0.00     0.003 A 
ATOM     17  C   UNL A   1      36.397  23.616  25.624  1.00  0.00     0.046 A 
ATOM     18  H   UNL A   1      35.531  25.507  25.930  1.00  0.00     0.166 HD
ATOM     19  C   UNL A   1      36.662  21.313  24.978  1.00  0.00     0.010 A 
ATOM     20  C   UNL A   1      37.729  23.702  26.044  1.00  0.00     0.026 A 
ATOM     21  C   UNL A   1      38.002  21.386  25.377  1.00  0.00     0.001 A 
ATOM     22  C   UNL A   1      38.524  22.561  25.910  1.00  0.00     0.002 A 
BRANCH   9  23
ATOM     23  C   UNL A   1      33.414  26.133  23.972  1.00  0.00     0.039 C 
ATOM     24  C   UNL A   1      32.410  26.576  22.910  1.00  0.00     0.007 C 
ENDBRANCH   9  23
BRANCH  15  25
ATOM     25  C   UNL A   1      33.118  20.603  25.093  1.00  0.00     0.046 C 
BRANCH  25  26
ATOM     26  C   UNL A   1      33.416  19.348  24.306  1.00  0.00    -0.047 A 
ATOM     27  C   UNL A   1      32.531  18.913  23.310  1.00  0.00     0.004 A 
ATOM     28  C   UNL A   1      34.525  18.554  24.629  1.00  0.00     0.004 A 
ATOM     29  C   UNL A   1      32.730  17.688  22.676  1.00  0.00     0.000 A 
ATOM     30  C   UNL A   1      34.726  17.331  23.989  1.00  0.00     0.000 A 
ATOM     31  C   UNL A   1      33.824  16.894  23.020  1.00  0.00     0.000 A 
ENDBRANCH  25  26
ENDBRANCH  15  25
ENDBRANCH   8   9
ENDBRANCH   5   8
ENDBRANCH   3   4
ENDBRANCH   2   3
ENDBRANCH   1   2
BRANCH   1  32
ATOM     32  C   UNL A   1      34.243  29.344  26.550  1.00  0.00     0.002 C 
BRANCH  32  33
ATOM     33  C   UNL A   1      35.225  29.750  27.654  1.00  0.00     0.021 C 
BRANCH  33  34
ATOM     34  C   UNL A   1      35.217  31.242  28.004  1.00  0.00     0.116 C 
BRANCH  34  35
ATOM     35  N   UNL A   1      35.158  31.526  29.421  1.00  0.00    -0.352 N 
ATOM     36  C   UNL A   1      36.004  31.297  30.470  1.00  0.00     0.251 C 
ATOM     37  H   UNL A   1      34.328  31.983  29.688  1.00  0.00     0.163 HD
ATOM     38  O   UNL A   1      35.659  31.751  31.562  1.00  0.00    -0.269 OA
BRANCH  36  39
ATOM     39  C   UNL A   1      37.245  30.485  30.376  1.00  0.00     0.039 A 
ATOM     40  C   UNL A   1      37.302  29.098  30.512  1.00  0.00     0.014 A 
ATOM     41  C   UNL A   1      38.442  31.193  30.179  1.00  0.00     0.014 A 
ATOM     42  C   UNL A   1      38.521  28.449  30.615  1.00  0.00     0.010 A 
ATOM     43  C   UNL A   1      39.668  30.540  30.219  1.00  0.00     0.010 A 
ATOM     44  C   UNL A   1      39.703  29.177  30.503  1.00  0.00    -0.014 A 
BRANCH  44  45
ATOM     45  C   UNL A   1      40.947  28.431  30.628  1.00  0.00     0.031 A 
ATOM     46  C   UNL A   1      41.514  28.351  32.004  1.00  0.00     0.074 A 
ATOM     47  C   UNL A   1      41.521  27.792  29.593  1.00  0.00     0.049 A 
ATOM     48  N   UNL A   1      42.652  28.803  32.429  1.00  0.00    -0.248 NA
ATOM     49  C   UNL A   1      40.659  27.788  33.059  1.00  0.00     0.031 C 
ATOM     50  C   UNL A   1      40.968  27.553  28.258  1.00  0.00     0.029 A 
ATOM     51  N   UNL A   1      42.683  27.083  29.582  1.00  0.00    -0.354 N 
ATOM     52  C   UNL A   1      42.742  28.407  33.762  1.00  0.00     0.074 A 
ATOM     53  C   UNL A   1      41.442  27.906  34.131  1.00  0.00     0.031 C 
ATOM     54  C   UNL A   1      41.651  26.542  27.678  1.00  0.00     0.029 A 
ATOM     55  C   UNL A   1      42.757  26.167  28.540  1.00  0.00     0.049 A 
ATOM     56  H   UNL A   1      43.401  27.208  30.245  1.00  0.00     0.167 HD
ATOM     57  C   UNL A   1      43.924  28.332  34.431  1.00  0.00     0.034 A 
ATOM     58  C   UNL A   1      43.601  25.109  28.475  1.00  0.00     0.034 A 
ATOM     59  C   UNL A   1      44.988  29.026  33.768  1.00  0.00     0.049 A 
ATOM     60  C   UNL A   1      44.746  25.414  29.369  1.00  0.00     0.074 A 
ATOM     61  C   UNL A   1      45.221  30.333  33.393  1.00  0.00     0.029 A 
ATOM     62  N   UNL A   1      45.901  28.269  33.076  1.00  0.00    -0.354 N 
ATOM     63  N   UNL A   1      45.597  26.380  29.155  1.00  0.00    -0.248 NA
ATOM     64  C   UNL A   1      44.726  24.886  30.723  1.00  0.00     0.031 C 
ATOM     65  C   UNL A   1      45.908  30.239  32.148  1.00  0.00     0.029 A 
ATOM     66  C   UNL A   1      46.074  28.882  31.864  1.00  0.00     0.049 A 
ATOM     67  H   UNL A   1      46.343  27.447  33.389  1.00  0.00     0.167 HD
ATOM     68  C   UNL A   1      45.901  26.864  30.421  1.00  0.00     0.074 A 
ATOM     69  C   UNL A   1      45.427  25.838  31.344  1.00  0.00     0.031 C 
ATOM     70  C   UNL A   1      46.245  28.172  30.616  1.00  0.00     0.034 A 
BRANCH  57  71
ATOM     71  C   UNL A   1      44.196  27.362  35.547  1.00  0.00     0.023 A 
ATOM     72  C   UNL A   1      44.481  27.871  36.831  1.00  0.00     0.012 A 
ATOM     73  C   UNL A   1      44.437  25.989  35.322  1.00  0.00     0.148 A 
ATOM     74  C   UNL A   1      44.988  27.048  37.844  1.00  0.00     0.002 A 
ATOM     75  C   UNL A   1      44.869  25.162  36.350  1.00  0.00     0.091 A 
ATOM     76  F   UNL A   1      44.376  25.504  34.075  1.00  0.00    -0.205 F 
ATOM     77  C   UNL A   1      45.166  25.689  37.608  1.00  0.00     0.022 A 
BRANCH  75  78
ATOM     78  S   UNL A   1      45.065  23.396  36.095  1.00  0.00     0.127 S 
ATOM     79  O   UNL A   1      46.252  23.357  35.237  1.00  0.00    -0.237 OA
ATOM     80  O   UNL A   1      45.277  22.915  37.464  1.00  0.00    -0.237 OA
ATOM     81  O   UNL A   1      43.820  22.957  35.497  1.00  0.00    -0.744 OA
ENDBRANCH  75  78
ENDBRANCH  57  71
BRANCH  58  82
ATOM     82  C   UNL A   1      43.345  23.747  27.942  1.00  0.00     0.023 A 
ATOM     83  C   UNL A   1      42.164  23.077  28.319  1.00  0.00     0.012 A 
ATOM     84  C   UNL A   1      44.094  23.209  26.870  1.00  0.00     0.148 A 
ATOM     85  C   UNL A   1      41.721  21.942  27.626  1.00  0.00     0.002 A 
ATOM     86  C   UNL A   1      43.663  22.068  26.199  1.00  0.00     0.091 A 
ATOM     87  F   UNL A   1      45.175  23.865  26.429  1.00  0.00    -0.205 F 
ATOM     88  C   UNL A   1      42.467  21.441  26.563  1.00  0.00     0.022 A 
BRANCH  86  89
ATOM     89  S   UNL A   1      44.595  21.373  24.826  1.00  0.00     0.127 S 
ATOM     90  O   UNL A   1      45.946  21.284  25.382  1.00  0.00    -0.237 OA
ATOM     91  O   UNL A   1      43.929  20.090  24.623  1.00  0.00    -0.237 OA
ATOM     92  O   UNL A   1      44.465  22.340  23.741  1.00  0.00    -0.744 OA
ENDBRANCH  86  89
ENDBRANCH  58  82
BRANCH  70  93
ATOM     93  C   UNL A   1      46.510  29.032  29.408  1.00  0.00     0.023 A 
ATOM     94  C   UNL A   1      47.712  28.922  28.677  1.00  0.00     0.012 A 
ATOM     95  C   UNL A   1      45.451  29.784  28.872  1.00  0.00     0.148 A 
ATOM     96  C   UNL A   1      47.857  29.554  27.441  1.00  0.00     0.002 A 
ATOM     97  C   UNL A   1      45.586  30.378  27.623  1.00  0.00     0.091 A 
ATOM     98  F   UNL A   1      44.309  29.857  29.573  1.00  0.00    -0.205 F 
ATOM     99  C   UNL A   1      46.790  30.271  26.907  1.00  0.00     0.022 A 
BRANCH  97 100
ATOM    100  S   UNL A   1      44.217  31.208  26.810  1.00  0.00     0.127 S 
ATOM    101  O   UNL A   1      43.342  30.089  26.466  1.00  0.00    -0.237 OA
ATOM    102  O   UNL A   1      43.709  32.078  27.872  1.00  0.00    -0.237 OA
ATOM    103  O   UNL A   1      44.791  31.921  25.675  1.00  0.00    -0.744 OA
ENDBRANCH  97 100
ENDBRANCH  70  93
ENDBRANCH  44  45
ENDBRANCH  36  39
ENDBRANCH  34  35
ENDBRANCH  33  34
ENDBRANCH  32  33
ENDBRANCH   1  32
TORSDOF 20
ENDMDL
MODEL 2
REMARK VINA RESULT:     -12.5      3.244      9.216
REMARK SMILES CC[C@@]1(CC(=O)NCCCCCCNC(=O)c2ccc(-c3c4nc(c(-c5cccc(S(=O)(=O)[O-])c5F)c5ccc([nH]5)c(-c5cccc(S(=O)(=O)[O-])c5F)c5nc(c(-c6cccc(S(=O)(=O)[O-])c6F)c6ccc3[nH]6)C=C5)C=C4)cc2)OC[C@H](Cc2ccccc2)c2c1[nH]c1ccccc21
REMARK SMILES IDX 10 1 9 2 8 3 7 4 5 5 6 6 4 8 3 9 80 10 91 11 81 12 90 13
REMARK SMILES IDX 92 14 82 15 98 16 93 17 97 19 94 20 96 21 95 22 2 23 1 24
REMARK SMILES IDX 83 25 84 26 85 27 89 28 86 29 88 30 87 31 11 32 12 33 13 34
REMARK SMILES IDX 14 35 15 36 16 38 17 39 18 40 79 41 19 42 78 43 20 44 21 45
REMARK SMILES IDX 22 46 72 47 23 48 77 49 71 50 73 51 24 52 76 53 70 54 69 55
REMARK SMILES IDX 25 57 57 58 37 59 56 60 38 61 41 62 55 63 74 64 39 65 40 66
REMARK SMILES IDX 54 68 75 69 42 70 26 71 27 72 35 73 28 74 30 75 36 76 29 77
REMARK SMILES IDX 31 78 32 79 33 80 34 81 58 82 59 83 67 84 60 85 62 86 68 87
REMARK SMILES IDX 61 88 63 89 64 90 65 91 66 92 43 93 44 94 52 95 45 96 47 97
REMARK SMILES IDX 53 98 46 99 48 100 49 101 50 102 51 103
REMARK H PARENT 7 7 92 18 14 37 73 56 41 67
REMARK Flexibility Score: inf
ROOT
ATOM      1  C   UNL A   1      34.660  20.934  24.993  1.00  0.00     0.002 C 
ENDROOT
BRANCH   1   2
ATOM      2  C   UNL A   1      33.910  20.738  26.307  1.00  0.00     0.021 C 
BRANCH   2   3
ATOM      3  C   UNL A   1      33.802  21.997  27.158  1.00  0.00     0.116 C 
BRANCH   3   4
ATOM      4  N   UNL A   1      32.412  22.403  27.263  1.00  0.00    -0.356 N 
ATOM      5  C   UNL A   1      31.801  23.541  26.823  1.00  0.00     0.223 C 
ATOM      6  O   UNL A   1      30.642  23.762  27.175  1.00  0.00    -0.275 OA
ATOM      7  H   UNL A   1      31.823  21.762  27.723  1.00  0.00     0.163 HD
BRANCH   5   8
ATOM      8  C   UNL A   1      32.519  24.438  25.847  1.00  0.00     0.142 C 
BRANCH   8   9
ATOM      9  C   UNL A   1      32.156  24.316  24.348  1.00  0.00     0.117 C 
ATOM     10  O   UNL A   1      33.292  24.470  23.473  1.00  0.00    -0.368 OA
ATOM     11  C   UNL A   1      31.220  25.457  24.022  1.00  0.00     0.052 A 
ATOM     12  C   UNL A   1      33.891  25.765  23.429  1.00  0.00     0.170 C 
ATOM     13  C   UNL A   1      31.540  26.619  23.353  1.00  0.00    -0.011 A 
ATOM     14  N   UNL A   1      29.894  25.512  24.363  1.00  0.00    -0.356 N 
ATOM     15  C   UNL A   1      32.944  26.874  22.888  1.00  0.00     0.052 C 
ATOM     16  C   UNL A   1      30.326  27.340  23.155  1.00  0.00     0.003 A 
ATOM     17  C   UNL A   1      29.320  26.638  23.824  1.00  0.00     0.046 A 
ATOM     18  H   UNL A   1      29.424  24.843  24.912  1.00  0.00     0.166 HD
ATOM     19  C   UNL A   1      29.969  28.515  22.464  1.00  0.00     0.010 A 
ATOM     20  C   UNL A   1      27.989  27.069  23.869  1.00  0.00     0.026 A 
ATOM     21  C   UNL A   1      28.639  28.951  22.484  1.00  0.00     0.001 A 
ATOM     22  C   UNL A   1      27.667  28.243  23.184  1.00  0.00     0.002 A 
BRANCH   9  23
ATOM     23  C   UNL A   1      31.488  22.997  23.894  1.00  0.00     0.039 C 
ATOM     24  C   UNL A   1      32.168  22.290  22.723  1.00  0.00     0.007 C 
ENDBRANCH   9  23
BRANCH  15  25
ATOM     25  C   UNL A   1      33.472  28.257  23.323  1.00  0.00     0.046 C 
BRANCH  25  26
ATOM     26  C   UNL A   1      33.116  28.580  24.755  1.00  0.00    -0.047 A 
ATOM     27  C   UNL A   1      33.662  27.828  25.805  1.00  0.00     0.004 A 
ATOM     28  C   UNL A   1      32.163  29.567  25.044  1.00  0.00     0.004 A 
ATOM     29  C   UNL A   1      33.233  28.034  27.115  1.00  0.00     0.000 A 
ATOM     30  C   UNL A   1      31.740  29.774  26.358  1.00  0.00     0.000 A 
ATOM     31  C   UNL A   1      32.268  29.001  27.390  1.00  0.00     0.000 A 
ENDBRANCH  25  26
ENDBRANCH  15  25
ENDBRANCH   8   9
ENDBRANCH   5   8
ENDBRANCH   3   4
ENDBRANCH   2   3
ENDBRANCH   1   2
BRANCH   1  32
ATOM     32  C   UNL A   1      35.477  22.221  24.929  1.00  0.00     0.002 C 
BRANCH  32  33
ATOM     33  C   UNL A   1      36.976  22.020  24.684  1.00  0.00     0.021 C 
BRANCH  33  34
ATOM     34  C   UNL A   1      37.887  22.546  25.799  1.00  0.00     0.116 C 
BRANCH  34  35
ATOM     35  N   UNL A   1      39.197  21.936  25.842  1.00  0.00    -0.352 N 
ATOM     36  C   UNL A   1      40.408  22.326  26.343  1.00  0.00     0.251 C 
ATOM     37  H   UNL A   1      39.224  21.048  25.417  1.00  0.00     0.163 HD
ATOM     38  O   UNL A   1      41.323  21.503  26.269  1.00  0.00    -0.269 OA
BRANCH  36  39
ATOM     39  C   UNL A   1      40.686  23.681  26.887  1.00  0.00     0.039 A 
ATOM     40  C   UNL A   1      41.719  23.988  27.772  1.00  0.00     0.014 A 
ATOM     41  C   UNL A   1      39.803  24.702  26.501  1.00  0.00     0.014 A 
ATOM     42  C   UNL A   1      41.777  25.229  28.384  1.00  0.00     0.010 A 
ATOM     43  C   UNL A   1      39.892  25.969  27.064  1.00  0.00     0.010 A 
ATOM     44  C   UNL A   1      40.842  26.206  28.054  1.00  0.00    -0.014 A 
BRANCH  44  45
ATOM     45  C   UNL A   1      40.960  27.484  28.741  1.00  0.00     0.031 A 
ATOM     46  C   UNL A   1      42.050  28.379  28.257  1.00  0.00     0.074 A 
ATOM     47  C   UNL A   1      40.105  27.877  29.703  1.00  0.00     0.049 A 
ATOM     48  N   UNL A   1      43.078  28.816  28.914  1.00  0.00    -0.248 NA
ATOM     49  C   UNL A   1      42.046  28.744  26.833  1.00  0.00     0.031 C 
ATOM     50  C   UNL A   1      38.847  27.245  30.107  1.00  0.00     0.029 A 
ATOM     51  N   UNL A   1      40.122  29.030  30.425  1.00  0.00    -0.354 N 
ATOM     52  C   UNL A   1      43.746  29.673  28.042  1.00  0.00     0.074 A 
ATOM     53  C   UNL A   1      43.148  29.490  26.744  1.00  0.00     0.031 C 
ATOM     54  C   UNL A   1      38.103  28.149  30.781  1.00  0.00     0.029 A 
ATOM     55  C   UNL A   1      38.885  29.357  30.966  1.00  0.00     0.049 A 
ATOM     56  H   UNL A   1      40.931  29.578  30.553  1.00  0.00     0.167 HD
ATOM     57  C   UNL A   1      44.622  30.623  28.468  1.00  0.00     0.034 A 
ATOM     58  C   UNL A   1      38.518  30.581  31.418  1.00  0.00     0.034 A 
ATOM     59  C   UNL A   1      45.053  30.422  29.820  1.00  0.00     0.049 A 
ATOM     60  C   UNL A   1      39.766  31.312  31.749  1.00  0.00     0.074 A 
ATOM     61  C   UNL A   1      45.724  29.424  30.496  1.00  0.00     0.029 A 
ATOM     62  N   UNL A   1      44.488  31.217  30.787  1.00  0.00    -0.354 N 
ATOM     63  N   UNL A   1      40.579  30.965  32.709  1.00  0.00    -0.248 NA
ATOM     64  C   UNL A   1      40.321  32.216  30.755  1.00  0.00     0.031 C 
ATOM     65  C   UNL A   1      45.119  29.388  31.786  1.00  0.00     0.029 A 
ATOM     66  C   UNL A   1      44.143  30.386  31.819  1.00  0.00     0.049 A 
ATOM     67  H   UNL A   1      44.356  32.191  30.746  1.00  0.00     0.167 HD
ATOM     68  C   UNL A   1      41.845  31.251  32.215  1.00  0.00     0.074 A 
ATOM     69  C   UNL A   1      41.616  32.119  31.064  1.00  0.00     0.031 C 
ATOM     70  C   UNL A   1      42.939  30.531  32.606  1.00  0.00     0.034 A 
BRANCH  57  71
ATOM     71  C   UNL A   1      44.859  31.925  27.754  1.00  0.00     0.023 A 
ATOM     72  C   UNL A   1      46.105  32.135  27.127  1.00  0.00     0.012 A 
ATOM     73  C   UNL A   1      44.007  33.041  27.902  1.00  0.00     0.148 A 
ATOM     74  C   UNL A   1      46.484  33.403  26.670  1.00  0.00     0.002 A 
ATOM     75  C   UNL A   1      44.356  34.280  27.380  1.00  0.00     0.091 A 
ATOM     76  F   UNL A   1      42.911  32.939  28.665  1.00  0.00    -0.205 F 
ATOM     77  C   UNL A   1      45.603  34.473  26.782  1.00  0.00     0.022 A 
BRANCH  75  78
ATOM     78  S   UNL A   1      43.224  35.671  27.465  1.00  0.00     0.127 S 
ATOM     79  O   UNL A   1      42.700  35.535  28.827  1.00  0.00    -0.237 OA
ATOM     80  O   UNL A   1      44.128  36.808  27.263  1.00  0.00    -0.237 OA
ATOM     81  O   UNL A   1      42.281  35.461  26.385  1.00  0.00    -0.744 OA
ENDBRANCH  75  78
ENDBRANCH  57  71
BRANCH  58  82
ATOM     82  C   UNL A   1      37.202  31.259  31.299  1.00  0.00     0.023 A 
ATOM     83  C   UNL A   1      36.631  31.849  32.445  1.00  0.00     0.012 A 
ATOM     84  C   UNL A   1      36.632  31.572  30.043  1.00  0.00     0.148 A 
ATOM     85  C   UNL A   1      35.564  32.751  32.341  1.00  0.00     0.002 A 
ATOM     86  C   UNL A   1      35.556  32.450  29.947  1.00  0.00     0.091 A 
ATOM     87  F   UNL A   1      37.200  31.097  28.927  1.00  0.00    -0.205 F 
ATOM     88  C   UNL A   1      35.030  33.055  31.092  1.00  0.00     0.022 A 
BRANCH  86  89
ATOM     89  S   UNL A   1      34.823  32.870  28.358  1.00  0.00     0.127 S 
ATOM     90  O   UNL A   1      35.950  33.477  27.647  1.00  0.00    -0.237 OA
ATOM     91  O   UNL A   1      34.414  31.562  27.856  1.00  0.00    -0.237 OA
ATOM     92  O   UNL A   1      33.744  33.804  28.663  1.00  0.00    -0.744 OA
ENDBRANCH  86  89
ENDBRANCH  58  82
BRANCH  70  93
ATOM     93  C   UNL A   1      42.789  29.566  33.753  1.00  0.00     0.023 A 
ATOM     94  C   UNL A   1      42.183  28.304  33.578  1.00  0.00     0.012 A 
ATOM     95  C   UNL A   1      43.470  29.837  34.952  1.00  0.00     0.148 A 
ATOM     96  C   UNL A   1      42.247  27.335  34.581  1.00  0.00     0.002 A 
ATOM     97  C   UNL A   1      43.566  28.855  35.931  1.00  0.00     0.091 A 
ATOM     98  F   UNL A   1      44.058  31.035  35.089  1.00  0.00    -0.205 F 
ATOM     99  C   UNL A   1      42.951  27.604  35.751  1.00  0.00     0.022 A 
BRANCH  97 100
ATOM    100  S   UNL A   1      44.561  29.077  37.409  1.00  0.00     0.127 S 
ATOM    101  O   UNL A   1      45.885  29.342  36.849  1.00  0.00    -0.237 OA
ATOM    102  O   UNL A   1      43.921  30.232  38.041  1.00  0.00    -0.237 OA
ATOM    103  O   UNL A   1      44.443  27.838  38.168  1.00  0.00    -0.744 OA
ENDBRANCH  97 100
ENDBRANCH  70  93
ENDBRANCH  44  45
ENDBRANCH  36  39
ENDBRANCH  34  35
ENDBRANCH  33  34
ENDBRANCH  32  33
ENDBRANCH   1  32
TORSDOF 20
ENDMDL
MODEL 3
REMARK VINA RESULT:     -12.3      3.458      9.641
REMARK SMILES CC[C@@]1(CC(=O)NCCCCCCNC(=O)c2ccc(-c3c4nc(c(-c5cccc(S(=O)(=O)[O-])c5F)c5ccc([nH]5)c(-c5cccc(S(=O)(=O)[O-])c5F)c5nc(c(-c6cccc(S(=O)(=O)[O-])c6F)c6ccc3[nH]6)C=C5)C=C4)cc2)OC[C@H](Cc2ccccc2)c2c1[nH]c1ccccc21
REMARK SMILES IDX 10 1 9 2 8 3 7 4 5 5 6 6 4 8 3 9 80 10 91 11 81 12 90 13
REMARK SMILES IDX 92 14 82 15 98 16 93 17 97 19 94 20 96 21 95 22 2 23 1 24
REMARK SMILES IDX 83 25 84 26 85 27 89 28 86 29 88 30 87 31 11 32 12 33 13 34
REMARK SMILES IDX 14 35 15 36 16 38 17 39 18 40 79 41 19 42 78 43 20 44 21 45
REMARK SMILES IDX 22 46 72 47 23 48 77 49 71 50 73 51 24 52 76 53 70 54 69 55
REMARK SMILES IDX 25 57 57 58 37 59 56 60 38 61 41 62 55 63 74 64 39 65 40 66
REMARK SMILES IDX 54 68 75 69 42 70 26 71 27 72 35 73 28 74 30 75 36 76 29 77
REMARK SMILES IDX 31 78 32 79 33 80 34 81 58 82 59 83 67 84 60 85 62 86 68 87
REMARK SMILES IDX 61 88 63 89 64 90 65 91 66 92 43 93 44 94 52 95 45 96 47 97
REMARK SMILES IDX 53 98 46 99 48 100 49 101 50 102 51 103
REMARK H PARENT 7 7 92 18 14 37 73 56 41 67
REMARK Flexibility Score: inf
ROOT
ATOM      1  C   UNL A   1      36.866  22.332  24.310  1.00  0.00     0.002 C 
ENDROOT
BRANCH   1   2
ATOM      2  C   UNL A   1      35.957  21.165  24.684  1.00  0.00     0.021 C 
BRANCH   2   3
ATOM      3  C   UNL A   1      34.572  21.582  25.164  1.00  0.00     0.116 C 
BRANCH   3   4
ATOM      4  N   UNL A   1      33.625  21.501  24.067  1.00  0.00    -0.356 N 
ATOM      5  C   UNL A   1      32.718  22.421  23.629  1.00  0.00     0.223 C 
ATOM      6  O   UNL A   1      31.887  22.077  22.788  1.00  0.00    -0.275 OA
ATOM      7  H   UNL A   1      33.639  20.654  23.563  1.00  0.00     0.163 HD
BRANCH   5   8
ATOM      8  C   UNL A   1      32.817  23.848  24.109  1.00  0.00     0.142 C 
BRANCH   8   9
ATOM      9  C   UNL A   1      31.735  24.358  25.089  1.00  0.00     0.117 C 
ATOM     10  O   UNL A   1      30.406  24.341  24.527  1.00  0.00    -0.368 OA
ATOM     11  C   UNL A   1      32.046  25.808  25.381  1.00  0.00     0.052 A 
ATOM     12  C   UNL A   1      30.154  25.252  23.459  1.00  0.00     0.170 C 
ATOM     13  C   UNL A   1      31.403  26.909  24.857  1.00  0.00    -0.011 A 
ATOM     14  N   UNL A   1      33.040  26.250  26.213  1.00  0.00    -0.356 N 
ATOM     15  C   UNL A   1      30.287  26.747  23.866  1.00  0.00     0.052 C 
ATOM     16  C   UNL A   1      31.936  28.059  25.509  1.00  0.00     0.003 A 
ATOM     17  C   UNL A   1      32.979  27.618  26.329  1.00  0.00     0.046 A 
ATOM     18  H   UNL A   1      33.700  25.672  26.661  1.00  0.00     0.166 HD
ATOM     19  C   UNL A   1      31.635  29.436  25.501  1.00  0.00     0.010 A 
ATOM     20  C   UNL A   1      33.756  28.483  27.108  1.00  0.00     0.026 A 
ATOM     21  C   UNL A   1      32.391  30.313  26.288  1.00  0.00     0.001 A 
ATOM     22  C   UNL A   1      33.442  29.843  27.072  1.00  0.00     0.002 A 
BRANCH   9  23
ATOM     23  C   UNL A   1      31.600  23.612  26.437  1.00  0.00     0.039 C 
ATOM     24  C   UNL A   1      30.179  23.203  26.818  1.00  0.00     0.007 C 
ENDBRANCH   9  23
BRANCH  15  25
ATOM     25  C   UNL A   1      30.484  27.608  22.602  1.00  0.00     0.046 C 
BRANCH  25  26
ATOM     26  C   UNL A   1      29.495  28.748  22.526  1.00  0.00    -0.047 A 
ATOM     27  C   UNL A   1      29.878  29.980  21.978  1.00  0.00     0.004 A 
ATOM     28  C   UNL A   1      28.219  28.619  23.092  1.00  0.00     0.004 A 
ATOM     29  C   UNL A   1      29.015  31.073  22.029  1.00  0.00     0.000 A 
ATOM     30  C   UNL A   1      27.355  29.714  23.137  1.00  0.00     0.000 A 
ATOM     31  C   UNL A   1      27.757  30.942  22.614  1.00  0.00     0.000 A 
ENDBRANCH  25  26
ENDBRANCH  15  25
ENDBRANCH   8   9
ENDBRANCH   5   8
ENDBRANCH   3   4
ENDBRANCH   2   3
ENDBRANCH   1   2
BRANCH   1  32
ATOM     32  C   UNL A   1      37.727  22.843  25.461  1.00  0.00     0.002 C 
BRANCH  32  33
ATOM     33  C   UNL A   1      38.768  21.844  25.977  1.00  0.00     0.021 C 
BRANCH  33  34
ATOM     34  C   UNL A   1      39.846  22.449  26.883  1.00  0.00     0.116 C 
BRANCH  34  35
ATOM     35  N   UNL A   1      41.131  22.636  26.246  1.00  0.00    -0.352 N 
ATOM     36  C   UNL A   1      42.063  23.636  26.270  1.00  0.00     0.251 C 
ATOM     37  H   UNL A   1      41.390  21.880  25.671  1.00  0.00     0.163 HD
ATOM     38  O   UNL A   1      43.107  23.426  25.648  1.00  0.00    -0.269 OA
BRANCH  36  39
ATOM     39  C   UNL A   1      41.854  24.954  26.924  1.00  0.00     0.039 A 
ATOM     40  C   UNL A   1      41.103  25.999  26.387  1.00  0.00     0.014 A 
ATOM     41  C   UNL A   1      42.508  25.153  28.151  1.00  0.00     0.014 A 
ATOM     42  C   UNL A   1      41.133  27.257  26.966  1.00  0.00     0.010 A 
ATOM     43  C   UNL A   1      42.492  26.397  28.770  1.00  0.00     0.010 A 
ATOM     44  C   UNL A   1      41.855  27.462  28.138  1.00  0.00    -0.014 A 
BRANCH  44  45
ATOM     45  C   UNL A   1      41.847  28.811  28.686  1.00  0.00     0.031 A 
ATOM     46  C   UNL A   1      42.994  29.676  28.285  1.00  0.00     0.074 A 
ATOM     47  C   UNL A   1      40.844  29.283  29.447  1.00  0.00     0.049 A 
ATOM     48  N   UNL A   1      43.897  30.211  29.045  1.00  0.00    -0.248 NA
ATOM     49  C   UNL A   1      43.217  29.882  26.847  1.00  0.00     0.031 C 
ATOM     50  C   UNL A   1      39.543  28.665  29.713  1.00  0.00     0.029 A 
ATOM     51  N   UNL A   1      40.733  30.509  30.028  1.00  0.00    -0.354 N 
ATOM     52  C   UNL A   1      44.690  30.985  28.200  1.00  0.00     0.074 A 
ATOM     53  C   UNL A   1      44.312  30.643  26.852  1.00  0.00     0.031 C 
ATOM     54  C   UNL A   1      38.691  29.617  30.153  1.00  0.00     0.029 A 
ATOM     55  C   UNL A   1      39.421  30.859  30.323  1.00  0.00     0.049 A 
ATOM     56  H   UNL A   1      41.505  31.089  30.221  1.00  0.00     0.167 HD
ATOM     57  C   UNL A   1      45.476  32.001  28.650  1.00  0.00     0.034 A 
ATOM     58  C   UNL A   1      38.974  32.114  30.569  1.00  0.00     0.034 A 
ATOM     59  C   UNL A   1      45.683  31.962  30.068  1.00  0.00     0.049 A 
ATOM     60  C   UNL A   1      40.144  32.912  31.010  1.00  0.00     0.074 A 
ATOM     61  C   UNL A   1      46.244  31.063  30.952  1.00  0.00     0.029 A 
ATOM     62  N   UNL A   1      44.960  32.842  30.836  1.00  0.00    -0.354 N 
ATOM     63  N   UNL A   1      40.794  32.695  32.121  1.00  0.00    -0.248 NA
ATOM     64  C   UNL A   1      40.845  33.716  30.023  1.00  0.00     0.031 C 
ATOM     65  C   UNL A   1      45.438  31.152  32.124  1.00  0.00     0.029 A 
ATOM     66  C   UNL A   1      44.460  32.121  31.886  1.00  0.00     0.049 A 
ATOM     67  H   UNL A   1      44.828  33.802  30.664  1.00  0.00     0.167 HD
ATOM     68  C   UNL A   1      42.121  32.960  31.808  1.00  0.00     0.074 A 
ATOM     69  C   UNL A   1      42.074  33.690  30.545  1.00  0.00     0.031 C 
ATOM     70  C   UNL A   1      43.143  32.318  32.448  1.00  0.00     0.034 A 
BRANCH  57  71
ATOM     71  C   UNL A   1      45.813  33.221  27.842  1.00  0.00     0.023 A 
ATOM     72  C   UNL A   1      44.758  34.016  27.345  1.00  0.00     0.012 A 
ATOM     73  C   UNL A   1      47.108  33.467  27.335  1.00  0.00     0.148 A 
ATOM     74  C   UNL A   1      44.986  35.009  26.383  1.00  0.00     0.002 A 
ATOM     75  C   UNL A   1      47.340  34.501  26.438  1.00  0.00     0.091 A 
ATOM     76  F   UNL A   1      48.100  32.614  27.619  1.00  0.00    -0.205 F 
ATOM     77  C   UNL A   1      46.281  35.262  25.941  1.00  0.00     0.022 A 
BRANCH  75  78
ATOM     78  S   UNL A   1      49.004  34.887  25.883  1.00  0.00     0.127 S 
ATOM     79  O   UNL A   1      49.637  35.305  27.136  1.00  0.00    -0.237 OA
ATOM     80  O   UNL A   1      49.456  33.592  25.366  1.00  0.00    -0.237 OA
ATOM     81  O   UNL A   1      48.839  35.908  24.869  1.00  0.00    -0.744 OA
ENDBRANCH  75  78
ENDBRANCH  57  71
BRANCH  58  82
ATOM     82  C   UNL A   1      37.689  32.738  30.164  1.00  0.00     0.023 A 
ATOM     83  C   UNL A   1      37.214  32.535  28.853  1.00  0.00     0.012 A 
ATOM     84  C   UNL A   1      36.796  33.296  31.109  1.00  0.00     0.148 A 
ATOM     85  C   UNL A   1      35.889  32.833  28.507  1.00  0.00     0.002 A 
ATOM     86  C   UNL A   1      35.487  33.612  30.754  1.00  0.00     0.091 A 
ATOM     87  F   UNL A   1      37.185  33.425  32.384  1.00  0.00    -0.205 F 
ATOM     88  C   UNL A   1      35.024  33.366  29.458  1.00  0.00     0.022 A 
BRANCH  86  89
ATOM     89  S   UNL A   1      34.333  34.312  31.944  1.00  0.00     0.127 S 
ATOM     90  O   UNL A   1      33.286  34.855  31.076  1.00  0.00    -0.237 OA
ATOM     91  O   UNL A   1      33.941  33.138  32.716  1.00  0.00    -0.237 OA
ATOM     92  O   UNL A   1      35.089  35.330  32.667  1.00  0.00    -0.744 OA
ENDBRANCH  86  89
ENDBRANCH  58  82
BRANCH  70  93
ATOM     93  C   UNL A   1      42.818  31.482  33.658  1.00  0.00     0.023 A 
ATOM     94  C   UNL A   1      42.577  32.072  34.917  1.00  0.00     0.012 A 
ATOM     95  C   UNL A   1      42.525  30.120  33.475  1.00  0.00     0.148 A 
ATOM     96  C   UNL A   1      42.061  31.319  35.973  1.00  0.00     0.002 A 
ATOM     97  C   UNL A   1      41.975  29.383  34.518  1.00  0.00     0.091 A 
ATOM     98  F   UNL A   1      42.741  29.584  32.264  1.00  0.00    -0.205 F 
ATOM     99  C   UNL A   1      41.747  29.978  35.770  1.00  0.00     0.022 A 
BRANCH  97 100
ATOM    100  S   UNL A   1      41.423  27.689  34.299  1.00  0.00     0.127 S 
ATOM    101  O   UNL A   1      40.268  27.854  33.419  1.00  0.00    -0.237 OA
ATOM    102  O   UNL A   1      42.588  27.064  33.669  1.00  0.00    -0.237 OA
ATOM    103  O   UNL A   1      41.122  27.184  35.634  1.00  0.00    -0.744 OA
ENDBRANCH  97 100
ENDBRANCH  70  93
ENDBRANCH  44  45
ENDBRANCH  36  39
ENDBRANCH  34  35
ENDBRANCH  33  34
ENDBRANCH  32  33
ENDBRANCH   1  32
TORSDOF 20
ENDMDL
