MODEL 1
REMARK VINA RESULT:     -10.5      0.000      0.000
REMARK SMILES C[NH2+][C@@]1(C(=O)NCCCCCCNC(=O)c2ccc(-c3c4nc(c(-c5cccc(S(=O)(=O)[O-])c5F)c5ccc([nH]5)c(-c5cccc(S(=O)(=O)[O-])c5F)c5nc(c(-c6cccc(S(=O)(=O)[O-])c6F)c6ccc3[nH]6)C=C5)C=C4)cc2)CCC[C@H]1CCSc1nccc(=O)[nH]1
REMARK SMILES IDX 9 1 8 2 7 3 6 4 4 5 5 6 3 8 79 9 82 10 80 11 81 12 2 13 1 14
REMARK SMILES IDX 83 17 84 18 85 19 86 20 87 21 92 22 88 23 90 24 89 26 91 27
REMARK SMILES IDX 10 28 11 29 12 30 13 31 14 32 15 34 16 35 17 36 78 37 18 38
REMARK SMILES IDX 77 39 19 40 20 41 21 42 71 43 22 44 76 45 70 46 72 47 23 48
REMARK SMILES IDX 75 49 69 50 68 51 24 53 56 54 36 55 55 56 37 57 40 58 54 59
REMARK SMILES IDX 73 60 38 61 39 62 53 64 74 65 41 66 25 67 26 68 34 69 27 70
REMARK SMILES IDX 29 71 35 72 28 73 30 74 31 75 32 76 33 77 57 78 58 79 66 80
REMARK SMILES IDX 59 81 61 82 67 83 60 84 62 85 63 86 64 87 65 88 42 89 43 90
REMARK SMILES IDX 51 91 44 92 46 93 52 94 45 95 47 96 48 97 49 98 50 99
REMARK H PARENT 6 7 2 15 2 16 92 25 13 33 72 52 40 63
REMARK Flexibility Score: inf
ROOT
ATOM      1  C   UNL A   1      38.390  23.673  26.282  1.00  0.00     0.002 C 
ENDROOT
BRANCH   1   2
ATOM      2  C   UNL A   1      37.015  23.100  25.943  1.00  0.00     0.021 C 
BRANCH   2   3
ATOM      3  C   UNL A   1      36.048  24.068  25.278  1.00  0.00     0.116 C 
BRANCH   3   4
ATOM      4  N   UNL A   1      35.352  23.535  24.134  1.00  0.00    -0.351 N 
ATOM      5  C   UNL A   1      34.346  24.028  23.361  1.00  0.00     0.281 C 
ATOM      6  O   UNL A   1      34.319  23.516  22.229  1.00  0.00    -0.268 OA
ATOM      7  H   UNL A   1      35.664  22.643  23.859  1.00  0.00     0.163 HD
BRANCH   5   8
ATOM      8  C   UNL A   1      33.326  25.200  23.750  1.00  0.00     0.178 C 
ATOM      9  C   UNL A   1      32.380  24.636  24.848  1.00  0.00     0.079 C 
ATOM     10  C   UNL A   1      32.330  25.705  22.638  1.00  0.00     0.061 C 
ATOM     11  C   UNL A   1      31.148  24.102  24.159  1.00  0.00     0.008 C 
ATOM     12  C   UNL A   1      30.960  25.013  22.961  1.00  0.00     0.011 C 
BRANCH   8  13
ATOM     13  N   UNL A   1      34.073  26.279  24.489  1.00  0.00    -0.336 N 
ATOM     14  C   UNL A   1      33.528  26.758  25.754  1.00  0.00     0.331 C 
ATOM     15  H   UNL A   1      35.009  25.921  24.680  1.00  0.00     0.346 HD
ATOM     16  H   UNL A   1      34.020  27.089  23.871  1.00  0.00     0.346 HD
ENDBRANCH   8  13
BRANCH  10  17
ATOM     17  C   UNL A   1      31.981  27.215  22.539  1.00  0.00     0.022 C 
BRANCH  17  18
ATOM     18  C   UNL A   1      30.540  27.722  22.575  1.00  0.00     0.079 C 
BRANCH  18  19
ATOM     19  S   UNL A   1      30.224  29.194  23.587  1.00  0.00    -0.088 SA
BRANCH  19  20
ATOM     20  C   UNL A   1      29.369  30.284  22.550  1.00  0.00     0.168 A 
ATOM     21  N   UNL A   1      28.815  29.963  21.434  1.00  0.00    -0.233 NA
ATOM     22  N   UNL A   1      29.353  31.542  23.066  1.00  0.00    -0.301 N 
ATOM     23  C   UNL A   1      28.148  30.958  20.765  1.00  0.00     0.120 A 
ATOM     24  C   UNL A   1      28.707  32.568  22.450  1.00  0.00     0.251 A 
ATOM     25  H   UNL A   1      29.825  31.716  23.913  1.00  0.00     0.172 HD
ATOM     26  C   UNL A   1      28.036  32.220  21.190  1.00  0.00     0.091 A 
ATOM     27  O   UNL A   1      28.672  33.709  22.897  1.00  0.00    -0.269 OA
ENDBRANCH  19  20
ENDBRANCH  18  19
ENDBRANCH  17  18
ENDBRANCH  10  17
ENDBRANCH   5   8
ENDBRANCH   3   4
ENDBRANCH   2   3
ENDBRANCH   1   2
BRANCH   1  28
ATOM     28  C   UNL A   1      39.437  22.657  26.752  1.00  0.00     0.002 C 
BRANCH  28  29
ATOM     29  C   UNL A   1      39.520  21.356  25.947  1.00  0.00     0.021 C 
BRANCH  29  30
ATOM     30  C   UNL A   1      40.011  20.139  26.725  1.00  0.00     0.116 C 
BRANCH  30  31
ATOM     31  N   UNL A   1      41.192  19.545  26.120  1.00  0.00    -0.352 N 
ATOM     32  C   UNL A   1      42.383  20.131  25.769  1.00  0.00     0.251 C 
ATOM     33  H   UNL A   1      41.128  18.580  25.934  1.00  0.00     0.163 HD
ATOM     34  O   UNL A   1      43.185  19.511  25.074  1.00  0.00    -0.269 OA
BRANCH  32  35
ATOM     35  C   UNL A   1      42.697  21.506  26.215  1.00  0.00     0.039 A 
ATOM     36  C   UNL A   1      42.819  22.515  25.257  1.00  0.00     0.014 A 
ATOM     37  C   UNL A   1      42.894  21.796  27.568  1.00  0.00     0.014 A 
ATOM     38  C   UNL A   1      43.088  23.825  25.660  1.00  0.00     0.010 A 
ATOM     39  C   UNL A   1      43.087  23.114  27.973  1.00  0.00     0.010 A 
ATOM     40  C   UNL A   1      43.195  24.142  27.024  1.00  0.00    -0.014 A 
BRANCH  40  41
ATOM     41  C   UNL A   1      43.413  25.541  27.476  1.00  0.00     0.031 A 
ATOM     42  C   UNL A   1      44.800  26.124  27.508  1.00  0.00     0.074 A 
ATOM     43  C   UNL A   1      42.369  26.260  27.934  1.00  0.00     0.049 A 
ATOM     44  N   UNL A   1      45.189  27.303  27.919  1.00  0.00    -0.248 NA
ATOM     45  C   UNL A   1      45.899  25.262  27.042  1.00  0.00     0.031 C 
ATOM     46  C   UNL A   1      40.987  25.782  28.024  1.00  0.00     0.029 A 
ATOM     47  N   UNL A   1      42.310  27.536  28.434  1.00  0.00    -0.354 N 
ATOM     48  C   UNL A   1      46.573  27.313  27.795  1.00  0.00     0.074 A 
ATOM     49  C   UNL A   1      46.961  26.010  27.302  1.00  0.00     0.031 C 
ATOM     50  C   UNL A   1      40.218  26.753  28.543  1.00  0.00     0.029 A 
ATOM     51  C   UNL A   1      41.053  27.908  28.853  1.00  0.00     0.049 A 
ATOM     52  H   UNL A   1      43.093  28.131  28.490  1.00  0.00     0.167 HD
ATOM     53  C   UNL A   1      47.441  28.324  28.041  1.00  0.00     0.034 A 
ATOM     54  C   UNL A   1      40.623  29.047  29.430  1.00  0.00     0.034 A 
ATOM     55  C   UNL A   1      47.048  29.630  28.495  1.00  0.00     0.049 A 
ATOM     56  C   UNL A   1      41.604  30.164  29.665  1.00  0.00     0.074 A 
ATOM     57  C   UNL A   1      47.841  30.747  28.690  1.00  0.00     0.029 A 
ATOM     58  N   UNL A   1      45.754  29.996  28.833  1.00  0.00    -0.354 N 
ATOM     59  N   UNL A   1      42.885  30.207  29.395  1.00  0.00    -0.248 NA
ATOM     60  C   UNL A   1      41.072  31.403  30.251  1.00  0.00     0.031 C 
ATOM     61  C   UNL A   1      47.031  31.779  29.177  1.00  0.00     0.029 A 
ATOM     62  C   UNL A   1      45.728  31.316  29.250  1.00  0.00     0.049 A 
ATOM     63  H   UNL A   1      44.969  29.403  28.784  1.00  0.00     0.167 HD
ATOM     64  C   UNL A   1      43.305  31.486  29.741  1.00  0.00     0.074 A 
ATOM     65  C   UNL A   1      42.136  32.193  30.221  1.00  0.00     0.031 C 
ATOM     66  C   UNL A   1      44.549  32.023  29.678  1.00  0.00     0.034 A 
BRANCH  53  67
ATOM     67  C   UNL A   1      48.905  28.071  27.781  1.00  0.00     0.023 A 
ATOM     68  C   UNL A   1      49.750  27.706  28.850  1.00  0.00     0.012 A 
ATOM     69  C   UNL A   1      49.432  28.132  26.476  1.00  0.00     0.148 A 
ATOM     70  C   UNL A   1      51.101  27.443  28.630  1.00  0.00     0.002 A 
ATOM     71  C   UNL A   1      50.769  27.823  26.259  1.00  0.00     0.091 A 
ATOM     72  F   UNL A   1      48.619  28.500  25.475  1.00  0.00    -0.205 F 
ATOM     73  C   UNL A   1      51.608  27.491  27.335  1.00  0.00     0.022 A 
BRANCH  71  74
ATOM     74  S   UNL A   1      51.499  27.775  24.617  1.00  0.00     0.127 S 
ATOM     75  O   UNL A   1      51.464  29.187  24.239  1.00  0.00    -0.237 OA
ATOM     76  O   UNL A   1      52.837  27.251  24.892  1.00  0.00    -0.237 OA
ATOM     77  O   UNL A   1      50.651  26.896  23.825  1.00  0.00    -0.744 OA
ENDBRANCH  71  74
ENDBRANCH  53  67
BRANCH  54  78
ATOM     78  C   UNL A   1      39.181  29.211  29.772  1.00  0.00     0.023 A 
ATOM     79  C   UNL A   1      38.728  28.853  31.057  1.00  0.00     0.012 A 
ATOM     80  C   UNL A   1      38.263  29.736  28.842  1.00  0.00     0.148 A 
ATOM     81  C   UNL A   1      37.382  28.983  31.398  1.00  0.00     0.002 A 
ATOM     82  C   UNL A   1      36.934  29.916  29.207  1.00  0.00     0.091 A 
ATOM     83  F   UNL A   1      38.711  30.061  27.621  1.00  0.00    -0.205 F 
ATOM     84  C   UNL A   1      36.487  29.522  30.479  1.00  0.00     0.022 A 
BRANCH  82  85
ATOM     85  S   UNL A   1      35.741  30.724  28.136  1.00  0.00     0.127 S 
ATOM     86  O   UNL A   1      36.494  31.886  27.671  1.00  0.00    -0.237 OA
ATOM     87  O   UNL A   1      35.502  29.698  27.121  1.00  0.00    -0.237 OA
ATOM     88  O   UNL A   1      34.588  31.014  28.978  1.00  0.00    -0.744 OA
ENDBRANCH  82  85
ENDBRANCH  54  78
BRANCH  66  89
ATOM     89  C   UNL A   1      44.712  33.461  30.097  1.00  0.00     0.023 A 
ATOM     90  C   UNL A   1      45.073  33.772  31.423  1.00  0.00     0.012 A 
ATOM     91  C   UNL A   1      44.579  34.501  29.155  1.00  0.00     0.148 A 
ATOM     92  C   UNL A   1      45.265  35.096  31.813  1.00  0.00     0.002 A 
ATOM     93  C   UNL A   1      44.823  35.814  29.538  1.00  0.00     0.091 A 
ATOM     94  F   UNL A   1      44.218  34.186  27.903  1.00  0.00    -0.205 F 
ATOM     95  C   UNL A   1      45.152  36.115  30.870  1.00  0.00     0.022 A 
BRANCH  93  96
ATOM     96  S   UNL A   1      44.799  37.179  28.370  1.00  0.00     0.127 S 
ATOM     97  O   UNL A   1      45.830  36.772  27.417  1.00  0.00    -0.237 OA
ATOM     98  O   UNL A   1      43.431  37.118  27.853  1.00  0.00    -0.237 OA
ATOM     99  O   UNL A   1      45.100  38.376  29.143  1.00  0.00    -0.744 OA
ENDBRANCH  93  96
ENDBRANCH  66  89
ENDBRANCH  40  41
ENDBRANCH  32  35
ENDBRANCH  30  31
ENDBRANCH  29  30
ENDBRANCH  28  29
ENDBRANCH   1  28
TORSDOF 21
ENDMDL
MODEL 2
REMARK VINA RESULT:     -10.5      2.847      3.914
REMARK SMILES C[NH2+][C@@]1(C(=O)NCCCCCCNC(=O)c2ccc(-c3c4nc(c(-c5cccc(S(=O)(=O)[O-])c5F)c5ccc([nH]5)c(-c5cccc(S(=O)(=O)[O-])c5F)c5nc(c(-c6cccc(S(=O)(=O)[O-])c6F)c6ccc3[nH]6)C=C5)C=C4)cc2)CCC[C@H]1CCSc1nccc(=O)[nH]1
REMARK SMILES IDX 9 1 8 2 7 3 6 4 4 5 5 6 3 8 79 9 82 10 80 11 81 12 2 13 1 14
REMARK SMILES IDX 83 17 84 18 85 19 86 20 87 21 92 22 88 23 90 24 89 26 91 27
REMARK SMILES IDX 10 28 11 29 12 30 13 31 14 32 15 34 16 35 17 36 78 37 18 38
REMARK SMILES IDX 77 39 19 40 20 41 21 42 71 43 22 44 76 45 70 46 72 47 23 48
REMARK SMILES IDX 75 49 69 50 68 51 24 53 56 54 36 55 55 56 37 57 40 58 54 59
REMARK SMILES IDX 73 60 38 61 39 62 53 64 74 65 41 66 25 67 26 68 34 69 27 70
REMARK SMILES IDX 29 71 35 72 28 73 30 74 31 75 32 76 33 77 57 78 58 79 66 80
REMARK SMILES IDX 59 81 61 82 67 83 60 84 62 85 63 86 64 87 65 88 42 89 43 90
REMARK SMILES IDX 51 91 44 92 46 93 52 94 45 95 47 96 48 97 49 98 50 99
REMARK H PARENT 6 7 2 15 2 16 92 25 13 33 72 52 40 63
REMARK Flexibility Score: inf
ROOT
ATOM      1  C   UNL A   1      34.351  22.888  23.134  1.00  0.00     0.002 C 
ENDROOT
BRANCH   1   2
ATOM      2  C   UNL A   1      33.759  21.824  24.057  1.00  0.00     0.021 C 
BRANCH   2   3
ATOM      3  C   UNL A   1      32.241  21.808  24.149  1.00  0.00     0.116 C 
BRANCH   3   4
ATOM      4  N   UNL A   1      31.705  22.326  25.383  1.00  0.00    -0.351 N 
ATOM      5  C   UNL A   1      31.300  23.570  25.755  1.00  0.00     0.281 C 
ATOM      6  O   UNL A   1      30.496  23.546  26.703  1.00  0.00    -0.268 OA
ATOM      7  H   UNL A   1      31.616  21.650  26.093  1.00  0.00     0.163 HD
BRANCH   5   8
ATOM      8  C   UNL A   1      31.690  24.956  25.052  1.00  0.00     0.178 C 
ATOM      9  C   UNL A   1      30.862  26.071  25.751  1.00  0.00     0.079 C 
ATOM     10  C   UNL A   1      31.326  25.133  23.530  1.00  0.00     0.061 C 
ATOM     11  C   UNL A   1      29.604  26.278  24.944  1.00  0.00     0.008 C 
ATOM     12  C   UNL A   1      30.023  26.007  23.512  1.00  0.00     0.011 C 
BRANCH   8  13
ATOM     13  N   UNL A   1      33.103  25.318  25.427  1.00  0.00    -0.336 N 
ATOM     14  C   UNL A   1      33.786  24.504  26.425  1.00  0.00     0.331 C 
ATOM     15  H   UNL A   1      33.661  25.279  24.574  1.00  0.00     0.346 HD
ATOM     16  H   UNL A   1      33.019  26.235  25.866  1.00  0.00     0.346 HD
ENDBRANCH   8  13
BRANCH  10  17
ATOM     17  C   UNL A   1      32.302  25.885  22.583  1.00  0.00     0.022 C 
BRANCH  17  18
ATOM     18  C   UNL A   1      32.274  27.404  22.424  1.00  0.00     0.079 C 
BRANCH  18  19
ATOM     19  S   UNL A   1      33.690  28.315  23.099  1.00  0.00    -0.088 SA
BRANCH  19  20
ATOM     20  C   UNL A   1      33.142  28.950  24.613  1.00  0.00     0.168 A 
ATOM     21  N   UNL A   1      31.937  29.321  24.868  1.00  0.00    -0.233 NA
ATOM     22  N   UNL A   1      34.157  29.008  25.517  1.00  0.00    -0.301 N 
ATOM     23  C   UNL A   1      31.682  29.765  26.140  1.00  0.00     0.120 A 
ATOM     24  C   UNL A   1      33.964  29.436  26.793  1.00  0.00     0.251 A 
ATOM     25  H   UNL A   1      35.060  28.732  25.238  1.00  0.00     0.172 HD
ATOM     26  C   UNL A   1      32.588  29.834  27.120  1.00  0.00     0.091 A 
ATOM     27  O   UNL A   1      34.859  29.493  27.628  1.00  0.00    -0.269 OA
ENDBRANCH  19  20
ENDBRANCH  18  19
ENDBRANCH  17  18
ENDBRANCH  10  17
ENDBRANCH   5   8
ENDBRANCH   3   4
ENDBRANCH   2   3
ENDBRANCH   1   2
BRANCH   1  28
ATOM     28  C   UNL A   1      35.756  23.380  23.501  1.00  0.00     0.002 C 
BRANCH  28  29
ATOM     29  C   UNL A   1      36.638  22.389  24.267  1.00  0.00     0.021 C 
BRANCH  29  30
ATOM     30  C   UNL A   1      37.318  22.948  25.512  1.00  0.00     0.116 C 
BRANCH  30  31
ATOM     31  N   UNL A   1      38.352  22.059  26.015  1.00  0.00    -0.352 N 
ATOM     32  C   UNL A   1      39.562  22.361  26.588  1.00  0.00     0.251 C 
ATOM     33  H   UNL A   1      38.155  21.098  25.933  1.00  0.00     0.163 HD
ATOM     34  O   UNL A   1      40.394  21.472  26.756  1.00  0.00    -0.269 OA
BRANCH  32  35
ATOM     35  C   UNL A   1      39.870  23.751  26.990  1.00  0.00     0.039 A 
ATOM     36  C   UNL A   1      39.998  24.048  28.349  1.00  0.00     0.014 A 
ATOM     37  C   UNL A   1      40.009  24.762  26.035  1.00  0.00     0.014 A 
ATOM     38  C   UNL A   1      40.315  25.349  28.747  1.00  0.00     0.010 A 
ATOM     39  C   UNL A   1      40.399  26.039  26.429  1.00  0.00     0.010 A 
ATOM     40  C   UNL A   1      40.547  26.349  27.789  1.00  0.00    -0.014 A 
BRANCH  40  41
ATOM     41  C   UNL A   1      40.953  27.722  28.191  1.00  0.00     0.031 A 
ATOM     42  C   UNL A   1      42.404  28.122  28.176  1.00  0.00     0.074 A 
ATOM     43  C   UNL A   1      40.021  28.583  28.647  1.00  0.00     0.049 A 
ATOM     44  N   UNL A   1      42.951  29.253  28.540  1.00  0.00    -0.248 NA
ATOM     45  C   UNL A   1      43.371  27.111  27.716  1.00  0.00     0.031 C 
ATOM     46  C   UNL A   1      38.593  28.290  28.781  1.00  0.00     0.029 A 
ATOM     47  N   UNL A   1      40.139  29.870  29.107  1.00  0.00    -0.354 N 
ATOM     48  C   UNL A   1      44.321  29.080  28.388  1.00  0.00     0.074 A 
ATOM     49  C   UNL A   1      44.527  27.723  27.930  1.00  0.00     0.031 C 
ATOM     50  C   UNL A   1      37.967  29.366  29.284  1.00  0.00     0.029 A 
ATOM     51  C   UNL A   1      38.951  30.413  29.539  1.00  0.00     0.049 A 
ATOM     52  H   UNL A   1      40.993  30.360  29.128  1.00  0.00     0.167 HD
ATOM     53  C   UNL A   1      45.317  29.977  28.583  1.00  0.00     0.034 A 
ATOM     54  C   UNL A   1      38.684  31.614  30.088  1.00  0.00     0.034 A 
ATOM     55  C   UNL A   1      45.106  31.336  29.002  1.00  0.00     0.049 A 
ATOM     56  C   UNL A   1      39.806  32.602  30.267  1.00  0.00     0.074 A 
ATOM     57  C   UNL A   1      46.041  32.347  29.146  1.00  0.00     0.029 A 
ATOM     58  N   UNL A   1      43.879  31.875  29.355  1.00  0.00    -0.354 N 
ATOM     59  N   UNL A   1      41.075  32.471  29.969  1.00  0.00    -0.248 NA
ATOM     60  C   UNL A   1      39.452  33.915  30.823  1.00  0.00     0.031 C 
ATOM     61  C   UNL A   1      45.382  33.488  29.616  1.00  0.00     0.029 A 
ATOM     62  C   UNL A   1      44.032  33.199  29.729  1.00  0.00     0.049 A 
ATOM     63  H   UNL A   1      43.023  31.387  29.342  1.00  0.00     0.167 HD
ATOM     64  C   UNL A   1      41.664  33.695  30.264  1.00  0.00     0.074 A 
ATOM     65  C   UNL A   1      40.607  34.561  30.745  1.00  0.00     0.031 C 
ATOM     66  C   UNL A   1      42.964  34.065  30.159  1.00  0.00     0.034 A 
BRANCH  53  67
ATOM     67  C   UNL A   1      46.730  29.530  28.302  1.00  0.00     0.023 A 
ATOM     68  C   UNL A   1      47.292  29.756  27.028  1.00  0.00     0.012 A 
ATOM     69  C   UNL A   1      47.520  28.945  29.310  1.00  0.00     0.148 A 
ATOM     70  C   UNL A   1      48.604  29.373  26.752  1.00  0.00     0.002 A 
ATOM     71  C   UNL A   1      48.842  28.610  29.041  1.00  0.00     0.091 A 
ATOM     72  F   UNL A   1      46.963  28.719  30.510  1.00  0.00    -0.205 F 
ATOM     73  C   UNL A   1      49.382  28.811  27.760  1.00  0.00     0.022 A 
BRANCH  71  74
ATOM     74  S   UNL A   1      49.951  27.955  30.294  1.00  0.00     0.127 S 
ATOM     75  O   UNL A   1      51.172  27.736  29.521  1.00  0.00    -0.237 OA
ATOM     76  O   UNL A   1      50.025  29.064  31.247  1.00  0.00    -0.237 OA
ATOM     77  O   UNL A   1      49.313  26.752  30.808  1.00  0.00    -0.744 OA
ENDBRANCH  71  74
ENDBRANCH  53  67
BRANCH  54  78
ATOM     78  C   UNL A   1      37.284  31.972  30.454  1.00  0.00     0.023 A 
ATOM     79  C   UNL A   1      36.794  31.638  31.732  1.00  0.00     0.012 A 
ATOM     80  C   UNL A   1      36.445  32.658  29.555  1.00  0.00     0.148 A 
ATOM     81  C   UNL A   1      35.484  31.948  32.095  1.00  0.00     0.002 A 
ATOM     82  C   UNL A   1      35.159  33.015  29.943  1.00  0.00     0.091 A 
ATOM     83  F   UNL A   1      36.926  32.959  28.341  1.00  0.00    -0.205 F 
ATOM     84  C   UNL A   1      34.669  32.645  31.206  1.00  0.00     0.022 A 
BRANCH  82  85
ATOM     85  S   UNL A   1      34.088  34.027  28.916  1.00  0.00     0.127 S 
ATOM     86  O   UNL A   1      33.139  34.548  29.897  1.00  0.00    -0.237 OA
ATOM     87  O   UNL A   1      35.026  35.012  28.380  1.00  0.00    -0.237 OA
ATOM     88  O   UNL A   1      33.531  33.123  27.918  1.00  0.00    -0.744 OA
ENDBRANCH  82  85
ENDBRANCH  54  78
BRANCH  66  89
ATOM     89  C   UNL A   1      43.321  35.482  30.528  1.00  0.00     0.023 A 
ATOM     90  C   UNL A   1      43.747  35.783  31.836  1.00  0.00     0.012 A 
ATOM     91  C   UNL A   1      43.303  36.501  29.555  1.00  0.00     0.148 A 
ATOM     92  C   UNL A   1      44.117  37.082  32.180  1.00  0.00     0.002 A 
ATOM     93  C   UNL A   1      43.723  37.783  29.890  1.00  0.00     0.091 A 
ATOM     94  F   UNL A   1      42.878  36.198  28.320  1.00  0.00    -0.205 F 
ATOM     95  C   UNL A   1      44.116  38.078  31.206  1.00  0.00     0.022 A 
BRANCH  93  96
ATOM     96  S   UNL A   1      43.851  39.103  28.679  1.00  0.00     0.127 S 
ATOM     97  O   UNL A   1      44.470  40.169  29.465  1.00  0.00    -0.237 OA
ATOM     98  O   UNL A   1      44.723  38.508  27.665  1.00  0.00    -0.237 OA
ATOM     99  O   UNL A   1      42.492  39.368  28.227  1.00  0.00    -0.744 OA
ENDBRANCH  93  96
ENDBRANCH  66  89
ENDBRANCH  40  41
ENDBRANCH  32  35
ENDBRANCH  30  31
ENDBRANCH  29  30
ENDBRANCH  28  29
ENDBRANCH   1  28
TORSDOF 21
ENDMDL
MODEL 3
REMARK VINA RESULT:     -10.4      5.364     10.464
REMARK SMILES C[NH2+][C@@]1(C(=O)NCCCCCCNC(=O)c2ccc(-c3c4nc(c(-c5cccc(S(=O)(=O)[O-])c5F)c5ccc([nH]5)c(-c5cccc(S(=O)(=O)[O-])c5F)c5nc(c(-c6cccc(S(=O)(=O)[O-])c6F)c6ccc3[nH]6)C=C5)C=C4)cc2)CCC[C@H]1CCSc1nccc(=O)[nH]1
REMARK SMILES IDX 9 1 8 2 7 3 6 4 4 5 5 6 3 8 79 9 82 10 80 11 81 12 2 13 1 14
REMARK SMILES IDX 83 17 84 18 85 19 86 20 87 21 92 22 88 23 90 24 89 26 91 27
REMARK SMILES IDX 10 28 11 29 12 30 13 31 14 32 15 34 16 35 17 36 78 37 18 38
REMARK SMILES IDX 77 39 19 40 20 41 21 42 71 43 22 44 76 45 70 46 72 47 23 48
REMARK SMILES IDX 75 49 69 50 68 51 24 53 56 54 36 55 55 56 37 57 40 58 54 59
REMARK SMILES IDX 73 60 38 61 39 62 53 64 74 65 41 66 25 67 26 68 34 69 27 70
REMARK SMILES IDX 29 71 35 72 28 73 30 74 31 75 32 76 33 77 57 78 58 79 66 80
REMARK SMILES IDX 59 81 61 82 67 83 60 84 62 85 63 86 64 87 65 88 42 89 43 90
REMARK SMILES IDX 51 91 44 92 46 93 52 94 45 95 47 96 48 97 49 98 50 99
REMARK H PARENT 6 7 2 15 2 16 92 25 13 33 72 52 40 63
REMARK Flexibility Score: inf
ROOT
ATOM      1  C   UNL A   1      31.468  28.290  25.432  1.00  0.00     0.002 C 
ENDROOT
BRANCH   1   2
ATOM      2  C   UNL A   1      31.035  28.906  24.102  1.00  0.00     0.021 C 
BRANCH   2   3
ATOM      3  C   UNL A   1      30.980  27.947  22.923  1.00  0.00     0.116 C 
BRANCH   3   4
ATOM      4  N   UNL A   1      32.262  27.629  22.344  1.00  0.00    -0.351 N 
ATOM      5  C   UNL A   1      32.871  26.446  22.061  1.00  0.00     0.281 C 
ATOM      6  O   UNL A   1      33.738  26.555  21.177  1.00  0.00    -0.268 OA
ATOM      7  H   UNL A   1      32.799  28.419  22.109  1.00  0.00     0.163 HD
BRANCH   5   8
ATOM      8  C   UNL A   1      32.514  25.012  22.680  1.00  0.00     0.178 C 
ATOM      9  C   UNL A   1      32.760  25.102  24.213  1.00  0.00     0.079 C 
ATOM     10  C   UNL A   1      33.397  23.783  22.242  1.00  0.00     0.061 C 
ATOM     11  C   UNL A   1      34.163  24.613  24.479  1.00  0.00     0.008 C 
ATOM     12  C   UNL A   1      34.398  23.547  23.427  1.00  0.00     0.011 C 
BRANCH   8  13
ATOM     13  N   UNL A   1      31.024  24.799  22.603  1.00  0.00    -0.336 N 
ATOM     14  C   UNL A   1      30.269  24.728  23.848  1.00  0.00     0.331 C 
ATOM     15  H   UNL A   1      30.638  25.571  22.059  1.00  0.00     0.346 HD
ATOM     16  H   UNL A   1      30.924  23.870  22.195  1.00  0.00     0.346 HD
ENDBRANCH   8  13
BRANCH  10  17
ATOM     17  C   UNL A   1      32.737  22.395  22.018  1.00  0.00     0.022 C 
BRANCH  17  18
ATOM     18  C   UNL A   1      31.876  21.721  23.085  1.00  0.00     0.079 C 
BRANCH  18  19
ATOM     19  S   UNL A   1      32.678  20.432  24.078  1.00  0.00    -0.088 SA
BRANCH  19  20
ATOM     20  C   UNL A   1      32.954  21.155  25.626  1.00  0.00     0.168 A 
ATOM     21  N   UNL A   1      33.965  20.916  26.385  1.00  0.00    -0.233 NA
ATOM     22  N   UNL A   1      31.958  22.023  25.947  1.00  0.00    -0.301 N 
ATOM     23  C   UNL A   1      34.033  21.614  27.564  1.00  0.00     0.120 A 
ATOM     24  C   UNL A   1      31.971  22.745  27.100  1.00  0.00     0.251 A 
ATOM     25  H   UNL A   1      31.201  22.132  25.326  1.00  0.00     0.172 HD
ATOM     26  C   UNL A   1      33.133  22.515  27.969  1.00  0.00     0.091 A 
ATOM     27  O   UNL A   1      31.089  23.537  27.410  1.00  0.00    -0.269 OA
ENDBRANCH  19  20
ENDBRANCH  18  19
ENDBRANCH  17  18
ENDBRANCH  10  17
ENDBRANCH   5   8
ENDBRANCH   3   4
ENDBRANCH   2   3
ENDBRANCH   1   2
BRANCH   1  28
ATOM     28  C   UNL A   1      32.838  28.736  25.956  1.00  0.00     0.002 C 
BRANCH  28  29
ATOM     29  C   UNL A   1      33.075  30.248  26.017  1.00  0.00     0.021 C 
BRANCH  29  30
ATOM     30  C   UNL A   1      32.294  30.987  27.099  1.00  0.00     0.116 C 
BRANCH  30  31
ATOM     31  N   UNL A   1      32.515  32.423  27.046  1.00  0.00    -0.352 N 
ATOM     32  C   UNL A   1      33.510  33.176  27.620  1.00  0.00     0.251 C 
ATOM     33  H   UNL A   1      31.855  32.930  26.522  1.00  0.00     0.163 HD
ATOM     34  O   UNL A   1      33.410  34.401  27.640  1.00  0.00    -0.269 OA
BRANCH  32  35
ATOM     35  C   UNL A   1      34.690  32.518  28.221  1.00  0.00     0.039 A 
ATOM     36  C   UNL A   1      35.956  33.062  27.994  1.00  0.00     0.014 A 
ATOM     37  C   UNL A   1      34.554  31.356  28.986  1.00  0.00     0.014 A 
ATOM     38  C   UNL A   1      37.080  32.471  28.575  1.00  0.00     0.010 A 
ATOM     39  C   UNL A   1      35.665  30.813  29.625  1.00  0.00     0.010 A 
ATOM     40  C   UNL A   1      36.941  31.358  29.420  1.00  0.00    -0.014 A 
BRANCH  40  41
ATOM     41  C   UNL A   1      38.117  30.757  30.103  1.00  0.00     0.031 A 
ATOM     42  C   UNL A   1      38.488  31.185  31.497  1.00  0.00     0.074 A 
ATOM     43  C   UNL A   1      38.898  29.884  29.435  1.00  0.00     0.049 A 
ATOM     44  N   UNL A   1      39.505  30.812  32.231  1.00  0.00    -0.248 NA
ATOM     45  C   UNL A   1      37.619  32.181  32.145  1.00  0.00     0.031 C 
ATOM     46  C   UNL A   1      38.687  29.447  28.054  1.00  0.00     0.029 A 
ATOM     47  N   UNL A   1      40.041  29.229  29.819  1.00  0.00    -0.354 N 
ATOM     48  C   UNL A   1      39.419  31.549  33.405  1.00  0.00     0.074 A 
ATOM     49  C   UNL A   1      38.269  32.417  33.275  1.00  0.00     0.031 C 
ATOM     50  C   UNL A   1      39.664  28.593  27.708  1.00  0.00     0.029 A 
ATOM     51  C   UNL A   1      40.588  28.448  28.827  1.00  0.00     0.049 A 
ATOM     52  H   UNL A   1      40.434  29.311  30.718  1.00  0.00     0.167 HD
ATOM     53  C   UNL A   1      40.208  31.489  34.506  1.00  0.00     0.034 A 
ATOM     54  C   UNL A   1      41.712  27.705  28.817  1.00  0.00     0.034 A 
ATOM     55  C   UNL A   1      41.327  30.598  34.646  1.00  0.00     0.049 A 
ATOM     56  C   UNL A   1      42.554  27.634  30.063  1.00  0.00     0.074 A 
ATOM     57  C   UNL A   1      42.135  30.400  35.752  1.00  0.00     0.029 A 
ATOM     58  N   UNL A   1      41.805  29.762  33.649  1.00  0.00    -0.354 N 
ATOM     59  N   UNL A   1      42.366  28.221  31.220  1.00  0.00    -0.248 NA
ATOM     60  C   UNL A   1      43.741  26.769  30.014  1.00  0.00     0.031 C 
ATOM     61  C   UNL A   1      43.121  29.468  35.413  1.00  0.00     0.029 A 
ATOM     62  C   UNL A   1      42.905  29.057  34.108  1.00  0.00     0.049 A 
ATOM     63  H   UNL A   1      41.419  29.682  32.747  1.00  0.00     0.167 HD
ATOM     64  C   UNL A   1      43.387  27.769  32.047  1.00  0.00     0.074 A 
ATOM     65  C   UNL A   1      44.179  26.842  31.264  1.00  0.00     0.031 C 
ATOM     66  C   UNL A   1      43.654  28.100  33.335  1.00  0.00     0.034 A 
BRANCH  53  67
ATOM     67  C   UNL A   1      39.860  32.385  35.668  1.00  0.00     0.023 A 
ATOM     68  C   UNL A   1      39.232  31.838  36.806  1.00  0.00     0.012 A 
ATOM     69  C   UNL A   1      40.209  33.750  35.661  1.00  0.00     0.148 A 
ATOM     70  C   UNL A   1      38.923  32.642  37.902  1.00  0.00     0.002 A 
ATOM     71  C   UNL A   1      39.940  34.534  36.777  1.00  0.00     0.091 A 
ATOM     72  F   UNL A   1      40.788  34.257  34.563  1.00  0.00    -0.205 F 
ATOM     73  C   UNL A   1      39.286  33.986  37.893  1.00  0.00     0.022 A 
BRANCH  71  74
ATOM     74  S   UNL A   1      40.442  36.255  36.897  1.00  0.00     0.127 S 
ATOM     75  O   UNL A   1      41.899  36.136  36.923  1.00  0.00    -0.237 OA
ATOM     76  O   UNL A   1      39.899  36.819  35.660  1.00  0.00    -0.237 OA
ATOM     77  O   UNL A   1      39.836  36.767  38.117  1.00  0.00    -0.744 OA
ENDBRANCH  71  74
ENDBRANCH  53  67
BRANCH  54  78
ATOM     78  C   UNL A   1      42.075  26.919  27.603  1.00  0.00     0.023 A 
ATOM     79  C   UNL A   1      42.698  27.569  26.519  1.00  0.00     0.012 A 
ATOM     80  C   UNL A   1      41.829  25.535  27.525  1.00  0.00     0.148 A 
ATOM     81  C   UNL A   1      43.035  26.861  25.365  1.00  0.00     0.002 A 
ATOM     82  C   UNL A   1      42.220  24.825  26.396  1.00  0.00     0.091 A 
ATOM     83  F   UNL A   1      41.228  24.938  28.564  1.00  0.00    -0.205 F 
ATOM     84  C   UNL A   1      42.806  25.489  25.307  1.00  0.00     0.022 A 
BRANCH  82  85
ATOM     85  S   UNL A   1      42.085  23.037  26.287  1.00  0.00     0.127 S 
ATOM     86  O   UNL A   1      42.855  22.608  27.452  1.00  0.00    -0.237 OA
ATOM     87  O   UNL A   1      40.640  22.837  26.394  1.00  0.00    -0.237 OA
ATOM     88  O   UNL A   1      42.646  22.678  24.991  1.00  0.00    -0.744 OA
ENDBRANCH  82  85
ENDBRANCH  54  78
BRANCH  66  89
ATOM     89  C   UNL A   1      44.825  27.427  34.003  1.00  0.00     0.023 A 
ATOM     90  C   UNL A   1      46.095  28.034  33.976  1.00  0.00     0.012 A 
ATOM     91  C   UNL A   1      44.646  26.227  34.720  1.00  0.00     0.148 A 
ATOM     92  C   UNL A   1      47.178  27.441  34.623  1.00  0.00     0.002 A 
ATOM     93  C   UNL A   1      45.718  25.669  35.407  1.00  0.00     0.091 A 
ATOM     94  F   UNL A   1      43.434  25.656  34.719  1.00  0.00    -0.205 F 
ATOM     95  C   UNL A   1      46.987  26.266  35.348  1.00  0.00     0.022 A 
BRANCH  93  96
ATOM     96  S   UNL A   1      45.543  24.214  36.446  1.00  0.00     0.127 S 
ATOM     97  O   UNL A   1      45.329  23.163  35.452  1.00  0.00    -0.237 OA
ATOM     98  O   UNL A   1      46.841  24.159  37.121  1.00  0.00    -0.237 OA
ATOM     99  O   UNL A   1      44.414  24.481  37.326  1.00  0.00    -0.744 OA
ENDBRANCH  93  96
ENDBRANCH  66  89
ENDBRANCH  40  41
ENDBRANCH  32  35
ENDBRANCH  30  31
ENDBRANCH  29  30
ENDBRANCH  28  29
ENDBRANCH   1  28
TORSDOF 21
ENDMDL
