MODEL 1
REMARK VINA RESULT:     -11.6      0.000      0.000
REMARK SMILES N#Cc1cccc(CSc2ccnc(C(=O)NCCCCCCNC(=O)c3ccc(-c4c5nc(c(-c6cccc(S(=O)(=O)[O-])c6F)c6ccc([nH]6)c(-c6cccc(S(=O)(=O)[O-])c6F)c6nc(c(-c7cccc(S(=O)(=O)[O-])c7F)c7ccc4[nH]7)C=C6)C=C5)cc3)c2)c1
REMARK SMILES IDX 20 1 19 2 18 3 17 4 15 5 16 6 14 8 10 9 11 10 90 11 12 12
REMARK SMILES IDX 13 13 9 14 8 15 7 16 3 17 4 18 91 19 5 20 6 21 2 22 1 23
REMARK SMILES IDX 21 24 22 25 23 26 24 27 25 28 26 30 27 31 28 32 89 33 29 34
REMARK SMILES IDX 88 35 30 36 31 37 32 38 82 39 33 40 87 41 81 42 83 43 34 44
REMARK SMILES IDX 86 45 80 46 79 47 35 49 67 50 47 51 66 52 48 53 51 54 65 55
REMARK SMILES IDX 84 56 49 57 50 58 64 60 85 61 52 62 36 63 37 64 45 65 38 66
REMARK SMILES IDX 40 67 46 68 39 69 41 70 42 71 43 72 44 73 68 74 69 75 77 76
REMARK SMILES IDX 70 77 72 78 78 79 71 80 73 81 74 82 75 83 76 84 53 85 54 86
REMARK SMILES IDX 62 87 55 88 57 89 63 90 56 91 58 92 59 93 60 94 61 95
REMARK H PARENT 17 7 24 29 83 48 51 59
REMARK Flexibility Score: inf
ROOT
ATOM      1  C   UNL A   1      32.592  29.551  27.339  1.00  0.00     0.002 C 
ENDROOT
BRANCH   1   2
ATOM      2  C   UNL A   1      33.045  28.183  26.833  1.00  0.00     0.021 C 
BRANCH   2   3
ATOM      3  C   UNL A   1      33.937  28.232  25.599  1.00  0.00     0.116 C 
BRANCH   3   4
ATOM      4  N   UNL A   1      33.203  28.011  24.368  1.00  0.00    -0.351 N 
ATOM      5  C   UNL A   1      32.461  26.969  23.858  1.00  0.00     0.269 C 
ATOM      6  O   UNL A   1      32.022  27.138  22.716  1.00  0.00    -0.268 OA
ATOM      7  H   UNL A   1      33.245  28.782  23.758  1.00  0.00     0.163 HD
BRANCH   5   8
ATOM      8  C   UNL A   1      32.185  25.670  24.575  1.00  0.00     0.129 A 
ATOM      9  C   UNL A   1      32.613  23.385  25.155  1.00  0.00     0.011 A 
ATOM     10  C   UNL A   1      31.435  23.360  25.886  1.00  0.00     0.035 A 
ATOM     11  C   UNL A   1      33.031  24.576  24.570  1.00  0.00     0.049 A 
ATOM     12  C   UNL A   1      30.687  24.519  25.934  1.00  0.00     0.113 A 
ATOM     13  N   UNL A   1      31.014  25.647  25.269  1.00  0.00    -0.251 NA
BRANCH   9  14
ATOM     14  S   UNL A   1      33.625  21.933  24.943  1.00  0.00    -0.121 SA
BRANCH  14  15
ATOM     15  C   UNL A   1      32.349  20.622  25.166  1.00  0.00     0.110 C 
BRANCH  15  16
ATOM     16  C   UNL A   1      32.691  19.352  24.418  1.00  0.00    -0.036 A 
ATOM     17  C   UNL A   1      33.878  17.232  24.261  1.00  0.00     0.052 A 
ATOM     18  C   UNL A   1      33.436  17.082  22.943  1.00  0.00     0.019 A 
ATOM     19  C   UNL A   1      33.505  18.366  24.998  1.00  0.00     0.024 A 
ATOM     20  C   UNL A   1      32.592  18.034  22.374  1.00  0.00     0.002 A 
ATOM     21  C   UNL A   1      32.204  19.146  23.117  1.00  0.00     0.004 A 
BRANCH  17  22
ATOM     22  C   UNL A   1      34.718  16.229  24.844  1.00  0.00     0.099 C 
ATOM     23  N   UNL A   1      35.387  15.397  25.306  1.00  0.00    -0.192 NA
ENDBRANCH  17  22
ENDBRANCH  15  16
ENDBRANCH  14  15
ENDBRANCH   9  14
ENDBRANCH   5   8
ENDBRANCH   3   4
ENDBRANCH   2   3
ENDBRANCH   1   2
BRANCH   1  24
ATOM     24  C   UNL A   1      31.741  30.358  26.352  1.00  0.00     0.002 C 
BRANCH  24  25
ATOM     25  C   UNL A   1      31.583  31.843  26.692  1.00  0.00     0.021 C 
BRANCH  25  26
ATOM     26  C   UNL A   1      32.829  32.483  27.293  1.00  0.00     0.116 C 
BRANCH  26  27
ATOM     27  N   UNL A   1      32.607  33.885  27.607  1.00  0.00    -0.352 N 
ATOM     28  C   UNL A   1      33.133  34.638  28.625  1.00  0.00     0.251 C 
ATOM     29  H   UNL A   1      31.992  34.362  27.003  1.00  0.00     0.163 HD
ATOM     30  O   UNL A   1      32.637  35.727  28.902  1.00  0.00    -0.269 OA
BRANCH  28  31
ATOM     31  C   UNL A   1      34.291  34.128  29.385  1.00  0.00     0.039 A 
ATOM     32  C   UNL A   1      34.066  33.385  30.545  1.00  0.00     0.014 A 
ATOM     33  C   UNL A   1      35.595  34.392  28.956  1.00  0.00     0.014 A 
ATOM     34  C   UNL A   1      35.152  32.869  31.250  1.00  0.00     0.010 A 
ATOM     35  C   UNL A   1      36.671  33.799  29.608  1.00  0.00     0.010 A 
ATOM     36  C   UNL A   1      36.462  33.045  30.771  1.00  0.00    -0.014 A 
BRANCH  36  37
ATOM     37  C   UNL A   1      37.620  32.441  31.476  1.00  0.00     0.031 A 
ATOM     38  C   UNL A   1      38.378  31.300  30.854  1.00  0.00     0.074 A 
ATOM     39  C   UNL A   1      37.950  32.881  32.706  1.00  0.00     0.049 A 
ATOM     40  N   UNL A   1      39.396  30.633  31.331  1.00  0.00    -0.248 NA
ATOM     41  C   UNL A   1      37.922  30.832  29.534  1.00  0.00     0.031 C 
ATOM     42  C   UNL A   1      37.247  33.934  33.444  1.00  0.00     0.029 A 
ATOM     43  N   UNL A   1      38.947  32.487  33.562  1.00  0.00    -0.354 N 
ATOM     44  C   UNL A   1      39.681  29.650  30.391  1.00  0.00     0.074 A 
ATOM     45  C   UNL A   1      38.705  29.782  29.333  1.00  0.00     0.031 C 
ATOM     46  C   UNL A   1      37.845  34.112  34.631  1.00  0.00     0.029 A 
ATOM     47  C   UNL A   1      38.941  33.159  34.762  1.00  0.00     0.049 A 
ATOM     48  H   UNL A   1      39.604  31.788  33.338  1.00  0.00     0.167 HD
ATOM     49  C   UNL A   1      40.680  28.735  30.396  1.00  0.00     0.034 A 
ATOM     50  C   UNL A   1      39.717  33.011  35.852  1.00  0.00     0.034 A 
ATOM     51  C   UNL A   1      41.657  28.619  31.444  1.00  0.00     0.049 A 
ATOM     52  C   UNL A   1      40.819  31.988  35.830  1.00  0.00     0.074 A 
ATOM     53  C   UNL A   1      42.752  27.775  31.505  1.00  0.00     0.029 A 
ATOM     54  N   UNL A   1      41.647  29.347  32.623  1.00  0.00    -0.354 N 
ATOM     55  N   UNL A   1      41.160  31.162  34.872  1.00  0.00    -0.248 NA
ATOM     56  C   UNL A   1      41.665  31.899  37.029  1.00  0.00     0.031 C 
ATOM     57  C   UNL A   1      43.370  27.953  32.747  1.00  0.00     0.029 A 
ATOM     58  C   UNL A   1      42.701  28.956  33.430  1.00  0.00     0.049 A 
ATOM     59  H   UNL A   1      40.987  30.041  32.852  1.00  0.00     0.167 HD
ATOM     60  C   UNL A   1      42.282  30.484  35.334  1.00  0.00     0.074 A 
ATOM     61  C   UNL A   1      42.574  31.010  36.651  1.00  0.00     0.031 C 
ATOM     62  C   UNL A   1      43.004  29.511  34.724  1.00  0.00     0.034 A 
BRANCH  49  63
ATOM     63  C   UNL A   1      40.775  27.794  29.222  1.00  0.00     0.023 A 
ATOM     64  C   UNL A   1      39.951  26.651  29.163  1.00  0.00     0.012 A 
ATOM     65  C   UNL A   1      41.644  28.073  28.149  1.00  0.00     0.148 A 
ATOM     66  C   UNL A   1      40.021  25.779  28.077  1.00  0.00     0.002 A 
ATOM     67  C   UNL A   1      41.670  27.229  27.046  1.00  0.00     0.091 A 
ATOM     68  F   UNL A   1      42.433  29.153  28.230  1.00  0.00    -0.205 F 
ATOM     69  C   UNL A   1      40.871  26.074  27.015  1.00  0.00     0.022 A 
BRANCH  67  70
ATOM     70  S   UNL A   1      42.668  27.565  25.593  1.00  0.00     0.127 S 
ATOM     71  O   UNL A   1      42.058  28.797  25.095  1.00  0.00    -0.237 OA
ATOM     72  O   UNL A   1      44.002  27.735  26.172  1.00  0.00    -0.237 OA
ATOM     73  O   UNL A   1      42.523  26.406  24.725  1.00  0.00    -0.744 OA
ENDBRANCH  67  70
ENDBRANCH  49  63
BRANCH  50  74
ATOM     74  C   UNL A   1      39.499  33.874  37.046  1.00  0.00     0.023 A 
ATOM     75  C   UNL A   1      39.914  35.220  37.024  1.00  0.00     0.012 A 
ATOM     76  C   UNL A   1      38.871  33.368  38.200  1.00  0.00     0.148 A 
ATOM     77  C   UNL A   1      39.745  36.035  38.143  1.00  0.00     0.002 A 
ATOM     78  C   UNL A   1      38.651  34.201  39.290  1.00  0.00     0.091 A 
ATOM     79  F   UNL A   1      38.487  32.084  38.202  1.00  0.00    -0.205 F 
ATOM     80  C   UNL A   1      39.106  35.528  39.273  1.00  0.00     0.022 A 
BRANCH  78  81
ATOM     81  S   UNL A   1      37.726  33.671  40.735  1.00  0.00     0.127 S 
ATOM     82  O   UNL A   1      36.535  33.081  40.129  1.00  0.00    -0.237 OA
ATOM     83  O   UNL A   1      38.649  32.713  41.344  1.00  0.00    -0.237 OA
ATOM     84  O   UNL A   1      37.500  34.874  41.525  1.00  0.00    -0.744 OA
ENDBRANCH  78  81
ENDBRANCH  50  74
BRANCH  62  85
ATOM     85  C   UNL A   1      44.216  28.983  35.447  1.00  0.00     0.023 A 
ATOM     86  C   UNL A   1      45.483  29.561  35.233  1.00  0.00     0.012 A 
ATOM     87  C   UNL A   1      44.081  27.946  36.392  1.00  0.00     0.148 A 
ATOM     88  C   UNL A   1      46.603  29.088  35.917  1.00  0.00     0.002 A 
ATOM     89  C   UNL A   1      45.189  27.519  37.112  1.00  0.00     0.091 A 
ATOM     90  F   UNL A   1      42.870  27.399  36.571  1.00  0.00    -0.205 F 
ATOM     91  C   UNL A   1      46.453  28.076  36.863  1.00  0.00     0.022 A 
BRANCH  89  92
ATOM     92  S   UNL A   1      45.076  26.295  38.421  1.00  0.00     0.127 S 
ATOM     93  O   UNL A   1      46.481  25.945  38.622  1.00  0.00    -0.237 OA
ATOM     94  O   UNL A   1      44.477  27.065  39.510  1.00  0.00    -0.237 OA
ATOM     95  O   UNL A   1      44.237  25.223  37.901  1.00  0.00    -0.744 OA
ENDBRANCH  89  92
ENDBRANCH  62  85
ENDBRANCH  36  37
ENDBRANCH  28  31
ENDBRANCH  26  27
ENDBRANCH  25  26
ENDBRANCH  24  25
ENDBRANCH   1  24
TORSDOF 20
ENDMDL
MODEL 2
REMARK VINA RESULT:     -11.6      1.596      2.293
REMARK SMILES N#Cc1cccc(CSc2ccnc(C(=O)NCCCCCCNC(=O)c3ccc(-c4c5nc(c(-c6cccc(S(=O)(=O)[O-])c6F)c6ccc([nH]6)c(-c6cccc(S(=O)(=O)[O-])c6F)c6nc(c(-c7cccc(S(=O)(=O)[O-])c7F)c7ccc4[nH]7)C=C6)C=C5)cc3)c2)c1
REMARK SMILES IDX 20 1 19 2 18 3 17 4 15 5 16 6 14 8 10 9 11 10 90 11 12 12
REMARK SMILES IDX 13 13 9 14 8 15 7 16 3 17 4 18 91 19 5 20 6 21 2 22 1 23
REMARK SMILES IDX 21 24 22 25 23 26 24 27 25 28 26 30 27 31 28 32 89 33 29 34
REMARK SMILES IDX 88 35 30 36 31 37 32 38 82 39 33 40 87 41 81 42 83 43 34 44
REMARK SMILES IDX 86 45 80 46 79 47 35 49 67 50 47 51 66 52 48 53 51 54 65 55
REMARK SMILES IDX 84 56 49 57 50 58 64 60 85 61 52 62 36 63 37 64 45 65 38 66
REMARK SMILES IDX 40 67 46 68 39 69 41 70 42 71 43 72 44 73 68 74 69 75 77 76
REMARK SMILES IDX 70 77 72 78 78 79 71 80 73 81 74 82 75 83 76 84 53 85 54 86
REMARK SMILES IDX 62 87 55 88 57 89 63 90 56 91 58 92 59 93 60 94 61 95
REMARK H PARENT 17 7 24 29 83 48 51 59
REMARK Flexibility Score: inf
ROOT
ATOM      1  C   UNL A   1      31.970  29.992  25.320  1.00  0.00     0.002 C 
ENDROOT
BRANCH   1   2
ATOM      2  C   UNL A   1      32.573  28.590  25.360  1.00  0.00     0.021 C 
BRANCH   2   3
ATOM      3  C   UNL A   1      31.935  27.659  26.382  1.00  0.00     0.116 C 
BRANCH   3   4
ATOM      4  N   UNL A   1      31.081  26.657  25.773  1.00  0.00    -0.351 N 
ATOM      5  C   UNL A   1      31.103  25.282  25.701  1.00  0.00     0.269 C 
ATOM      6  O   UNL A   1      30.205  24.771  25.025  1.00  0.00    -0.268 OA
ATOM      7  H   UNL A   1      30.311  27.051  25.303  1.00  0.00     0.163 HD
BRANCH   5   8
ATOM      8  C   UNL A   1      32.136  24.397  26.353  1.00  0.00     0.129 A 
ATOM      9  C   UNL A   1      34.325  23.459  26.620  1.00  0.00     0.011 A 
ATOM     10  C   UNL A   1      33.836  22.624  27.612  1.00  0.00     0.035 A 
ATOM     11  C   UNL A   1      33.486  24.412  26.052  1.00  0.00     0.049 A 
ATOM     12  C   UNL A   1      32.498  22.731  27.937  1.00  0.00     0.113 A 
ATOM     13  N   UNL A   1      31.641  23.562  27.309  1.00  0.00    -0.251 NA
BRANCH   9  14
ATOM     14  S   UNL A   1      36.010  23.361  26.048  1.00  0.00    -0.121 SA
BRANCH  14  15
ATOM     15  C   UNL A   1      35.859  21.967  24.852  1.00  0.00     0.110 C 
BRANCH  15  16
ATOM     16  C   UNL A   1      34.630  22.088  23.977  1.00  0.00    -0.036 A 
ATOM     17  C   UNL A   1      33.310  23.291  22.323  1.00  0.00     0.052 A 
ATOM     18  C   UNL A   1      32.268  22.372  22.486  1.00  0.00     0.019 A 
ATOM     19  C   UNL A   1      34.490  23.149  23.068  1.00  0.00     0.024 A 
ATOM     20  C   UNL A   1      32.417  21.292  23.352  1.00  0.00     0.002 A 
ATOM     21  C   UNL A   1      33.599  21.139  24.073  1.00  0.00     0.004 A 
BRANCH  17  22
ATOM     22  C   UNL A   1      33.156  24.378  21.403  1.00  0.00     0.099 C 
ATOM     23  N   UNL A   1      33.009  25.264  20.664  1.00  0.00    -0.192 NA
ENDBRANCH  17  22
ENDBRANCH  15  16
ENDBRANCH  14  15
ENDBRANCH   9  14
ENDBRANCH   5   8
ENDBRANCH   3   4
ENDBRANCH   2   3
ENDBRANCH   1   2
BRANCH   1  24
ATOM     24  C   UNL A   1      31.598  30.576  26.688  1.00  0.00     0.002 C 
BRANCH  24  25
ATOM     25  C   UNL A   1      31.548  32.106  26.751  1.00  0.00     0.021 C 
BRANCH  25  26
ATOM     26  C   UNL A   1      32.826  32.752  27.272  1.00  0.00     0.116 C 
BRANCH  26  27
ATOM     27  N   UNL A   1      32.613  34.148  27.618  1.00  0.00    -0.352 N 
ATOM     28  C   UNL A   1      33.138  34.873  28.657  1.00  0.00     0.251 C 
ATOM     29  H   UNL A   1      32.005  34.643  27.023  1.00  0.00     0.163 HD
ATOM     30  O   UNL A   1      32.649  35.958  28.957  1.00  0.00    -0.269 OA
BRANCH  28  31
ATOM     31  C   UNL A   1      34.288  34.336  29.411  1.00  0.00     0.039 A 
ATOM     32  C   UNL A   1      34.057  33.666  30.614  1.00  0.00     0.014 A 
ATOM     33  C   UNL A   1      35.591  34.503  28.934  1.00  0.00     0.014 A 
ATOM     34  C   UNL A   1      35.133  33.125  31.315  1.00  0.00     0.010 A 
ATOM     35  C   UNL A   1      36.651  33.883  29.587  1.00  0.00     0.010 A 
ATOM     36  C   UNL A   1      36.436  33.201  30.792  1.00  0.00    -0.014 A 
BRANCH  36  37
ATOM     37  C   UNL A   1      37.579  32.568  31.496  1.00  0.00     0.031 A 
ATOM     38  C   UNL A   1      38.319  31.421  30.865  1.00  0.00     0.074 A 
ATOM     39  C   UNL A   1      37.910  32.988  32.732  1.00  0.00     0.049 A 
ATOM     40  N   UNL A   1      39.321  30.729  31.340  1.00  0.00    -0.248 NA
ATOM     41  C   UNL A   1      37.861  30.975  29.538  1.00  0.00     0.031 C 
ATOM     42  C   UNL A   1      37.223  34.047  33.478  1.00  0.00     0.029 A 
ATOM     43  N   UNL A   1      38.895  32.566  33.589  1.00  0.00    -0.354 N 
ATOM     44  C   UNL A   1      39.593  29.751  30.391  1.00  0.00     0.074 A 
ATOM     45  C   UNL A   1      38.624  29.913  29.329  1.00  0.00     0.031 C 
ATOM     46  C   UNL A   1      37.818  34.200  34.671  1.00  0.00     0.029 A 
ATOM     47  C   UNL A   1      38.896  33.225  34.796  1.00  0.00     0.049 A 
ATOM     48  H   UNL A   1      39.541  31.858  33.360  1.00  0.00     0.167 HD
ATOM     49  C   UNL A   1      40.574  28.818  30.391  1.00  0.00     0.034 A 
ATOM     50  C   UNL A   1      39.664  33.051  35.888  1.00  0.00     0.034 A 
ATOM     51  C   UNL A   1      41.544  28.672  31.442  1.00  0.00     0.049 A 
ATOM     52  C   UNL A   1      40.746  32.008  35.861  1.00  0.00     0.074 A 
ATOM     53  C   UNL A   1      42.623  27.808  31.499  1.00  0.00     0.029 A 
ATOM     54  N   UNL A   1      41.541  29.387  32.629  1.00  0.00    -0.354 N 
ATOM     55  N   UNL A   1      41.076  31.186  34.895  1.00  0.00    -0.248 NA
ATOM     56  C   UNL A   1      41.584  31.890  37.063  1.00  0.00     0.031 C 
ATOM     57  C   UNL A   1      43.238  27.961  32.746  1.00  0.00     0.029 A 
ATOM     58  C   UNL A   1      42.584  28.968  33.436  1.00  0.00     0.049 A 
ATOM     59  H   UNL A   1      40.894  30.091  32.863  1.00  0.00     0.167 HD
ATOM     60  C   UNL A   1      42.184  30.483  35.355  1.00  0.00     0.074 A 
ATOM     61  C   UNL A   1      42.479  30.989  36.679  1.00  0.00     0.031 C 
ATOM     62  C   UNL A   1      42.890  29.503  34.739  1.00  0.00     0.034 A 
BRANCH  49  63
ATOM     63  C   UNL A   1      40.658  27.888  29.207  1.00  0.00     0.023 A 
ATOM     64  C   UNL A   1      39.818  26.757  29.135  1.00  0.00     0.012 A 
ATOM     65  C   UNL A   1      41.532  28.167  28.138  1.00  0.00     0.148 A 
ATOM     66  C   UNL A   1      39.878  25.895  28.040  1.00  0.00     0.002 A 
ATOM     67  C   UNL A   1      41.547  27.334  27.026  1.00  0.00     0.091 A 
ATOM     68  F   UNL A   1      42.335  29.235  28.231  1.00  0.00    -0.205 F 
ATOM     69  C   UNL A   1      40.733  26.191  26.982  1.00  0.00     0.022 A 
BRANCH  67  70
ATOM     70  S   UNL A   1      42.552  27.671  25.577  1.00  0.00     0.127 S 
ATOM     71  O   UNL A   1      43.892  27.741  26.158  1.00  0.00    -0.237 OA
ATOM     72  O   UNL A   1      42.305  26.487  24.753  1.00  0.00    -0.237 OA
ATOM     73  O   UNL A   1      42.052  28.919  25.019  1.00  0.00    -0.744 OA
ENDBRANCH  67  70
ENDBRANCH  49  63
BRANCH  50  74
ATOM     74  C   UNL A   1      39.455  33.906  37.091  1.00  0.00     0.023 A 
ATOM     75  C   UNL A   1      39.901  35.242  37.088  1.00  0.00     0.012 A 
ATOM     76  C   UNL A   1      38.807  33.401  38.234  1.00  0.00     0.148 A 
ATOM     77  C   UNL A   1      39.742  36.047  38.215  1.00  0.00     0.002 A 
ATOM     78  C   UNL A   1      38.596  34.225  39.331  1.00  0.00     0.091 A 
ATOM     79  F   UNL A   1      38.393  32.126  38.217  1.00  0.00    -0.205 F 
ATOM     80  C   UNL A   1      39.082  35.541  39.334  1.00  0.00     0.022 A 
BRANCH  78  81
ATOM     81  S   UNL A   1      37.648  33.700  40.763  1.00  0.00     0.127 S 
ATOM     82  O   UNL A   1      38.556  32.743  41.389  1.00  0.00    -0.237 OA
ATOM     83  O   UNL A   1      37.479  34.959  41.487  1.00  0.00    -0.237 OA
ATOM     84  O   UNL A   1      36.411  33.139  40.235  1.00  0.00    -0.744 OA
ENDBRANCH  78  81
ENDBRANCH  50  74
BRANCH  62  85
ATOM     85  C   UNL A   1      44.089  28.945  35.461  1.00  0.00     0.023 A 
ATOM     86  C   UNL A   1      45.363  29.521  35.283  1.00  0.00     0.012 A 
ATOM     87  C   UNL A   1      43.934  27.881  36.372  1.00  0.00     0.148 A 
ATOM     88  C   UNL A   1      46.469  29.018  35.967  1.00  0.00     0.002 A 
ATOM     89  C   UNL A   1      45.029  27.424  37.094  1.00  0.00     0.091 A 
ATOM     90  F   UNL A   1      42.717  27.337  36.518  1.00  0.00    -0.205 F 
ATOM     91  C   UNL A   1      46.300  27.979  36.880  1.00  0.00     0.022 A 
BRANCH  89  92
ATOM     92  S   UNL A   1      44.889  26.161  38.363  1.00  0.00     0.127 S 
ATOM     93  O   UNL A   1      46.293  25.850  38.628  1.00  0.00    -0.237 OA
ATOM     94  O   UNL A   1      44.210  26.883  39.439  1.00  0.00    -0.237 OA
ATOM     95  O   UNL A   1      44.114  25.079  37.774  1.00  0.00    -0.744 OA
ENDBRANCH  89  92
ENDBRANCH  62  85
ENDBRANCH  36  37
ENDBRANCH  28  31
ENDBRANCH  26  27
ENDBRANCH  25  26
ENDBRANCH  24  25
ENDBRANCH   1  24
TORSDOF 20
ENDMDL
MODEL 3
REMARK VINA RESULT:     -11.4      3.752      8.786
REMARK SMILES N#Cc1cccc(CSc2ccnc(C(=O)NCCCCCCNC(=O)c3ccc(-c4c5nc(c(-c6cccc(S(=O)(=O)[O-])c6F)c6ccc([nH]6)c(-c6cccc(S(=O)(=O)[O-])c6F)c6nc(c(-c7cccc(S(=O)(=O)[O-])c7F)c7ccc4[nH]7)C=C6)C=C5)cc3)c2)c1
REMARK SMILES IDX 20 1 19 2 18 3 17 4 15 5 16 6 14 8 10 9 11 10 90 11 12 12
REMARK SMILES IDX 13 13 9 14 8 15 7 16 3 17 4 18 91 19 5 20 6 21 2 22 1 23
REMARK SMILES IDX 21 24 22 25 23 26 24 27 25 28 26 30 27 31 28 32 89 33 29 34
REMARK SMILES IDX 88 35 30 36 31 37 32 38 82 39 33 40 87 41 81 42 83 43 34 44
REMARK SMILES IDX 86 45 80 46 79 47 35 49 67 50 47 51 66 52 48 53 51 54 65 55
REMARK SMILES IDX 84 56 49 57 50 58 64 60 85 61 52 62 36 63 37 64 45 65 38 66
REMARK SMILES IDX 40 67 46 68 39 69 41 70 42 71 43 72 44 73 68 74 69 75 77 76
REMARK SMILES IDX 70 77 72 78 78 79 71 80 73 81 74 82 75 83 76 84 53 85 54 86
REMARK SMILES IDX 62 87 55 88 57 89 63 90 56 91 58 92 59 93 60 94 61 95
REMARK H PARENT 17 7 24 29 83 48 51 59
REMARK Flexibility Score: inf
ROOT
ATOM      1  C   UNL A   1      31.689  29.394  24.485  1.00  0.00     0.002 C 
ENDROOT
BRANCH   1   2
ATOM      2  C   UNL A   1      31.804  28.895  23.046  1.00  0.00     0.021 C 
BRANCH   2   3
ATOM      3  C   UNL A   1      33.234  28.715  22.554  1.00  0.00     0.116 C 
BRANCH   3   4
ATOM      4  N   UNL A   1      33.386  27.565  21.684  1.00  0.00    -0.351 N 
ATOM      5  C   UNL A   1      33.126  26.218  21.807  1.00  0.00     0.269 C 
ATOM      6  O   UNL A   1      33.450  25.523  20.839  1.00  0.00    -0.268 OA
ATOM      7  H   UNL A   1      33.762  27.801  20.806  1.00  0.00     0.163 HD
BRANCH   5   8
ATOM      8  C   UNL A   1      32.514  25.561  23.020  1.00  0.00     0.129 A 
ATOM      9  C   UNL A   1      32.576  24.450  25.142  1.00  0.00     0.011 A 
ATOM     10  C   UNL A   1      31.199  24.296  25.090  1.00  0.00     0.035 A 
ATOM     11  C   UNL A   1      33.222  25.166  24.140  1.00  0.00     0.049 A 
ATOM     12  C   UNL A   1      30.538  24.804  23.990  1.00  0.00     0.113 A 
ATOM     13  N   UNL A   1      31.164  25.391  22.949  1.00  0.00    -0.251 NA
BRANCH   9  14
ATOM     14  S   UNL A   1      33.555  23.764  26.464  1.00  0.00    -0.121 SA
BRANCH  14  15
ATOM     15  C   UNL A   1      35.101  23.369  25.541  1.00  0.00     0.110 C 
BRANCH  15  16
ATOM     16  C   UNL A   1      35.225  21.895  25.227  1.00  0.00    -0.036 A 
ATOM     17  C   UNL A   1      34.225  19.696  24.920  1.00  0.00     0.052 A 
ATOM     18  C   UNL A   1      35.499  19.133  24.802  1.00  0.00     0.019 A 
ATOM     19  C   UNL A   1      34.088  21.076  25.132  1.00  0.00     0.024 A 
ATOM     20  C   UNL A   1      36.630  19.943  24.851  1.00  0.00     0.002 A 
ATOM     21  C   UNL A   1      36.491  21.317  25.037  1.00  0.00     0.004 A 
BRANCH  17  22
ATOM     22  C   UNL A   1      33.068  18.855  24.834  1.00  0.00     0.099 C 
ATOM     23  N   UNL A   1      32.134  18.164  24.787  1.00  0.00    -0.192 NA
ENDBRANCH  17  22
ENDBRANCH  15  16
ENDBRANCH  14  15
ENDBRANCH   9  14
ENDBRANCH   5   8
ENDBRANCH   3   4
ENDBRANCH   2   3
ENDBRANCH   1   2
BRANCH   1  24
ATOM     24  C   UNL A   1      31.492  28.296  25.537  1.00  0.00     0.002 C 
BRANCH  24  25
ATOM     25  C   UNL A   1      32.676  28.086  26.487  1.00  0.00     0.021 C 
BRANCH  25  26
ATOM     26  C   UNL A   1      33.894  28.943  26.167  1.00  0.00     0.116 C 
BRANCH  26  27
ATOM     27  N   UNL A   1      33.759  30.283  26.715  1.00  0.00    -0.352 N 
ATOM     28  C   UNL A   1      34.478  30.887  27.714  1.00  0.00     0.251 C 
ATOM     29  H   UNL A   1      33.050  30.836  26.312  1.00  0.00     0.163 HD
ATOM     30  O   UNL A   1      34.061  31.919  28.232  1.00  0.00    -0.269 OA
BRANCH  28  31
ATOM     31  C   UNL A   1      35.749  30.285  28.163  1.00  0.00     0.039 A 
ATOM     32  C   UNL A   1      36.886  30.429  27.367  1.00  0.00     0.014 A 
ATOM     33  C   UNL A   1      35.812  29.570  29.363  1.00  0.00     0.014 A 
ATOM     34  C   UNL A   1      38.099  29.894  27.799  1.00  0.00     0.010 A 
ATOM     35  C   UNL A   1      37.039  29.118  29.835  1.00  0.00     0.010 A 
ATOM     36  C   UNL A   1      38.193  29.262  29.051  1.00  0.00    -0.014 A 
BRANCH  36  37
ATOM     37  C   UNL A   1      39.492  28.750  29.552  1.00  0.00     0.031 A 
ATOM     38  C   UNL A   1      40.202  29.449  30.679  1.00  0.00     0.074 A 
ATOM     39  C   UNL A   1      40.063  27.689  28.948  1.00  0.00     0.049 A 
ATOM     40  N   UNL A   1      41.353  29.164  31.229  1.00  0.00    -0.248 NA
ATOM     41  C   UNL A   1      39.547  30.639  31.249  1.00  0.00     0.031 C 
ATOM     42  C   UNL A   1      39.506  26.968  27.801  1.00  0.00     0.029 A 
ATOM     43  N   UNL A   1      41.247  27.043  29.202  1.00  0.00    -0.354 N 
ATOM     44  C   UNL A   1      41.575  30.149  32.183  1.00  0.00     0.074 A 
ATOM     45  C   UNL A   1      40.459  31.065  32.110  1.00  0.00     0.031 C 
ATOM     46  C   UNL A   1      40.338  25.972  27.462  1.00  0.00     0.029 A 
ATOM     47  C   UNL A   1      41.507  26.009  28.333  1.00  0.00     0.049 A 
ATOM     48  H   UNL A   1      41.852  27.296  29.936  1.00  0.00     0.167 HD
ATOM     49  C   UNL A   1      42.603  30.269  33.056  1.00  0.00     0.034 A 
ATOM     50  C   UNL A   1      42.576  25.195  28.236  1.00  0.00     0.034 A 
ATOM     51  C   UNL A   1      43.703  29.347  33.133  1.00  0.00     0.049 A 
ATOM     52  C   UNL A   1      43.703  25.349  29.219  1.00  0.00     0.074 A 
ATOM     53  C   UNL A   1      44.754  29.339  34.033  1.00  0.00     0.029 A 
ATOM     54  N   UNL A   1      43.910  28.285  32.267  1.00  0.00    -0.354 N 
ATOM     55  N   UNL A   1      43.827  26.204  30.205  1.00  0.00    -0.248 NA
ATOM     56  C   UNL A   1      44.824  24.406  29.096  1.00  0.00     0.031 C 
ATOM     57  C   UNL A   1      45.627  28.306  33.675  1.00  0.00     0.029 A 
ATOM     58  C   UNL A   1      45.084  27.629  32.594  1.00  0.00     0.049 A 
ATOM     59  H   UNL A   1      43.310  28.033  31.528  1.00  0.00     0.167 HD
ATOM     60  C   UNL A   1      45.017  25.876  30.846  1.00  0.00     0.074 A 
ATOM     61  C   UNL A   1      45.566  24.734  30.145  1.00  0.00     0.031 C 
ATOM     62  C   UNL A   1      45.604  26.471  31.913  1.00  0.00     0.034 A 
BRANCH  49  63
ATOM     63  C   UNL A   1      42.580  31.435  34.011  1.00  0.00     0.023 A 
ATOM     64  C   UNL A   1      43.287  32.616  33.704  1.00  0.00     0.012 A 
ATOM     65  C   UNL A   1      41.810  31.379  35.190  1.00  0.00     0.148 A 
ATOM     66  C   UNL A   1      43.264  33.706  34.574  1.00  0.00     0.002 A 
ATOM     67  C   UNL A   1      41.749  32.487  36.025  1.00  0.00     0.091 A 
ATOM     68  F   UNL A   1      41.160  30.243  35.475  1.00  0.00    -0.205 F 
ATOM     69  C   UNL A   1      42.486  33.645  35.727  1.00  0.00     0.022 A 
BRANCH  67  70
ATOM     70  S   UNL A   1      40.713  32.540  37.490  1.00  0.00     0.127 S 
ATOM     71  O   UNL A   1      39.598  31.681  37.093  1.00  0.00    -0.237 OA
ATOM     72  O   UNL A   1      41.594  31.964  38.507  1.00  0.00    -0.237 OA
ATOM     73  O   UNL A   1      40.375  33.940  37.697  1.00  0.00    -0.744 OA
ENDBRANCH  67  70
ENDBRANCH  49  63
BRANCH  50  74
ATOM     74  C   UNL A   1      42.616  24.140  27.185  1.00  0.00     0.023 A 
ATOM     75  C   UNL A   1      43.360  24.352  26.007  1.00  0.00     0.012 A 
ATOM     76  C   UNL A   1      41.928  22.924  27.353  1.00  0.00     0.148 A 
ATOM     77  C   UNL A   1      43.384  23.388  25.000  1.00  0.00     0.002 A 
ATOM     78  C   UNL A   1      42.005  21.943  26.373  1.00  0.00     0.091 A 
ATOM     79  F   UNL A   1      41.224  22.744  28.480  1.00  0.00    -0.205 F 
ATOM     80  C   UNL A   1      42.714  22.181  25.186  1.00  0.00     0.022 A 
BRANCH  78  81
ATOM     81  S   UNL A   1      41.281  20.313  26.582  1.00  0.00     0.127 S 
ATOM     82  O   UNL A   1      39.867  20.579  26.327  1.00  0.00    -0.237 OA
ATOM     83  O   UNL A   1      41.964  19.547  25.539  1.00  0.00    -0.237 OA
ATOM     84  O   UNL A   1      41.608  19.904  27.942  1.00  0.00    -0.744 OA
ENDBRANCH  78  81
ENDBRANCH  50  74
BRANCH  62  85
ATOM     85  C   UNL A   1      46.883  25.867  32.434  1.00  0.00     0.023 A 
ATOM     86  C   UNL A   1      46.864  24.994  33.539  1.00  0.00     0.012 A 
ATOM     87  C   UNL A   1      48.104  26.124  31.777  1.00  0.00     0.148 A 
ATOM     88  C   UNL A   1      48.045  24.419  34.008  1.00  0.00     0.002 A 
ATOM     89  C   UNL A   1      49.266  25.502  32.213  1.00  0.00     0.091 A 
ATOM     90  F   UNL A   1      48.104  26.969  30.736  1.00  0.00    -0.205 F 
ATOM     91  C   UNL A   1      49.242  24.663  33.338  1.00  0.00     0.022 A 
BRANCH  89  92
ATOM     92  S   UNL A   1      50.834  25.676  31.354  1.00  0.00     0.127 S 
ATOM     93  O   UNL A   1      51.035  27.123  31.395  1.00  0.00    -0.237 OA
ATOM     94  O   UNL A   1      51.739  24.909  32.210  1.00  0.00    -0.237 OA
ATOM     95  O   UNL A   1      50.633  25.114  30.026  1.00  0.00    -0.744 OA
ENDBRANCH  89  92
ENDBRANCH  62  85
ENDBRANCH  36  37
ENDBRANCH  28  31
ENDBRANCH  26  27
ENDBRANCH  25  26
ENDBRANCH  24  25
ENDBRANCH   1  24
TORSDOF 20
ENDMDL
