MODEL 1
REMARK VINA RESULT:     -11.3      0.000      0.000
REMARK SMILES C[C@]1(C(=O)NCCCCCCNC(=O)c2ccc(-c3c4nc(c(-c5cccc(S(=O)(=O)[O-])c5F)c5ccc([nH]5)c(-c5cccc(S(=O)(=O)[O-])c5F)c5nc(c(-c6cccc(S(=O)(=O)[O-])c6F)c6ccc3[nH]6)C=C5)C=C4)cc2)COC[C@@H]1NC(=O)[C@H]1C=C[C@@H]([NH3+])C1
REMARK SMILES IDX 8 1 7 2 6 3 5 4 3 5 4 6 2 8 1 9 78 10 81 11 79 12 80 13
REMARK SMILES IDX 82 14 83 15 84 17 85 18 86 19 90 20 87 21 88 22 89 23 9 27
REMARK SMILES IDX 10 28 11 29 12 30 13 31 14 33 15 34 16 35 77 36 17 37 76 38
REMARK SMILES IDX 18 39 19 40 20 41 70 42 21 43 75 44 69 45 71 46 22 47 74 48
REMARK SMILES IDX 68 49 67 50 23 52 55 53 35 54 54 55 36 56 39 57 53 58 72 59
REMARK SMILES IDX 37 60 38 61 52 63 73 64 40 65 24 66 25 67 33 68 26 69 28 70
REMARK SMILES IDX 34 71 27 72 29 73 30 74 31 75 32 76 56 77 57 78 65 79 58 80
REMARK SMILES IDX 60 81 66 82 59 83 61 84 62 85 63 86 64 87 41 88 42 89 50 90
REMARK SMILES IDX 43 91 45 92 51 93 44 94 46 95 47 96 48 97 49 98
REMARK H PARENT 5 7 82 16 89 24 89 25 89 26 12 32 71 51 39 62
REMARK Flexibility Score: inf
ROOT
ATOM      1  C   UNL A   1      31.865  26.927  26.071  1.00  0.00     0.002 C 
ENDROOT
BRANCH   1   2
ATOM      2  C   UNL A   1      31.144  25.580  26.204  1.00  0.00     0.021 C 
BRANCH   2   3
ATOM      3  C   UNL A   1      32.097  24.384  26.220  1.00  0.00     0.116 C 
BRANCH   3   4
ATOM      4  N   UNL A   1      33.421  24.797  25.805  1.00  0.00    -0.355 N 
ATOM      5  C   UNL A   1      34.309  24.222  24.952  1.00  0.00     0.230 C 
ATOM      6  O   UNL A   1      35.438  24.721  24.932  1.00  0.00    -0.274 OA
ATOM      7  H   UNL A   1      33.732  25.639  26.209  1.00  0.00     0.163 HD
BRANCH   5   8
ATOM      8  C   UNL A   1      33.910  23.085  24.003  1.00  0.00     0.092 C 
ATOM      9  C   UNL A   1      35.027  22.584  23.069  1.00  0.00     0.026 C 
ATOM     10  C   UNL A   1      33.321  21.943  24.830  1.00  0.00     0.179 C 
ATOM     11  C   UNL A   1      32.663  23.501  23.189  1.00  0.00     0.125 C 
ATOM     12  O   UNL A   1      32.363  21.269  24.006  1.00  0.00    -0.378 OA
ATOM     13  C   UNL A   1      31.909  22.183  23.002  1.00  0.00     0.186 C 
BRANCH  11  14
ATOM     14  N   UNL A   1      32.952  24.171  21.920  1.00  0.00    -0.349 N 
ATOM     15  C   UNL A   1      32.882  25.493  21.598  1.00  0.00     0.227 C 
ATOM     16  H   UNL A   1      33.243  23.578  21.189  1.00  0.00     0.163 HD
ATOM     17  O   UNL A   1      33.148  25.813  20.438  1.00  0.00    -0.274 OA
BRANCH  15  18
ATOM     18  C   UNL A   1      32.521  26.507  22.679  1.00  0.00     0.107 C 
ATOM     19  C   UNL A   1      33.604  27.544  22.777  1.00  0.00    -0.012 C 
ATOM     20  C   UNL A   1      31.294  27.344  22.293  1.00  0.00     0.087 C 
ATOM     21  C   UNL A   1      33.102  28.784  22.798  1.00  0.00     0.033 C 
ATOM     22  C   UNL A   1      31.611  28.773  22.749  1.00  0.00     0.205 C 
BRANCH  22  23
ATOM     23  N   UNL A   1      31.072  29.760  21.832  1.00  0.00    -0.352 N 
ATOM     24  H   UNL A   1      30.087  29.559  21.658  1.00  0.00     0.345 HD
ATOM     25  H   UNL A   1      31.587  29.725  20.953  1.00  0.00     0.345 HD
ATOM     26  H   UNL A   1      31.162  30.690  22.242  1.00  0.00     0.345 HD
ENDBRANCH  22  23
ENDBRANCH  15  18
ENDBRANCH  11  14
ENDBRANCH   5   8
ENDBRANCH   3   4
ENDBRANCH   2   3
ENDBRANCH   1   2
BRANCH   1  27
ATOM     27  C   UNL A   1      31.660  27.882  27.252  1.00  0.00     0.002 C 
BRANCH  27  28
ATOM     28  C   UNL A   1      31.419  29.342  26.861  1.00  0.00     0.021 C 
BRANCH  28  29
ATOM     29  C   UNL A   1      32.645  30.047  26.293  1.00  0.00     0.116 C 
BRANCH  29  30
ATOM     30  N   UNL A   1      32.573  31.487  26.493  1.00  0.00    -0.352 N 
ATOM     31  C   UNL A   1      33.325  32.278  27.320  1.00  0.00     0.251 C 
ATOM     32  H   UNL A   1      31.890  31.955  25.961  1.00  0.00     0.163 HD
ATOM     33  O   UNL A   1      32.974  33.435  27.553  1.00  0.00    -0.269 OA
BRANCH  31  34
ATOM     34  C   UNL A   1      34.551  31.734  27.939  1.00  0.00     0.039 A 
ATOM     35  C   UNL A   1      35.663  32.565  28.092  1.00  0.00     0.014 A 
ATOM     36  C   UNL A   1      34.603  30.403  28.363  1.00  0.00     0.014 A 
ATOM     37  C   UNL A   1      36.811  32.072  28.714  1.00  0.00     0.010 A 
ATOM     38  C   UNL A   1      35.718  29.938  29.052  1.00  0.00     0.010 A 
ATOM     39  C   UNL A   1      36.839  30.763  29.224  1.00  0.00    -0.014 A 
BRANCH  39  40
ATOM     40  C   UNL A   1      38.030  30.241  29.941  1.00  0.00     0.031 A 
ATOM     41  C   UNL A   1      38.358  30.736  31.325  1.00  0.00     0.074 A 
ATOM     42  C   UNL A   1      38.857  29.377  29.319  1.00  0.00     0.049 A 
ATOM     43  N   UNL A   1      39.383  30.444  32.083  1.00  0.00    -0.248 NA
ATOM     44  C   UNL A   1      37.427  31.707  31.927  1.00  0.00     0.031 C 
ATOM     45  C   UNL A   1      38.688  28.878  27.951  1.00  0.00     0.029 A 
ATOM     46  N   UNL A   1      40.021  28.786  29.743  1.00  0.00    -0.354 N 
ATOM     47  C   UNL A   1      39.237  31.212  33.233  1.00  0.00     0.074 A 
ATOM     48  C   UNL A   1      38.047  32.012  33.058  1.00  0.00     0.031 C 
ATOM     49  C   UNL A   1      39.707  28.057  27.653  1.00  0.00     0.029 A 
ATOM     50  C   UNL A   1      40.620  27.996  28.789  1.00  0.00     0.049 A 
ATOM     51  H   UNL A   1      40.394  28.916  30.645  1.00  0.00     0.167 HD
ATOM     52  C   UNL A   1      40.007  31.226  34.346  1.00  0.00     0.034 A 
ATOM     53  C   UNL A   1      41.779  27.309  28.823  1.00  0.00     0.034 A 
ATOM     54  C   UNL A   1      41.170  30.401  34.532  1.00  0.00     0.049 A 
ATOM     55  C   UNL A   1      42.602  27.328  30.083  1.00  0.00     0.074 A 
ATOM     56  C   UNL A   1      41.974  30.289  35.653  1.00  0.00     0.029 A 
ATOM     57  N   UNL A   1      41.699  29.551  33.574  1.00  0.00    -0.354 N 
ATOM     58  N   UNL A   1      42.366  27.945  31.215  1.00  0.00    -0.248 NA
ATOM     59  C   UNL A   1      43.834  26.524  30.084  1.00  0.00     0.031 C 
ATOM     60  C   UNL A   1      43.005  29.391  35.362  1.00  0.00     0.029 A 
ATOM     61  C   UNL A   1      42.823  28.917  34.074  1.00  0.00     0.049 A 
ATOM     62  H   UNL A   1      41.330  29.418  32.671  1.00  0.00     0.167 HD
ATOM     63  C   UNL A   1      43.394  27.573  32.073  1.00  0.00     0.074 A 
ATOM     64  C   UNL A   1      44.241  26.658  31.338  1.00  0.00     0.031 C 
ATOM     65  C   UNL A   1      43.624  27.964  33.351  1.00  0.00     0.034 A 
BRANCH  52  66
ATOM     66  C   UNL A   1      39.590  32.127  35.480  1.00  0.00     0.023 A 
ATOM     67  C   UNL A   1      38.785  31.611  36.516  1.00  0.00     0.012 A 
ATOM     68  C   UNL A   1      40.057  33.453  35.563  1.00  0.00     0.148 A 
ATOM     69  C   UNL A   1      38.427  32.408  37.602  1.00  0.00     0.002 A 
ATOM     70  C   UNL A   1      39.734  34.228  36.671  1.00  0.00     0.091 A 
ATOM     71  F   UNL A   1      40.806  33.931  34.559  1.00  0.00    -0.205 F 
ATOM     72  C   UNL A   1      38.911  33.711  37.685  1.00  0.00     0.022 A 
BRANCH  70  73
ATOM     73  S   UNL A   1      40.371  35.889  36.916  1.00  0.00     0.127 S 
ATOM     74  O   UNL A   1      39.905  36.186  38.270  1.00  0.00    -0.237 OA
ATOM     75  O   UNL A   1      41.815  35.683  36.800  1.00  0.00    -0.237 OA
ATOM     76  O   UNL A   1      39.784  36.707  35.864  1.00  0.00    -0.744 OA
ENDBRANCH  70  73
ENDBRANCH  52  66
BRANCH  53  77
ATOM     77  C   UNL A   1      42.213  26.506  27.644  1.00  0.00     0.023 A 
ATOM     78  C   UNL A   1      42.934  27.128  26.606  1.00  0.00     0.012 A 
ATOM     79  C   UNL A   1      41.912  25.133  27.543  1.00  0.00     0.148 A 
ATOM     80  C   UNL A   1      43.306  26.410  25.468  1.00  0.00     0.002 A 
ATOM     81  C   UNL A   1      42.338  24.410  26.435  1.00  0.00     0.091 A 
ATOM     82  F   UNL A   1      41.216  24.560  28.535  1.00  0.00    -0.205 F 
ATOM     83  C   UNL A   1      43.016  25.051  25.386  1.00  0.00     0.022 A 
BRANCH  81  84
ATOM     84  S   UNL A   1      42.123  22.632  26.309  1.00  0.00     0.127 S 
ATOM     85  O   UNL A   1      42.736  22.167  27.549  1.00  0.00    -0.237 OA
ATOM     86  O   UNL A   1      40.665  22.506  26.257  1.00  0.00    -0.237 OA
ATOM     87  O   UNL A   1      42.800  22.242  25.079  1.00  0.00    -0.744 OA
ENDBRANCH  81  84
ENDBRANCH  53  77
BRANCH  65  88
ATOM     88  C   UNL A   1      44.810  27.368  34.062  1.00  0.00     0.023 A 
ATOM     89  C   UNL A   1      46.070  27.993  33.978  1.00  0.00     0.012 A 
ATOM     90  C   UNL A   1      44.656  26.227  34.875  1.00  0.00     0.148 A 
ATOM     91  C   UNL A   1      47.168  27.469  34.662  1.00  0.00     0.002 A 
ATOM     92  C   UNL A   1      45.741  25.743  35.595  1.00  0.00     0.091 A 
ATOM     93  F   UNL A   1      43.453  25.637  34.928  1.00  0.00    -0.205 F 
ATOM     94  C   UNL A   1      47.001  26.354  35.479  1.00  0.00     0.022 A 
BRANCH  92  95
ATOM     95  S   UNL A   1      45.598  24.373  36.748  1.00  0.00     0.127 S 
ATOM     96  O   UNL A   1      44.616  24.887  37.701  1.00  0.00    -0.237 OA
ATOM     97  O   UNL A   1      45.107  23.296  35.887  1.00  0.00    -0.237 OA
ATOM     98  O   UNL A   1      46.934  24.156  37.285  1.00  0.00    -0.744 OA
ENDBRANCH  92  95
ENDBRANCH  65  88
ENDBRANCH  39  40
ENDBRANCH  31  34
ENDBRANCH  29  30
ENDBRANCH  28  29
ENDBRANCH  27  28
ENDBRANCH   1  27
TORSDOF 19
ENDMDL
MODEL 2
REMARK VINA RESULT:     -10.9      2.604      8.383
REMARK SMILES C[C@]1(C(=O)NCCCCCCNC(=O)c2ccc(-c3c4nc(c(-c5cccc(S(=O)(=O)[O-])c5F)c5ccc([nH]5)c(-c5cccc(S(=O)(=O)[O-])c5F)c5nc(c(-c6cccc(S(=O)(=O)[O-])c6F)c6ccc3[nH]6)C=C5)C=C4)cc2)COC[C@@H]1NC(=O)[C@H]1C=C[C@@H]([NH3+])C1
REMARK SMILES IDX 8 1 7 2 6 3 5 4 3 5 4 6 2 8 1 9 78 10 81 11 79 12 80 13
REMARK SMILES IDX 82 14 83 15 84 17 85 18 86 19 90 20 87 21 88 22 89 23 9 27
REMARK SMILES IDX 10 28 11 29 12 30 13 31 14 33 15 34 16 35 77 36 17 37 76 38
REMARK SMILES IDX 18 39 19 40 20 41 70 42 21 43 75 44 69 45 71 46 22 47 74 48
REMARK SMILES IDX 68 49 67 50 23 52 55 53 35 54 54 55 36 56 39 57 53 58 72 59
REMARK SMILES IDX 37 60 38 61 52 63 73 64 40 65 24 66 25 67 33 68 26 69 28 70
REMARK SMILES IDX 34 71 27 72 29 73 30 74 31 75 32 76 56 77 57 78 65 79 58 80
REMARK SMILES IDX 60 81 66 82 59 83 61 84 62 85 63 86 64 87 41 88 42 89 50 90
REMARK SMILES IDX 43 91 45 92 51 93 44 94 46 95 47 96 48 97 49 98
REMARK H PARENT 5 7 82 16 89 24 89 25 89 26 12 32 71 51 39 62
REMARK Flexibility Score: inf
ROOT
ATOM      1  C   UNL A   1      35.040  29.852  27.637  1.00  0.00     0.002 C 
ENDROOT
BRANCH   1   2
ATOM      2  C   UNL A   1      33.849  28.991  27.195  1.00  0.00     0.021 C 
BRANCH   2   3
ATOM      3  C   UNL A   1      33.751  28.830  25.677  1.00  0.00     0.116 C 
BRANCH   3   4
ATOM      4  N   UNL A   1      34.055  27.466  25.300  1.00  0.00    -0.355 N 
ATOM      5  C   UNL A   1      33.245  26.398  25.080  1.00  0.00     0.230 C 
ATOM      6  O   UNL A   1      33.811  25.310  24.942  1.00  0.00    -0.274 OA
ATOM      7  H   UNL A   1      35.015  27.279  25.183  1.00  0.00     0.163 HD
BRANCH   5   8
ATOM      8  C   UNL A   1      31.727  26.546  24.918  1.00  0.00     0.092 C 
ATOM      9  C   UNL A   1      31.008  27.269  26.073  1.00  0.00     0.026 C 
ATOM     10  C   UNL A   1      31.443  27.221  23.577  1.00  0.00     0.179 C 
ATOM     11  C   UNL A   1      31.093  25.159  24.663  1.00  0.00     0.125 C 
ATOM     12  O   UNL A   1      30.173  26.742  23.118  1.00  0.00    -0.378 OA
ATOM     13  C   UNL A   1      29.921  25.473  23.732  1.00  0.00     0.186 C 
BRANCH  11  14
ATOM     14  N   UNL A   1      30.679  24.442  25.871  1.00  0.00    -0.349 N 
ATOM     15  C   UNL A   1      31.133  23.263  26.381  1.00  0.00     0.227 C 
ATOM     16  H   UNL A   1      29.966  24.877  26.394  1.00  0.00     0.163 HD
ATOM     17  O   UNL A   1      30.597  22.842  27.408  1.00  0.00    -0.274 OA
BRANCH  15  18
ATOM     18  C   UNL A   1      32.292  22.549  25.694  1.00  0.00     0.107 C 
ATOM     19  C   UNL A   1      33.433  22.397  26.660  1.00  0.00    -0.012 C 
ATOM     20  C   UNL A   1      31.948  21.091  25.357  1.00  0.00     0.087 C 
ATOM     21  C   UNL A   1      33.924  21.152  26.657  1.00  0.00     0.033 C 
ATOM     22  C   UNL A   1      33.214  20.286  25.672  1.00  0.00     0.205 C 
BRANCH  22  23
ATOM     23  N   UNL A   1      32.896  18.974  26.203  1.00  0.00    -0.352 N 
ATOM     24  H   UNL A   1      33.616  18.309  25.920  1.00  0.00     0.345 HD
ATOM     25  H   UNL A   1      31.992  18.671  25.842  1.00  0.00     0.345 HD
ATOM     26  H   UNL A   1      32.858  19.020  27.222  1.00  0.00     0.345 HD
ENDBRANCH  22  23
ENDBRANCH  15  18
ENDBRANCH  11  14
ENDBRANCH   5   8
ENDBRANCH   3   4
ENDBRANCH   2   3
ENDBRANCH   1   2
BRANCH   1  27
ATOM     27  C   UNL A   1      34.659  31.211  28.233  1.00  0.00     0.002 C 
BRANCH  27  28
ATOM     28  C   UNL A   1      33.917  32.146  27.274  1.00  0.00     0.021 C 
BRANCH  28  29
ATOM     29  C   UNL A   1      32.621  32.717  27.836  1.00  0.00     0.116 C 
BRANCH  29  30
ATOM     30  N   UNL A   1      32.649  34.172  27.871  1.00  0.00    -0.352 N 
ATOM     31  C   UNL A   1      33.402  34.998  28.663  1.00  0.00     0.251 C 
ATOM     32  H   UNL A   1      32.046  34.623  27.239  1.00  0.00     0.163 HD
ATOM     33  O   UNL A   1      33.129  36.196  28.739  1.00  0.00    -0.269 OA
BRANCH  31  34
ATOM     34  C   UNL A   1      34.535  34.443  29.432  1.00  0.00     0.039 A 
ATOM     35  C   UNL A   1      34.283  33.793  30.643  1.00  0.00     0.014 A 
ATOM     36  C   UNL A   1      35.845  34.570  28.959  1.00  0.00     0.014 A 
ATOM     37  C   UNL A   1      35.342  33.228  31.355  1.00  0.00     0.010 A 
ATOM     38  C   UNL A   1      36.887  33.939  29.630  1.00  0.00     0.010 A 
ATOM     39  C   UNL A   1      36.650  33.272  30.841  1.00  0.00    -0.014 A 
BRANCH  39  40
ATOM     40  C   UNL A   1      37.780  32.626  31.556  1.00  0.00     0.031 A 
ATOM     41  C   UNL A   1      38.494  31.453  30.938  1.00  0.00     0.074 A 
ATOM     42  C   UNL A   1      38.115  33.046  32.792  1.00  0.00     0.049 A 
ATOM     43  N   UNL A   1      39.461  30.724  31.432  1.00  0.00    -0.248 NA
ATOM     44  C   UNL A   1      38.049  31.027  29.599  1.00  0.00     0.031 C 
ATOM     45  C   UNL A   1      37.451  34.124  33.529  1.00  0.00     0.029 A 
ATOM     46  N   UNL A   1      39.080  32.599  33.660  1.00  0.00    -0.354 N 
ATOM     47  C   UNL A   1      39.718  29.739  30.484  1.00  0.00     0.074 A 
ATOM     48  C   UNL A   1      38.781  29.940  29.402  1.00  0.00     0.031 C 
ATOM     49  C   UNL A   1      38.029  34.257  34.733  1.00  0.00     0.029 A 
ATOM     50  C   UNL A   1      39.080  33.254  34.871  1.00  0.00     0.049 A 
ATOM     51  H   UNL A   1      39.712  31.878  33.439  1.00  0.00     0.167 HD
ATOM     52  C   UNL A   1      40.668  28.775  30.499  1.00  0.00     0.034 A 
ATOM     53  C   UNL A   1      39.833  33.060  35.971  1.00  0.00     0.034 A 
ATOM     54  C   UNL A   1      41.623  28.602  31.561  1.00  0.00     0.049 A 
ATOM     55  C   UNL A   1      40.896  31.994  35.949  1.00  0.00     0.074 A 
ATOM     56  C   UNL A   1      42.672  27.702  31.634  1.00  0.00     0.029 A 
ATOM     57  N   UNL A   1      41.644  29.337  32.735  1.00  0.00    -0.354 N 
ATOM     58  N   UNL A   1      41.221  31.171  34.981  1.00  0.00    -0.248 NA
ATOM     59  C   UNL A   1      41.722  31.854  37.157  1.00  0.00     0.031 C 
ATOM     60  C   UNL A   1      43.310  27.875  32.866  1.00  0.00     0.029 A 
ATOM     61  C   UNL A   1      42.682  28.907  33.543  1.00  0.00     0.049 A 
ATOM     62  H   UNL A   1      41.014  30.059  32.961  1.00  0.00     0.167 HD
ATOM     63  C   UNL A   1      42.312  30.447  35.447  1.00  0.00     0.074 A 
ATOM     64  C   UNL A   1      42.607  30.945  36.774  1.00  0.00     0.031 C 
ATOM     65  C   UNL A   1      43.000  29.451  34.837  1.00  0.00     0.034 A 
BRANCH  52  66
ATOM     66  C   UNL A   1      40.763  27.860  29.306  1.00  0.00     0.023 A 
ATOM     67  C   UNL A   1      39.920  26.733  29.226  1.00  0.00     0.012 A 
ATOM     68  C   UNL A   1      41.625  28.156  28.232  1.00  0.00     0.148 A 
ATOM     69  C   UNL A   1      39.953  25.899  28.110  1.00  0.00     0.002 A 
ATOM     70  C   UNL A   1      41.619  27.345  27.102  1.00  0.00     0.091 A 
ATOM     71  F   UNL A   1      42.432  29.222  28.334  1.00  0.00    -0.205 F 
ATOM     72  C   UNL A   1      40.792  26.212  27.044  1.00  0.00     0.022 A 
BRANCH  70  73
ATOM     73  S   UNL A   1      42.601  27.704  25.642  1.00  0.00     0.127 S 
ATOM     74  O   UNL A   1      43.950  27.773  26.204  1.00  0.00    -0.237 OA
ATOM     75  O   UNL A   1      42.348  26.530  24.807  1.00  0.00    -0.237 OA
ATOM     76  O   UNL A   1      42.087  28.957  25.106  1.00  0.00    -0.744 OA
ENDBRANCH  70  73
ENDBRANCH  52  66
BRANCH  53  77
ATOM     77  C   UNL A   1      39.646  33.920  37.174  1.00  0.00     0.023 A 
ATOM     78  C   UNL A   1      40.167  35.229  37.181  1.00  0.00     0.012 A 
ATOM     79  C   UNL A   1      38.960  33.450  38.311  1.00  0.00     0.148 A 
ATOM     80  C   UNL A   1      40.050  36.036  38.314  1.00  0.00     0.002 A 
ATOM     81  C   UNL A   1      38.794  34.279  39.413  1.00  0.00     0.091 A 
ATOM     82  F   UNL A   1      38.479  32.198  38.290  1.00  0.00    -0.205 F 
ATOM     83  C   UNL A   1      39.357  35.565  39.426  1.00  0.00     0.022 A 
BRANCH  81  84
ATOM     84  S   UNL A   1      37.804  33.802  40.833  1.00  0.00     0.127 S 
ATOM     85  O   UNL A   1      36.647  33.180  40.197  1.00  0.00    -0.237 OA
ATOM     86  O   UNL A   1      38.699  32.875  41.528  1.00  0.00    -0.237 OA
ATOM     87  O   UNL A   1      37.543  35.038  41.561  1.00  0.00    -0.744 OA
ENDBRANCH  81  84
ENDBRANCH  53  77
BRANCH  65  88
ATOM     88  C   UNL A   1      44.175  28.860  35.572  1.00  0.00     0.023 A 
ATOM     89  C   UNL A   1      45.463  29.404  35.396  1.00  0.00     0.012 A 
ATOM     90  C   UNL A   1      43.986  27.810  36.493  1.00  0.00     0.148 A 
ATOM     91  C   UNL A   1      46.552  28.886  36.099  1.00  0.00     0.002 A 
ATOM     92  C   UNL A   1      45.066  27.337  37.228  1.00  0.00     0.091 A 
ATOM     93  F   UNL A   1      42.756  27.296  36.633  1.00  0.00    -0.205 F 
ATOM     94  C   UNL A   1      46.352  27.863  37.022  1.00  0.00     0.022 A 
BRANCH  92  95
ATOM     95  S   UNL A   1      44.886  26.091  38.510  1.00  0.00     0.127 S 
ATOM     96  O   UNL A   1      44.412  24.940  37.743  1.00  0.00    -0.237 OA
ATOM     97  O   UNL A   1      46.255  25.966  39.013  1.00  0.00    -0.237 OA
ATOM     98  O   UNL A   1      43.936  26.634  39.470  1.00  0.00    -0.744 OA
ENDBRANCH  92  95
ENDBRANCH  65  88
ENDBRANCH  39  40
ENDBRANCH  31  34
ENDBRANCH  29  30
ENDBRANCH  28  29
ENDBRANCH  27  28
ENDBRANCH   1  27
TORSDOF 19
ENDMDL
MODEL 3
REMARK VINA RESULT:     -10.8      1.922      3.543
REMARK SMILES C[C@]1(C(=O)NCCCCCCNC(=O)c2ccc(-c3c4nc(c(-c5cccc(S(=O)(=O)[O-])c5F)c5ccc([nH]5)c(-c5cccc(S(=O)(=O)[O-])c5F)c5nc(c(-c6cccc(S(=O)(=O)[O-])c6F)c6ccc3[nH]6)C=C5)C=C4)cc2)COC[C@@H]1NC(=O)[C@H]1C=C[C@@H]([NH3+])C1
REMARK SMILES IDX 8 1 7 2 6 3 5 4 3 5 4 6 2 8 1 9 78 10 81 11 79 12 80 13
REMARK SMILES IDX 82 14 83 15 84 17 85 18 86 19 90 20 87 21 88 22 89 23 9 27
REMARK SMILES IDX 10 28 11 29 12 30 13 31 14 33 15 34 16 35 77 36 17 37 76 38
REMARK SMILES IDX 18 39 19 40 20 41 70 42 21 43 75 44 69 45 71 46 22 47 74 48
REMARK SMILES IDX 68 49 67 50 23 52 55 53 35 54 54 55 36 56 39 57 53 58 72 59
REMARK SMILES IDX 37 60 38 61 52 63 73 64 40 65 24 66 25 67 33 68 26 69 28 70
REMARK SMILES IDX 34 71 27 72 29 73 30 74 31 75 32 76 56 77 57 78 65 79 58 80
REMARK SMILES IDX 60 81 66 82 59 83 61 84 62 85 63 86 64 87 41 88 42 89 50 90
REMARK SMILES IDX 43 91 45 92 51 93 44 94 46 95 47 96 48 97 49 98
REMARK H PARENT 5 7 82 16 89 24 89 25 89 26 12 32 71 51 39 62
REMARK Flexibility Score: inf
ROOT
ATOM      1  C   UNL A   1      32.540  28.518  27.584  1.00  0.00     0.002 C 
ENDROOT
BRANCH   1   2
ATOM      2  C   UNL A   1      31.438  27.569  27.096  1.00  0.00     0.021 C 
BRANCH   2   3
ATOM      3  C   UNL A   1      31.922  26.572  26.042  1.00  0.00     0.116 C 
BRANCH   3   4
ATOM      4  N   UNL A   1      31.831  25.221  26.556  1.00  0.00    -0.355 N 
ATOM      5  C   UNL A   1      32.280  24.043  26.053  1.00  0.00     0.230 C 
ATOM      6  O   UNL A   1      31.896  23.025  26.637  1.00  0.00    -0.274 OA
ATOM      7  H   UNL A   1      31.363  25.143  27.418  1.00  0.00     0.163 HD
BRANCH   5   8
ATOM      8  C   UNL A   1      33.279  23.980  24.890  1.00  0.00     0.092 C 
ATOM      9  C   UNL A   1      32.797  24.613  23.572  1.00  0.00     0.026 C 
ATOM     10  C   UNL A   1      34.602  24.591  25.351  1.00  0.00     0.179 C 
ATOM     11  C   UNL A   1      33.722  22.516  24.664  1.00  0.00     0.125 C 
ATOM     12  O   UNL A   1      35.650  23.937  24.626  1.00  0.00    -0.378 OA
ATOM     13  C   UNL A   1      35.175  22.654  24.204  1.00  0.00     0.186 C 
BRANCH  11  14
ATOM     14  N   UNL A   1      32.898  21.764  23.715  1.00  0.00    -0.349 N 
ATOM     15  C   UNL A   1      32.784  20.419  23.536  1.00  0.00     0.227 C 
ATOM     16  H   UNL A   1      32.341  22.315  23.116  1.00  0.00     0.163 HD
ATOM     17  O   UNL A   1      32.038  20.023  22.638  1.00  0.00    -0.274 OA
BRANCH  15  18
ATOM     18  C   UNL A   1      33.540  19.475  24.466  1.00  0.00     0.107 C 
ATOM     19  C   UNL A   1      32.693  19.167  25.668  1.00  0.00    -0.012 C 
ATOM     20  C   UNL A   1      33.739  18.089  23.837  1.00  0.00     0.087 C 
ATOM     21  C   UNL A   1      32.663  17.856  25.932  1.00  0.00     0.033 C 
ATOM     22  C   UNL A   1      33.506  17.085  24.973  1.00  0.00     0.205 C 
BRANCH  22  23
ATOM     23  N   UNL A   1      32.856  15.879  24.496  1.00  0.00    -0.352 N 
ATOM     24  H   UNL A   1      32.077  16.130  23.888  1.00  0.00     0.345 HD
ATOM     25  H   UNL A   1      32.508  15.344  25.291  1.00  0.00     0.345 HD
ATOM     26  H   UNL A   1      33.527  15.315  23.974  1.00  0.00     0.345 HD
ENDBRANCH  22  23
ENDBRANCH  15  18
ENDBRANCH  11  14
ENDBRANCH   5   8
ENDBRANCH   3   4
ENDBRANCH   2   3
ENDBRANCH   1   2
BRANCH   1  27
ATOM     27  C   UNL A   1      33.377  29.153  26.468  1.00  0.00     0.002 C 
BRANCH  27  28
ATOM     28  C   UNL A   1      33.007  30.601  26.136  1.00  0.00     0.021 C 
BRANCH  28  29
ATOM     29  C   UNL A   1      32.398  31.373  27.301  1.00  0.00     0.116 C 
BRANCH  29  30
ATOM     30  N   UNL A   1      32.693  32.795  27.213  1.00  0.00    -0.352 N 
ATOM     31  C   UNL A   1      33.727  33.494  27.777  1.00  0.00     0.251 C 
ATOM     32  H   UNL A   1      32.064  33.326  26.674  1.00  0.00     0.163 HD
ATOM     33  O   UNL A   1      33.694  34.725  27.807  1.00  0.00    -0.269 OA
BRANCH  31  34
ATOM     34  C   UNL A   1      34.874  32.766  28.355  1.00  0.00     0.039 A 
ATOM     35  C   UNL A   1      36.170  33.217  28.093  1.00  0.00     0.014 A 
ATOM     36  C   UNL A   1      34.669  31.635  29.152  1.00  0.00     0.014 A 
ATOM     37  C   UNL A   1      37.258  32.561  28.672  1.00  0.00     0.010 A 
ATOM     38  C   UNL A   1      35.749  31.032  29.789  1.00  0.00     0.010 A 
ATOM     39  C   UNL A   1      37.056  31.480  29.547  1.00  0.00    -0.014 A 
BRANCH  39  40
ATOM     40  C   UNL A   1      38.198  30.807  30.216  1.00  0.00     0.031 A 
ATOM     41  C   UNL A   1      38.594  31.201  31.614  1.00  0.00     0.074 A 
ATOM     42  C   UNL A   1      38.923  29.894  29.540  1.00  0.00     0.049 A 
ATOM     43  N   UNL A   1      39.594  30.771  32.339  1.00  0.00    -0.248 NA
ATOM     44  C   UNL A   1      37.776  32.232  32.277  1.00  0.00     0.031 C 
ATOM     45  C   UNL A   1      38.685  29.479  28.155  1.00  0.00     0.029 A 
ATOM     46  N   UNL A   1      40.027  29.169  29.915  1.00  0.00    -0.354 N 
ATOM     47  C   UNL A   1      39.544  31.496  33.525  1.00  0.00     0.074 A 
ATOM     48  C   UNL A   1      38.439  32.420  33.409  1.00  0.00     0.031 C 
ATOM     49  C   UNL A   1      39.610  28.574  27.801  1.00  0.00     0.029 A 
ATOM     50  C   UNL A   1      40.528  28.367  28.916  1.00  0.00     0.049 A 
ATOM     51  H   UNL A   1      40.424  29.218  30.815  1.00  0.00     0.167 HD
ATOM     52  C   UNL A   1      40.328  31.380  34.623  1.00  0.00     0.034 A 
ATOM     53  C   UNL A   1      41.611  27.566  28.896  1.00  0.00     0.034 A 
ATOM     54  C   UNL A   1      41.403  30.433  34.749  1.00  0.00     0.049 A 
ATOM     55  C   UNL A   1      42.450  27.442  30.140  1.00  0.00     0.074 A 
ATOM     56  C   UNL A   1      42.207  30.188  35.849  1.00  0.00     0.029 A 
ATOM     57  N   UNL A   1      41.829  29.580  33.744  1.00  0.00    -0.354 N 
ATOM     58  N   UNL A   1      42.294  28.027  31.303  1.00  0.00    -0.248 NA
ATOM     59  C   UNL A   1      43.593  26.519  30.082  1.00  0.00     0.031 C 
ATOM     60  C   UNL A   1      43.137  29.206  35.499  1.00  0.00     0.029 A 
ATOM     61  C   UNL A   1      42.889  28.813  34.194  1.00  0.00     0.049 A 
ATOM     62  H   UNL A   1      41.435  29.527  32.844  1.00  0.00     0.167 HD
ATOM     63  C   UNL A   1      43.291  27.513  32.124  1.00  0.00     0.074 A 
ATOM     64  C   UNL A   1      44.030  26.552  31.333  1.00  0.00     0.031 C 
ATOM     65  C   UNL A   1      43.578  27.818  33.414  1.00  0.00     0.034 A 
BRANCH  52  66
ATOM     66  C   UNL A   1      40.020  32.264  35.804  1.00  0.00     0.023 A 
ATOM     67  C   UNL A   1      40.692  33.495  35.943  1.00  0.00     0.012 A 
ATOM     68  C   UNL A   1      39.016  31.916  36.729  1.00  0.00     0.148 A 
ATOM     69  C   UNL A   1      40.391  34.354  37.000  1.00  0.00     0.002 A 
ATOM     70  C   UNL A   1      38.689  32.798  37.753  1.00  0.00     0.091 A 
ATOM     71  F   UNL A   1      38.402  30.733  36.589  1.00  0.00    -0.205 F 
ATOM     72  C   UNL A   1      39.382  34.011  37.896  1.00  0.00     0.022 A 
BRANCH  70  73
ATOM     73  S   UNL A   1      37.352  32.490  38.911  1.00  0.00     0.127 S 
ATOM     74  O   UNL A   1      37.685  33.411  39.997  1.00  0.00    -0.237 OA
ATOM     75  O   UNL A   1      36.175  32.869  38.128  1.00  0.00    -0.237 OA
ATOM     76  O   UNL A   1      37.428  31.076  39.251  1.00  0.00    -0.744 OA
ENDBRANCH  70  73
ENDBRANCH  52  66
BRANCH  53  77
ATOM     77  C   UNL A   1      41.944  26.779  27.674  1.00  0.00     0.023 A 
ATOM     78  C   UNL A   1      42.539  27.424  26.572  1.00  0.00     0.012 A 
ATOM     79  C   UNL A   1      41.672  25.399  27.596  1.00  0.00     0.148 A 
ATOM     80  C   UNL A   1      42.813  26.721  25.398  1.00  0.00     0.002 A 
ATOM     81  C   UNL A   1      42.001  24.692  26.446  1.00  0.00     0.091 A 
ATOM     82  F   UNL A   1      41.096  24.804  28.650  1.00  0.00    -0.205 F 
ATOM     83  C   UNL A   1      42.552  25.354  25.337  1.00  0.00     0.022 A 
BRANCH  81  84
ATOM     84  S   UNL A   1      41.822  22.909  26.332  1.00  0.00     0.127 S 
ATOM     85  O   UNL A   1      40.371  22.752  26.338  1.00  0.00    -0.237 OA
ATOM     86  O   UNL A   1      42.468  22.621  25.050  1.00  0.00    -0.237 OA
ATOM     87  O   UNL A   1      42.526  22.370  27.489  1.00  0.00    -0.744 OA
ENDBRANCH  81  84
ENDBRANCH  53  77
BRANCH  65  88
ATOM     88  C   UNL A   1      44.707  27.073  34.075  1.00  0.00     0.023 A 
ATOM     89  C   UNL A   1      46.023  27.572  33.998  1.00  0.00     0.012 A 
ATOM     90  C   UNL A   1      44.450  25.915  34.835  1.00  0.00     0.148 A 
ATOM     91  C   UNL A   1      47.070  26.908  34.637  1.00  0.00     0.002 A 
ATOM     92  C   UNL A   1      45.490  25.290  35.512  1.00  0.00     0.091 A 
ATOM     93  F   UNL A   1      43.194  25.447  34.882  1.00  0.00    -0.205 F 
ATOM     94  C   UNL A   1      46.803  25.776  35.403  1.00  0.00     0.022 A 
BRANCH  92  95
ATOM     95  S   UNL A   1      45.224  23.887  36.602  1.00  0.00     0.127 S 
ATOM     96  O   UNL A   1      46.591  23.416  36.820  1.00  0.00    -0.237 OA
ATOM     97  O   UNL A   1      44.603  24.516  37.769  1.00  0.00    -0.237 OA
ATOM     98  O   UNL A   1      44.358  22.969  35.875  1.00  0.00    -0.744 OA
ENDBRANCH  92  95
ENDBRANCH  65  88
ENDBRANCH  39  40
ENDBRANCH  31  34
ENDBRANCH  29  30
ENDBRANCH  28  29
ENDBRANCH  27  28
ENDBRANCH   1  27
TORSDOF 19
ENDMDL
