MODEL 1
REMARK VINA RESULT:     -12.2      0.000      0.000
REMARK SMILES O=C(NCCCCCCNC(=O)[C@@H]1C=C[C@@H](Nc2ccc3ccccc3n2)C1)c1ccc(-c2c3nc(c(-c4cccc(S(=O)(=O)[O-])c4F)c4ccc([nH]4)c(-c4cccc(S(=O)(=O)[O-])c4F)c4nc(c(-c5cccc(S(=O)(=O)[O-])c5F)c5ccc2[nH]5)C=C4)C=C3)cc1
REMARK SMILES IDX 6 1 5 2 4 3 3 4 1 5 2 6 29 8 30 9 91 10 31 11 90 12 32 13
REMARK SMILES IDX 33 14 34 15 84 16 35 17 89 18 83 19 85 20 36 21 88 22 82 23
REMARK SMILES IDX 81 24 37 26 69 27 49 28 68 29 50 30 53 31 67 32 86 33 51 34
REMARK SMILES IDX 52 35 66 37 87 38 54 39 38 40 39 41 47 42 40 43 42 44 48 45
REMARK SMILES IDX 41 46 43 47 44 48 45 49 46 50 70 51 71 52 79 53 72 54 74 55
REMARK SMILES IDX 80 56 73 57 75 58 76 59 77 60 78 61 55 62 56 63 64 64 57 65
REMARK SMILES IDX 59 66 65 67 58 68 60 69 61 70 62 71 63 72 7 73 8 74 9 75
REMARK SMILES IDX 10 76 11 77 12 79 13 80 14 81 28 82 15 83 16 84 17 85 18 87
REMARK SMILES IDX 19 88 27 89 20 90 26 91 21 92 25 93 22 94 24 95 23 96
REMARK H PARENT 3 7 85 25 53 36 10 78 17 86
REMARK Flexibility Score: inf
ROOT
ATOM      1  C   UNL A   1      36.192  20.790  25.014  1.00  0.00     0.002 C 
ENDROOT
BRANCH   1   2
ATOM      2  C   UNL A   1      37.497  20.036  24.753  1.00  0.00     0.021 C 
BRANCH   2   3
ATOM      3  C   UNL A   1      38.720  20.649  25.423  1.00  0.00     0.116 C 
BRANCH   3   4
ATOM      4  N   UNL A   1      39.658  19.634  25.871  1.00  0.00    -0.352 N 
ATOM      5  O   UNL A   1      41.672  18.829  26.480  1.00  0.00    -0.269 OA
ATOM      6  C   UNL A   1      40.937  19.803  26.340  1.00  0.00     0.251 C 
ATOM      7  H   UNL A   1      39.335  18.705  25.831  1.00  0.00     0.163 HD
BRANCH   6   8
ATOM      8  C   UNL A   1      41.422  21.165  26.654  1.00  0.00     0.039 A 
ATOM      9  C   UNL A   1      41.729  22.061  25.625  1.00  0.00     0.014 A 
ATOM     10  C   UNL A   1      41.551  21.556  27.989  1.00  0.00     0.014 A 
ATOM     11  C   UNL A   1      42.258  23.310  25.928  1.00  0.00     0.010 A 
ATOM     12  C   UNL A   1      42.014  22.839  28.293  1.00  0.00     0.010 A 
ATOM     13  C   UNL A   1      42.380  23.723  27.265  1.00  0.00    -0.014 A 
BRANCH  13  14
ATOM     14  C   UNL A   1      42.759  25.126  27.558  1.00  0.00     0.031 A 
ATOM     15  C   UNL A   1      41.788  26.098  28.165  1.00  0.00     0.074 A 
ATOM     16  C   UNL A   1      44.008  25.523  27.234  1.00  0.00     0.049 A 
ATOM     17  N   UNL A   1      41.981  27.350  28.490  1.00  0.00    -0.248 NA
ATOM     18  C   UNL A   1      40.426  25.612  28.439  1.00  0.00     0.031 C 
ATOM     19  C   UNL A   1      45.013  24.677  26.582  1.00  0.00     0.029 A 
ATOM     20  N   UNL A   1      44.641  26.728  27.393  1.00  0.00    -0.354 N 
ATOM     21  C   UNL A   1      40.763  27.816  28.967  1.00  0.00     0.074 A 
ATOM     22  C   UNL A   1      39.832  26.709  28.895  1.00  0.00     0.031 C 
ATOM     23  C   UNL A   1      46.136  25.386  26.404  1.00  0.00     0.029 A 
ATOM     24  C   UNL A   1      45.919  26.745  26.884  1.00  0.00     0.049 A 
ATOM     25  H   UNL A   1      44.222  27.505  27.828  1.00  0.00     0.167 HD
ATOM     26  C   UNL A   1      40.457  29.051  29.433  1.00  0.00     0.034 A 
ATOM     27  C   UNL A   1      46.812  27.747  26.792  1.00  0.00     0.034 A 
ATOM     28  C   UNL A   1      41.402  30.133  29.537  1.00  0.00     0.049 A 
ATOM     29  C   UNL A   1      46.447  29.095  27.344  1.00  0.00     0.074 A 
ATOM     30  C   UNL A   1      41.212  31.386  30.093  1.00  0.00     0.029 A 
ATOM     31  N   UNL A   1      42.704  30.100  29.063  1.00  0.00    -0.354 N 
ATOM     32  N   UNL A   1      45.345  29.463  27.952  1.00  0.00    -0.248 NA
ATOM     33  C   UNL A   1      47.453  30.158  27.220  1.00  0.00     0.031 C 
ATOM     34  C   UNL A   1      42.392  32.120  29.932  1.00  0.00     0.029 A 
ATOM     35  C   UNL A   1      43.322  31.317  29.292  1.00  0.00     0.049 A 
ATOM     36  H   UNL A   1      43.126  29.324  28.628  1.00  0.00     0.167 HD
ATOM     37  C   UNL A   1      45.530  30.795  28.296  1.00  0.00     0.074 A 
ATOM     38  C   UNL A   1      46.864  31.157  27.862  1.00  0.00     0.031 C 
ATOM     39  C   UNL A   1      44.664  31.650  28.891  1.00  0.00     0.034 A 
BRANCH  26  40
ATOM     40  C   UNL A   1      39.054  29.308  29.914  1.00  0.00     0.023 A 
ATOM     41  C   UNL A   1      38.673  28.879  31.202  1.00  0.00     0.012 A 
ATOM     42  C   UNL A   1      38.157  30.078  29.147  1.00  0.00     0.148 A 
ATOM     43  C   UNL A   1      37.418  29.206  31.715  1.00  0.00     0.002 A 
ATOM     44  C   UNL A   1      36.920  30.428  29.678  1.00  0.00     0.091 A 
ATOM     45  F   UNL A   1      38.534  30.461  27.919  1.00  0.00    -0.205 F 
ATOM     46  C   UNL A   1      36.548  29.987  30.960  1.00  0.00     0.022 A 
BRANCH  44  47
ATOM     47  S   UNL A   1      35.755  31.491  28.818  1.00  0.00     0.127 S 
ATOM     48  O   UNL A   1      36.557  32.696  28.608  1.00  0.00    -0.237 OA
ATOM     49  O   UNL A   1      35.478  30.724  27.605  1.00  0.00    -0.237 OA
ATOM     50  O   UNL A   1      34.618  31.650  29.713  1.00  0.00    -0.744 OA
ENDBRANCH  44  47
ENDBRANCH  26  40
BRANCH  27  51
ATOM     51  C   UNL A   1      48.143  27.499  26.174  1.00  0.00     0.023 A 
ATOM     52  C   UNL A   1      49.224  27.106  26.986  1.00  0.00     0.012 A 
ATOM     53  C   UNL A   1      48.335  27.612  24.784  1.00  0.00     0.148 A 
ATOM     54  C   UNL A   1      50.478  26.856  26.426  1.00  0.00     0.002 A 
ATOM     55  C   UNL A   1      49.569  27.303  24.226  1.00  0.00     0.091 A 
ATOM     56  F   UNL A   1      47.302  28.011  24.026  1.00  0.00    -0.205 F 
ATOM     57  C   UNL A   1      50.647  26.941  25.046  1.00  0.00     0.022 A 
BRANCH  55  58
ATOM     58  S   UNL A   1      49.808  27.246  22.447  1.00  0.00     0.127 S 
ATOM     59  O   UNL A   1      51.202  26.831  22.342  1.00  0.00    -0.237 OA
ATOM     60  O   UNL A   1      48.832  26.235  22.033  1.00  0.00    -0.237 OA
ATOM     61  O   UNL A   1      49.498  28.592  21.981  1.00  0.00    -0.744 OA
ENDBRANCH  55  58
ENDBRANCH  27  51
BRANCH  39  62
ATOM     62  C   UNL A   1      45.134  33.062  29.111  1.00  0.00     0.023 A 
ATOM     63  C   UNL A   1      45.721  33.411  30.344  1.00  0.00     0.012 A 
ATOM     64  C   UNL A   1      45.049  34.025  28.087  1.00  0.00     0.148 A 
ATOM     65  C   UNL A   1      46.187  34.705  30.566  1.00  0.00     0.002 A 
ATOM     66  C   UNL A   1      45.558  35.300  28.300  1.00  0.00     0.091 A 
ATOM     67  F   UNL A   1      44.468  33.678  26.930  1.00  0.00    -0.205 F 
ATOM     68  C   UNL A   1      46.116  35.646  29.541  1.00  0.00     0.022 A 
BRANCH  66  69
ATOM     69  S   UNL A   1      45.587  36.548  27.008  1.00  0.00     0.127 S 
ATOM     70  O   UNL A   1      44.163  36.825  26.828  1.00  0.00    -0.237 OA
ATOM     71  O   UNL A   1      46.344  37.631  27.637  1.00  0.00    -0.237 OA
ATOM     72  O   UNL A   1      46.254  35.929  25.871  1.00  0.00    -0.744 OA
ENDBRANCH  66  69
ENDBRANCH  39  62
ENDBRANCH  13  14
ENDBRANCH   6   8
ENDBRANCH   3   4
ENDBRANCH   2   3
ENDBRANCH   1   2
BRANCH   1  73
ATOM     73  C   UNL A   1      34.922  19.937  24.911  1.00  0.00     0.002 C 
BRANCH  73  74
ATOM     74  C   UNL A   1      33.645  20.604  25.441  1.00  0.00     0.021 C 
BRANCH  74  75
ATOM     75  C   UNL A   1      33.825  21.310  26.785  1.00  0.00     0.116 C 
BRANCH  75  76
ATOM     76  N   UNL A   1      32.589  21.954  27.185  1.00  0.00    -0.356 N 
ATOM     77  C   UNL A   1      32.072  23.148  26.774  1.00  0.00     0.227 C 
ATOM     78  H   UNL A   1      32.048  21.462  27.844  1.00  0.00     0.163 HD
ATOM     79  O   UNL A   1      31.096  23.596  27.378  1.00  0.00    -0.274 OA
BRANCH  77  80
ATOM     80  C   UNL A   1      32.691  23.837  25.557  1.00  0.00     0.103 C 
ATOM     81  C   UNL A   1      33.817  24.760  25.916  1.00  0.00    -0.016 C 
ATOM     82  C   UNL A   1      31.690  24.775  24.867  1.00  0.00     0.046 C 
ATOM     83  C   UNL A   1      33.494  26.044  25.729  1.00  0.00    -0.006 C 
ATOM     84  C   UNL A   1      32.087  26.206  25.264  1.00  0.00     0.104 C 
BRANCH  84  85
ATOM     85  N   UNL A   1      32.053  27.032  24.088  1.00  0.00    -0.364 N 
ATOM     86  H   UNL A   1      32.584  26.781  23.298  1.00  0.00     0.162 HD
BRANCH  85  87
ATOM     87  C   UNL A   1      31.282  28.169  24.064  1.00  0.00     0.127 A 
ATOM     88  C   UNL A   1      31.589  29.197  24.944  1.00  0.00     0.047 A 
ATOM     89  N   UNL A   1      30.287  28.275  23.162  1.00  0.00    -0.231 NA
ATOM     90  C   UNL A   1      30.862  30.380  24.890  1.00  0.00     0.014 A 
ATOM     91  C   UNL A   1      29.545  29.397  23.141  1.00  0.00     0.073 A 
ATOM     92  C   UNL A   1      29.808  30.495  23.983  1.00  0.00     0.000 A 
ATOM     93  C   UNL A   1      28.469  29.489  22.266  1.00  0.00     0.029 A 
ATOM     94  C   UNL A   1      29.024  31.658  23.906  1.00  0.00     0.010 A 
ATOM     95  C   UNL A   1      27.670  30.635  22.201  1.00  0.00     0.002 A 
ATOM     96  C   UNL A   1      27.955  31.725  23.016  1.00  0.00     0.001 A 
ENDBRANCH  85  87
ENDBRANCH  84  85
ENDBRANCH  77  80
ENDBRANCH  75  76
ENDBRANCH  74  75
ENDBRANCH  73  74
ENDBRANCH   1  73
TORSDOF 18
ENDMDL
MODEL 2
REMARK VINA RESULT:     -11.4      2.155      2.844
REMARK SMILES O=C(NCCCCCCNC(=O)[C@@H]1C=C[C@@H](Nc2ccc3ccccc3n2)C1)c1ccc(-c2c3nc(c(-c4cccc(S(=O)(=O)[O-])c4F)c4ccc([nH]4)c(-c4cccc(S(=O)(=O)[O-])c4F)c4nc(c(-c5cccc(S(=O)(=O)[O-])c5F)c5ccc2[nH]5)C=C4)C=C3)cc1
REMARK SMILES IDX 6 1 5 2 4 3 3 4 1 5 2 6 29 8 30 9 91 10 31 11 90 12 32 13
REMARK SMILES IDX 33 14 34 15 84 16 35 17 89 18 83 19 85 20 36 21 88 22 82 23
REMARK SMILES IDX 81 24 37 26 69 27 49 28 68 29 50 30 53 31 67 32 86 33 51 34
REMARK SMILES IDX 52 35 66 37 87 38 54 39 38 40 39 41 47 42 40 43 42 44 48 45
REMARK SMILES IDX 41 46 43 47 44 48 45 49 46 50 70 51 71 52 79 53 72 54 74 55
REMARK SMILES IDX 80 56 73 57 75 58 76 59 77 60 78 61 55 62 56 63 64 64 57 65
REMARK SMILES IDX 59 66 65 67 58 68 60 69 61 70 62 71 63 72 7 73 8 74 9 75
REMARK SMILES IDX 10 76 11 77 12 79 13 80 14 81 28 82 15 83 16 84 17 85 18 87
REMARK SMILES IDX 19 88 27 89 20 90 26 91 21 92 25 93 22 94 24 95 23 96
REMARK H PARENT 3 7 85 25 53 36 10 78 17 86
REMARK Flexibility Score: inf
ROOT
ATOM      1  C   UNL A   1      40.074  21.936  27.132  1.00  0.00     0.002 C 
ENDROOT
BRANCH   1   2
ATOM      2  C   UNL A   1      40.175  20.595  26.404  1.00  0.00     0.021 C 
BRANCH   2   3
ATOM      3  C   UNL A   1      41.126  19.598  27.055  1.00  0.00     0.116 C 
BRANCH   3   4
ATOM      4  N   UNL A   1      42.122  19.108  26.119  1.00  0.00    -0.352 N 
ATOM      5  O   UNL A   1      43.723  19.294  24.544  1.00  0.00    -0.269 OA
ATOM      6  C   UNL A   1      43.094  19.819  25.459  1.00  0.00     0.251 C 
ATOM      7  H   UNL A   1      42.097  18.142  25.933  1.00  0.00     0.163 HD
BRANCH   6   8
ATOM      8  C   UNL A   1      43.360  21.221  25.848  1.00  0.00     0.039 A 
ATOM      9  C   UNL A   1      43.797  21.526  27.142  1.00  0.00     0.014 A 
ATOM     10  C   UNL A   1      43.191  22.238  24.906  1.00  0.00     0.014 A 
ATOM     11  C   UNL A   1      43.969  22.852  27.522  1.00  0.00     0.010 A 
ATOM     12  C   UNL A   1      43.435  23.566  25.268  1.00  0.00     0.010 A 
ATOM     13  C   UNL A   1      43.816  23.884  26.581  1.00  0.00    -0.014 A 
BRANCH  13  14
ATOM     14  C   UNL A   1      44.195  25.267  26.957  1.00  0.00     0.031 A 
ATOM     15  C   UNL A   1      43.209  26.220  27.569  1.00  0.00     0.074 A 
ATOM     16  C   UNL A   1      45.460  25.665  26.705  1.00  0.00     0.049 A 
ATOM     17  N   UNL A   1      43.399  27.452  27.961  1.00  0.00    -0.248 NA
ATOM     18  C   UNL A   1      41.832  25.737  27.761  1.00  0.00     0.031 C 
ATOM     19  C   UNL A   1      46.484  24.841  26.055  1.00  0.00     0.029 A 
ATOM     20  N   UNL A   1      46.097  26.854  26.948  1.00  0.00    -0.354 N 
ATOM     21  C   UNL A   1      42.166  27.909  28.409  1.00  0.00     0.074 A 
ATOM     22  C   UNL A   1      41.229  26.817  28.245  1.00  0.00     0.031 C 
ATOM     23  C   UNL A   1      47.620  25.545  25.959  1.00  0.00     0.029 A 
ATOM     24  C   UNL A   1      47.395  26.881  26.494  1.00  0.00     0.049 A 
ATOM     25  H   UNL A   1      45.667  27.615  27.402  1.00  0.00     0.167 HD
ATOM     26  C   UNL A   1      41.852  29.123  28.921  1.00  0.00     0.034 A 
ATOM     27  C   UNL A   1      48.300  27.877  26.488  1.00  0.00     0.034 A 
ATOM     28  C   UNL A   1      42.801  30.188  29.117  1.00  0.00     0.049 A 
ATOM     29  C   UNL A   1      47.925  29.200  27.089  1.00  0.00     0.074 A 
ATOM     30  C   UNL A   1      42.600  31.416  29.724  1.00  0.00     0.029 A 
ATOM     31  N   UNL A   1      44.122  30.163  28.696  1.00  0.00    -0.354 N 
ATOM     32  N   UNL A   1      46.802  29.551  27.667  1.00  0.00    -0.248 NA
ATOM     33  C   UNL A   1      48.945  30.257  27.059  1.00  0.00     0.031 C 
ATOM     34  C   UNL A   1      43.792  32.143  29.648  1.00  0.00     0.029 A 
ATOM     35  C   UNL A   1      44.741  31.362  29.010  1.00  0.00     0.049 A 
ATOM     36  H   UNL A   1      44.555  29.405  28.243  1.00  0.00     0.167 HD
ATOM     37  C   UNL A   1      46.984  30.863  28.083  1.00  0.00     0.074 A 
ATOM     38  C   UNL A   1      48.339  31.230  27.723  1.00  0.00     0.031 C 
ATOM     39  C   UNL A   1      46.102  31.698  28.682  1.00  0.00     0.034 A 
BRANCH  26  40
ATOM     40  C   UNL A   1      40.432  29.373  29.355  1.00  0.00     0.023 A 
ATOM     41  C   UNL A   1      39.467  29.737  28.395  1.00  0.00     0.012 A 
ATOM     42  C   UNL A   1      40.030  29.129  30.684  1.00  0.00     0.148 A 
ATOM     43  C   UNL A   1      38.125  29.862  28.752  1.00  0.00     0.002 A 
ATOM     44  C   UNL A   1      38.685  29.223  31.024  1.00  0.00     0.091 A 
ATOM     45  F   UNL A   1      40.967  28.800  31.584  1.00  0.00    -0.205 F 
ATOM     46  C   UNL A   1      37.733  29.595  30.060  1.00  0.00     0.022 A 
BRANCH  44  47
ATOM     47  S   UNL A   1      38.065  28.830  32.664  1.00  0.00     0.127 S 
ATOM     48  O   UNL A   1      38.278  27.384  32.720  1.00  0.00    -0.237 OA
ATOM     49  O   UNL A   1      38.954  29.610  33.524  1.00  0.00    -0.237 OA
ATOM     50  O   UNL A   1      36.673  29.254  32.681  1.00  0.00    -0.744 OA
ENDBRANCH  44  47
ENDBRANCH  26  40
BRANCH  27  51
ATOM     51  C   UNL A   1      49.654  27.644  25.915  1.00  0.00     0.023 A 
ATOM     52  C   UNL A   1      50.702  27.220  26.756  1.00  0.00     0.012 A 
ATOM     53  C   UNL A   1      49.901  27.801  24.538  1.00  0.00     0.148 A 
ATOM     54  C   UNL A   1      51.976  26.985  26.238  1.00  0.00     0.002 A 
ATOM     55  C   UNL A   1      51.155  27.504  24.019  1.00  0.00     0.091 A 
ATOM     56  F   UNL A   1      48.899  28.227  23.754  1.00  0.00    -0.205 F 
ATOM     57  C   UNL A   1      52.199  27.113  24.869  1.00  0.00     0.022 A 
BRANCH  55  58
ATOM     58  S   UNL A   1      51.463  27.504  22.249  1.00  0.00     0.127 S 
ATOM     59  O   UNL A   1      50.404  26.628  21.759  1.00  0.00    -0.237 OA
ATOM     60  O   UNL A   1      51.303  28.918  21.904  1.00  0.00    -0.237 OA
ATOM     61  O   UNL A   1      52.828  27.011  22.104  1.00  0.00    -0.744 OA
ENDBRANCH  55  58
ENDBRANCH  27  51
BRANCH  39  62
ATOM     62  C   UNL A   1      46.575  33.093  28.989  1.00  0.00     0.023 A 
ATOM     63  C   UNL A   1      47.311  33.329  30.168  1.00  0.00     0.012 A 
ATOM     64  C   UNL A   1      46.344  34.154  28.093  1.00  0.00     0.148 A 
ATOM     65  C   UNL A   1      47.782  34.606  30.465  1.00  0.00     0.002 A 
ATOM     66  C   UNL A   1      46.856  35.414  28.373  1.00  0.00     0.091 A 
ATOM     67  F   UNL A   1      45.622  33.912  26.988  1.00  0.00    -0.205 F 
ATOM     68  C   UNL A   1      47.565  35.646  29.564  1.00  0.00     0.022 A 
BRANCH  66  69
ATOM     69  S   UNL A   1      46.699  36.790  27.228  1.00  0.00     0.127 S 
ATOM     70  O   UNL A   1      47.176  37.909  28.039  1.00  0.00    -0.237 OA
ATOM     71  O   UNL A   1      47.598  36.396  26.143  1.00  0.00    -0.237 OA
ATOM     72  O   UNL A   1      45.292  36.840  26.857  1.00  0.00    -0.744 OA
ENDBRANCH  66  69
ENDBRANCH  39  62
ENDBRANCH  13  14
ENDBRANCH   6   8
ENDBRANCH   3   4
ENDBRANCH   2   3
ENDBRANCH   1   2
BRANCH   1  73
ATOM     73  C   UNL A   1      39.846  23.149  26.223  1.00  0.00     0.002 C 
BRANCH  73  74
ATOM     74  C   UNL A   1      38.692  24.070  26.642  1.00  0.00     0.021 C 
BRANCH  74  75
ATOM     75  C   UNL A   1      37.321  23.613  26.143  1.00  0.00     0.116 C 
BRANCH  75  76
ATOM     76  N   UNL A   1      37.294  23.590  24.694  1.00  0.00    -0.356 N 
ATOM     77  C   UNL A   1      36.256  23.293  23.860  1.00  0.00     0.227 C 
ATOM     78  H   UNL A   1      38.141  23.821  24.250  1.00  0.00     0.163 HD
ATOM     79  O   UNL A   1      36.497  23.155  22.660  1.00  0.00    -0.274 OA
BRANCH  77  80
ATOM     80  C   UNL A   1      34.846  23.203  24.445  1.00  0.00     0.103 C 
ATOM     81  C   UNL A   1      33.852  22.607  23.493  1.00  0.00    -0.016 C 
ATOM     82  C   UNL A   1      34.258  24.594  24.722  1.00  0.00     0.046 C 
ATOM     83  C   UNL A   1      32.968  23.510  23.059  1.00  0.00    -0.006 C 
ATOM     84  C   UNL A   1      33.243  24.871  23.601  1.00  0.00     0.104 C 
BRANCH  84  85
ATOM     85  N   UNL A   1      32.049  25.413  24.190  1.00  0.00    -0.364 N 
ATOM     86  H   UNL A   1      31.633  24.961  24.958  1.00  0.00     0.162 HD
BRANCH  85  87
ATOM     87  C   UNL A   1      31.488  26.561  23.682  1.00  0.00     0.127 A 
ATOM     88  C   UNL A   1      32.327  27.529  23.149  1.00  0.00     0.047 A 
ATOM     89  N   UNL A   1      30.149  26.694  23.672  1.00  0.00    -0.231 NA
ATOM     90  C   UNL A   1      31.775  28.667  22.573  1.00  0.00     0.014 A 
ATOM     91  C   UNL A   1      29.609  27.817  23.164  1.00  0.00     0.073 A 
ATOM     92  C   UNL A   1      30.390  28.834  22.582  1.00  0.00     0.000 A 
ATOM     93  C   UNL A   1      28.233  28.000  23.216  1.00  0.00     0.029 A 
ATOM     94  C   UNL A   1      29.782  29.978  22.037  1.00  0.00     0.010 A 
ATOM     95  C   UNL A   1      27.624  29.146  22.697  1.00  0.00     0.002 A 
ATOM     96  C   UNL A   1      28.399  30.133  22.098  1.00  0.00     0.001 A 
ENDBRANCH  85  87
ENDBRANCH  84  85
ENDBRANCH  77  80
ENDBRANCH  75  76
ENDBRANCH  74  75
ENDBRANCH  73  74
ENDBRANCH   1  73
TORSDOF 18
ENDMDL
MODEL 3
REMARK VINA RESULT:     -11.3      2.695      8.957
REMARK SMILES O=C(NCCCCCCNC(=O)[C@@H]1C=C[C@@H](Nc2ccc3ccccc3n2)C1)c1ccc(-c2c3nc(c(-c4cccc(S(=O)(=O)[O-])c4F)c4ccc([nH]4)c(-c4cccc(S(=O)(=O)[O-])c4F)c4nc(c(-c5cccc(S(=O)(=O)[O-])c5F)c5ccc2[nH]5)C=C4)C=C3)cc1
REMARK SMILES IDX 6 1 5 2 4 3 3 4 1 5 2 6 29 8 30 9 91 10 31 11 90 12 32 13
REMARK SMILES IDX 33 14 34 15 84 16 35 17 89 18 83 19 85 20 36 21 88 22 82 23
REMARK SMILES IDX 81 24 37 26 69 27 49 28 68 29 50 30 53 31 67 32 86 33 51 34
REMARK SMILES IDX 52 35 66 37 87 38 54 39 38 40 39 41 47 42 40 43 42 44 48 45
REMARK SMILES IDX 41 46 43 47 44 48 45 49 46 50 70 51 71 52 79 53 72 54 74 55
REMARK SMILES IDX 80 56 73 57 75 58 76 59 77 60 78 61 55 62 56 63 64 64 57 65
REMARK SMILES IDX 59 66 65 67 58 68 60 69 61 70 62 71 63 72 7 73 8 74 9 75
REMARK SMILES IDX 10 76 11 77 12 79 13 80 14 81 28 82 15 83 16 84 17 85 18 87
REMARK SMILES IDX 19 88 27 89 20 90 26 91 21 92 25 93 22 94 24 95 23 96
REMARK H PARENT 3 7 85 25 53 36 10 78 17 86
REMARK Flexibility Score: inf
ROOT
ATOM      1  C   UNL A   1      35.556  32.110  29.188  1.00  0.00     0.002 C 
ENDROOT
BRANCH   1   2
ATOM      2  C   UNL A   1      34.763  32.641  30.383  1.00  0.00     0.021 C 
BRANCH   2   3
ATOM      3  C   UNL A   1      35.128  31.997  31.714  1.00  0.00     0.116 C 
BRANCH   3   4
ATOM      4  N   UNL A   1      35.720  32.951  32.634  1.00  0.00    -0.352 N 
ATOM      5  O   UNL A   1      37.372  33.851  33.876  1.00  0.00    -0.269 OA
ATOM      6  C   UNL A   1      37.049  33.149  32.921  1.00  0.00     0.251 C 
ATOM      7  H   UNL A   1      35.087  33.532  33.116  1.00  0.00     0.163 HD
BRANCH   6   8
ATOM      8  C   UNL A   1      38.077  32.494  32.084  1.00  0.00     0.039 A 
ATOM      9  C   UNL A   1      38.391  33.005  30.820  1.00  0.00     0.014 A 
ATOM     10  C   UNL A   1      38.750  31.373  32.576  1.00  0.00     0.014 A 
ATOM     11  C   UNL A   1      39.303  32.338  30.009  1.00  0.00     0.010 A 
ATOM     12  C   UNL A   1      39.720  30.746  31.789  1.00  0.00     0.010 A 
ATOM     13  C   UNL A   1      39.997  31.217  30.496  1.00  0.00    -0.014 A 
BRANCH  13  14
ATOM     14  C   UNL A   1      41.102  30.644  29.690  1.00  0.00     0.031 A 
ATOM     15  C   UNL A   1      41.004  29.279  29.071  1.00  0.00     0.074 A 
ATOM     16  C   UNL A   1      42.224  31.379  29.548  1.00  0.00     0.049 A 
ATOM     17  N   UNL A   1      41.882  28.654  28.331  1.00  0.00    -0.248 NA
ATOM     18  C   UNL A   1      39.773  28.511  29.316  1.00  0.00     0.031 C 
ATOM     19  C   UNL A   1      42.450  32.692  30.159  1.00  0.00     0.029 A 
ATOM     20  N   UNL A   1      43.385  31.128  28.863  1.00  0.00    -0.354 N 
ATOM     21  C   UNL A   1      41.334  27.408  28.053  1.00  0.00     0.074 A 
ATOM     22  C   UNL A   1      40.041  27.364  28.701  1.00  0.00     0.031 C 
ATOM     23  C   UNL A   1      43.668  33.135  29.816  1.00  0.00     0.029 A 
ATOM     24  C   UNL A   1      44.327  32.122  29.002  1.00  0.00     0.049 A 
ATOM     25  H   UNL A   1      43.531  30.317  28.325  1.00  0.00     0.167 HD
ATOM     26  C   UNL A   1      41.860  26.402  27.313  1.00  0.00     0.034 A 
ATOM     27  C   UNL A   1      45.591  32.200  28.546  1.00  0.00     0.034 A 
ATOM     28  C   UNL A   1      43.131  26.473  26.639  1.00  0.00     0.049 A 
ATOM     29  C   UNL A   1      46.129  31.078  27.707  1.00  0.00     0.074 A 
ATOM     30  C   UNL A   1      43.700  25.547  25.782  1.00  0.00     0.029 A 
ATOM     31  N   UNL A   1      44.036  27.516  26.756  1.00  0.00    -0.354 N 
ATOM     32  N   UNL A   1      45.524  29.985  27.311  1.00  0.00    -0.248 NA
ATOM     33  C   UNL A   1      47.513  31.209  27.232  1.00  0.00     0.031 C 
ATOM     34  C   UNL A   1      44.961  26.018  25.401  1.00  0.00     0.029 A 
ATOM     35  C   UNL A   1      45.169  27.246  26.007  1.00  0.00     0.049 A 
ATOM     36  H   UNL A   1      43.894  28.328  27.293  1.00  0.00     0.167 HD
ATOM     37  C   UNL A   1      46.447  29.303  26.529  1.00  0.00     0.074 A 
ATOM     38  C   UNL A   1      47.638  30.127  26.477  1.00  0.00     0.031 C 
ATOM     39  C   UNL A   1      46.330  28.093  25.932  1.00  0.00     0.034 A 
BRANCH  26  40
ATOM     40  C   UNL A   1      41.056  25.141  27.143  1.00  0.00     0.023 A 
ATOM     41  C   UNL A   1      39.741  25.220  26.641  1.00  0.00     0.012 A 
ATOM     42  C   UNL A   1      41.640  23.877  27.362  1.00  0.00     0.148 A 
ATOM     43  C   UNL A   1      39.017  24.060  26.367  1.00  0.00     0.002 A 
ATOM     44  C   UNL A   1      40.924  22.726  27.055  1.00  0.00     0.091 A 
ATOM     45  F   UNL A   1      42.885  23.827  27.855  1.00  0.00    -0.205 F 
ATOM     46  C   UNL A   1      39.611  22.816  26.563  1.00  0.00     0.022 A 
BRANCH  44  47
ATOM     47  S   UNL A   1      41.621  21.076  27.201  1.00  0.00     0.127 S 
ATOM     48  O   UNL A   1      42.715  21.302  28.145  1.00  0.00    -0.237 OA
ATOM     49  O   UNL A   1      40.497  20.314  27.742  1.00  0.00    -0.237 OA
ATOM     50  O   UNL A   1      42.030  20.691  25.858  1.00  0.00    -0.744 OA
ENDBRANCH  44  47
ENDBRANCH  26  40
BRANCH  27  51
ATOM     51  C   UNL A   1      46.416  33.400  28.856  1.00  0.00     0.023 A 
ATOM     52  C   UNL A   1      47.221  33.412  30.011  1.00  0.00     0.012 A 
ATOM     53  C   UNL A   1      46.438  34.513  27.993  1.00  0.00     0.148 A 
ATOM     54  C   UNL A   1      48.011  34.521  30.314  1.00  0.00     0.002 A 
ATOM     55  C   UNL A   1      47.274  35.587  28.268  1.00  0.00     0.091 A 
ATOM     56  F   UNL A   1      45.649  34.496  26.909  1.00  0.00    -0.205 F 
ATOM     57  C   UNL A   1      48.049  35.602  29.436  1.00  0.00     0.022 A 
BRANCH  55  58
ATOM     58  S   UNL A   1      47.481  36.938  27.102  1.00  0.00     0.127 S 
ATOM     59  O   UNL A   1      46.133  37.490  27.038  1.00  0.00    -0.237 OA
ATOM     60  O   UNL A   1      48.463  37.788  27.780  1.00  0.00    -0.237 OA
ATOM     61  O   UNL A   1      47.982  36.313  25.884  1.00  0.00    -0.744 OA
ENDBRANCH  55  58
ENDBRANCH  27  51
BRANCH  39  62
ATOM     62  C   UNL A   1      47.522  27.587  25.167  1.00  0.00     0.023 A 
ATOM     63  C   UNL A   1      48.496  26.818  25.835  1.00  0.00     0.012 A 
ATOM     64  C   UNL A   1      47.652  27.818  23.784  1.00  0.00     0.148 A 
ATOM     65  C   UNL A   1      49.598  26.316  25.146  1.00  0.00     0.002 A 
ATOM     66  C   UNL A   1      48.729  27.276  23.094  1.00  0.00     0.091 A 
ATOM     67  F   UNL A   1      46.725  28.570  23.172  1.00  0.00    -0.205 F 
ATOM     68  C   UNL A   1      49.709  26.534  23.775  1.00  0.00     0.022 A 
BRANCH  66  69
ATOM     69  S   UNL A   1      48.905  27.433  21.314  1.00  0.00     0.127 S 
ATOM     70  O   UNL A   1      49.528  26.158  20.962  1.00  0.00    -0.237 OA
ATOM     71  O   UNL A   1      47.516  27.575  20.874  1.00  0.00    -0.237 OA
ATOM     72  O   UNL A   1      49.729  28.614  21.097  1.00  0.00    -0.744 OA
ENDBRANCH  66  69
ENDBRANCH  39  62
ENDBRANCH  13  14
ENDBRANCH   6   8
ENDBRANCH   3   4
ENDBRANCH   2   3
ENDBRANCH   1   2
BRANCH   1  73
ATOM     73  C   UNL A   1      36.016  30.653  29.313  1.00  0.00     0.002 C 
BRANCH  73  74
ATOM     74  C   UNL A   1      35.703  29.765  28.101  1.00  0.00     0.021 C 
BRANCH  74  75
ATOM     75  C   UNL A   1      34.391  30.114  27.398  1.00  0.00     0.116 C 
BRANCH  75  76
ATOM     76  N   UNL A   1      33.303  29.325  27.940  1.00  0.00    -0.356 N 
ATOM     77  C   UNL A   1      32.389  28.555  27.281  1.00  0.00     0.227 C 
ATOM     78  H   UNL A   1      33.210  29.347  28.920  1.00  0.00     0.163 HD
ATOM     79  O   UNL A   1      31.434  28.114  27.920  1.00  0.00    -0.274 OA
BRANCH  77  80
ATOM     80  C   UNL A   1      32.627  28.236  25.805  1.00  0.00     0.103 C 
ATOM     81  C   UNL A   1      31.355  28.070  25.028  1.00  0.00    -0.016 C 
ATOM     82  C   UNL A   1      33.315  26.875  25.623  1.00  0.00     0.046 C 
ATOM     83  C   UNL A   1      31.157  26.803  24.653  1.00  0.00    -0.006 C 
ATOM     84  C   UNL A   1      32.228  25.895  25.152  1.00  0.00     0.104 C 
BRANCH  84  85
ATOM     85  N   UNL A   1      32.755  25.116  24.065  1.00  0.00    -0.364 N 
ATOM     86  H   UNL A   1      32.693  25.456  23.144  1.00  0.00     0.162 HD
BRANCH  85  87
ATOM     87  C   UNL A   1      33.346  23.899  24.309  1.00  0.00     0.127 A 
ATOM     88  C   UNL A   1      32.538  22.835  24.685  1.00  0.00     0.047 A 
ATOM     89  N   UNL A   1      34.673  23.761  24.134  1.00  0.00    -0.231 NA
ATOM     90  C   UNL A   1      33.108  21.581  24.872  1.00  0.00     0.014 A 
ATOM     91  C   UNL A   1      35.239  22.563  24.366  1.00  0.00     0.073 A 
ATOM     92  C   UNL A   1      34.487  21.427  24.724  1.00  0.00     0.000 A 
ATOM     93  C   UNL A   1      36.618  22.425  24.261  1.00  0.00     0.029 A 
ATOM     94  C   UNL A   1      35.117  20.188  24.929  1.00  0.00     0.010 A 
ATOM     95  C   UNL A   1      37.254  21.200  24.486  1.00  0.00     0.002 A 
ATOM     96  C   UNL A   1      36.501  20.078  24.811  1.00  0.00     0.001 A 
ENDBRANCH  85  87
ENDBRANCH  84  85
ENDBRANCH  77  80
ENDBRANCH  75  76
ENDBRANCH  74  75
ENDBRANCH  73  74
ENDBRANCH   1  73
TORSDOF 18
ENDMDL
