MODEL 1
REMARK VINA RESULT:     -11.6      0.000      0.000
REMARK SMILES O=C(NCCCCCCNC(=O)[C@@H](CO)N1C(=O)c2c(Cl)c(Cl)c(Cl)c(Cl)c2C1=O)c1ccc(-c2c3nc(c(-c4cccc(S(=O)(=O)[O-])c4F)c4ccc([nH]4)c(-c4cccc(S(=O)(=O)[O-])c4F)c4nc(c(-c5cccc(S(=O)(=O)[O-])c5F)c5ccc2[nH]5)C=C4)C=C3)cc1
REMARK SMILES IDX 6 1 5 2 4 3 3 4 1 5 2 6 31 8 32 9 93 10 33 11 92 12 34 13
REMARK SMILES IDX 35 14 36 15 86 16 37 17 91 18 85 19 87 20 38 21 90 22 84 23
REMARK SMILES IDX 83 24 39 26 71 27 51 28 70 29 52 30 55 31 69 32 88 33 53 34
REMARK SMILES IDX 54 35 68 37 89 38 56 39 40 40 41 41 49 42 42 43 44 44 50 45
REMARK SMILES IDX 43 46 45 47 46 48 47 49 48 50 72 51 73 52 81 53 74 54 76 55
REMARK SMILES IDX 82 56 75 57 77 58 78 59 79 60 80 61 57 62 58 63 66 64 59 65
REMARK SMILES IDX 61 66 67 67 60 68 62 69 63 70 64 71 65 72 7 73 8 74 9 75
REMARK SMILES IDX 10 76 11 77 12 79 13 80 14 81 15 82 16 84 17 85 29 86 18 87
REMARK SMILES IDX 19 88 28 89 30 90 20 91 26 92 21 93 22 94 24 95 27 96 23 97
REMARK SMILES IDX 25 98
REMARK H PARENT 3 7 87 25 55 36 10 78 15 83
REMARK Flexibility Score: inf
ROOT
ATOM      1  C   UNL A   1      31.297  30.800  26.605  1.00  0.00     0.002 C 
ENDROOT
BRANCH   1   2
ATOM      2  C   UNL A   1      31.405  32.326  26.550  1.00  0.00     0.021 C 
BRANCH   2   3
ATOM      3  C   UNL A   1      32.707  32.916  27.082  1.00  0.00     0.116 C 
BRANCH   3   4
ATOM      4  N   UNL A   1      32.532  34.248  27.632  1.00  0.00    -0.352 N 
ATOM      5  O   UNL A   1      32.762  35.922  29.116  1.00  0.00    -0.269 OA
ATOM      6  C   UNL A   1      33.159  34.836  28.703  1.00  0.00     0.251 C 
ATOM      7  H   UNL A   1      31.868  34.810  27.173  1.00  0.00     0.163 HD
BRANCH   6   8
ATOM      8  C   UNL A   1      34.292  34.153  29.368  1.00  0.00     0.039 A 
ATOM      9  C   UNL A   1      35.615  34.492  29.071  1.00  0.00     0.014 A 
ATOM     10  C   UNL A   1      34.021  33.172  30.326  1.00  0.00     0.014 A 
ATOM     11  C   UNL A   1      36.662  33.772  29.640  1.00  0.00     0.010 A 
ATOM     12  C   UNL A   1      35.076  32.499  30.952  1.00  0.00     0.010 A 
ATOM     13  C   UNL A   1      36.404  32.777  30.597  1.00  0.00    -0.014 A 
BRANCH  13  14
ATOM     14  C   UNL A   1      37.539  32.106  31.280  1.00  0.00     0.031 A 
ATOM     15  C   UNL A   1      38.290  30.980  30.629  1.00  0.00     0.074 A 
ATOM     16  C   UNL A   1      37.877  32.520  32.518  1.00  0.00     0.049 A 
ATOM     17  N   UNL A   1      39.315  30.305  31.086  1.00  0.00    -0.248 NA
ATOM     18  C   UNL A   1      37.834  30.546  29.299  1.00  0.00     0.031 C 
ATOM     19  C   UNL A   1      37.184  33.567  33.271  1.00  0.00     0.029 A 
ATOM     20  N   UNL A   1      38.878  32.111  33.361  1.00  0.00    -0.354 N 
ATOM     21  C   UNL A   1      39.604  29.347  30.121  1.00  0.00     0.074 A 
ATOM     22  C   UNL A   1      38.641  29.521  29.055  1.00  0.00     0.031 C 
ATOM     23  C   UNL A   1      37.790  33.734  34.454  1.00  0.00     0.029 A 
ATOM     24  C   UNL A   1      38.887  32.779  34.563  1.00  0.00     0.049 A 
ATOM     25  H   UNL A   1      39.527  31.409  33.129  1.00  0.00     0.167 HD
ATOM     26  C   UNL A   1      40.594  28.420  30.119  1.00  0.00     0.034 A 
ATOM     27  C   UNL A   1      39.684  32.636  35.639  1.00  0.00     0.034 A 
ATOM     28  C   UNL A   1      41.571  28.279  31.166  1.00  0.00     0.049 A 
ATOM     29  C   UNL A   1      40.793  31.626  35.592  1.00  0.00     0.074 A 
ATOM     30  C   UNL A   1      42.653  27.417  31.223  1.00  0.00     0.029 A 
ATOM     31  N   UNL A   1      41.586  29.013  32.343  1.00  0.00    -0.354 N 
ATOM     32  N   UNL A   1      41.136  30.825  34.612  1.00  0.00    -0.248 NA
ATOM     33  C   UNL A   1      41.644  31.518  36.785  1.00  0.00     0.031 C 
ATOM     34  C   UNL A   1      43.314  27.621  32.440  1.00  0.00     0.029 A 
ATOM     35  C   UNL A   1      42.651  28.620  33.135  1.00  0.00     0.049 A 
ATOM     36  H   UNL A   1      40.934  29.711  32.580  1.00  0.00     0.167 HD
ATOM     37  C   UNL A   1      42.254  30.133  35.060  1.00  0.00     0.074 A 
ATOM     38  C   UNL A   1      42.547  30.630  36.389  1.00  0.00     0.031 C 
ATOM     39  C   UNL A   1      42.959  29.158  34.436  1.00  0.00     0.034 A 
BRANCH  26  40
ATOM     40  C   UNL A   1      40.706  27.513  28.922  1.00  0.00     0.023 A 
ATOM     41  C   UNL A   1      39.794  26.449  28.773  1.00  0.00     0.012 A 
ATOM     42  C   UNL A   1      41.657  27.755  27.911  1.00  0.00     0.148 A 
ATOM     43  C   UNL A   1      39.840  25.626  27.648  1.00  0.00     0.002 A 
ATOM     44  C   UNL A   1      41.673  26.950  26.775  1.00  0.00     0.091 A 
ATOM     45  F   UNL A   1      42.532  28.756  28.080  1.00  0.00    -0.205 F 
ATOM     46  C   UNL A   1      40.771  25.882  26.645  1.00  0.00     0.022 A 
BRANCH  44  47
ATOM     47  S   UNL A   1      42.791  27.247  25.399  1.00  0.00     0.127 S 
ATOM     48  O   UNL A   1      44.070  27.413  26.088  1.00  0.00    -0.237 OA
ATOM     49  O   UNL A   1      42.671  26.009  24.628  1.00  0.00    -0.237 OA
ATOM     50  O   UNL A   1      42.283  28.432  24.721  1.00  0.00    -0.744 OA
ENDBRANCH  44  47
ENDBRANCH  26  40
BRANCH  27  51
ATOM     51  C   UNL A   1      39.488  33.521  36.821  1.00  0.00     0.023 A 
ATOM     52  C   UNL A   1      39.892  34.867  36.751  1.00  0.00     0.012 A 
ATOM     53  C   UNL A   1      38.843  33.057  37.983  1.00  0.00     0.148 A 
ATOM     54  C   UNL A   1      39.675  35.732  37.825  1.00  0.00     0.002 A 
ATOM     55  C   UNL A   1      38.577  33.936  39.026  1.00  0.00     0.091 A 
ATOM     56  F   UNL A   1      38.483  31.767  38.040  1.00  0.00    -0.205 F 
ATOM     57  C   UNL A   1      39.005  35.270  38.955  1.00  0.00     0.022 A 
BRANCH  55  58
ATOM     58  S   UNL A   1      37.589  33.456  40.448  1.00  0.00     0.127 S 
ATOM     59  O   UNL A   1      38.447  32.461  41.086  1.00  0.00    -0.237 OA
ATOM     60  O   UNL A   1      37.464  34.719  41.177  1.00  0.00    -0.237 OA
ATOM     61  O   UNL A   1      36.335  32.962  39.896  1.00  0.00    -0.744 OA
ENDBRANCH  55  58
ENDBRANCH  27  51
BRANCH  39  62
ATOM     62  C   UNL A   1      44.128  28.569  35.178  1.00  0.00     0.023 A 
ATOM     63  C   UNL A   1      45.420  29.085  34.955  1.00  0.00     0.012 A 
ATOM     64  C   UNL A   1      43.943  27.553  36.134  1.00  0.00     0.148 A 
ATOM     65  C   UNL A   1      46.515  28.578  35.655  1.00  0.00     0.002 A 
ATOM     66  C   UNL A   1      45.032  27.083  36.858  1.00  0.00     0.091 A 
ATOM     67  F   UNL A   1      42.709  27.059  36.314  1.00  0.00    -0.205 F 
ATOM     68  C   UNL A   1      46.320  27.587  36.614  1.00  0.00     0.022 A 
BRANCH  66  69
ATOM     69  S   UNL A   1      44.856  25.869  38.172  1.00  0.00     0.127 S 
ATOM     70  O   UNL A   1      46.228  25.388  38.319  1.00  0.00    -0.237 OA
ATOM     71  O   UNL A   1      44.371  26.681  39.289  1.00  0.00    -0.237 OA
ATOM     72  O   UNL A   1      43.895  24.890  37.680  1.00  0.00    -0.744 OA
ENDBRANCH  66  69
ENDBRANCH  39  62
ENDBRANCH  13  14
ENDBRANCH   6   8
ENDBRANCH   3   4
ENDBRANCH   2   3
ENDBRANCH   1   2
BRANCH   1  73
ATOM     73  C   UNL A   1      32.295  30.020  25.744  1.00  0.00     0.002 C 
BRANCH  73  74
ATOM     74  C   UNL A   1      31.694  28.978  24.800  1.00  0.00     0.021 C 
BRANCH  74  75
ATOM     75  C   UNL A   1      31.586  27.567  25.367  1.00  0.00     0.116 C 
BRANCH  75  76
ATOM     76  N   UNL A   1      31.220  26.592  24.364  1.00  0.00    -0.354 N 
ATOM     77  C   UNL A   1      31.108  25.238  24.442  1.00  0.00     0.245 C 
ATOM     78  H   UNL A   1      31.018  26.970  23.478  1.00  0.00     0.163 HD
ATOM     79  O   UNL A   1      30.917  24.650  23.370  1.00  0.00    -0.273 OA
BRANCH  77  80
ATOM     80  C   UNL A   1      31.293  24.423  25.740  1.00  0.00     0.208 C 
BRANCH  80  81
ATOM     81  C   UNL A   1      29.983  24.152  26.497  1.00  0.00     0.191 C 
BRANCH  81  82
ATOM     82  O   UNL A   1      30.065  23.284  27.614  1.00  0.00    -0.394 OA
ATOM     83  H   UNL A   1      29.221  23.293  28.093  1.00  0.00     0.210 HD
ENDBRANCH  81  82
ENDBRANCH  80  81
BRANCH  80  84
ATOM     84  N   UNL A   1      32.274  23.328  25.634  1.00  0.00    -0.259 N 
ATOM     85  C   UNL A   1      33.621  23.587  25.693  1.00  0.00     0.264 C 
ATOM     86  C   UNL A   1      32.058  21.989  25.513  1.00  0.00     0.264 C 
ATOM     87  O   UNL A   1      34.167  24.653  25.880  1.00  0.00    -0.268 OA
ATOM     88  C   UNL A   1      34.324  22.319  25.476  1.00  0.00     0.075 A 
ATOM     89  C   UNL A   1      33.356  21.353  25.276  1.00  0.00     0.075 A 
ATOM     90  O   UNL A   1      31.032  21.352  25.647  1.00  0.00    -0.268 OA
ATOM     91  C   UNL A   1      35.676  22.024  25.416  1.00  0.00     0.074 A 
ATOM     92  C   UNL A   1      33.682  20.057  24.910  1.00  0.00     0.074 A 
ATOM     93  Cl  UNL A   1      36.857  23.238  25.749  1.00  0.00    -0.082 Cl
ATOM     94  C   UNL A   1      36.043  20.704  25.085  1.00  0.00     0.080 A 
ATOM     95  C   UNL A   1      35.048  19.729  24.807  1.00  0.00     0.080 A 
ATOM     96  Cl  UNL A   1      32.443  18.917  24.523  1.00  0.00    -0.082 Cl
ATOM     97  Cl  UNL A   1      37.729  20.277  25.002  1.00  0.00    -0.081 Cl
ATOM     98  Cl  UNL A   1      35.516  18.125  24.323  1.00  0.00    -0.081 Cl
ENDBRANCH  80  84
ENDBRANCH  77  80
ENDBRANCH  75  76
ENDBRANCH  74  75
ENDBRANCH  73  74
ENDBRANCH   1  73
TORSDOF 19
ENDMDL
MODEL 2
REMARK VINA RESULT:     -11.3      1.656      7.701
REMARK SMILES O=C(NCCCCCCNC(=O)[C@@H](CO)N1C(=O)c2c(Cl)c(Cl)c(Cl)c(Cl)c2C1=O)c1ccc(-c2c3nc(c(-c4cccc(S(=O)(=O)[O-])c4F)c4ccc([nH]4)c(-c4cccc(S(=O)(=O)[O-])c4F)c4nc(c(-c5cccc(S(=O)(=O)[O-])c5F)c5ccc2[nH]5)C=C4)C=C3)cc1
REMARK SMILES IDX 6 1 5 2 4 3 3 4 1 5 2 6 31 8 32 9 93 10 33 11 92 12 34 13
REMARK SMILES IDX 35 14 36 15 86 16 37 17 91 18 85 19 87 20 38 21 90 22 84 23
REMARK SMILES IDX 83 24 39 26 71 27 51 28 70 29 52 30 55 31 69 32 88 33 53 34
REMARK SMILES IDX 54 35 68 37 89 38 56 39 40 40 41 41 49 42 42 43 44 44 50 45
REMARK SMILES IDX 43 46 45 47 46 48 47 49 48 50 72 51 73 52 81 53 74 54 76 55
REMARK SMILES IDX 82 56 75 57 77 58 78 59 79 60 80 61 57 62 58 63 66 64 59 65
REMARK SMILES IDX 61 66 67 67 60 68 62 69 63 70 64 71 65 72 7 73 8 74 9 75
REMARK SMILES IDX 10 76 11 77 12 79 13 80 14 81 15 82 16 84 17 85 29 86 18 87
REMARK SMILES IDX 19 88 28 89 30 90 20 91 26 92 21 93 22 94 24 95 27 96 23 97
REMARK SMILES IDX 25 98
REMARK H PARENT 3 7 87 25 55 36 10 78 15 83
REMARK Flexibility Score: inf
ROOT
ATOM      1  C   UNL A   1      32.810  28.925  27.444  1.00  0.00     0.002 C 
ENDROOT
BRANCH   1   2
ATOM      2  C   UNL A   1      32.100  30.256  27.185  1.00  0.00     0.021 C 
BRANCH   2   3
ATOM      3  C   UNL A   1      32.927  31.319  26.469  1.00  0.00     0.116 C 
BRANCH   3   4
ATOM      4  N   UNL A   1      32.662  32.658  26.962  1.00  0.00    -0.352 N 
ATOM      5  O   UNL A   1      32.831  34.430  28.336  1.00  0.00    -0.269 OA
ATOM      6  C   UNL A   1      33.303  33.364  27.951  1.00  0.00     0.251 C 
ATOM      7  H   UNL A   1      31.916  33.128  26.526  1.00  0.00     0.163 HD
BRANCH   6   8
ATOM      8  C   UNL A   1      34.541  32.829  28.563  1.00  0.00     0.039 A 
ATOM      9  C   UNL A   1      35.788  33.394  28.279  1.00  0.00     0.014 A 
ATOM     10  C   UNL A   1      34.445  31.759  29.457  1.00  0.00     0.014 A 
ATOM     11  C   UNL A   1      36.945  32.815  28.794  1.00  0.00     0.010 A 
ATOM     12  C   UNL A   1      35.604  31.225  30.031  1.00  0.00     0.010 A 
ATOM     13  C   UNL A   1      36.865  31.734  29.686  1.00  0.00    -0.014 A 
BRANCH  13  14
ATOM     14  C   UNL A   1      38.103  31.210  30.317  1.00  0.00     0.031 A 
ATOM     15  C   UNL A   1      38.488  31.587  31.719  1.00  0.00     0.074 A 
ATOM     16  C   UNL A   1      38.893  30.392  29.594  1.00  0.00     0.049 A 
ATOM     17  N   UNL A   1      39.525  31.199  32.417  1.00  0.00    -0.248 NA
ATOM     18  C   UNL A   1      37.605  32.524  32.431  1.00  0.00     0.031 C 
ATOM     19  C   UNL A   1      38.648  30.002  28.203  1.00  0.00     0.029 A 
ATOM     20  N   UNL A   1      40.060  29.749  29.918  1.00  0.00    -0.354 N 
ATOM     21  C   UNL A   1      39.442  31.868  33.633  1.00  0.00     0.074 A 
ATOM     22  C   UNL A   1      38.256  32.694  33.576  1.00  0.00     0.031 C 
ATOM     23  C   UNL A   1      39.620  29.172  27.801  1.00  0.00     0.029 A 
ATOM     24  C   UNL A   1      40.580  29.004  28.886  1.00  0.00     0.049 A 
ATOM     25  H   UNL A   1      40.484  29.814  30.804  1.00  0.00     0.167 HD
ATOM     26  C   UNL A   1      40.271  31.784  34.703  1.00  0.00     0.034 A 
ATOM     27  C   UNL A   1      41.708  28.272  28.815  1.00  0.00     0.034 A 
ATOM     28  C   UNL A   1      41.428  30.930  34.765  1.00  0.00     0.049 A 
ATOM     29  C   UNL A   1      42.586  28.170  30.028  1.00  0.00     0.074 A 
ATOM     30  C   UNL A   1      42.289  30.724  35.830  1.00  0.00     0.029 A 
ATOM     31  N   UNL A   1      41.891  30.144  33.721  1.00  0.00    -0.354 N 
ATOM     32  N   UNL A   1      42.413  28.701  31.215  1.00  0.00    -0.248 NA
ATOM     33  C   UNL A   1      43.797  27.348  29.905  1.00  0.00     0.031 C 
ATOM     34  C   UNL A   1      43.280  29.823  35.424  1.00  0.00     0.029 A 
ATOM     35  C   UNL A   1      43.029  29.457  34.111  1.00  0.00     0.049 A 
ATOM     36  H   UNL A   1      41.472  30.082  32.832  1.00  0.00     0.167 HD
ATOM     37  C   UNL A   1      43.481  28.261  31.986  1.00  0.00     0.074 A 
ATOM     38  C   UNL A   1      44.279  27.397  31.140  1.00  0.00     0.031 C 
ATOM     39  C   UNL A   1      43.786  28.563  33.272  1.00  0.00     0.034 A 
BRANCH  26  40
ATOM     40  C   UNL A   1      39.930  32.601  35.921  1.00  0.00     0.023 A 
ATOM     41  C   UNL A   1      40.550  33.853  36.110  1.00  0.00     0.012 A 
ATOM     42  C   UNL A   1      38.948  32.173  36.836  1.00  0.00     0.148 A 
ATOM     43  C   UNL A   1      40.214  34.656  37.200  1.00  0.00     0.002 A 
ATOM     44  C   UNL A   1      38.593  32.994  37.902  1.00  0.00     0.091 A 
ATOM     45  F   UNL A   1      38.386  30.969  36.655  1.00  0.00    -0.205 F 
ATOM     46  C   UNL A   1      39.231  34.232  38.089  1.00  0.00     0.022 A 
BRANCH  44  47
ATOM     47  S   UNL A   1      37.287  32.564  39.059  1.00  0.00     0.127 S 
ATOM     48  O   UNL A   1      37.592  31.162  39.340  1.00  0.00    -0.237 OA
ATOM     49  O   UNL A   1      37.546  33.478  40.174  1.00  0.00    -0.237 OA
ATOM     50  O   UNL A   1      36.036  32.808  38.356  1.00  0.00    -0.744 OA
ENDBRANCH  44  47
ENDBRANCH  26  40
BRANCH  27  51
ATOM     51  C   UNL A   1      42.025  27.533  27.561  1.00  0.00     0.023 A 
ATOM     52  C   UNL A   1      42.518  28.241  26.449  1.00  0.00     0.012 A 
ATOM     53  C   UNL A   1      41.909  26.132  27.488  1.00  0.00     0.148 A 
ATOM     54  C   UNL A   1      42.871  27.568  25.278  1.00  0.00     0.002 A 
ATOM     55  C   UNL A   1      42.317  25.462  26.341  1.00  0.00     0.091 A 
ATOM     56  F   UNL A   1      41.419  25.478  28.551  1.00  0.00    -0.205 F 
ATOM     57  C   UNL A   1      42.785  26.179  25.230  1.00  0.00     0.022 A 
BRANCH  55  58
ATOM     58  S   UNL A   1      42.377  23.668  26.257  1.00  0.00     0.127 S 
ATOM     59  O   UNL A   1      40.973  23.313  26.440  1.00  0.00    -0.237 OA
ATOM     60  O   UNL A   1      42.900  23.441  24.909  1.00  0.00    -0.237 OA
ATOM     61  O   UNL A   1      43.285  23.263  27.322  1.00  0.00    -0.744 OA
ENDBRANCH  55  58
ENDBRANCH  27  51
BRANCH  39  62
ATOM     62  C   UNL A   1      45.030  27.946  33.852  1.00  0.00     0.023 A 
ATOM     63  C   UNL A   1      46.241  28.665  33.812  1.00  0.00     0.012 A 
ATOM     64  C   UNL A   1      44.989  26.691  34.486  1.00  0.00     0.148 A 
ATOM     65  C   UNL A   1      47.400  28.129  34.372  1.00  0.00     0.002 A 
ATOM     66  C   UNL A   1      46.137  26.183  35.080  1.00  0.00     0.091 A 
ATOM     67  F   UNL A   1      43.831  26.013  34.493  1.00  0.00    -0.205 F 
ATOM     68  C   UNL A   1      47.346  26.895  35.016  1.00  0.00     0.022 A 
BRANCH  66  69
ATOM     69  S   UNL A   1      46.136  24.641  36.003  1.00  0.00     0.127 S 
ATOM     70  O   UNL A   1      45.905  23.659  34.945  1.00  0.00    -0.237 OA
ATOM     71  O   UNL A   1      47.483  24.615  36.576  1.00  0.00    -0.237 OA
ATOM     72  O   UNL A   1      45.069  24.769  36.987  1.00  0.00    -0.744 OA
ENDBRANCH  66  69
ENDBRANCH  39  62
ENDBRANCH  13  14
ENDBRANCH   6   8
ENDBRANCH   3   4
ENDBRANCH   2   3
ENDBRANCH   1   2
BRANCH   1  73
ATOM     73  C   UNL A   1      31.988  27.659  27.185  1.00  0.00     0.002 C 
BRANCH  73  74
ATOM     74  C   UNL A   1      31.666  27.357  25.721  1.00  0.00     0.021 C 
BRANCH  74  75
ATOM     75  C   UNL A   1      30.487  26.418  25.491  1.00  0.00     0.116 C 
BRANCH  75  76
ATOM     76  N   UNL A   1      30.392  25.388  26.502  1.00  0.00    -0.354 N 
ATOM     77  C   UNL A   1      30.560  24.041  26.415  1.00  0.00     0.245 C 
ATOM     78  H   UNL A   1      30.169  25.717  27.403  1.00  0.00     0.163 HD
ATOM     79  O   UNL A   1      30.268  23.395  27.429  1.00  0.00    -0.273 OA
BRANCH  77  80
ATOM     80  C   UNL A   1      30.992  23.299  25.132  1.00  0.00     0.208 C 
BRANCH  80  81
ATOM     81  C   UNL A   1      30.678  24.064  23.836  1.00  0.00     0.191 C 
BRANCH  81  82
ATOM     82  O   UNL A   1      31.062  23.439  22.623  1.00  0.00    -0.394 OA
ATOM     83  H   UNL A   1      31.537  24.075  22.068  1.00  0.00     0.210 HD
ENDBRANCH  81  82
ENDBRANCH  80  81
BRANCH  80  84
ATOM     84  N   UNL A   1      32.292  22.613  25.237  1.00  0.00    -0.259 N 
ATOM     85  C   UNL A   1      33.442  23.324  25.476  1.00  0.00     0.264 C 
ATOM     86  C   UNL A   1      32.569  21.282  25.170  1.00  0.00     0.264 C 
ATOM     87  O   UNL A   1      33.554  24.515  25.674  1.00  0.00    -0.268 OA
ATOM     88  C   UNL A   1      34.561  22.378  25.442  1.00  0.00     0.075 A 
ATOM     89  C   UNL A   1      34.026  21.134  25.164  1.00  0.00     0.075 A 
ATOM     90  O   UNL A   1      31.816  20.328  25.193  1.00  0.00    -0.268 OA
ATOM     91  C   UNL A   1      35.924  22.570  25.597  1.00  0.00     0.074 A 
ATOM     92  C   UNL A   1      34.829  20.029  24.931  1.00  0.00     0.074 A 
ATOM     93  Cl  UNL A   1      36.550  24.123  26.022  1.00  0.00    -0.082 Cl
ATOM     94  C   UNL A   1      36.767  21.459  25.406  1.00  0.00     0.080 A 
ATOM     95  C   UNL A   1      36.223  20.196  25.047  1.00  0.00     0.080 A 
ATOM     96  Cl  UNL A   1      34.132  18.527  24.439  1.00  0.00    -0.082 Cl
ATOM     97  Cl  UNL A   1      38.489  21.644  25.595  1.00  0.00    -0.081 Cl
ATOM     98  Cl  UNL A   1      37.282  18.851  24.737  1.00  0.00    -0.081 Cl
ENDBRANCH  80  84
ENDBRANCH  77  80
ENDBRANCH  75  76
ENDBRANCH  74  75
ENDBRANCH  73  74
ENDBRANCH   1  73
TORSDOF 19
ENDMDL
MODEL 3
REMARK VINA RESULT:     -11.3      1.934      7.895
REMARK SMILES O=C(NCCCCCCNC(=O)[C@@H](CO)N1C(=O)c2c(Cl)c(Cl)c(Cl)c(Cl)c2C1=O)c1ccc(-c2c3nc(c(-c4cccc(S(=O)(=O)[O-])c4F)c4ccc([nH]4)c(-c4cccc(S(=O)(=O)[O-])c4F)c4nc(c(-c5cccc(S(=O)(=O)[O-])c5F)c5ccc2[nH]5)C=C4)C=C3)cc1
REMARK SMILES IDX 6 1 5 2 4 3 3 4 1 5 2 6 31 8 32 9 93 10 33 11 92 12 34 13
REMARK SMILES IDX 35 14 36 15 86 16 37 17 91 18 85 19 87 20 38 21 90 22 84 23
REMARK SMILES IDX 83 24 39 26 71 27 51 28 70 29 52 30 55 31 69 32 88 33 53 34
REMARK SMILES IDX 54 35 68 37 89 38 56 39 40 40 41 41 49 42 42 43 44 44 50 45
REMARK SMILES IDX 43 46 45 47 46 48 47 49 48 50 72 51 73 52 81 53 74 54 76 55
REMARK SMILES IDX 82 56 75 57 77 58 78 59 79 60 80 61 57 62 58 63 66 64 59 65
REMARK SMILES IDX 61 66 67 67 60 68 62 69 63 70 64 71 65 72 7 73 8 74 9 75
REMARK SMILES IDX 10 76 11 77 12 79 13 80 14 81 15 82 16 84 17 85 29 86 18 87
REMARK SMILES IDX 19 88 28 89 30 90 20 91 26 92 21 93 22 94 24 95 27 96 23 97
REMARK SMILES IDX 25 98
REMARK H PARENT 3 7 87 25 55 36 10 78 15 83
REMARK Flexibility Score: inf
ROOT
ATOM      1  C   UNL A   1      32.562  28.547  25.896  1.00  0.00     0.002 C 
ENDROOT
BRANCH   1   2
ATOM      2  C   UNL A   1      32.807  30.058  25.899  1.00  0.00     0.021 C 
BRANCH   2   3
ATOM      3  C   UNL A   1      32.761  30.732  27.266  1.00  0.00     0.116 C 
BRANCH   3   4
ATOM      4  N   UNL A   1      32.913  32.174  27.183  1.00  0.00    -0.352 N 
ATOM      5  O   UNL A   1      33.760  34.198  27.672  1.00  0.00    -0.269 OA
ATOM      6  C   UNL A   1      33.889  32.978  27.718  1.00  0.00     0.251 C 
ATOM      7  H   UNL A   1      32.215  32.642  26.671  1.00  0.00     0.163 HD
BRANCH   6   8
ATOM      8  C   UNL A   1      35.077  32.375  28.365  1.00  0.00     0.039 A 
ATOM      9  C   UNL A   1      35.000  31.130  28.997  1.00  0.00     0.014 A 
ATOM     10  C   UNL A   1      36.295  33.059  28.315  1.00  0.00     0.014 A 
ATOM     11  C   UNL A   1      36.105  30.627  29.678  1.00  0.00     0.010 A 
ATOM     12  C   UNL A   1      37.424  32.517  28.938  1.00  0.00     0.010 A 
ATOM     13  C   UNL A   1      37.333  31.309  29.644  1.00  0.00    -0.014 A 
BRANCH  13  14
ATOM     14  C   UNL A   1      38.529  30.695  30.274  1.00  0.00     0.031 A 
ATOM     15  C   UNL A   1      38.964  31.072  31.662  1.00  0.00     0.074 A 
ATOM     16  C   UNL A   1      39.235  29.792  29.565  1.00  0.00     0.049 A 
ATOM     17  N   UNL A   1      39.973  30.613  32.358  1.00  0.00    -0.248 NA
ATOM     18  C   UNL A   1      38.176  32.102  32.358  1.00  0.00     0.031 C 
ATOM     19  C   UNL A   1      38.939  29.389  28.188  1.00  0.00     0.029 A 
ATOM     20  N   UNL A   1      40.346  29.058  29.894  1.00  0.00    -0.354 N 
ATOM     21  C   UNL A   1      39.964  31.318  33.557  1.00  0.00     0.074 A 
ATOM     22  C   UNL A   1      38.854  32.244  33.491  1.00  0.00     0.031 C 
ATOM     23  C   UNL A   1      39.829  28.468  27.797  1.00  0.00     0.029 A 
ATOM     24  C   UNL A   1      40.784  28.244  28.877  1.00  0.00     0.049 A 
ATOM     25  H   UNL A   1      40.786  29.109  30.773  1.00  0.00     0.167 HD
ATOM     26  C   UNL A   1      40.796  31.190  34.619  1.00  0.00     0.034 A 
ATOM     27  C   UNL A   1      41.843  27.414  28.812  1.00  0.00     0.034 A 
ATOM     28  C   UNL A   1      41.875  30.240  34.692  1.00  0.00     0.049 A 
ATOM     29  C   UNL A   1      42.725  27.268  30.019  1.00  0.00     0.074 A 
ATOM     30  C   UNL A   1      42.729  29.987  35.752  1.00  0.00     0.029 A 
ATOM     31  N   UNL A   1      42.254  29.389  33.665  1.00  0.00    -0.354 N 
ATOM     32  N   UNL A   1      42.615  27.842  31.193  1.00  0.00    -0.248 NA
ATOM     33  C   UNL A   1      43.858  26.340  29.904  1.00  0.00     0.031 C 
ATOM     34  C   UNL A   1      43.632  28.992  35.360  1.00  0.00     0.029 A 
ATOM     35  C   UNL A   1      43.333  28.616  34.061  1.00  0.00     0.049 A 
ATOM     36  H   UNL A   1      41.820  29.342  32.783  1.00  0.00     0.167 HD
ATOM     37  C   UNL A   1      43.651  27.330  31.964  1.00  0.00     0.074 A 
ATOM     38  C   UNL A   1      44.359  26.378  31.133  1.00  0.00     0.031 C 
ATOM     39  C   UNL A   1      43.997  27.637  33.238  1.00  0.00     0.034 A 
BRANCH  26  40
ATOM     40  C   UNL A   1      40.545  32.065  35.819  1.00  0.00     0.023 A 
ATOM     41  C   UNL A   1      41.418  33.138  36.088  1.00  0.00     0.012 A 
ATOM     42  C   UNL A   1      39.410  31.877  36.634  1.00  0.00     0.148 A 
ATOM     43  C   UNL A   1      41.179  33.998  37.160  1.00  0.00     0.002 A 
ATOM     44  C   UNL A   1      39.160  32.760  37.681  1.00  0.00     0.091 A 
ATOM     45  F   UNL A   1      38.603  30.837  36.379  1.00  0.00    -0.205 F 
ATOM     46  C   UNL A   1      40.047  33.815  37.949  1.00  0.00     0.022 A 
BRANCH  44  47
ATOM     47  S   UNL A   1      37.690  32.647  38.708  1.00  0.00     0.127 S 
ATOM     48  O   UNL A   1      36.631  32.930  37.739  1.00  0.00    -0.237 OA
ATOM     49  O   UNL A   1      37.738  31.258  39.168  1.00  0.00    -0.237 OA
ATOM     50  O   UNL A   1      37.861  33.639  39.760  1.00  0.00    -0.744 OA
ENDBRANCH  44  47
ENDBRANCH  26  40
BRANCH  27  51
ATOM     51  C   UNL A   1      42.079  26.618  27.576  1.00  0.00     0.023 A 
ATOM     52  C   UNL A   1      42.694  27.230  26.468  1.00  0.00     0.012 A 
ATOM     53  C   UNL A   1      41.761  25.248  27.516  1.00  0.00     0.148 A 
ATOM     54  C   UNL A   1      42.973  26.496  25.314  1.00  0.00     0.002 A 
ATOM     55  C   UNL A   1      42.094  24.509  26.387  1.00  0.00     0.091 A 
ATOM     56  F   UNL A   1      41.157  24.688  28.574  1.00  0.00    -0.205 F 
ATOM     57  C   UNL A   1      42.686  25.133  25.280  1.00  0.00     0.022 A 
BRANCH  55  58
ATOM     58  S   UNL A   1      41.894  22.724  26.325  1.00  0.00     0.127 S 
ATOM     59  O   UNL A   1      40.441  22.585  26.339  1.00  0.00    -0.237 OA
ATOM     60  O   UNL A   1      42.534  22.387  25.053  1.00  0.00    -0.237 OA
ATOM     61  O   UNL A   1      42.597  22.218  27.497  1.00  0.00    -0.744 OA
ENDBRANCH  55  58
ENDBRANCH  27  51
BRANCH  39  62
ATOM     62  C   UNL A   1      45.190  26.929  33.820  1.00  0.00     0.023 A 
ATOM     63  C   UNL A   1      46.453  27.551  33.777  1.00  0.00     0.012 A 
ATOM     64  C   UNL A   1      45.053  25.683  34.461  1.00  0.00     0.148 A 
ATOM     65  C   UNL A   1      47.568  26.930  34.339  1.00  0.00     0.002 A 
ATOM     66  C   UNL A   1      46.159  25.091  35.057  1.00  0.00     0.091 A 
ATOM     67  F   UNL A   1      43.846  25.097  34.470  1.00  0.00    -0.205 F 
ATOM     68  C   UNL A   1      47.420  25.707  34.989  1.00  0.00     0.022 A 
BRANCH  66  69
ATOM     69  S   UNL A   1      46.039  23.558  35.987  1.00  0.00     0.127 S 
ATOM     70  O   UNL A   1      44.946  23.855  36.912  1.00  0.00    -0.237 OA
ATOM     71  O   UNL A   1      45.711  22.582  34.947  1.00  0.00    -0.237 OA
ATOM     72  O   UNL A   1      47.347  23.364  36.601  1.00  0.00    -0.744 OA
ENDBRANCH  66  69
ENDBRANCH  39  62
ENDBRANCH  13  14
ENDBRANCH   6   8
ENDBRANCH   3   4
ENDBRANCH   2   3
ENDBRANCH   1   2
BRANCH   1  73
ATOM     73  C   UNL A   1      31.297  28.069  25.176  1.00  0.00     0.002 C 
BRANCH  73  74
ATOM     74  C   UNL A   1      31.343  28.100  23.648  1.00  0.00     0.021 C 
BRANCH  74  75
ATOM     75  C   UNL A   1      32.027  26.906  22.991  1.00  0.00     0.116 C 
BRANCH  75  76
ATOM     76  N   UNL A   1      31.149  25.764  22.863  1.00  0.00    -0.354 N 
ATOM     77  C   UNL A   1      31.040  24.639  23.620  1.00  0.00     0.245 C 
ATOM     78  H   UNL A   1      30.527  25.809  22.102  1.00  0.00     0.163 HD
ATOM     79  O   UNL A   1      30.290  23.761  23.177  1.00  0.00    -0.273 OA
BRANCH  77  80
ATOM     80  C   UNL A   1      31.848  24.377  24.910  1.00  0.00     0.208 C 
BRANCH  80  81
ATOM     81  C   UNL A   1      31.003  24.424  26.193  1.00  0.00     0.191 C 
BRANCH  81  82
ATOM     82  O   UNL A   1      29.825  23.637  26.205  1.00  0.00    -0.394 OA
ATOM     83  H   UNL A   1      29.048  24.217  26.220  1.00  0.00     0.210 HD
ENDBRANCH  81  82
ENDBRANCH  80  81
BRANCH  80  84
ATOM     84  N   UNL A   1      32.864  23.318  24.784  1.00  0.00    -0.259 N 
ATOM     85  C   UNL A   1      32.507  21.994  24.854  1.00  0.00     0.264 C 
ATOM     86  C   UNL A   1      34.201  23.432  24.554  1.00  0.00     0.264 C 
ATOM     87  O   UNL A   1      31.394  21.527  24.967  1.00  0.00    -0.268 OA
ATOM     88  C   UNL A   1      33.737  21.201  24.779  1.00  0.00     0.075 A 
ATOM     89  C   UNL A   1      34.787  22.096  24.684  1.00  0.00     0.075 A 
ATOM     90  O   UNL A   1      34.852  24.401  24.216  1.00  0.00    -0.268 OA
ATOM     91  C   UNL A   1      33.946  19.832  24.827  1.00  0.00     0.074 A 
ATOM     92  C   UNL A   1      36.108  21.681  24.728  1.00  0.00     0.074 A 
ATOM     93  Cl  UNL A   1      32.608  18.740  24.866  1.00  0.00    -0.082 Cl
ATOM     94  C   UNL A   1      35.277  19.373  24.832  1.00  0.00     0.080 A 
ATOM     95  C   UNL A   1      36.357  20.297  24.809  1.00  0.00     0.080 A 
ATOM     96  Cl  UNL A   1      37.390  22.837  24.758  1.00  0.00    -0.082 Cl
ATOM     97  Cl  UNL A   1      35.595  17.661  24.885  1.00  0.00    -0.081 Cl
ATOM     98  Cl  UNL A   1      37.996  19.718  24.897  1.00  0.00    -0.081 Cl
ENDBRANCH  80  84
ENDBRANCH  77  80
ENDBRANCH  75  76
ENDBRANCH  74  75
ENDBRANCH  73  74
ENDBRANCH   1  73
TORSDOF 19
ENDMDL
