MODEL 1
REMARK VINA RESULT:     -12.0      0.000      0.000
REMARK SMILES CS(=O)(=O)N(Cc1ccc(Cl)cc1)c1ccc(C(=O)Nc2ccccc2C(=O)NCCCCCCNC(=O)c2ccc(-c3c4nc(c(-c5cccc(S(=O)(=O)[O-])c5F)c5ccc([nH]5)c(-c5cccc(S(=O)(=O)[O-])c5F)c5nc(c(-c6cccc(S(=O)(=O)[O-])c6F)c6ccc3[nH]6)C=C5)C=C4)cc2)cc1
REMARK SMILES IDX 31 1 30 2 29 3 27 4 28 5 26 7 21 8 22 9 23 10 25 11 24 12
REMARK SMILES IDX 20 13 18 14 19 15 17 17 14 18 15 19 103 20 16 21 102 22 5 23
REMARK SMILES IDX 2 24 1 25 3 26 4 27 6 28 7 29 8 30 13 31 9 32 12 33 10 34
REMARK SMILES IDX 11 35 32 36 33 37 34 38 35 39 36 40 37 41 38 43 39 44 40 45
REMARK SMILES IDX 101 46 41 47 100 48 42 49 43 50 44 51 94 52 45 53 99 54
REMARK SMILES IDX 93 55 95 56 46 57 98 58 92 59 91 60 47 62 79 63 59 64 78 65
REMARK SMILES IDX 60 66 63 67 77 68 96 69 61 70 62 71 76 73 97 74 64 75 48 76
REMARK SMILES IDX 49 77 57 78 50 79 52 80 58 81 51 82 53 83 54 84 55 85 56 86
REMARK SMILES IDX 80 87 81 88 89 89 82 90 84 91 90 92 83 93 85 94 86 95 87 96
REMARK SMILES IDX 88 97 65 98 66 99 74 100 67 101 69 102 75 103 68 104 70 105
REMARK SMILES IDX 71 106 72 107 73 108
REMARK H PARENT 29 6 20 16 36 42 95 61 63 72
REMARK Flexibility Score: inf
ROOT
ATOM      1  C   UNL A   1      33.199  30.880  27.032  1.00  0.00     0.021 C 
ENDROOT
BRANCH   1   2
ATOM      2  C   UNL A   1      33.406  29.522  26.371  1.00  0.00     0.116 C 
BRANCH   2   3
ATOM      3  N   UNL A   1      33.629  29.579  24.944  1.00  0.00    -0.352 N 
ATOM      4  C   UNL A   1      32.972  28.953  23.912  1.00  0.00     0.253 C 
ATOM      5  O   UNL A   1      33.363  29.211  22.769  1.00  0.00    -0.269 OA
ATOM      6  H   UNL A   1      34.372  30.160  24.666  1.00  0.00     0.163 HD
BRANCH   4   7
ATOM      7  C   UNL A   1      31.896  27.922  24.094  1.00  0.00     0.063 A 
ATOM      8  C   UNL A   1      31.304  27.079  23.129  1.00  0.00     0.054 A 
ATOM      9  C   UNL A   1      30.186  26.301  23.486  1.00  0.00     0.027 A 
ATOM     10  C   UNL A   1      29.762  26.210  24.811  1.00  0.00     0.002 A 
ATOM     11  C   UNL A   1      31.457  27.799  25.432  1.00  0.00     0.016 A 
ATOM     12  C   UNL A   1      30.422  26.933  25.793  1.00  0.00     0.001 A 
BRANCH   8  13
ATOM     13  N   UNL A   1      31.776  26.795  21.831  1.00  0.00    -0.321 N 
ATOM     14  C   UNL A   1      32.746  25.913  21.409  1.00  0.00     0.255 C 
ATOM     15  O   UNL A   1      33.136  25.943  20.244  1.00  0.00    -0.269 OA
ATOM     16  H   UNL A   1      31.343  27.309  21.111  1.00  0.00     0.170 HD
BRANCH  14  17
ATOM     17  C   UNL A   1      33.312  24.909  22.329  1.00  0.00     0.040 A 
ATOM     18  C   UNL A   1      34.388  22.926  24.024  1.00  0.00     0.052 A 
ATOM     19  C   UNL A   1      33.584  22.587  22.925  1.00  0.00     0.028 A 
ATOM     20  C   UNL A   1      34.683  24.283  24.211  1.00  0.00     0.028 A 
ATOM     21  C   UNL A   1      33.026  23.567  22.102  1.00  0.00     0.016 A 
ATOM     22  C   UNL A   1      34.115  25.269  23.406  1.00  0.00     0.016 A 
BRANCH  18  23
ATOM     23  N   UNL A   1      34.862  21.929  24.980  1.00  0.00    -0.266 N 
BRANCH  23  24
ATOM     24  S   UNL A   1      33.753  21.409  26.150  1.00  0.00     0.232 S 
ATOM     25  C   UNL A   1      33.275  19.753  25.724  1.00  0.00     0.183 C 
ATOM     26  O   UNL A   1      32.558  22.228  26.026  1.00  0.00    -0.207 OA
ATOM     27  O   UNL A   1      34.436  21.300  27.420  1.00  0.00    -0.207 OA
ENDBRANCH  23  24
BRANCH  23  28
ATOM     28  C   UNL A   1      36.129  21.205  24.745  1.00  0.00     0.170 C 
BRANCH  28  29
ATOM     29  C   UNL A   1      37.408  21.781  25.332  1.00  0.00    -0.027 A 
ATOM     30  C   UNL A   1      37.516  23.107  25.781  1.00  0.00     0.007 A 
ATOM     31  C   UNL A   1      38.509  20.921  25.510  1.00  0.00     0.007 A 
ATOM     32  C   UNL A   1      38.654  23.532  26.476  1.00  0.00     0.021 A 
ATOM     33  C   UNL A   1      39.651  21.352  26.188  1.00  0.00     0.021 A 
ATOM     34  C   UNL A   1      39.711  22.650  26.686  1.00  0.00     0.041 A 
ATOM     35  Cl  UNL A   1      41.089  23.157  27.582  1.00  0.00    -0.084 Cl
ENDBRANCH  28  29
ENDBRANCH  23  28
ENDBRANCH  18  23
ENDBRANCH  14  17
ENDBRANCH   8  13
ENDBRANCH   4   7
ENDBRANCH   2   3
ENDBRANCH   1   2
BRANCH   1  36
ATOM     36  C   UNL A   1      34.251  31.304  28.066  1.00  0.00     0.002 C 
BRANCH  36  37
ATOM     37  C   UNL A   1      34.587  32.795  28.173  1.00  0.00     0.002 C 
BRANCH  37  38
ATOM     38  C   UNL A   1      33.418  33.780  28.217  1.00  0.00     0.021 C 
BRANCH  38  39
ATOM     39  C   UNL A   1      33.761  35.215  28.594  1.00  0.00     0.116 C 
BRANCH  39  40
ATOM     40  N   UNL A   1      32.872  35.776  29.597  1.00  0.00    -0.352 N 
ATOM     41  C   UNL A   1      32.900  35.619  30.963  1.00  0.00     0.251 C 
ATOM     42  H   UNL A   1      32.150  36.350  29.251  1.00  0.00     0.163 HD
ATOM     43  O   UNL A   1      32.003  36.088  31.655  1.00  0.00    -0.269 OA
BRANCH  41  44
ATOM     44  C   UNL A   1      34.004  34.859  31.592  1.00  0.00     0.039 A 
ATOM     45  C   UNL A   1      33.761  33.554  32.033  1.00  0.00     0.014 A 
ATOM     46  C   UNL A   1      35.274  35.422  31.735  1.00  0.00     0.014 A 
ATOM     47  C   UNL A   1      34.810  32.792  32.559  1.00  0.00     0.010 A 
ATOM     48  C   UNL A   1      36.330  34.640  32.191  1.00  0.00     0.010 A 
ATOM     49  C   UNL A   1      36.110  33.318  32.611  1.00  0.00    -0.014 A 
BRANCH  49  50
ATOM     50  C   UNL A   1      37.263  32.523  33.106  1.00  0.00     0.031 A 
ATOM     51  C   UNL A   1      37.933  32.914  34.397  1.00  0.00     0.074 A 
ATOM     52  C   UNL A   1      37.774  31.530  32.350  1.00  0.00     0.049 A 
ATOM     53  N   UNL A   1      39.048  32.472  34.918  1.00  0.00    -0.248 NA
ATOM     54  C   UNL A   1      37.275  33.965  35.195  1.00  0.00     0.031 C 
ATOM     55  C   UNL A   1      37.244  31.088  31.057  1.00  0.00     0.029 A 
ATOM     56  N   UNL A   1      38.880  30.737  32.541  1.00  0.00    -0.354 N 
ATOM     57  C   UNL A   1      39.244  33.212  36.078  1.00  0.00     0.074 A 
ATOM     58  C   UNL A   1      38.151  34.154  36.171  1.00  0.00     0.031 C 
ATOM     59  C   UNL A   1      38.033  30.118  30.565  1.00  0.00     0.029 A 
ATOM     60  C   UNL A   1      39.144  29.896  31.484  1.00  0.00     0.049 A 
ATOM     61  H   UNL A   1      39.432  30.769  33.355  1.00  0.00     0.167 HD
ATOM     62  C   UNL A   1      40.230  33.098  36.999  1.00  0.00     0.034 A 
ATOM     63  C   UNL A   1      40.181  29.059  31.268  1.00  0.00     0.034 A 
ATOM     64  C   UNL A   1      41.291  32.131  36.922  1.00  0.00     0.049 A 
ATOM     65  C   UNL A   1      41.258  28.947  32.316  1.00  0.00     0.074 A 
ATOM     66  C   UNL A   1      42.311  31.902  37.828  1.00  0.00     0.029 A 
ATOM     67  N   UNL A   1      41.462  31.227  35.887  1.00  0.00    -0.354 N 
ATOM     68  N   UNL A   1      41.366  29.579  33.460  1.00  0.00    -0.248 NA
ATOM     69  C   UNL A   1      42.339  27.982  32.063  1.00  0.00     0.031 C 
ATOM     70  C   UNL A   1      43.109  30.869  37.333  1.00  0.00     0.029 A 
ATOM     71  C   UNL A   1      42.566  30.432  36.136  1.00  0.00     0.049 A 
ATOM     72  H   UNL A   1      40.884  31.160  35.093  1.00  0.00     0.167 HD
ATOM     73  C   UNL A   1      42.488  29.046  34.085  1.00  0.00     0.074 A 
ATOM     74  C   UNL A   1      43.024  28.037  33.196  1.00  0.00     0.031 C 
ATOM     75  C   UNL A   1      43.030  29.371  35.283  1.00  0.00     0.034 A 
BRANCH  62  76
ATOM     76  C   UNL A   1      40.180  33.997  38.206  1.00  0.00     0.023 A 
ATOM     77  C   UNL A   1      40.881  35.220  38.183  1.00  0.00     0.012 A 
ATOM     78  C   UNL A   1      39.372  33.683  39.316  1.00  0.00     0.148 A 
ATOM     79  C   UNL A   1      40.801  36.105  39.257  1.00  0.00     0.002 A 
ATOM     80  C   UNL A   1      39.262  34.590  40.363  1.00  0.00     0.091 A 
ATOM     81  F   UNL A   1      38.725  32.509  39.322  1.00  0.00    -0.205 F 
ATOM     82  C   UNL A   1      39.983  35.795  40.340  1.00  0.00     0.022 A 
BRANCH  80  83
ATOM     83  S   UNL A   1      38.173  34.327  41.768  1.00  0.00     0.127 S 
ATOM     84  O   UNL A   1      38.089  35.673  42.333  1.00  0.00    -0.237 OA
ATOM     85  O   UNL A   1      36.947  33.859  41.122  1.00  0.00    -0.237 OA
ATOM     86  O   UNL A   1      38.833  33.342  42.613  1.00  0.00    -0.744 OA
ENDBRANCH  80  83
ENDBRANCH  62  76
BRANCH  63  87
ATOM     87  C   UNL A   1      40.242  28.228  30.030  1.00  0.00     0.023 A 
ATOM     88  C   UNL A   1      39.394  27.110  29.905  1.00  0.00     0.012 A 
ATOM     89  C   UNL A   1      41.146  28.523  28.991  1.00  0.00     0.148 A 
ATOM     90  C   UNL A   1      39.478  26.272  28.793  1.00  0.00     0.002 A 
ATOM     91  C   UNL A   1      41.186  27.714  27.859  1.00  0.00     0.091 A 
ATOM     92  F   UNL A   1      41.955  29.581  29.131  1.00  0.00    -0.205 F 
ATOM     93  C   UNL A   1      40.369  26.577  27.767  1.00  0.00     0.022 A 
BRANCH  91  94
ATOM     94  S   UNL A   1      42.218  28.103  26.442  1.00  0.00     0.127 S 
ATOM     95  O   UNL A   1      41.874  29.501  26.196  1.00  0.00    -0.237 OA
ATOM     96  O   UNL A   1      43.563  27.883  26.973  1.00  0.00    -0.237 OA
ATOM     97  O   UNL A   1      41.822  27.160  25.404  1.00  0.00    -0.744 OA
ENDBRANCH  91  94
ENDBRANCH  63  87
BRANCH  75  98
ATOM     98  C   UNL A   1      44.214  28.576  35.764  1.00  0.00     0.023 A 
ATOM     99  C   UNL A   1      45.516  28.930  35.365  1.00  0.00     0.012 A 
ATOM    100  C   UNL A   1      44.032  27.549  36.712  1.00  0.00     0.148 A 
ATOM    101  C   UNL A   1      46.620  28.258  35.888  1.00  0.00     0.002 A 
ATOM    102  C   UNL A   1      45.138  26.920  37.267  1.00  0.00     0.091 A 
ATOM    103  F   UNL A   1      42.779  27.220  37.064  1.00  0.00    -0.205 F 
ATOM    104  C   UNL A   1      46.433  27.265  36.848  1.00  0.00     0.022 A 
BRANCH 102 105
ATOM    105  S   UNL A   1      44.999  25.706  38.583  1.00  0.00     0.127 S 
ATOM    106  O   UNL A   1      44.315  24.606  37.903  1.00  0.00    -0.237 OA
ATOM    107  O   UNL A   1      46.401  25.444  38.909  1.00  0.00    -0.237 OA
ATOM    108  O   UNL A   1      44.236  26.345  39.646  1.00  0.00    -0.744 OA
ENDBRANCH 102 105
ENDBRANCH  75  98
ENDBRANCH  49  50
ENDBRANCH  41  44
ENDBRANCH  39  40
ENDBRANCH  38  39
ENDBRANCH  37  38
ENDBRANCH  36  37
ENDBRANCH   1  36
TORSDOF 22
ENDMDL
MODEL 2
REMARK VINA RESULT:     -11.3      2.303      3.094
REMARK SMILES CS(=O)(=O)N(Cc1ccc(Cl)cc1)c1ccc(C(=O)Nc2ccccc2C(=O)NCCCCCCNC(=O)c2ccc(-c3c4nc(c(-c5cccc(S(=O)(=O)[O-])c5F)c5ccc([nH]5)c(-c5cccc(S(=O)(=O)[O-])c5F)c5nc(c(-c6cccc(S(=O)(=O)[O-])c6F)c6ccc3[nH]6)C=C5)C=C4)cc2)cc1
REMARK SMILES IDX 31 1 30 2 29 3 27 4 28 5 26 7 21 8 22 9 23 10 25 11 24 12
REMARK SMILES IDX 20 13 18 14 19 15 17 17 14 18 15 19 103 20 16 21 102 22 5 23
REMARK SMILES IDX 2 24 1 25 3 26 4 27 6 28 7 29 8 30 13 31 9 32 12 33 10 34
REMARK SMILES IDX 11 35 32 36 33 37 34 38 35 39 36 40 37 41 38 43 39 44 40 45
REMARK SMILES IDX 101 46 41 47 100 48 42 49 43 50 44 51 94 52 45 53 99 54
REMARK SMILES IDX 93 55 95 56 46 57 98 58 92 59 91 60 47 62 79 63 59 64 78 65
REMARK SMILES IDX 60 66 63 67 77 68 96 69 61 70 62 71 76 73 97 74 64 75 48 76
REMARK SMILES IDX 49 77 57 78 50 79 52 80 58 81 51 82 53 83 54 84 55 85 56 86
REMARK SMILES IDX 80 87 81 88 89 89 82 90 84 91 90 92 83 93 85 94 86 95 87 96
REMARK SMILES IDX 88 97 65 98 66 99 74 100 67 101 69 102 75 103 68 104 70 105
REMARK SMILES IDX 71 106 72 107 73 108
REMARK H PARENT 29 6 20 16 36 42 95 61 63 72
REMARK Flexibility Score: inf
ROOT
ATOM      1  C   UNL A   1      33.505  30.151  27.196  1.00  0.00     0.021 C 
ENDROOT
BRANCH   1   2
ATOM      2  C   UNL A   1      33.866  28.989  26.279  1.00  0.00     0.116 C 
BRANCH   2   3
ATOM      3  N   UNL A   1      33.812  29.300  24.869  1.00  0.00    -0.352 N 
ATOM      4  C   UNL A   1      32.955  28.861  23.889  1.00  0.00     0.253 C 
ATOM      5  O   UNL A   1      33.125  29.322  22.756  1.00  0.00    -0.269 OA
ATOM      6  H   UNL A   1      34.502  29.930  24.559  1.00  0.00     0.163 HD
BRANCH   4   7
ATOM      7  C   UNL A   1      31.909  27.803  24.090  1.00  0.00     0.063 A 
ATOM      8  C   UNL A   1      31.301  26.964  23.131  1.00  0.00     0.054 A 
ATOM      9  C   UNL A   1      30.215  26.154  23.514  1.00  0.00     0.027 A 
ATOM     10  C   UNL A   1      29.840  26.031  24.851  1.00  0.00     0.002 A 
ATOM     11  C   UNL A   1      31.521  27.646  25.440  1.00  0.00     0.016 A 
ATOM     12  C   UNL A   1      30.520  26.751  25.822  1.00  0.00     0.001 A 
BRANCH   8  13
ATOM     13  N   UNL A   1      31.733  26.714  21.812  1.00  0.00    -0.321 N 
ATOM     14  C   UNL A   1      32.686  25.841  21.337  1.00  0.00     0.255 C 
ATOM     15  O   UNL A   1      33.040  25.901  20.162  1.00  0.00    -0.269 OA
ATOM     16  H   UNL A   1      31.279  27.248  21.120  1.00  0.00     0.170 HD
BRANCH  14  17
ATOM     17  C   UNL A   1      33.277  24.811  22.212  1.00  0.00     0.040 A 
ATOM     18  C   UNL A   1      34.407  22.898  23.951  1.00  0.00     0.052 A 
ATOM     19  C   UNL A   1      34.523  24.273  24.206  1.00  0.00     0.028 A 
ATOM     20  C   UNL A   1      33.658  22.513  22.832  1.00  0.00     0.028 A 
ATOM     21  C   UNL A   1      33.990  25.223  23.332  1.00  0.00     0.016 A 
ATOM     22  C   UNL A   1      33.140  23.453  21.944  1.00  0.00     0.016 A 
BRANCH  18  23
ATOM     23  N   UNL A   1      35.078  21.894  24.773  1.00  0.00    -0.266 N 
BRANCH  23  24
ATOM     24  S   UNL A   1      36.769  21.844  24.682  1.00  0.00     0.232 S 
ATOM     25  C   UNL A   1      37.234  22.561  23.126  1.00  0.00     0.183 C 
ATOM     26  O   UNL A   1      37.170  20.448  24.629  1.00  0.00    -0.207 OA
ATOM     27  O   UNL A   1      37.314  22.723  25.692  1.00  0.00    -0.207 OA
ENDBRANCH  23  24
BRANCH  23  28
ATOM     28  C   UNL A   1      34.343  21.180  25.837  1.00  0.00     0.170 C 
BRANCH  28  29
ATOM     29  C   UNL A   1      32.999  21.734  26.282  1.00  0.00    -0.027 A 
ATOM     30  C   UNL A   1      32.850  22.590  27.384  1.00  0.00     0.007 A 
ATOM     31  C   UNL A   1      31.863  21.440  25.503  1.00  0.00     0.007 A 
ATOM     32  C   UNL A   1      31.623  23.214  27.640  1.00  0.00     0.021 A 
ATOM     33  C   UNL A   1      30.635  22.048  25.771  1.00  0.00     0.021 A 
ATOM     34  C   UNL A   1      30.525  22.949  26.826  1.00  0.00     0.041 A 
ATOM     35  Cl  UNL A   1      29.030  23.751  27.110  1.00  0.00    -0.084 Cl
ENDBRANCH  28  29
ENDBRANCH  23  28
ENDBRANCH  18  23
ENDBRANCH  14  17
ENDBRANCH   8  13
ENDBRANCH   4   7
ENDBRANCH   2   3
ENDBRANCH   1   2
BRANCH   1  36
ATOM     36  C   UNL A   1      34.665  30.803  27.962  1.00  0.00     0.002 C 
BRANCH  36  37
ATOM     37  C   UNL A   1      34.823  32.324  27.858  1.00  0.00     0.002 C 
BRANCH  37  38
ATOM     38  C   UNL A   1      33.559  33.174  27.990  1.00  0.00     0.021 C 
BRANCH  38  39
ATOM     39  C   UNL A   1      33.771  34.672  28.159  1.00  0.00     0.116 C 
BRANCH  39  40
ATOM     40  N   UNL A   1      33.156  35.211  29.361  1.00  0.00    -0.352 N 
ATOM     41  C   UNL A   1      33.455  34.948  30.677  1.00  0.00     0.251 C 
ATOM     42  H   UNL A   1      32.425  35.853  29.211  1.00  0.00     0.163 HD
ATOM     43  O   UNL A   1      32.760  35.418  31.571  1.00  0.00    -0.269 OA
BRANCH  41  44
ATOM     44  C   UNL A   1      34.603  34.075  31.009  1.00  0.00     0.039 A 
ATOM     45  C   UNL A   1      35.896  34.509  30.697  1.00  0.00     0.014 A 
ATOM     46  C   UNL A   1      34.411  32.842  31.636  1.00  0.00     0.014 A 
ATOM     47  C   UNL A   1      36.998  33.734  31.072  1.00  0.00     0.010 A 
ATOM     48  C   UNL A   1      35.509  32.108  32.072  1.00  0.00     0.010 A 
ATOM     49  C   UNL A   1      36.815  32.544  31.792  1.00  0.00    -0.014 A 
BRANCH  49  50
ATOM     50  C   UNL A   1      37.960  31.721  32.261  1.00  0.00     0.031 A 
ATOM     51  C   UNL A   1      38.649  32.077  33.552  1.00  0.00     0.074 A 
ATOM     52  C   UNL A   1      38.447  30.734  31.481  1.00  0.00     0.049 A 
ATOM     53  N   UNL A   1      39.761  31.608  34.053  1.00  0.00    -0.248 NA
ATOM     54  C   UNL A   1      38.017  33.124  34.376  1.00  0.00     0.031 C 
ATOM     55  C   UNL A   1      37.897  30.326  30.187  1.00  0.00     0.029 A 
ATOM     56  N   UNL A   1      39.541  29.920  31.646  1.00  0.00    -0.354 N 
ATOM     57  C   UNL A   1      39.982  32.322  35.224  1.00  0.00     0.074 A 
ATOM     58  C   UNL A   1      38.905  33.279  35.347  1.00  0.00     0.031 C 
ATOM     59  C   UNL A   1      38.665  29.352  29.668  1.00  0.00     0.029 A 
ATOM     60  C   UNL A   1      39.781  29.094  30.571  1.00  0.00     0.049 A 
ATOM     61  H   UNL A   1      40.102  29.927  32.456  1.00  0.00     0.167 HD
ATOM     62  C   UNL A   1      40.975  32.175  36.133  1.00  0.00     0.034 A 
ATOM     63  C   UNL A   1      40.801  28.245  30.329  1.00  0.00     0.034 A 
ATOM     64  C   UNL A   1      42.018  31.192  36.028  1.00  0.00     0.049 A 
ATOM     65  C   UNL A   1      41.887  28.095  31.364  1.00  0.00     0.074 A 
ATOM     66  C   UNL A   1      43.044  30.930  36.919  1.00  0.00     0.029 A 
ATOM     67  N   UNL A   1      42.165  30.305  34.974  1.00  0.00    -0.354 N 
ATOM     68  N   UNL A   1      42.017  28.704  32.518  1.00  0.00    -0.248 NA
ATOM     69  C   UNL A   1      42.949  27.118  31.082  1.00  0.00     0.031 C 
ATOM     70  C   UNL A   1      43.820  29.893  36.396  1.00  0.00     0.029 A 
ATOM     71  C   UNL A   1      43.257  29.488  35.197  1.00  0.00     0.049 A 
ATOM     72  H   UNL A   1      41.577  30.263  34.185  1.00  0.00     0.167 HD
ATOM     73  C   UNL A   1      43.136  28.142  33.122  1.00  0.00     0.074 A 
ATOM     74  C   UNL A   1      43.647  27.141  32.209  1.00  0.00     0.031 C 
ATOM     75  C   UNL A   1      43.696  28.435  34.319  1.00  0.00     0.034 A 
BRANCH  62  76
ATOM     76  C   UNL A   1      40.952  33.052  37.357  1.00  0.00     0.023 A 
ATOM     77  C   UNL A   1      40.152  32.681  38.457  1.00  0.00     0.012 A 
ATOM     78  C   UNL A   1      41.785  34.184  37.458  1.00  0.00     0.148 A 
ATOM     79  C   UNL A   1      40.160  33.435  39.628  1.00  0.00     0.002 A 
ATOM     80  C   UNL A   1      41.821  34.905  38.645  1.00  0.00     0.091 A 
ATOM     81  F   UNL A   1      42.527  34.527  36.396  1.00  0.00    -0.205 F 
ATOM     82  C   UNL A   1      41.003  34.539  39.726  1.00  0.00     0.022 A 
BRANCH  80  83
ATOM     83  S   UNL A   1      42.930  36.295  38.906  1.00  0.00     0.127 S 
ATOM     84  O   UNL A   1      44.237  35.673  38.698  1.00  0.00    -0.237 OA
ATOM     85  O   UNL A   1      42.518  37.218  37.848  1.00  0.00    -0.237 OA
ATOM     86  O   UNL A   1      42.677  36.766  40.261  1.00  0.00    -0.744 OA
ENDBRANCH  80  83
ENDBRANCH  62  76
BRANCH  63  87
ATOM     87  C   UNL A   1      40.837  27.437  29.076  1.00  0.00     0.023 A 
ATOM     88  C   UNL A   1      39.987  26.320  28.949  1.00  0.00     0.012 A 
ATOM     89  C   UNL A   1      41.717  27.751  28.022  1.00  0.00     0.148 A 
ATOM     90  C   UNL A   1      40.048  25.502  27.820  1.00  0.00     0.002 A 
ATOM     91  C   UNL A   1      41.734  26.963  26.876  1.00  0.00     0.091 A 
ATOM     92  F   UNL A   1      42.528  28.808  28.163  1.00  0.00    -0.205 F 
ATOM     93  C   UNL A   1      40.916  25.827  26.781  1.00  0.00     0.022 A 
BRANCH  91  94
ATOM     94  S   UNL A   1      42.734  27.379  25.443  1.00  0.00     0.127 S 
ATOM     95  O   UNL A   1      42.631  26.161  24.644  1.00  0.00    -0.237 OA
ATOM     96  O   UNL A   1      42.021  28.535  24.898  1.00  0.00    -0.237 OA
ATOM     97  O   UNL A   1      44.058  27.684  25.969  1.00  0.00    -0.744 OA
ENDBRANCH  91  94
ENDBRANCH  63  87
BRANCH  75  98
ATOM     98  C   UNL A   1      44.871  27.613  34.774  1.00  0.00     0.023 A 
ATOM     99  C   UNL A   1      46.180  28.111  34.639  1.00  0.00     0.012 A 
ATOM    100  C   UNL A   1      44.656  26.392  35.445  1.00  0.00     0.148 A 
ATOM    101  C   UNL A   1      47.262  27.394  35.150  1.00  0.00     0.002 A 
ATOM    102  C   UNL A   1      45.733  25.711  35.995  1.00  0.00     0.091 A 
ATOM    103  F   UNL A   1      43.400  25.931  35.545  1.00  0.00    -0.205 F 
ATOM    104  C   UNL A   1      47.038  26.204  35.839  1.00  0.00     0.022 A 
BRANCH 102 105
ATOM    105  S   UNL A   1      45.531  24.227  36.988  1.00  0.00     0.127 S 
ATOM    106  O   UNL A   1      46.916  23.917  37.344  1.00  0.00    -0.237 OA
ATOM    107  O   UNL A   1      44.710  24.709  38.098  1.00  0.00    -0.237 OA
ATOM    108  O   UNL A   1      44.879  23.249  36.129  1.00  0.00    -0.744 OA
ENDBRANCH 102 105
ENDBRANCH  75  98
ENDBRANCH  49  50
ENDBRANCH  41  44
ENDBRANCH  39  40
ENDBRANCH  38  39
ENDBRANCH  37  38
ENDBRANCH  36  37
ENDBRANCH   1  36
TORSDOF 22
ENDMDL
MODEL 3
REMARK VINA RESULT:     -11.2      4.557     10.652
REMARK SMILES CS(=O)(=O)N(Cc1ccc(Cl)cc1)c1ccc(C(=O)Nc2ccccc2C(=O)NCCCCCCNC(=O)c2ccc(-c3c4nc(c(-c5cccc(S(=O)(=O)[O-])c5F)c5ccc([nH]5)c(-c5cccc(S(=O)(=O)[O-])c5F)c5nc(c(-c6cccc(S(=O)(=O)[O-])c6F)c6ccc3[nH]6)C=C5)C=C4)cc2)cc1
REMARK SMILES IDX 31 1 30 2 29 3 27 4 28 5 26 7 21 8 22 9 23 10 25 11 24 12
REMARK SMILES IDX 20 13 18 14 19 15 17 17 14 18 15 19 103 20 16 21 102 22 5 23
REMARK SMILES IDX 2 24 1 25 3 26 4 27 6 28 7 29 8 30 13 31 9 32 12 33 10 34
REMARK SMILES IDX 11 35 32 36 33 37 34 38 35 39 36 40 37 41 38 43 39 44 40 45
REMARK SMILES IDX 101 46 41 47 100 48 42 49 43 50 44 51 94 52 45 53 99 54
REMARK SMILES IDX 93 55 95 56 46 57 98 58 92 59 91 60 47 62 79 63 59 64 78 65
REMARK SMILES IDX 60 66 63 67 77 68 96 69 61 70 62 71 76 73 97 74 64 75 48 76
REMARK SMILES IDX 49 77 57 78 50 79 52 80 58 81 51 82 53 83 54 84 55 85 56 86
REMARK SMILES IDX 80 87 81 88 89 89 82 90 84 91 90 92 83 93 85 94 86 95 87 96
REMARK SMILES IDX 88 97 65 98 66 99 74 100 67 101 69 102 75 103 68 104 70 105
REMARK SMILES IDX 71 106 72 107 73 108
REMARK H PARENT 29 6 20 16 36 42 95 61 63 72
REMARK Flexibility Score: inf
ROOT
ATOM      1  C   UNL A   1      42.713  22.727  26.596  1.00  0.00     0.021 C 
ENDROOT
BRANCH   1   2
ATOM      2  C   UNL A   1      42.430  23.986  27.408  1.00  0.00     0.116 C 
BRANCH   2   3
ATOM      3  N   UNL A   1      41.070  24.096  27.886  1.00  0.00    -0.352 N 
ATOM      4  C   UNL A   1      40.228  25.181  27.943  1.00  0.00     0.253 C 
ATOM      5  O   UNL A   1      39.091  24.978  28.379  1.00  0.00    -0.269 OA
ATOM      6  H   UNL A   1      40.684  23.258  28.227  1.00  0.00     0.163 HD
BRANCH   4   7
ATOM      7  C   UNL A   1      40.634  26.586  27.603  1.00  0.00     0.063 A 
ATOM      8  C   UNL A   1      40.832  27.685  28.468  1.00  0.00     0.054 A 
ATOM      9  C   UNL A   1      41.047  28.963  27.919  1.00  0.00     0.027 A 
ATOM     10  C   UNL A   1      41.244  29.139  26.551  1.00  0.00     0.002 A 
ATOM     11  C   UNL A   1      40.856  26.789  26.222  1.00  0.00     0.016 A 
ATOM     12  C   UNL A   1      41.185  28.043  25.704  1.00  0.00     0.001 A 
BRANCH   8  13
ATOM     13  N   UNL A   1      40.980  27.659  29.870  1.00  0.00    -0.321 N 
ATOM     14  C   UNL A   1      40.365  28.411  30.844  1.00  0.00     0.255 C 
ATOM     15  O   UNL A   1      40.765  28.357  32.005  1.00  0.00    -0.269 OA
ATOM     16  H   UNL A   1      41.626  26.996  30.205  1.00  0.00     0.170 HD
BRANCH  14  17
ATOM     17  C   UNL A   1      39.209  29.270  30.526  1.00  0.00     0.040 A 
ATOM     18  C   UNL A   1      36.944  30.853  29.952  1.00  0.00     0.052 A 
ATOM     19  C   UNL A   1      36.836  29.466  30.138  1.00  0.00     0.028 A 
ATOM     20  C   UNL A   1      38.211  31.427  30.120  1.00  0.00     0.028 A 
ATOM     21  C   UNL A   1      37.959  28.676  30.393  1.00  0.00     0.016 A 
ATOM     22  C   UNL A   1      39.340  30.644  30.355  1.00  0.00     0.016 A 
BRANCH  18  23
ATOM     23  N   UNL A   1      35.809  31.675  29.543  1.00  0.00    -0.266 N 
BRANCH  23  24
ATOM     24  S   UNL A   1      35.195  32.752  30.698  1.00  0.00     0.232 S 
ATOM     25  C   UNL A   1      36.363  34.080  30.852  1.00  0.00     0.183 C 
ATOM     26  O   UNL A   1      35.178  32.067  31.980  1.00  0.00    -0.207 OA
ATOM     27  O   UNL A   1      33.990  33.355  30.176  1.00  0.00    -0.207 OA
ENDBRANCH  23  24
BRANCH  23  28
ATOM     28  C   UNL A   1      35.423  31.772  28.120  1.00  0.00     0.170 C 
BRANCH  28  29
ATOM     29  C   UNL A   1      34.383  30.799  27.588  1.00  0.00    -0.027 A 
ATOM     30  C   UNL A   1      33.043  31.155  27.365  1.00  0.00     0.007 A 
ATOM     31  C   UNL A   1      34.802  29.505  27.224  1.00  0.00     0.007 A 
ATOM     32  C   UNL A   1      32.174  30.277  26.707  1.00  0.00     0.021 A 
ATOM     33  C   UNL A   1      33.928  28.623  26.583  1.00  0.00     0.021 A 
ATOM     34  C   UNL A   1      32.623  29.021  26.309  1.00  0.00     0.041 A 
ATOM     35  Cl  UNL A   1      31.570  27.961  25.456  1.00  0.00    -0.084 Cl
ENDBRANCH  28  29
ENDBRANCH  23  28
ENDBRANCH  18  23
ENDBRANCH  14  17
ENDBRANCH   8  13
ENDBRANCH   4   7
ENDBRANCH   2   3
ENDBRANCH   1   2
BRANCH   1  36
ATOM     36  C   UNL A   1      43.091  22.934  25.123  1.00  0.00     0.002 C 
BRANCH  36  37
ATOM     37  C   UNL A   1      44.285  23.844  24.814  1.00  0.00     0.002 C 
BRANCH  37  38
ATOM     38  C   UNL A   1      45.681  23.224  24.889  1.00  0.00     0.021 C 
BRANCH  38  39
ATOM     39  C   UNL A   1      46.770  24.094  25.503  1.00  0.00     0.116 C 
BRANCH  39  40
ATOM     40  N   UNL A   1      47.311  25.077  24.580  1.00  0.00    -0.352 N 
ATOM     41  C   UNL A   1      47.197  26.447  24.610  1.00  0.00     0.251 C 
ATOM     42  H   UNL A   1      47.833  24.712  23.829  1.00  0.00     0.163 HD
ATOM     43  O   UNL A   1      47.636  27.122  23.686  1.00  0.00    -0.269 OA
BRANCH  41  44
ATOM     44  C   UNL A   1      46.518  27.102  25.752  1.00  0.00     0.039 A 
ATOM     45  C   UNL A   1      45.120  27.084  25.808  1.00  0.00     0.014 A 
ATOM     46  C   UNL A   1      47.253  27.718  26.767  1.00  0.00     0.014 A 
ATOM     47  C   UNL A   1      44.463  27.629  26.917  1.00  0.00     0.010 A 
ATOM     48  C   UNL A   1      46.602  28.194  27.901  1.00  0.00     0.010 A 
ATOM     49  C   UNL A   1      45.200  28.158  27.987  1.00  0.00    -0.014 A 
BRANCH  49  50
ATOM     50  C   UNL A   1      44.545  28.693  29.209  1.00  0.00     0.031 A 
ATOM     51  C   UNL A   1      44.123  30.137  29.252  1.00  0.00     0.074 A 
ATOM     52  C   UNL A   1      44.431  27.919  30.308  1.00  0.00     0.049 A 
ATOM     53  N   UNL A   1      43.698  30.845  30.265  1.00  0.00    -0.248 NA
ATOM     54  C   UNL A   1      44.220  30.895  27.991  1.00  0.00     0.031 C 
ATOM     55  C   UNL A   1      44.848  26.518  30.407  1.00  0.00     0.029 A 
ATOM     56  N   UNL A   1      43.967  28.215  31.567  1.00  0.00    -0.354 N 
ATOM     57  C   UNL A   1      43.513  32.133  29.778  1.00  0.00     0.074 A 
ATOM     58  C   UNL A   1      43.901  32.120  28.385  1.00  0.00     0.031 C 
ATOM     59  C   UNL A   1      44.636  26.082  31.661  1.00  0.00     0.029 A 
ATOM     60  C   UNL A   1      44.108  27.179  32.464  1.00  0.00     0.049 A 
ATOM     61  H   UNL A   1      43.572  29.084  31.806  1.00  0.00     0.167 HD
ATOM     62  C   UNL A   1      43.035  33.224  30.423  1.00  0.00     0.034 A 
ATOM     63  C   UNL A   1      43.865  27.130  33.790  1.00  0.00     0.034 A 
ATOM     64  C   UNL A   1      42.611  33.221  31.796  1.00  0.00     0.049 A 
ATOM     65  C   UNL A   1      43.324  28.357  34.479  1.00  0.00     0.074 A 
ATOM     66  C   UNL A   1      42.068  34.260  32.529  1.00  0.00     0.029 A 
ATOM     67  N   UNL A   1      42.673  32.123  32.639  1.00  0.00    -0.354 N 
ATOM     68  N   UNL A   1      43.053  29.536  33.972  1.00  0.00    -0.248 NA
ATOM     69  C   UNL A   1      43.021  28.240  35.913  1.00  0.00     0.031 C 
ATOM     70  C   UNL A   1      41.814  33.796  33.821  1.00  0.00     0.029 A 
ATOM     71  C   UNL A   1      42.169  32.458  33.882  1.00  0.00     0.049 A 
ATOM     72  H   UNL A   1      43.023  31.238  32.390  1.00  0.00     0.167 HD
ATOM     73  C   UNL A   1      42.496  30.277  35.009  1.00  0.00     0.074 A 
ATOM     74  C   UNL A   1      42.463  29.414  36.170  1.00  0.00     0.031 C 
ATOM     75  C   UNL A   1      42.059  31.559  35.000  1.00  0.00     0.034 A 
BRANCH  62  76
ATOM     76  C   UNL A   1      42.883  34.501  29.640  1.00  0.00     0.023 A 
ATOM     77  C   UNL A   1      41.645  34.796  29.035  1.00  0.00     0.012 A 
ATOM     78  C   UNL A   1      43.925  35.448  29.580  1.00  0.00     0.148 A 
ATOM     79  C   UNL A   1      41.452  36.000  28.360  1.00  0.00     0.002 A 
ATOM     80  C   UNL A   1      43.711  36.665  28.944  1.00  0.00     0.091 A 
ATOM     81  F   UNL A   1      45.099  35.141  30.150  1.00  0.00    -0.205 F 
ATOM     82  C   UNL A   1      42.480  36.938  28.326  1.00  0.00     0.022 A 
BRANCH  80  83
ATOM     83  S   UNL A   1      44.940  37.976  28.911  1.00  0.00     0.127 S 
ATOM     84  O   UNL A   1      44.138  39.142  29.278  1.00  0.00    -0.237 OA
ATOM     85  O   UNL A   1      45.883  37.536  29.939  1.00  0.00    -0.237 OA
ATOM     86  O   UNL A   1      45.476  37.994  27.557  1.00  0.00    -0.744 OA
ENDBRANCH  80  83
ENDBRANCH  62  76
BRANCH  63  87
ATOM     87  C   UNL A   1      44.089  25.871  34.558  1.00  0.00     0.023 A 
ATOM     88  C   UNL A   1      43.021  24.969  34.734  1.00  0.00     0.012 A 
ATOM     89  C   UNL A   1      45.340  25.571  35.131  1.00  0.00     0.148 A 
ATOM     90  C   UNL A   1      43.180  23.819  35.508  1.00  0.00     0.002 A 
ATOM     91  C   UNL A   1      45.506  24.396  35.855  1.00  0.00     0.091 A 
ATOM     92  F   UNL A   1      46.342  26.446  34.965  1.00  0.00    -0.205 F 
ATOM     93  C   UNL A   1      44.423  23.528  36.063  1.00  0.00     0.022 A 
BRANCH  91  94
ATOM     94  S   UNL A   1      47.103  23.887  36.501  1.00  0.00     0.127 S 
ATOM     95  O   UNL A   1      46.726  22.817  37.421  1.00  0.00    -0.237 OA
ATOM     96  O   UNL A   1      47.795  23.443  35.291  1.00  0.00    -0.237 OA
ATOM     97  O   UNL A   1      47.672  25.080  37.114  1.00  0.00    -0.744 OA
ENDBRANCH  91  94
ENDBRANCH  63  87
BRANCH  75  98
ATOM     98  C   UNL A   1      41.420  32.099  36.251  1.00  0.00     0.023 A 
ATOM     99  C   UNL A   1      42.163  32.895  37.141  1.00  0.00     0.012 A 
ATOM    100  C   UNL A   1      40.041  31.907  36.473  1.00  0.00     0.148 A 
ATOM    101  C   UNL A   1      41.546  33.478  38.248  1.00  0.00     0.002 A 
ATOM    102  C   UNL A   1      39.424  32.533  37.547  1.00  0.00     0.091 A 
ATOM    103  F   UNL A   1      39.358  31.131  35.618  1.00  0.00    -0.205 F 
ATOM    104  C   UNL A   1      40.177  33.310  38.442  1.00  0.00     0.022 A 
BRANCH 102 105
ATOM    105  S   UNL A   1      37.649  32.460  37.818  1.00  0.00     0.127 S 
ATOM    106  O   UNL A   1      37.136  33.076  36.595  1.00  0.00    -0.237 OA
ATOM    107  O   UNL A   1      37.413  31.021  37.922  1.00  0.00    -0.237 OA
ATOM    108  O   UNL A   1      37.395  33.209  39.041  1.00  0.00    -0.744 OA
ENDBRANCH 102 105
ENDBRANCH  75  98
ENDBRANCH  49  50
ENDBRANCH  41  44
ENDBRANCH  39  40
ENDBRANCH  38  39
ENDBRANCH  37  38
ENDBRANCH  36  37
ENDBRANCH   1  36
TORSDOF 22
ENDMDL
