MODEL 1
REMARK VINA RESULT:     -11.3      0.000      0.000
REMARK SMILES O=C(NCCCCCCNC(=O)[C@H](F)Sc1cc2ccccc2[nH]1)c1ccc(-c2c3nc(c(-c4cccc(S(=O)(=O)[O-])c4F)c4ccc([nH]4)c(-c4cccc(S(=O)(=O)[O-])c4F)c4nc(c(-c5cccc(S(=O)(=O)[O-])c5F)c5ccc2[nH]5)C=C4)C=C3)cc1
REMARK SMILES IDX 6 1 5 2 4 3 3 4 1 5 2 6 25 8 26 9 87 10 27 11 86 12 28 13
REMARK SMILES IDX 29 14 30 15 80 16 31 17 85 18 79 19 81 20 32 21 84 22 78 23
REMARK SMILES IDX 77 24 33 26 65 27 45 28 64 29 46 30 49 31 63 32 82 33 47 34
REMARK SMILES IDX 48 35 62 37 83 38 50 39 34 40 35 41 43 42 36 43 38 44 44 45
REMARK SMILES IDX 37 46 39 47 40 48 41 49 42 50 66 51 67 52 75 53 68 54 70 55
REMARK SMILES IDX 76 56 69 57 71 58 72 59 73 60 74 61 51 62 52 63 60 64 53 65
REMARK SMILES IDX 55 66 61 67 54 68 56 69 57 70 58 71 59 72 7 73 8 74 9 75
REMARK SMILES IDX 10 76 11 77 12 79 13 80 14 81 15 82 16 83 17 84 24 85 18 86
REMARK SMILES IDX 23 87 19 89 22 90 20 91 21 92
REMARK H PARENT 3 7 81 25 49 36 10 78 24 88
REMARK Flexibility Score: inf
ROOT
ATOM      1  C   UNL A   1      36.935  20.586  24.778  1.00  0.00     0.002 C 
ENDROOT
BRANCH   1   2
ATOM      2  C   UNL A   1      38.077  19.591  24.984  1.00  0.00     0.021 C 
BRANCH   2   3
ATOM      3  C   UNL A   1      39.268  20.138  25.760  1.00  0.00     0.116 C 
BRANCH   3   4
ATOM      4  N   UNL A   1      40.343  19.167  25.883  1.00  0.00    -0.352 N 
ATOM      5  O   UNL A   1      42.480  18.460  25.976  1.00  0.00    -0.269 OA
ATOM      6  C   UNL A   1      41.686  19.392  26.072  1.00  0.00     0.251 C 
ATOM      7  H   UNL A   1      40.072  18.222  25.824  1.00  0.00     0.163 HD
BRANCH   6   8
ATOM      8  C   UNL A   1      42.164  20.763  26.363  1.00  0.00     0.039 A 
ATOM      9  C   UNL A   1      42.378  21.674  25.325  1.00  0.00     0.014 A 
ATOM     10  C   UNL A   1      42.393  21.142  27.688  1.00  0.00     0.014 A 
ATOM     11  C   UNL A   1      42.934  22.919  25.600  1.00  0.00     0.010 A 
ATOM     12  C   UNL A   1      42.878  22.423  27.970  1.00  0.00     0.010 A 
ATOM     13  C   UNL A   1      43.172  23.315  26.926  1.00  0.00    -0.014 A 
BRANCH  13  14
ATOM     14  C   UNL A   1      43.625  24.703  27.199  1.00  0.00     0.031 A 
ATOM     15  C   UNL A   1      42.686  25.752  27.723  1.00  0.00     0.074 A 
ATOM     16  C   UNL A   1      44.915  25.009  26.954  1.00  0.00     0.049 A 
ATOM     17  N   UNL A   1      42.942  26.996  28.036  1.00  0.00    -0.248 NA
ATOM     18  C   UNL A   1      41.278  25.367  27.916  1.00  0.00     0.031 C 
ATOM     19  C   UNL A   1      45.905  24.085  26.390  1.00  0.00     0.029 A 
ATOM     20  N   UNL A   1      45.616  26.173  27.136  1.00  0.00    -0.354 N 
ATOM     21  C   UNL A   1      41.730  27.554  28.425  1.00  0.00     0.074 A 
ATOM     22  C   UNL A   1      40.732  26.512  28.309  1.00  0.00     0.031 C 
ATOM     23  C   UNL A   1      47.085  24.711  26.289  1.00  0.00     0.029 A 
ATOM     24  C   UNL A   1      46.929  26.090  26.734  1.00  0.00     0.049 A 
ATOM     25  H   UNL A   1      45.219  26.989  27.517  1.00  0.00     0.167 HD
ATOM     26  C   UNL A   1      41.479  28.815  28.851  1.00  0.00     0.034 A 
ATOM     27  C   UNL A   1      47.899  27.024  26.709  1.00  0.00     0.034 A 
ATOM     28  C   UNL A   1      42.484  29.835  29.001  1.00  0.00     0.049 A 
ATOM     29  C   UNL A   1      47.592  28.402  27.220  1.00  0.00     0.074 A 
ATOM     30  C   UNL A   1      42.339  31.115  29.509  1.00  0.00     0.029 A 
ATOM     31  N   UNL A   1      43.814  29.699  28.637  1.00  0.00    -0.354 N 
ATOM     32  N   UNL A   1      46.476  28.860  27.732  1.00  0.00    -0.248 NA
ATOM     33  C   UNL A   1      48.684  29.384  27.176  1.00  0.00     0.031 C 
ATOM     34  C   UNL A   1      43.578  31.760  29.432  1.00  0.00     0.029 A 
ATOM     35  C   UNL A   1      44.498  30.876  28.894  1.00  0.00     0.049 A 
ATOM     36  H   UNL A   1      44.214  28.886  28.253  1.00  0.00     0.167 HD
ATOM     37  C   UNL A   1      46.735  30.177  28.089  1.00  0.00     0.074 A 
ATOM     38  C   UNL A   1      48.124  30.431  27.767  1.00  0.00     0.031 C 
ATOM     39  C   UNL A   1      45.892  31.099  28.613  1.00  0.00     0.034 A 
BRANCH  26  40
ATOM     40  C   UNL A   1      40.066  29.170  29.236  1.00  0.00     0.023 A 
ATOM     41  C   UNL A   1      39.099  29.355  28.228  1.00  0.00     0.012 A 
ATOM     42  C   UNL A   1      39.672  29.207  30.589  1.00  0.00     0.148 A 
ATOM     43  C   UNL A   1      37.763  29.582  28.559  1.00  0.00     0.002 A 
ATOM     44  C   UNL A   1      38.333  29.401  30.911  1.00  0.00     0.091 A 
ATOM     45  F   UNL A   1      40.611  29.046  31.532  1.00  0.00    -0.205 F 
ATOM     46  C   UNL A   1      37.379  29.594  29.898  1.00  0.00     0.022 A 
BRANCH  44  47
ATOM     47  S   UNL A   1      37.723  29.359  32.601  1.00  0.00     0.127 S 
ATOM     48  O   UNL A   1      37.644  27.920  32.848  1.00  0.00    -0.237 OA
ATOM     49  O   UNL A   1      38.790  30.045  33.330  1.00  0.00    -0.237 OA
ATOM     50  O   UNL A   1      36.447  30.060  32.586  1.00  0.00    -0.744 OA
ENDBRANCH  44  47
ENDBRANCH  26  40
BRANCH  27  51
ATOM     51  C   UNL A   1      49.258  26.667  26.217  1.00  0.00     0.023 A 
ATOM     52  C   UNL A   1      50.077  25.821  26.988  1.00  0.00     0.012 A 
ATOM     53  C   UNL A   1      49.727  27.126  24.971  1.00  0.00     0.148 A 
ATOM     54  C   UNL A   1      51.348  25.461  26.540  1.00  0.00     0.002 A 
ATOM     55  C   UNL A   1      50.969  26.714  24.502  1.00  0.00     0.091 A 
ATOM     56  F   UNL A   1      48.944  27.949  24.258  1.00  0.00    -0.205 F 
ATOM     57  C   UNL A   1      51.789  25.896  25.293  1.00  0.00     0.022 A 
BRANCH  55  58
ATOM     58  S   UNL A   1      51.528  27.112  22.843  1.00  0.00     0.127 S 
ATOM     59  O   UNL A   1      50.397  26.672  22.031  1.00  0.00    -0.237 OA
ATOM     60  O   UNL A   1      51.707  28.563  22.915  1.00  0.00    -0.237 OA
ATOM     61  O   UNL A   1      52.771  26.369  22.673  1.00  0.00    -0.744 OA
ENDBRANCH  55  58
ENDBRANCH  27  51
BRANCH  39  62
ATOM     62  C   UNL A   1      46.453  32.469  28.885  1.00  0.00     0.023 A 
ATOM     63  C   UNL A   1      46.988  32.760  30.156  1.00  0.00     0.012 A 
ATOM     64  C   UNL A   1      46.504  33.444  27.872  1.00  0.00     0.148 A 
ATOM     65  C   UNL A   1      47.536  34.013  30.423  1.00  0.00     0.002 A 
ATOM     66  C   UNL A   1      47.093  34.676  28.131  1.00  0.00     0.091 A 
ATOM     67  F   UNL A   1      45.970  33.155  26.676  1.00  0.00    -0.205 F 
ATOM     68  C   UNL A   1      47.599  34.967  29.410  1.00  0.00     0.022 A 
BRANCH  66  69
ATOM     69  S   UNL A   1      47.295  35.928  26.860  1.00  0.00     0.127 S 
ATOM     70  O   UNL A   1      45.908  36.302  26.586  1.00  0.00    -0.237 OA
ATOM     71  O   UNL A   1      48.078  36.954  27.551  1.00  0.00    -0.237 OA
ATOM     72  O   UNL A   1      47.997  35.273  25.764  1.00  0.00    -0.744 OA
ENDBRANCH  66  69
ENDBRANCH  39  62
ENDBRANCH  13  14
ENDBRANCH   6   8
ENDBRANCH   3   4
ENDBRANCH   2   3
ENDBRANCH   1   2
BRANCH   1  73
ATOM     73  C   UNL A   1      37.355  21.959  24.238  1.00  0.00     0.002 C 
BRANCH  73  74
ATOM     74  C   UNL A   1      36.317  23.080  24.399  1.00  0.00     0.021 C 
BRANCH  74  75
ATOM     75  C   UNL A   1      36.272  23.713  25.790  1.00  0.00     0.116 C 
BRANCH  75  76
ATOM     76  N   UNL A   1      35.538  22.877  26.719  1.00  0.00    -0.353 N 
ATOM     77  C   UNL A   1      34.203  22.598  26.806  1.00  0.00     0.265 C 
ATOM     78  H   UNL A   1      36.094  22.436  27.401  1.00  0.00     0.163 HD
ATOM     79  O   UNL A   1      33.857  21.885  27.753  1.00  0.00    -0.271 OA
BRANCH  77  80
ATOM     80  C   UNL A   1      33.219  23.109  25.744  1.00  0.00     0.319 C 
ATOM     81  F   UNL A   1      32.890  24.421  25.928  1.00  0.00    -0.224 F 
BRANCH  80  82
ATOM     82  S   UNL A   1      31.709  22.081  25.798  1.00  0.00    -0.061 SA
BRANCH  82  83
ATOM     83  C   UNL A   1      32.280  20.579  25.152  1.00  0.00     0.076 A 
ATOM     84  C   UNL A   1      32.562  20.189  23.866  1.00  0.00     0.043 A 
ATOM     85  N   UNL A   1      32.539  19.529  25.987  1.00  0.00    -0.350 N 
ATOM     86  C   UNL A   1      33.015  18.840  23.921  1.00  0.00     0.001 A 
ATOM     87  C   UNL A   1      33.001  18.452  25.264  1.00  0.00     0.046 A 
ATOM     88  H   UNL A   1      32.413  19.540  26.963  1.00  0.00     0.167 HD
ATOM     89  C   UNL A   1      33.436  17.906  22.955  1.00  0.00     0.010 A 
ATOM     90  C   UNL A   1      33.391  17.176  25.688  1.00  0.00     0.027 A 
ATOM     91  C   UNL A   1      33.833  16.627  23.362  1.00  0.00     0.001 A 
ATOM     92  C   UNL A   1      33.812  16.271  24.710  1.00  0.00     0.002 A 
ENDBRANCH  82  83
ENDBRANCH  80  82
ENDBRANCH  77  80
ENDBRANCH  75  76
ENDBRANCH  74  75
ENDBRANCH  73  74
ENDBRANCH   1  73
TORSDOF 18
ENDMDL
MODEL 2
REMARK VINA RESULT:     -11.1      5.557      8.185
REMARK SMILES O=C(NCCCCCCNC(=O)[C@H](F)Sc1cc2ccccc2[nH]1)c1ccc(-c2c3nc(c(-c4cccc(S(=O)(=O)[O-])c4F)c4ccc([nH]4)c(-c4cccc(S(=O)(=O)[O-])c4F)c4nc(c(-c5cccc(S(=O)(=O)[O-])c5F)c5ccc2[nH]5)C=C4)C=C3)cc1
REMARK SMILES IDX 6 1 5 2 4 3 3 4 1 5 2 6 25 8 26 9 87 10 27 11 86 12 28 13
REMARK SMILES IDX 29 14 30 15 80 16 31 17 85 18 79 19 81 20 32 21 84 22 78 23
REMARK SMILES IDX 77 24 33 26 65 27 45 28 64 29 46 30 49 31 63 32 82 33 47 34
REMARK SMILES IDX 48 35 62 37 83 38 50 39 34 40 35 41 43 42 36 43 38 44 44 45
REMARK SMILES IDX 37 46 39 47 40 48 41 49 42 50 66 51 67 52 75 53 68 54 70 55
REMARK SMILES IDX 76 56 69 57 71 58 72 59 73 60 74 61 51 62 52 63 60 64 53 65
REMARK SMILES IDX 55 66 61 67 54 68 56 69 57 70 58 71 59 72 7 73 8 74 9 75
REMARK SMILES IDX 10 76 11 77 12 79 13 80 14 81 15 82 16 83 17 84 24 85 18 86
REMARK SMILES IDX 23 87 19 89 22 90 20 91 21 92
REMARK H PARENT 3 7 81 25 49 36 10 78 24 88
REMARK Flexibility Score: inf
ROOT
ATOM      1  C   UNL A   1      32.843  27.334  24.547  1.00  0.00     0.002 C 
ENDROOT
BRANCH   1   2
ATOM      2  C   UNL A   1      33.831  28.473  24.795  1.00  0.00     0.021 C 
BRANCH   2   3
ATOM      3  C   UNL A   1      34.303  28.606  26.236  1.00  0.00     0.116 C 
BRANCH   3   4
ATOM      4  N   UNL A   1      33.950  29.890  26.820  1.00  0.00    -0.352 N 
ATOM      5  O   UNL A   1      34.071  31.582  28.302  1.00  0.00    -0.269 OA
ATOM      6  C   UNL A   1      34.604  30.596  27.801  1.00  0.00     0.251 C 
ATOM      7  H   UNL A   1      33.134  30.310  26.464  1.00  0.00     0.163 HD
BRANCH   6   8
ATOM      8  C   UNL A   1      35.937  30.144  28.263  1.00  0.00     0.039 A 
ATOM      9  C   UNL A   1      36.094  29.581  29.533  1.00  0.00     0.014 A 
ATOM     10  C   UNL A   1      37.039  30.277  27.414  1.00  0.00     0.014 A 
ATOM     11  C   UNL A   1      37.365  29.266  29.998  1.00  0.00     0.010 A 
ATOM     12  C   UNL A   1      38.306  29.885  27.854  1.00  0.00     0.010 A 
ATOM     13  C   UNL A   1      38.483  29.395  29.158  1.00  0.00    -0.014 A 
BRANCH  13  14
ATOM     14  C   UNL A   1      39.806  28.910  29.629  1.00  0.00     0.031 A 
ATOM     15  C   UNL A   1      40.540  29.586  30.752  1.00  0.00     0.074 A 
ATOM     16  C   UNL A   1      40.346  27.840  29.012  1.00  0.00     0.049 A 
ATOM     17  N   UNL A   1      41.687  29.260  31.292  1.00  0.00    -0.248 NA
ATOM     18  C   UNL A   1      39.921  30.782  31.345  1.00  0.00     0.031 C 
ATOM     19  C   UNL A   1      39.749  27.138  27.871  1.00  0.00     0.029 A 
ATOM     20  N   UNL A   1      41.513  27.159  29.244  1.00  0.00    -0.354 N 
ATOM     21  C   UNL A   1      41.947  30.225  32.258  1.00  0.00     0.074 A 
ATOM     22  C   UNL A   1      40.837  31.154  32.232  1.00  0.00     0.031 C 
ATOM     23  C   UNL A   1      40.542  26.119  27.515  1.00  0.00     0.029 A 
ATOM     24  C   UNL A   1      41.725  26.120  28.367  1.00  0.00     0.049 A 
ATOM     25  H   UNL A   1      42.139  27.390  29.968  1.00  0.00     0.167 HD
ATOM     26  C   UNL A   1      43.008  30.318  33.095  1.00  0.00     0.034 A 
ATOM     27  C   UNL A   1      42.764  25.271  28.248  1.00  0.00     0.034 A 
ATOM     28  C   UNL A   1      44.089  29.368  33.141  1.00  0.00     0.049 A 
ATOM     29  C   UNL A   1      43.907  25.384  29.215  1.00  0.00     0.074 A 
ATOM     30  C   UNL A   1      45.162  29.331  34.015  1.00  0.00     0.029 A 
ATOM     31  N   UNL A   1      44.243  28.296  32.276  1.00  0.00    -0.354 N 
ATOM     32  N   UNL A   1      44.053  26.208  30.223  1.00  0.00    -0.248 NA
ATOM     33  C   UNL A   1      45.013  24.433  29.047  1.00  0.00     0.031 C 
ATOM     34  C   UNL A   1      45.976  28.249  33.664  1.00  0.00     0.029 A 
ATOM     35  C   UNL A   1      45.401  27.601  32.583  1.00  0.00     0.049 A 
ATOM     36  H   UNL A   1      43.621  28.064  31.549  1.00  0.00     0.167 HD
ATOM     37  C   UNL A   1      45.258  25.865  30.821  1.00  0.00     0.074 A 
ATOM     38  C   UNL A   1      45.783  24.734  30.084  1.00  0.00     0.031 C 
ATOM     39  C   UNL A   1      45.886  26.448  31.871  1.00  0.00     0.034 A 
BRANCH  26  40
ATOM     40  C   UNL A   1      43.046  31.462  34.074  1.00  0.00     0.023 A 
ATOM     41  C   UNL A   1      43.645  32.679  33.694  1.00  0.00     0.012 A 
ATOM     42  C   UNL A   1      42.392  31.372  35.319  1.00  0.00     0.148 A 
ATOM     43  C   UNL A   1      43.605  33.786  34.542  1.00  0.00     0.002 A 
ATOM     44  C   UNL A   1      42.325  32.489  36.145  1.00  0.00     0.091 A 
ATOM     45  F   UNL A   1      41.844  30.199  35.668  1.00  0.00    -0.205 F 
ATOM     46  C   UNL A   1      42.935  33.694  35.760  1.00  0.00     0.022 A 
BRANCH  44  47
ATOM     47  S   UNL A   1      41.425  32.497  37.700  1.00  0.00     0.127 S 
ATOM     48  O   UNL A   1      40.096  32.063  37.271  1.00  0.00    -0.237 OA
ATOM     49  O   UNL A   1      42.164  31.510  38.488  1.00  0.00    -0.237 OA
ATOM     50  O   UNL A   1      41.503  33.861  38.204  1.00  0.00    -0.744 OA
ENDBRANCH  44  47
ENDBRANCH  26  40
BRANCH  27  51
ATOM     51  C   UNL A   1      42.743  24.220  27.194  1.00  0.00     0.023 A 
ATOM     52  C   UNL A   1      43.409  24.445  25.975  1.00  0.00     0.012 A 
ATOM     53  C   UNL A   1      42.104  22.983  27.409  1.00  0.00     0.148 A 
ATOM     54  C   UNL A   1      43.416  23.469  24.978  1.00  0.00     0.002 A 
ATOM     55  C   UNL A   1      42.167  21.992  26.436  1.00  0.00     0.091 A 
ATOM     56  F   UNL A   1      41.455  22.792  28.566  1.00  0.00    -0.205 F 
ATOM     57  C   UNL A   1      42.807  22.239  25.213  1.00  0.00     0.022 A 
BRANCH  55  58
ATOM     58  S   UNL A   1      41.538  20.338  26.737  1.00  0.00     0.127 S 
ATOM     59  O   UNL A   1      40.115  20.591  26.949  1.00  0.00    -0.237 OA
ATOM     60  O   UNL A   1      41.861  19.650  25.487  1.00  0.00    -0.237 OA
ATOM     61  O   UNL A   1      42.284  19.852  27.891  1.00  0.00    -0.744 OA
ENDBRANCH  55  58
ENDBRANCH  27  51
BRANCH  39  62
ATOM     62  C   UNL A   1      47.206  25.865  32.295  1.00  0.00     0.023 A 
ATOM     63  C   UNL A   1      48.392  26.307  31.673  1.00  0.00     0.012 A 
ATOM     64  C   UNL A   1      47.281  24.928  33.343  1.00  0.00     0.148 A 
ATOM     65  C   UNL A   1      49.629  25.800  32.067  1.00  0.00     0.002 A 
ATOM     66  C   UNL A   1      48.522  24.460  33.761  1.00  0.00     0.091 A 
ATOM     67  F   UNL A   1      46.141  24.505  33.907  1.00  0.00    -0.205 F 
ATOM     68  C   UNL A   1      49.695  24.887  33.116  1.00  0.00     0.022 A 
BRANCH  66  69
ATOM     69  S   UNL A   1      48.705  23.352  35.161  1.00  0.00     0.127 S 
ATOM     70  O   UNL A   1      50.149  23.396  35.390  1.00  0.00    -0.237 OA
ATOM     71  O   UNL A   1      47.904  24.014  36.192  1.00  0.00    -0.237 OA
ATOM     72  O   UNL A   1      48.177  22.066  34.723  1.00  0.00    -0.744 OA
ENDBRANCH  66  69
ENDBRANCH  39  62
ENDBRANCH  13  14
ENDBRANCH   6   8
ENDBRANCH   3   4
ENDBRANCH   2   3
ENDBRANCH   1   2
BRANCH   1  73
ATOM     73  C   UNL A   1      31.412  27.593  25.034  1.00  0.00     0.002 C 
BRANCH  73  74
ATOM     74  C   UNL A   1      30.952  26.739  26.225  1.00  0.00     0.021 C 
BRANCH  74  75
ATOM     75  C   UNL A   1      30.649  25.280  25.884  1.00  0.00     0.116 C 
BRANCH  75  76
ATOM     76  N   UNL A   1      31.127  24.392  26.926  1.00  0.00    -0.353 N 
ATOM     77  C   UNL A   1      32.056  23.390  26.888  1.00  0.00     0.265 C 
ATOM     78  H   UNL A   1      30.715  24.535  27.808  1.00  0.00     0.163 HD
ATOM     79  O   UNL A   1      32.216  22.757  27.937  1.00  0.00    -0.271 OA
BRANCH  77  80
ATOM     80  C   UNL A   1      32.877  23.122  25.619  1.00  0.00     0.319 C 
ATOM     81  F   UNL A   1      33.531  24.236  25.178  1.00  0.00    -0.224 F 
BRANCH  80  82
ATOM     82  S   UNL A   1      31.759  22.504  24.313  1.00  0.00    -0.061 SA
BRANCH  82  83
ATOM     83  C   UNL A   1      32.189  20.828  24.241  1.00  0.00     0.076 A 
ATOM     84  C   UNL A   1      32.461  20.003  23.177  1.00  0.00     0.043 A 
ATOM     85  N   UNL A   1      32.320  20.105  25.392  1.00  0.00    -0.350 N 
ATOM     86  C   UNL A   1      32.773  18.718  23.706  1.00  0.00     0.001 A 
ATOM     87  C   UNL A   1      32.687  18.811  25.098  1.00  0.00     0.046 A 
ATOM     88  H   UNL A   1      32.173  20.457  26.299  1.00  0.00     0.167 HD
ATOM     89  C   UNL A   1      33.120  17.479  23.133  1.00  0.00     0.010 A 
ATOM     90  C   UNL A   1      32.936  17.725  25.946  1.00  0.00     0.027 A 
ATOM     91  C   UNL A   1      33.375  16.384  23.968  1.00  0.00     0.001 A 
ATOM     92  C   UNL A   1      33.286  16.509  25.353  1.00  0.00     0.002 A 
ENDBRANCH  82  83
ENDBRANCH  80  82
ENDBRANCH  77  80
ENDBRANCH  75  76
ENDBRANCH  74  75
ENDBRANCH  73  74
ENDBRANCH   1  73
TORSDOF 18
ENDMDL
MODEL 3
REMARK VINA RESULT:     -11.1      6.019     11.787
REMARK SMILES O=C(NCCCCCCNC(=O)[C@H](F)Sc1cc2ccccc2[nH]1)c1ccc(-c2c3nc(c(-c4cccc(S(=O)(=O)[O-])c4F)c4ccc([nH]4)c(-c4cccc(S(=O)(=O)[O-])c4F)c4nc(c(-c5cccc(S(=O)(=O)[O-])c5F)c5ccc2[nH]5)C=C4)C=C3)cc1
REMARK SMILES IDX 6 1 5 2 4 3 3 4 1 5 2 6 25 8 26 9 87 10 27 11 86 12 28 13
REMARK SMILES IDX 29 14 30 15 80 16 31 17 85 18 79 19 81 20 32 21 84 22 78 23
REMARK SMILES IDX 77 24 33 26 65 27 45 28 64 29 46 30 49 31 63 32 82 33 47 34
REMARK SMILES IDX 48 35 62 37 83 38 50 39 34 40 35 41 43 42 36 43 38 44 44 45
REMARK SMILES IDX 37 46 39 47 40 48 41 49 42 50 66 51 67 52 75 53 68 54 70 55
REMARK SMILES IDX 76 56 69 57 71 58 72 59 73 60 74 61 51 62 52 63 60 64 53 65
REMARK SMILES IDX 55 66 61 67 54 68 56 69 57 70 58 71 59 72 7 73 8 74 9 75
REMARK SMILES IDX 10 76 11 77 12 79 13 80 14 81 15 82 16 83 17 84 24 85 18 86
REMARK SMILES IDX 23 87 19 89 22 90 20 91 21 92
REMARK H PARENT 3 7 81 25 49 36 10 78 24 88
REMARK Flexibility Score: inf
ROOT
ATOM      1  C   UNL A   1      32.134  30.533  26.712  1.00  0.00     0.002 C 
ENDROOT
BRANCH   1   2
ATOM      2  C   UNL A   1      31.806  31.977  27.093  1.00  0.00     0.021 C 
BRANCH   2   3
ATOM      3  C   UNL A   1      32.999  32.922  27.099  1.00  0.00     0.116 C 
BRANCH   3   4
ATOM      4  N   UNL A   1      32.698  34.192  27.740  1.00  0.00    -0.352 N 
ATOM      5  O   UNL A   1      32.725  35.722  29.393  1.00  0.00    -0.269 OA
ATOM      6  C   UNL A   1      33.222  34.715  28.898  1.00  0.00     0.251 C 
ATOM      7  H   UNL A   1      32.029  34.751  27.284  1.00  0.00     0.163 HD
BRANCH   6   8
ATOM      8  C   UNL A   1      34.367  34.041  29.553  1.00  0.00     0.039 A 
ATOM      9  C   UNL A   1      35.679  34.374  29.206  1.00  0.00     0.014 A 
ATOM     10  C   UNL A   1      34.124  33.072  30.531  1.00  0.00     0.014 A 
ATOM     11  C   UNL A   1      36.741  33.656  29.745  1.00  0.00     0.010 A 
ATOM     12  C   UNL A   1      35.197  32.405  31.129  1.00  0.00     0.010 A 
ATOM     13  C   UNL A   1      36.514  32.678  30.726  1.00  0.00    -0.014 A 
BRANCH  13  14
ATOM     14  C   UNL A   1      37.676  32.033  31.391  1.00  0.00     0.031 A 
ATOM     15  C   UNL A   1      38.448  30.925  30.733  1.00  0.00     0.074 A 
ATOM     16  C   UNL A   1      38.023  32.465  32.620  1.00  0.00     0.049 A 
ATOM     17  N   UNL A   1      39.500  30.287  31.176  1.00  0.00    -0.248 NA
ATOM     18  C   UNL A   1      37.982  30.464  29.414  1.00  0.00     0.031 C 
ATOM     19  C   UNL A   1      37.311  33.496  33.381  1.00  0.00     0.029 A 
ATOM     20  N   UNL A   1      39.049  32.092  33.450  1.00  0.00    -0.354 N 
ATOM     21  C   UNL A   1      39.802  29.327  30.216  1.00  0.00     0.074 A 
ATOM     22  C   UNL A   1      38.819  29.464  29.163  1.00  0.00     0.031 C 
ATOM     23  C   UNL A   1      37.928  33.686  34.554  1.00  0.00     0.029 A 
ATOM     24  C   UNL A   1      39.051  32.760  34.653  1.00  0.00     0.049 A 
ATOM     25  H   UNL A   1      39.719  31.413  33.209  1.00  0.00     0.167 HD
ATOM     26  C   UNL A   1      40.812  28.425  30.213  1.00  0.00     0.034 A 
ATOM     27  C   UNL A   1      39.855  32.633  35.726  1.00  0.00     0.034 A 
ATOM     28  C   UNL A   1      41.810  28.321  31.246  1.00  0.00     0.049 A 
ATOM     29  C   UNL A   1      40.984  31.645  35.672  1.00  0.00     0.074 A 
ATOM     30  C   UNL A   1      42.922  27.498  31.286  1.00  0.00     0.029 A 
ATOM     31  N   UNL A   1      41.813  29.052  32.424  1.00  0.00    -0.354 N 
ATOM     32  N   UNL A   1      41.344  30.860  34.686  1.00  0.00    -0.248 NA
ATOM     33  C   UNL A   1      41.835  31.546  36.865  1.00  0.00     0.031 C 
ATOM     34  C   UNL A   1      43.586  27.716  32.498  1.00  0.00     0.029 A 
ATOM     35  C   UNL A   1      42.898  28.688  33.205  1.00  0.00     0.049 A 
ATOM     36  H   UNL A   1      41.142  29.730  32.669  1.00  0.00     0.167 HD
ATOM     37  C   UNL A   1      42.473  30.186  35.132  1.00  0.00     0.074 A 
ATOM     38  C   UNL A   1      42.759  30.683  36.462  1.00  0.00     0.031 C 
ATOM     39  C   UNL A   1      43.196  29.226  34.506  1.00  0.00     0.034 A 
BRANCH  26  40
ATOM     40  C   UNL A   1      40.935  27.496  29.033  1.00  0.00     0.023 A 
ATOM     41  C   UNL A   1      40.040  26.415  28.907  1.00  0.00     0.012 A 
ATOM     42  C   UNL A   1      41.855  27.757  27.998  1.00  0.00     0.148 A 
ATOM     43  C   UNL A   1      40.065  25.600  27.775  1.00  0.00     0.002 A 
ATOM     44  C   UNL A   1      41.851  26.962  26.856  1.00  0.00     0.091 A 
ATOM     45  F   UNL A   1      42.708  28.780  28.146  1.00  0.00    -0.205 F 
ATOM     46  C   UNL A   1      40.961  25.881  26.746  1.00  0.00     0.022 A 
BRANCH  44  47
ATOM     47  S   UNL A   1      42.914  27.284  25.444  1.00  0.00     0.127 S 
ATOM     48  O   UNL A   1      42.887  25.993  24.757  1.00  0.00    -0.237 OA
ATOM     49  O   UNL A   1      42.195  28.356  24.755  1.00  0.00    -0.237 OA
ATOM     50  O   UNL A   1      44.206  27.671  25.991  1.00  0.00    -0.744 OA
ENDBRANCH  44  47
ENDBRANCH  26  40
BRANCH  27  51
ATOM     51  C   UNL A   1      39.635  33.492  36.921  1.00  0.00     0.023 A 
ATOM     52  C   UNL A   1      40.094  34.823  36.914  1.00  0.00     0.012 A 
ATOM     53  C   UNL A   1      38.939  33.013  38.048  1.00  0.00     0.148 A 
ATOM     54  C   UNL A   1      39.887  35.652  38.017  1.00  0.00     0.002 A 
ATOM     55  C   UNL A   1      38.682  33.862  39.118  1.00  0.00     0.091 A 
ATOM     56  F   UNL A   1      38.528  31.737  38.048  1.00  0.00    -0.205 F 
ATOM     57  C   UNL A   1      39.171  35.177  39.113  1.00  0.00     0.022 A 
BRANCH  55  58
ATOM     58  S   UNL A   1      37.636  33.360  40.487  1.00  0.00     0.127 S 
ATOM     59  O   UNL A   1      38.388  32.239  41.045  1.00  0.00    -0.237 OA
ATOM     60  O   UNL A   1      37.613  34.563  41.320  1.00  0.00    -0.237 OA
ATOM     61  O   UNL A   1      36.350  33.034  39.883  1.00  0.00    -0.744 OA
ENDBRANCH  55  58
ENDBRANCH  27  51
BRANCH  39  62
ATOM     62  C   UNL A   1      44.375  28.657  35.248  1.00  0.00     0.023 A 
ATOM     63  C   UNL A   1      45.664  29.170  35.000  1.00  0.00     0.012 A 
ATOM     64  C   UNL A   1      44.202  27.661  36.227  1.00  0.00     0.148 A 
ATOM     65  C   UNL A   1      46.767  28.676  35.694  1.00  0.00     0.002 A 
ATOM     66  C   UNL A   1      45.300  27.204  36.946  1.00  0.00     0.091 A 
ATOM     67  F   UNL A   1      42.970  27.171  36.431  1.00  0.00    -0.205 F 
ATOM     68  C   UNL A   1      46.585  27.703  36.673  1.00  0.00     0.022 A 
BRANCH  66  69
ATOM     69  S   UNL A   1      45.142  26.019  38.285  1.00  0.00     0.127 S 
ATOM     70  O   UNL A   1      44.220  26.708  39.187  1.00  0.00    -0.237 OA
ATOM     71  O   UNL A   1      44.573  24.853  37.607  1.00  0.00    -0.237 OA
ATOM     72  O   UNL A   1      46.490  25.815  38.799  1.00  0.00    -0.744 OA
ENDBRANCH  66  69
ENDBRANCH  39  62
ENDBRANCH  13  14
ENDBRANCH   6   8
ENDBRANCH   3   4
ENDBRANCH   2   3
ENDBRANCH   1   2
BRANCH   1  73
ATOM     73  C   UNL A   1      31.495  30.040  25.409  1.00  0.00     0.002 C 
BRANCH  73  74
ATOM     74  C   UNL A   1      32.423  29.253  24.472  1.00  0.00     0.021 C 
BRANCH  74  75
ATOM     75  C   UNL A   1      31.825  28.934  23.101  1.00  0.00     0.116 C 
BRANCH  75  76
ATOM     76  N   UNL A   1      32.707  28.076  22.335  1.00  0.00    -0.353 N 
ATOM     77  C   UNL A   1      32.995  26.747  22.467  1.00  0.00     0.265 C 
ATOM     78  H   UNL A   1      33.176  28.525  21.596  1.00  0.00     0.163 HD
ATOM     79  O   UNL A   1      33.843  26.294  21.690  1.00  0.00    -0.271 OA
BRANCH  77  80
ATOM     80  C   UNL A   1      32.255  25.876  23.492  1.00  0.00     0.319 C 
ATOM     81  F   UNL A   1      32.966  25.713  24.646  1.00  0.00    -0.224 F 
BRANCH  80  82
ATOM     82  S   UNL A   1      31.913  24.245  22.742  1.00  0.00    -0.061 SA
BRANCH  82  83
ATOM     83  C   UNL A   1      33.200  23.282  23.385  1.00  0.00     0.076 A 
ATOM     84  C   UNL A   1      33.189  22.160  24.178  1.00  0.00     0.043 A 
ATOM     85  N   UNL A   1      34.499  23.599  23.106  1.00  0.00    -0.350 N 
ATOM     86  C   UNL A   1      34.545  21.777  24.389  1.00  0.00     0.001 A 
ATOM     87  C   UNL A   1      35.346  22.690  23.698  1.00  0.00     0.046 A 
ATOM     88  H   UNL A   1      34.788  24.366  22.560  1.00  0.00     0.167 HD
ATOM     89  C   UNL A   1      35.171  20.739  25.107  1.00  0.00     0.010 A 
ATOM     90  C   UNL A   1      36.744  22.613  23.685  1.00  0.00     0.027 A 
ATOM     91  C   UNL A   1      36.568  20.646  25.102  1.00  0.00     0.001 A 
ATOM     92  C   UNL A   1      37.340  21.569  24.398  1.00  0.00     0.002 A 
ENDBRANCH  82  83
ENDBRANCH  80  82
ENDBRANCH  77  80
ENDBRANCH  75  76
ENDBRANCH  74  75
ENDBRANCH  73  74
ENDBRANCH   1  73
TORSDOF 18
ENDMDL
