MODEL 1
REMARK VINA RESULT:     -11.9      0.000      0.000
REMARK SMILES CCC(CC)(NC(=O)NC1CCC(C)(C)CC1)C(=O)NCCCCCCNC(=O)c1ccc(-c2c3nc(c(-c4cccc(S(=O)(=O)[O-])c4F)c4ccc([nH]4)c(-c4cccc(S(=O)(=O)[O-])c4F)c4nc(c(-c5cccc(S(=O)(=O)[O-])c5F)c5ccc2[nH]5)C=C4)C=C3)cc1
REMARK SMILES IDX 24 1 23 2 22 3 21 4 20 5 18 6 19 7 3 9 2 10 1 11 4 12 5 13
REMARK SMILES IDX 6 14 7 15 8 17 9 18 10 20 11 21 17 22 12 23 16 24 13 25
REMARK SMILES IDX 14 26 15 27 25 28 26 29 27 30 28 31 29 33 30 34 31 35 92 36
REMARK SMILES IDX 32 37 91 38 33 39 34 40 35 41 85 42 36 43 90 44 84 45 86 46
REMARK SMILES IDX 37 47 89 48 83 49 82 50 38 52 70 53 50 54 69 55 51 56 54 57
REMARK SMILES IDX 68 58 87 59 52 60 53 61 67 63 88 64 55 65 39 66 40 67 48 68
REMARK SMILES IDX 41 69 43 70 49 71 42 72 44 73 45 74 46 75 47 76 71 77 72 78
REMARK SMILES IDX 80 79 73 80 75 81 81 82 74 83 76 84 77 85 78 86 79 87 56 88
REMARK SMILES IDX 57 89 65 90 58 91 60 92 66 93 59 94 61 95 62 96 63 97 64 98
REMARK H PARENT 20 8 6 16 9 19 27 32 86 51 54 62
REMARK Flexibility Score: inf
ROOT
ATOM      1  C   UNL A   1      35.043  21.294  25.591  1.00  0.00     0.002 C 
ENDROOT
BRANCH   1   2
ATOM      2  C   UNL A   1      33.829  21.015  26.469  1.00  0.00     0.002 C 
BRANCH   2   3
ATOM      3  C   UNL A   1      32.935  22.190  26.868  1.00  0.00     0.021 C 
BRANCH   3   4
ATOM      4  C   UNL A   1      31.773  22.676  25.983  1.00  0.00     0.116 C 
BRANCH   4   5
ATOM      5  N   UNL A   1      31.791  22.468  24.533  1.00  0.00    -0.354 N 
ATOM      6  C   UNL A   1      32.384  23.130  23.473  1.00  0.00     0.245 C 
ATOM      7  O   UNL A   1      32.660  22.508  22.444  1.00  0.00    -0.272 OA
ATOM      8  H   UNL A   1      31.268  21.683  24.251  1.00  0.00     0.163 HD
BRANCH   6   9
ATOM      9  C   UNL A   1      32.892  24.548  23.595  1.00  0.00     0.120 C 
BRANCH   9  10
ATOM     10  C   UNL A   1      34.165  24.879  24.422  1.00  0.00     0.035 C 
ATOM     11  C   UNL A   1      34.005  25.464  25.814  1.00  0.00     0.007 C 
ENDBRANCH   9  10
BRANCH   9  12
ATOM     12  C   UNL A   1      31.604  25.210  24.229  1.00  0.00     0.035 C 
ATOM     13  C   UNL A   1      30.284  25.331  23.487  1.00  0.00     0.007 C 
ENDBRANCH   9  12
BRANCH   9  14
ATOM     14  N   UNL A   1      33.245  24.765  22.193  1.00  0.00    -0.324 N 
ATOM     15  C   UNL A   1      32.970  25.817  21.389  1.00  0.00     0.315 C 
ATOM     16  H   UNL A   1      33.758  24.038  21.771  1.00  0.00     0.166 HD
ATOM     17  O   UNL A   1      32.981  25.565  20.175  1.00  0.00    -0.249 OA
ATOM     18  N   UNL A   1      32.725  27.103  21.688  1.00  0.00    -0.335 N 
ATOM     19  H   UNL A   1      32.499  27.485  20.809  1.00  0.00     0.165 HD
BRANCH  18  20
ATOM     20  C   UNL A   1      32.595  28.326  22.624  1.00  0.00     0.083 C 
ATOM     21  C   UNL A   1      31.265  28.973  23.018  1.00  0.00     0.025 C 
ATOM     22  C   UNL A   1      33.723  28.685  23.604  1.00  0.00     0.025 C 
ATOM     23  C   UNL A   1      30.964  29.282  24.510  1.00  0.00     0.008 C 
ATOM     24  C   UNL A   1      33.450  28.749  25.109  1.00  0.00     0.008 C 
ATOM     25  C   UNL A   1      32.050  29.123  25.616  1.00  0.00    -0.035 C 
ATOM     26  C   UNL A   1      31.610  28.111  26.726  1.00  0.00     0.011 C 
ATOM     27  C   UNL A   1      32.179  30.453  26.398  1.00  0.00     0.011 C 
ENDBRANCH  18  20
ENDBRANCH   9  14
ENDBRANCH   6   9
ENDBRANCH   4   5
ENDBRANCH   3   4
ENDBRANCH   2   3
ENDBRANCH   1   2
BRANCH   1  28
ATOM     28  C   UNL A   1      36.068  22.288  26.106  1.00  0.00     0.021 C 
BRANCH  28  29
ATOM     29  C   UNL A   1      37.341  22.347  25.293  1.00  0.00     0.116 C 
BRANCH  29  30
ATOM     30  N   UNL A   1      38.276  21.268  25.591  1.00  0.00    -0.352 N 
ATOM     31  C   UNL A   1      39.488  21.375  26.237  1.00  0.00     0.251 C 
ATOM     32  H   UNL A   1      38.013  20.365  25.298  1.00  0.00     0.163 HD
ATOM     33  O   UNL A   1      40.243  20.414  26.335  1.00  0.00    -0.269 OA
BRANCH  31  34
ATOM     34  C   UNL A   1      39.868  22.697  26.775  1.00  0.00     0.039 A 
ATOM     35  C   UNL A   1      40.789  22.774  27.820  1.00  0.00     0.014 A 
ATOM     36  C   UNL A   1      39.394  23.855  26.154  1.00  0.00     0.014 A 
ATOM     37  C   UNL A   1      41.282  24.023  28.203  1.00  0.00     0.010 A 
ATOM     38  C   UNL A   1      39.972  25.078  26.457  1.00  0.00     0.010 A 
ATOM     39  C   UNL A   1      40.901  25.180  27.501  1.00  0.00    -0.014 A 
BRANCH  39  40
ATOM     40  C   UNL A   1      41.426  26.517  27.868  1.00  0.00     0.031 A 
ATOM     41  C   UNL A   1      42.855  26.864  27.540  1.00  0.00     0.074 A 
ATOM     42  C   UNL A   1      40.653  27.379  28.556  1.00  0.00     0.049 A 
ATOM     43  N   UNL A   1      43.525  27.951  27.819  1.00  0.00    -0.248 NA
ATOM     44  C   UNL A   1      43.650  25.838  26.840  1.00  0.00     0.031 C 
ATOM     45  C   UNL A   1      39.285  27.117  29.013  1.00  0.00     0.029 A 
ATOM     46  N   UNL A   1      40.915  28.647  29.011  1.00  0.00    -0.354 N 
ATOM     47  C   UNL A   1      44.817  27.727  27.358  1.00  0.00     0.074 A 
ATOM     48  C   UNL A   1      44.857  26.379  26.841  1.00  0.00     0.031 C 
ATOM     49  C   UNL A   1      38.826  28.194  29.672  1.00  0.00     0.029 A 
ATOM     50  C   UNL A   1      39.872  29.212  29.707  1.00  0.00     0.049 A 
ATOM     51  H   UNL A   1      41.770  29.109  28.854  1.00  0.00     0.167 HD
ATOM     52  C   UNL A   1      45.865  28.581  27.321  1.00  0.00     0.034 A 
ATOM     53  C   UNL A   1      39.773  30.415  30.304  1.00  0.00     0.034 A 
ATOM     54  C   UNL A   1      45.804  29.936  27.793  1.00  0.00     0.049 A 
ATOM     55  C   UNL A   1      40.936  31.367  30.204  1.00  0.00     0.074 A 
ATOM     56  C   UNL A   1      46.782  30.911  27.746  1.00  0.00     0.029 A 
ATOM     57  N   UNL A   1      44.695  30.508  28.397  1.00  0.00    -0.354 N 
ATOM     58  N   UNL A   1      42.102  31.189  29.630  1.00  0.00    -0.248 NA
ATOM     59  C   UNL A   1      40.755  32.702  30.791  1.00  0.00     0.031 C 
ATOM     60  C   UNL A   1      46.269  32.071  28.336  1.00  0.00     0.029 A 
ATOM     61  C   UNL A   1      44.961  31.825  28.723  1.00  0.00     0.049 A 
ATOM     62  H   UNL A   1      43.842  30.045  28.568  1.00  0.00     0.167 HD
ATOM     63  C   UNL A   1      42.776  32.399  29.750  1.00  0.00     0.074 A 
ATOM     64  C   UNL A   1      41.877  33.309  30.431  1.00  0.00     0.031 C 
ATOM     65  C   UNL A   1      44.028  32.727  29.347  1.00  0.00     0.034 A 
BRANCH  52  66
ATOM     66  C   UNL A   1      47.141  28.090  26.687  1.00  0.00     0.023 A 
ATOM     67  C   UNL A   1      48.213  27.683  27.511  1.00  0.00     0.012 A 
ATOM     68  C   UNL A   1      47.271  27.993  25.290  1.00  0.00     0.148 A 
ATOM     69  C   UNL A   1      49.406  27.227  26.954  1.00  0.00     0.002 A 
ATOM     70  C   UNL A   1      48.447  27.490  24.742  1.00  0.00     0.091 A 
ATOM     71  F   UNL A   1      46.253  28.405  24.522  1.00  0.00    -0.205 F 
ATOM     72  C   UNL A   1      49.519  27.121  25.572  1.00  0.00     0.022 A 
BRANCH  70  73
ATOM     73  S   UNL A   1      48.665  27.234  22.978  1.00  0.00     0.127 S 
ATOM     74  O   UNL A   1      50.092  27.516  22.814  1.00  0.00    -0.237 OA
ATOM     75  O   UNL A   1      48.301  25.826  22.826  1.00  0.00    -0.237 OA
ATOM     76  O   UNL A   1      47.765  28.171  22.320  1.00  0.00    -0.744 OA
ENDBRANCH  70  73
ENDBRANCH  52  66
BRANCH  53  77
ATOM     77  C   UNL A   1      38.510  30.818  30.986  1.00  0.00     0.023 A 
ATOM     78  C   UNL A   1      38.347  30.555  32.361  1.00  0.00     0.012 A 
ATOM     79  C   UNL A   1      37.475  31.468  30.286  1.00  0.00     0.148 A 
ATOM     80  C   UNL A   1      37.159  30.889  33.014  1.00  0.00     0.002 A 
ATOM     81  C   UNL A   1      36.318  31.850  30.956  1.00  0.00     0.091 A 
ATOM     82  F   UNL A   1      37.643  31.702  28.977  1.00  0.00    -0.205 F 
ATOM     83  C   UNL A   1      36.149  31.543  32.315  1.00  0.00     0.022 A 
BRANCH  81  84
ATOM     84  S   UNL A   1      35.025  32.812  30.165  1.00  0.00     0.127 S 
ATOM     85  O   UNL A   1      34.120  33.074  31.280  1.00  0.00    -0.237 OA
ATOM     86  O   UNL A   1      35.765  33.979  29.684  1.00  0.00    -0.237 OA
ATOM     87  O   UNL A   1      34.499  31.961  29.105  1.00  0.00    -0.744 OA
ENDBRANCH  81  84
ENDBRANCH  53  77
BRANCH  65  88
ATOM     88  C   UNL A   1      44.485  34.142  29.582  1.00  0.00     0.023 A 
ATOM     89  C   UNL A   1      45.114  34.489  30.793  1.00  0.00     0.012 A 
ATOM     90  C   UNL A   1      44.350  35.111  28.567  1.00  0.00     0.148 A 
ATOM     91  C   UNL A   1      45.564  35.790  31.009  1.00  0.00     0.002 A 
ATOM     92  C   UNL A   1      44.851  36.391  28.769  1.00  0.00     0.091 A 
ATOM     93  F   UNL A   1      43.733  34.765  27.428  1.00  0.00    -0.205 F 
ATOM     94  C   UNL A   1      45.444  36.737  29.994  1.00  0.00     0.022 A 
BRANCH  92  95
ATOM     95  S   UNL A   1      44.831  37.642  27.481  1.00  0.00     0.127 S 
ATOM     96  O   UNL A   1      45.217  38.841  28.224  1.00  0.00    -0.237 OA
ATOM     97  O   UNL A   1      45.846  37.147  26.551  1.00  0.00    -0.237 OA
ATOM     98  O   UNL A   1      43.475  37.646  26.947  1.00  0.00    -0.744 OA
ENDBRANCH  92  95
ENDBRANCH  65  88
ENDBRANCH  39  40
ENDBRANCH  31  34
ENDBRANCH  29  30
ENDBRANCH  28  29
ENDBRANCH   1  28
TORSDOF 20
ENDMDL
MODEL 2
REMARK VINA RESULT:     -11.6      1.474      7.590
REMARK SMILES CCC(CC)(NC(=O)NC1CCC(C)(C)CC1)C(=O)NCCCCCCNC(=O)c1ccc(-c2c3nc(c(-c4cccc(S(=O)(=O)[O-])c4F)c4ccc([nH]4)c(-c4cccc(S(=O)(=O)[O-])c4F)c4nc(c(-c5cccc(S(=O)(=O)[O-])c5F)c5ccc2[nH]5)C=C4)C=C3)cc1
REMARK SMILES IDX 24 1 23 2 22 3 21 4 20 5 18 6 19 7 3 9 2 10 1 11 4 12 5 13
REMARK SMILES IDX 6 14 7 15 8 17 9 18 10 20 11 21 17 22 12 23 16 24 13 25
REMARK SMILES IDX 14 26 15 27 25 28 26 29 27 30 28 31 29 33 30 34 31 35 92 36
REMARK SMILES IDX 32 37 91 38 33 39 34 40 35 41 85 42 36 43 90 44 84 45 86 46
REMARK SMILES IDX 37 47 89 48 83 49 82 50 38 52 70 53 50 54 69 55 51 56 54 57
REMARK SMILES IDX 68 58 87 59 52 60 53 61 67 63 88 64 55 65 39 66 40 67 48 68
REMARK SMILES IDX 41 69 43 70 49 71 42 72 44 73 45 74 46 75 47 76 71 77 72 78
REMARK SMILES IDX 80 79 73 80 75 81 81 82 74 83 76 84 77 85 78 86 79 87 56 88
REMARK SMILES IDX 57 89 65 90 58 91 60 92 66 93 59 94 61 95 62 96 63 97 64 98
REMARK H PARENT 20 8 6 16 9 19 27 32 86 51 54 62
REMARK Flexibility Score: inf
ROOT
ATOM      1  C   UNL A   1      36.173  20.707  24.967  1.00  0.00     0.002 C 
ENDROOT
BRANCH   1   2
ATOM      2  C   UNL A   1      34.767  20.120  24.991  1.00  0.00     0.002 C 
BRANCH   2   3
ATOM      3  C   UNL A   1      33.714  20.790  25.876  1.00  0.00     0.021 C 
BRANCH   3   4
ATOM      4  C   UNL A   1      32.513  21.554  25.290  1.00  0.00     0.116 C 
BRANCH   4   5
ATOM      5  N   UNL A   1      32.201  21.485  23.860  1.00  0.00    -0.354 N 
ATOM      6  C   UNL A   1      32.278  22.387  22.814  1.00  0.00     0.245 C 
ATOM      7  O   UNL A   1      32.432  21.972  21.662  1.00  0.00    -0.272 OA
ATOM      8  H   UNL A   1      31.865  20.602  23.582  1.00  0.00     0.163 HD
BRANCH   6   9
ATOM      9  C   UNL A   1      32.378  23.877  23.044  1.00  0.00     0.120 C 
BRANCH   9  10
ATOM     10  C   UNL A   1      33.347  24.463  24.108  1.00  0.00     0.035 C 
ATOM     11  C   UNL A   1      34.830  24.159  23.996  1.00  0.00     0.007 C 
ENDBRANCH   9  10
BRANCH   9  12
ATOM     12  C   UNL A   1      30.869  24.163  23.418  1.00  0.00     0.035 C 
ATOM     13  C   UNL A   1      30.429  24.599  24.806  1.00  0.00     0.007 C 
ENDBRANCH   9  12
BRANCH   9  14
ATOM     14  N   UNL A   1      32.922  24.254  21.740  1.00  0.00    -0.324 N 
ATOM     15  C   UNL A   1      32.800  25.416  21.060  1.00  0.00     0.315 C 
ATOM     16  H   UNL A   1      33.455  23.559  21.291  1.00  0.00     0.166 HD
ATOM     17  O   UNL A   1      32.961  25.324  19.834  1.00  0.00    -0.249 OA
ATOM     18  N   UNL A   1      32.571  26.664  21.500  1.00  0.00    -0.335 N 
ATOM     19  H   UNL A   1      32.479  27.170  20.660  1.00  0.00     0.165 HD
BRANCH  18  20
ATOM     20  C   UNL A   1      32.369  27.760  22.571  1.00  0.00     0.083 C 
ATOM     21  C   UNL A   1      31.024  28.092  23.222  1.00  0.00     0.025 C 
ATOM     22  C   UNL A   1      33.554  28.263  23.409  1.00  0.00     0.025 C 
ATOM     23  C   UNL A   1      30.920  28.219  24.766  1.00  0.00     0.008 C 
ATOM     24  C   UNL A   1      33.525  28.155  24.936  1.00  0.00     0.008 C 
ATOM     25  C   UNL A   1      32.182  28.198  25.678  1.00  0.00    -0.035 C 
ATOM     26  C   UNL A   1      32.129  27.036  26.725  1.00  0.00     0.011 C 
ATOM     27  C   UNL A   1      32.186  29.462  26.572  1.00  0.00     0.011 C 
ENDBRANCH  18  20
ENDBRANCH   9  14
ENDBRANCH   6   9
ENDBRANCH   4   5
ENDBRANCH   3   4
ENDBRANCH   2   3
ENDBRANCH   1   2
BRANCH   1  28
ATOM     28  C   UNL A   1      37.339  19.737  25.011  1.00  0.00     0.021 C 
BRANCH  28  29
ATOM     29  C   UNL A   1      38.648  20.357  25.447  1.00  0.00     0.116 C 
BRANCH  29  30
ATOM     30  N   UNL A   1      39.669  19.378  25.802  1.00  0.00    -0.352 N 
ATOM     31  C   UNL A   1      40.909  19.633  26.346  1.00  0.00     0.251 C 
ATOM     32  H   UNL A   1      39.449  18.433  25.634  1.00  0.00     0.163 HD
ATOM     33  O   UNL A   1      41.731  18.736  26.502  1.00  0.00    -0.269 OA
BRANCH  31  34
ATOM     34  C   UNL A   1      41.233  21.029  26.700  1.00  0.00     0.039 A 
ATOM     35  C   UNL A   1      41.892  21.299  27.900  1.00  0.00     0.014 A 
ATOM     36  C   UNL A   1      40.985  22.048  25.777  1.00  0.00     0.014 A 
ATOM     37  C   UNL A   1      42.357  22.592  28.146  1.00  0.00     0.010 A 
ATOM     38  C   UNL A   1      41.549  23.300  25.973  1.00  0.00     0.010 A 
ATOM     39  C   UNL A   1      42.218  23.593  27.169  1.00  0.00    -0.014 A 
BRANCH  39  40
ATOM     40  C   UNL A   1      42.722  24.969  27.391  1.00  0.00     0.031 A 
ATOM     41  C   UNL A   1      41.824  25.988  28.043  1.00  0.00     0.074 A 
ATOM     42  C   UNL A   1      43.943  25.320  26.942  1.00  0.00     0.049 A 
ATOM     43  N   UNL A   1      42.048  27.253  28.279  1.00  0.00    -0.248 NA
ATOM     44  C   UNL A   1      40.481  25.534  28.449  1.00  0.00     0.031 C 
ATOM     45  C   UNL A   1      44.864  24.446  26.211  1.00  0.00     0.029 A 
ATOM     46  N   UNL A   1      44.611  26.516  27.015  1.00  0.00    -0.354 N 
ATOM     47  C   UNL A   1      40.871  27.749  28.829  1.00  0.00     0.074 A 
ATOM     48  C   UNL A   1      39.914  26.667  28.832  1.00  0.00     0.031 C 
ATOM     49  C   UNL A   1      45.981  25.131  25.914  1.00  0.00     0.029 A 
ATOM     50  C   UNL A   1      45.847  26.497  26.410  1.00  0.00     0.049 A 
ATOM     51  H   UNL A   1      44.242  27.313  27.460  1.00  0.00     0.167 HD
ATOM     52  C   UNL A   1      40.621  28.979  29.333  1.00  0.00     0.034 A 
ATOM     53  C   UNL A   1      46.765  27.474  26.273  1.00  0.00     0.034 A 
ATOM     54  C   UNL A   1      41.594  30.035  29.372  1.00  0.00     0.049 A 
ATOM     55  C   UNL A   1      46.483  28.819  26.889  1.00  0.00     0.074 A 
ATOM     56  C   UNL A   1      41.473  31.298  29.917  1.00  0.00     0.029 A 
ATOM     57  N   UNL A   1      42.872  29.945  28.843  1.00  0.00    -0.354 N 
ATOM     58  N   UNL A   1      45.418  29.224  27.539  1.00  0.00    -0.248 NA
ATOM     59  C   UNL A   1      47.547  29.829  26.794  1.00  0.00     0.031 C 
ATOM     60  C   UNL A   1      42.676  31.980  29.705  1.00  0.00     0.029 A 
ATOM     61  C   UNL A   1      43.555  31.129  29.054  1.00  0.00     0.049 A 
ATOM     62  H   UNL A   1      43.240  29.155  28.385  1.00  0.00     0.167 HD
ATOM     63  C   UNL A   1      45.699  30.516  27.966  1.00  0.00     0.074 A 
ATOM     64  C   UNL A   1      47.044  30.818  27.521  1.00  0.00     0.031 C 
ATOM     65  C   UNL A   1      44.914  31.383  28.653  1.00  0.00     0.034 A 
BRANCH  52  66
ATOM     66  C   UNL A   1      39.265  29.218  29.945  1.00  0.00     0.023 A 
ATOM     67  C   UNL A   1      38.981  28.700  31.228  1.00  0.00     0.012 A 
ATOM     68  C   UNL A   1      38.288  29.982  29.280  1.00  0.00     0.148 A 
ATOM     69  C   UNL A   1      37.735  28.902  31.818  1.00  0.00     0.002 A 
ATOM     70  C   UNL A   1      37.065  30.222  29.897  1.00  0.00     0.091 A 
ATOM     71  F   UNL A   1      38.566  30.448  28.054  1.00  0.00    -0.205 F 
ATOM     72  C   UNL A   1      36.783  29.671  31.159  1.00  0.00     0.022 A 
BRANCH  70  73
ATOM     73  S   UNL A   1      35.799  31.268  29.170  1.00  0.00     0.127 S 
ATOM     74  O   UNL A   1      35.092  30.319  28.309  1.00  0.00    -0.237 OA
ATOM     75  O   UNL A   1      35.046  31.700  30.348  1.00  0.00    -0.237 OA
ATOM     76  O   UNL A   1      36.507  32.333  28.474  1.00  0.00    -0.744 OA
ENDBRANCH  70  73
ENDBRANCH  52  66
BRANCH  53  77
ATOM     77  C   UNL A   1      48.061  27.201  25.588  1.00  0.00     0.023 A 
ATOM     78  C   UNL A   1      49.141  26.676  26.325  1.00  0.00     0.012 A 
ATOM     79  C   UNL A   1      48.227  27.448  24.212  1.00  0.00     0.148 A 
ATOM     80  C   UNL A   1      50.375  26.446  25.716  1.00  0.00     0.002 A 
ATOM     81  C   UNL A   1      49.443  27.163  23.598  1.00  0.00     0.091 A 
ATOM     82  F   UNL A   1      47.193  27.956  23.528  1.00  0.00    -0.205 F 
ATOM     83  C   UNL A   1      50.524  26.681  24.352  1.00  0.00     0.022 A 
BRANCH  81  84
ATOM     84  S   UNL A   1      49.679  27.311  21.824  1.00  0.00     0.127 S 
ATOM     85  O   UNL A   1      49.537  28.750  21.621  1.00  0.00    -0.237 OA
ATOM     86  O   UNL A   1      51.037  26.794  21.654  1.00  0.00    -0.237 OA
ATOM     87  O   UNL A   1      48.645  26.479  21.222  1.00  0.00    -0.744 OA
ENDBRANCH  81  84
ENDBRANCH  53  77
BRANCH  65  88
ATOM     88  C   UNL A   1      45.504  32.719  29.013  1.00  0.00     0.023 A 
ATOM     89  C   UNL A   1      46.235  32.869  30.207  1.00  0.00     0.012 A 
ATOM     90  C   UNL A   1      45.389  33.810  28.128  1.00  0.00     0.148 A 
ATOM     91  C   UNL A   1      46.808  34.096  30.536  1.00  0.00     0.002 A 
ATOM     92  C   UNL A   1      46.009  35.014  28.437  1.00  0.00     0.091 A 
ATOM     93  F   UNL A   1      44.674  33.652  27.005  1.00  0.00    -0.205 F 
ATOM     94  C   UNL A   1      46.706  35.164  29.647  1.00  0.00     0.022 A 
BRANCH  92  95
ATOM     95  S   UNL A   1      46.015  36.407  27.304  1.00  0.00     0.127 S 
ATOM     96  O   UNL A   1      46.818  37.384  28.039  1.00  0.00    -0.237 OA
ATOM     97  O   UNL A   1      46.671  35.844  26.123  1.00  0.00    -0.237 OA
ATOM     98  O   UNL A   1      44.618  36.768  27.104  1.00  0.00    -0.744 OA
ENDBRANCH  92  95
ENDBRANCH  65  88
ENDBRANCH  39  40
ENDBRANCH  31  34
ENDBRANCH  29  30
ENDBRANCH  28  29
ENDBRANCH   1  28
TORSDOF 20
ENDMDL
MODEL 3
REMARK VINA RESULT:     -11.5      1.581      2.169
REMARK SMILES CCC(CC)(NC(=O)NC1CCC(C)(C)CC1)C(=O)NCCCCCCNC(=O)c1ccc(-c2c3nc(c(-c4cccc(S(=O)(=O)[O-])c4F)c4ccc([nH]4)c(-c4cccc(S(=O)(=O)[O-])c4F)c4nc(c(-c5cccc(S(=O)(=O)[O-])c5F)c5ccc2[nH]5)C=C4)C=C3)cc1
REMARK SMILES IDX 24 1 23 2 22 3 21 4 20 5 18 6 19 7 3 9 2 10 1 11 4 12 5 13
REMARK SMILES IDX 6 14 7 15 8 17 9 18 10 20 11 21 17 22 12 23 16 24 13 25
REMARK SMILES IDX 14 26 15 27 25 28 26 29 27 30 28 31 29 33 30 34 31 35 92 36
REMARK SMILES IDX 32 37 91 38 33 39 34 40 35 41 85 42 36 43 90 44 84 45 86 46
REMARK SMILES IDX 37 47 89 48 83 49 82 50 38 52 70 53 50 54 69 55 51 56 54 57
REMARK SMILES IDX 68 58 87 59 52 60 53 61 67 63 88 64 55 65 39 66 40 67 48 68
REMARK SMILES IDX 41 69 43 70 49 71 42 72 44 73 45 74 46 75 47 76 71 77 72 78
REMARK SMILES IDX 80 79 73 80 75 81 81 82 74 83 76 84 77 85 78 86 79 87 56 88
REMARK SMILES IDX 57 89 65 90 58 91 60 92 66 93 59 94 61 95 62 96 63 97 64 98
REMARK H PARENT 20 8 6 16 9 19 27 32 86 51 54 62
REMARK Flexibility Score: inf
ROOT
ATOM      1  C   UNL A   1      37.405  21.611  24.840  1.00  0.00     0.002 C 
ENDROOT
BRANCH   1   2
ATOM      2  C   UNL A   1      36.193  21.837  25.734  1.00  0.00     0.002 C 
BRANCH   2   3
ATOM      3  C   UNL A   1      34.917  21.045  25.444  1.00  0.00     0.021 C 
BRANCH   3   4
ATOM      4  C   UNL A   1      33.532  21.713  25.376  1.00  0.00     0.116 C 
BRANCH   4   5
ATOM      5  N   UNL A   1      32.796  21.793  24.112  1.00  0.00    -0.354 N 
ATOM      6  C   UNL A   1      32.704  22.742  23.110  1.00  0.00     0.245 C 
ATOM      7  O   UNL A   1      32.430  22.389  21.960  1.00  0.00    -0.272 OA
ATOM      8  H   UNL A   1      32.247  20.995  23.936  1.00  0.00     0.163 HD
BRANCH   6   9
ATOM      9  C   UNL A   1      33.120  24.178  23.325  1.00  0.00     0.120 C 
BRANCH   9  10
ATOM     10  C   UNL A   1      34.410  24.533  24.115  1.00  0.00     0.035 C 
ATOM     11  C   UNL A   1      34.282  25.026  25.545  1.00  0.00     0.007 C 
ENDBRANCH   9  10
BRANCH   9  12
ATOM     12  C   UNL A   1      31.826  24.693  24.072  1.00  0.00     0.035 C 
ATOM     13  C   UNL A   1      30.435  24.619  23.466  1.00  0.00     0.007 C 
ENDBRANCH   9  12
BRANCH   9  14
ATOM     14  N   UNL A   1      33.383  24.531  21.930  1.00  0.00    -0.324 N 
ATOM     15  C   UNL A   1      32.994  25.620  21.230  1.00  0.00     0.315 C 
ATOM     16  H   UNL A   1      33.921  23.878  21.426  1.00  0.00     0.166 HD
ATOM     17  O   UNL A   1      32.958  25.466  19.999  1.00  0.00    -0.249 OA
ATOM     18  N   UNL A   1      32.677  26.858  21.646  1.00  0.00    -0.335 N 
ATOM     19  H   UNL A   1      32.379  27.290  20.813  1.00  0.00     0.165 HD
BRANCH  18  20
ATOM     20  C   UNL A   1      32.513  27.990  22.685  1.00  0.00     0.083 C 
ATOM     21  C   UNL A   1      31.167  28.578  23.114  1.00  0.00     0.025 C 
ATOM     22  C   UNL A   1      33.621  28.277  23.710  1.00  0.00     0.025 C 
ATOM     23  C   UNL A   1      30.840  28.748  24.622  1.00  0.00     0.008 C 
ATOM     24  C   UNL A   1      33.326  28.203  25.210  1.00  0.00     0.008 C 
ATOM     25  C   UNL A   1      31.913  28.508  25.726  1.00  0.00    -0.035 C 
ATOM     26  C   UNL A   1      31.475  27.394  26.735  1.00  0.00     0.011 C 
ATOM     27  C   UNL A   1      32.008  29.765  26.625  1.00  0.00     0.011 C 
ENDBRANCH  18  20
ENDBRANCH   9  14
ENDBRANCH   6   9
ENDBRANCH   4   5
ENDBRANCH   3   4
ENDBRANCH   2   3
ENDBRANCH   1   2
BRANCH   1  28
ATOM     28  C   UNL A   1      38.180  20.319  25.021  1.00  0.00     0.021 C 
BRANCH  28  29
ATOM     29  C   UNL A   1      39.243  20.376  26.096  1.00  0.00     0.116 C 
BRANCH  29  30
ATOM     30  N   UNL A   1      40.242  19.320  25.988  1.00  0.00    -0.352 N 
ATOM     31  C   UNL A   1      41.610  19.460  26.072  1.00  0.00     0.251 C 
ATOM     32  H   UNL A   1      39.903  18.408  25.836  1.00  0.00     0.163 HD
ATOM     33  O   UNL A   1      42.361  18.515  25.855  1.00  0.00    -0.269 OA
BRANCH  31  34
ATOM     34  C   UNL A   1      42.148  20.797  26.394  1.00  0.00     0.039 A 
ATOM     35  C   UNL A   1      42.351  21.722  25.369  1.00  0.00     0.014 A 
ATOM     36  C   UNL A   1      42.333  21.161  27.730  1.00  0.00     0.014 A 
ATOM     37  C   UNL A   1      42.685  23.037  25.694  1.00  0.00     0.010 A 
ATOM     38  C   UNL A   1      42.549  22.492  28.053  1.00  0.00     0.010 A 
ATOM     39  C   UNL A   1      42.754  23.439  27.040  1.00  0.00    -0.014 A 
BRANCH  39  40
ATOM     40  C   UNL A   1      43.082  24.834  27.417  1.00  0.00     0.031 A 
ATOM     41  C   UNL A   1      44.504  25.317  27.292  1.00  0.00     0.074 A 
ATOM     42  C   UNL A   1      42.132  25.633  27.940  1.00  0.00     0.049 A 
ATOM     43  N   UNL A   1      45.013  26.475  27.617  1.00  0.00    -0.248 NA
ATOM     44  C   UNL A   1      45.494  24.357  26.768  1.00  0.00     0.031 C 
ATOM     45  C   UNL A   1      40.743  25.245  28.199  1.00  0.00     0.029 A 
ATOM     46  N   UNL A   1      42.196  26.934  28.369  1.00  0.00    -0.354 N 
ATOM     47  C   UNL A   1      46.377  26.373  27.366  1.00  0.00     0.074 A 
ATOM     48  C   UNL A   1      46.628  25.020  26.924  1.00  0.00     0.031 C 
ATOM     49  C   UNL A   1      40.084  26.289  28.730  1.00  0.00     0.029 A 
ATOM     50  C   UNL A   1      41.008  27.410  28.873  1.00  0.00     0.049 A 
ATOM     51  H   UNL A   1      43.016  27.478  28.321  1.00  0.00     0.167 HD
ATOM     52  C   UNL A   1      47.330  27.330  27.446  1.00  0.00     0.034 A 
ATOM     53  C   UNL A   1      40.701  28.615  29.391  1.00  0.00     0.034 A 
ATOM     54  C   UNL A   1      47.064  28.685  27.839  1.00  0.00     0.049 A 
ATOM     55  C   UNL A   1      41.767  29.679  29.422  1.00  0.00     0.074 A 
ATOM     56  C   UNL A   1      47.938  29.753  27.893  1.00  0.00     0.029 A 
ATOM     57  N   UNL A   1      45.825  29.157  28.243  1.00  0.00    -0.354 N 
ATOM     58  N   UNL A   1      43.019  29.605  29.038  1.00  0.00    -0.248 NA
ATOM     59  C   UNL A   1      41.368  31.006  29.912  1.00  0.00     0.031 C 
ATOM     60  C   UNL A   1      47.230  30.872  28.344  1.00  0.00     0.029 A 
ATOM     61  C   UNL A   1      45.907  30.505  28.542  1.00  0.00     0.049 A 
ATOM     62  H   UNL A   1      45.006  28.614  28.305  1.00  0.00     0.167 HD
ATOM     63  C   UNL A   1      43.545  30.881  29.201  1.00  0.00     0.074 A 
ATOM     64  C   UNL A   1      42.468  31.714  29.695  1.00  0.00     0.031 C 
ATOM     65  C   UNL A   1      44.807  31.325  28.976  1.00  0.00     0.034 A 
BRANCH  52  66
ATOM     66  C   UNL A   1      48.730  26.954  27.035  1.00  0.00     0.023 A 
ATOM     67  C   UNL A   1      49.515  26.155  27.894  1.00  0.00     0.012 A 
ATOM     68  C   UNL A   1      49.257  27.350  25.792  1.00  0.00     0.148 A 
ATOM     69  C   UNL A   1      50.814  25.793  27.543  1.00  0.00     0.002 A 
ATOM     70  C   UNL A   1      50.536  26.944  25.426  1.00  0.00     0.091 A 
ATOM     71  F   UNL A   1      48.507  28.127  24.997  1.00  0.00    -0.205 F 
ATOM     72  C   UNL A   1      51.319  26.178  26.306  1.00  0.00     0.022 A 
BRANCH  70  73
ATOM     73  S   UNL A   1      51.251  27.316  23.821  1.00  0.00     0.127 S 
ATOM     74  O   UNL A   1      51.392  28.770  23.891  1.00  0.00    -0.237 OA
ATOM     75  O   UNL A   1      52.514  26.578  23.871  1.00  0.00    -0.237 OA
ATOM     76  O   UNL A   1      50.299  26.829  22.833  1.00  0.00    -0.744 OA
ENDBRANCH  70  73
ENDBRANCH  52  66
BRANCH  53  77
ATOM     77  C   UNL A   1      39.315  28.906  29.856  1.00  0.00     0.023 A 
ATOM     78  C   UNL A   1      38.931  28.555  31.166  1.00  0.00     0.012 A 
ATOM     79  C   UNL A   1      38.378  29.537  29.015  1.00  0.00     0.148 A 
ATOM     80  C   UNL A   1      37.629  28.783  31.613  1.00  0.00     0.002 A 
ATOM     81  C   UNL A   1      37.099  29.813  29.486  1.00  0.00     0.091 A 
ATOM     82  F   UNL A   1      38.756  29.856  27.769  1.00  0.00    -0.205 F 
ATOM     83  C   UNL A   1      36.716  29.419  30.777  1.00  0.00     0.022 A 
BRANCH  81  84
ATOM     84  S   UNL A   1      35.904  30.747  28.524  1.00  0.00     0.127 S 
ATOM     85  O   UNL A   1      35.383  29.725  27.620  1.00  0.00    -0.237 OA
ATOM     86  O   UNL A   1      34.966  31.194  29.555  1.00  0.00    -0.237 OA
ATOM     87  O   UNL A   1      36.662  31.823  27.899  1.00  0.00    -0.744 OA
ENDBRANCH  81  84
ENDBRANCH  53  77
BRANCH  65  88
ATOM     88  C   UNL A   1      45.081  32.786  29.209  1.00  0.00     0.023 A 
ATOM     89  C   UNL A   1      45.621  33.215  30.437  1.00  0.00     0.012 A 
ATOM     90  C   UNL A   1      44.866  33.724  28.180  1.00  0.00     0.148 A 
ATOM     91  C   UNL A   1      45.904  34.563  30.652  1.00  0.00     0.002 A 
ATOM     92  C   UNL A   1      45.201  35.057  28.383  1.00  0.00     0.091 A 
ATOM     93  F   UNL A   1      44.334  33.298  27.025  1.00  0.00    -0.205 F 
ATOM     94  C   UNL A   1      45.706  35.481  29.623  1.00  0.00     0.022 A 
BRANCH  92  95
ATOM     95  S   UNL A   1      45.075  36.286  27.081  1.00  0.00     0.127 S 
ATOM     96  O   UNL A   1      45.590  37.481  27.749  1.00  0.00    -0.237 OA
ATOM     97  O   UNL A   1      45.956  35.737  26.049  1.00  0.00    -0.237 OA
ATOM     98  O   UNL A   1      43.668  36.334  26.709  1.00  0.00    -0.744 OA
ENDBRANCH  92  95
ENDBRANCH  65  88
ENDBRANCH  39  40
ENDBRANCH  31  34
ENDBRANCH  29  30
ENDBRANCH  28  29
ENDBRANCH   1  28
TORSDOF 20
ENDMDL
