MODEL 1
REMARK VINA RESULT:     -10.3      0.000      0.000
REMARK SMILES Cc1cc(OCC(=O)N[C@@H](CO)C(=O)NCCCCCCNC(=O)c2ccc(-c3c4nc(c(-c5cccc(S(=O)(=O)[O-])c5F)c5ccc([nH]5)c(-c5cccc(S(=O)(=O)[O-])c5F)c5nc(c(-c6cccc(S(=O)(=O)[O-])c6F)c6ccc3[nH]6)C=C5)C=C4)cc2)no1
REMARK SMILES IDX 18 1 17 2 16 3 15 4 13 5 14 6 10 8 9 9 7 10 8 11 6 13 5 14
REMARK SMILES IDX 4 15 1 16 2 17 3 18 89 19 88 20 11 21 12 22 19 24 20 25
REMARK SMILES IDX 21 26 22 27 23 28 24 30 25 31 26 32 87 33 27 34 86 35 28 36
REMARK SMILES IDX 29 37 30 38 80 39 31 40 85 41 79 42 81 43 32 44 84 45 78 46
REMARK SMILES IDX 77 47 33 49 65 50 45 51 64 52 46 53 49 54 63 55 82 56 47 57
REMARK SMILES IDX 48 58 62 60 83 61 50 62 34 63 35 64 43 65 36 66 38 67 44 68
REMARK SMILES IDX 37 69 39 70 40 71 41 72 42 73 66 74 67 75 75 76 68 77 70 78
REMARK SMILES IDX 76 79 69 80 71 81 72 82 73 83 74 84 51 85 52 86 60 87 53 88
REMARK SMILES IDX 55 89 61 90 54 91 56 92 57 93 58 94 59 95
REMARK H PARENT 15 7 9 12 12 23 22 29 81 48 49 59
REMARK Flexibility Score: inf
ROOT
ATOM      1  C   UNL A   1      32.195  28.738  26.277  1.00  0.00     0.002 C 
ENDROOT
BRANCH   1   2
ATOM      2  C   UNL A   1      31.265  27.567  26.604  1.00  0.00     0.021 C 
BRANCH   2   3
ATOM      3  C   UNL A   1      31.695  26.239  25.990  1.00  0.00     0.116 C 
BRANCH   3   4
ATOM      4  N   UNL A   1      31.363  25.122  26.856  1.00  0.00    -0.354 N 
ATOM      5  C   UNL A   1      31.566  23.784  26.709  1.00  0.00     0.244 C 
ATOM      6  O   UNL A   1      31.311  23.064  27.682  1.00  0.00    -0.273 OA
ATOM      7  H   UNL A   1      30.914  25.377  27.695  1.00  0.00     0.163 HD
BRANCH   5   8
ATOM      8  C   UNL A   1      32.142  23.166  25.423  1.00  0.00     0.197 C 
BRANCH   8   9
ATOM      9  N   UNL A   1      33.597  23.337  25.346  1.00  0.00    -0.339 N 
ATOM     10  C   UNL A   1      34.340  23.779  24.295  1.00  0.00     0.258 C 
ATOM     11  O   UNL A   1      35.519  24.081  24.485  1.00  0.00    -0.271 OA
ATOM     12  H   UNL A   1      34.101  23.101  26.158  1.00  0.00     0.164 HD
BRANCH  10  13
ATOM     13  C   UNL A   1      33.711  23.873  22.904  1.00  0.00     0.331 C 
BRANCH  13  14
ATOM     14  O   UNL A   1      34.002  25.056  22.182  1.00  0.00    -0.465 OA
BRANCH  14  15
ATOM     15  C   UNL A   1      33.088  26.041  22.319  1.00  0.00     0.254 A 
ATOM     16  C   UNL A   1      30.076  28.075  22.678  1.00  0.00     0.091 C 
ATOM     17  C   UNL A   1      31.351  27.350  22.541  1.00  0.00     0.137 A 
ATOM     18  C   UNL A   1      31.684  26.047  22.260  1.00  0.00     0.116 A 
ATOM     19  O   UNL A   1      32.488  28.075  22.732  1.00  0.00    -0.358 OA
ATOM     20  N   UNL A   1      33.591  27.246  22.589  1.00  0.00    -0.041 NA
ENDBRANCH  14  15
ENDBRANCH  13  14
ENDBRANCH  10  13
ENDBRANCH   8   9
BRANCH   8  21
ATOM     21  C   UNL A   1      31.649  21.728  25.197  1.00  0.00     0.191 C 
BRANCH  21  22
ATOM     22  O   UNL A   1      32.696  20.766  25.131  1.00  0.00    -0.394 OA
ATOM     23  H   UNL A   1      33.395  21.087  24.540  1.00  0.00     0.210 HD
ENDBRANCH  21  22
ENDBRANCH   8  21
ENDBRANCH   5   8
ENDBRANCH   3   4
ENDBRANCH   2   3
ENDBRANCH   1   2
BRANCH   1  24
ATOM     24  C   UNL A   1      31.525  29.916  25.561  1.00  0.00     0.002 C 
BRANCH  24  25
ATOM     25  C   UNL A   1      31.499  31.226  26.353  1.00  0.00     0.021 C 
BRANCH  25  26
ATOM     26  C   UNL A   1      32.772  31.525  27.133  1.00  0.00     0.116 C 
BRANCH  26  27
ATOM     27  N   UNL A   1      32.981  32.954  27.314  1.00  0.00    -0.352 N 
ATOM     28  C   UNL A   1      33.957  33.602  28.025  1.00  0.00     0.251 C 
ATOM     29  H   UNL A   1      32.329  33.537  26.861  1.00  0.00     0.163 HD
ATOM     30  O   UNL A   1      33.869  34.811  28.231  1.00  0.00    -0.269 OA
BRANCH  28  31
ATOM     31  C   UNL A   1      35.105  32.838  28.556  1.00  0.00     0.039 A 
ATOM     32  C   UNL A   1      36.397  33.323  28.347  1.00  0.00     0.014 A 
ATOM     33  C   UNL A   1      34.904  31.648  29.263  1.00  0.00     0.014 A 
ATOM     34  C   UNL A   1      37.487  32.643  28.893  1.00  0.00     0.010 A 
ATOM     35  C   UNL A   1      35.983  31.016  29.872  1.00  0.00     0.010 A 
ATOM     36  C   UNL A   1      37.287  31.500  29.685  1.00  0.00    -0.014 A 
BRANCH  36  37
ATOM     37  C   UNL A   1      38.427  30.801  30.331  1.00  0.00     0.031 A 
ATOM     38  C   UNL A   1      38.856  31.178  31.723  1.00  0.00     0.074 A 
ATOM     39  C   UNL A   1      39.127  29.884  29.634  1.00  0.00     0.049 A 
ATOM     40  N   UNL A   1      39.859  30.722  32.429  1.00  0.00    -0.248 NA
ATOM     41  C   UNL A   1      38.073  32.223  32.403  1.00  0.00     0.031 C 
ATOM     42  C   UNL A   1      38.855  29.483  28.252  1.00  0.00     0.029 A 
ATOM     43  N   UNL A   1      40.227  29.140  29.983  1.00  0.00    -0.354 N 
ATOM     44  C   UNL A   1      39.849  31.445  33.616  1.00  0.00     0.074 A 
ATOM     45  C   UNL A   1      38.763  32.395  33.522  1.00  0.00     0.031 C 
ATOM     46  C   UNL A   1      39.758  28.564  27.875  1.00  0.00     0.029 A 
ATOM     47  C   UNL A   1      40.693  28.336  28.971  1.00  0.00     0.049 A 
ATOM     48  H   UNL A   1      40.642  29.179  30.876  1.00  0.00     0.167 HD
ATOM     49  C   UNL A   1      40.653  31.311  34.698  1.00  0.00     0.034 A 
ATOM     50  C   UNL A   1      41.760  27.514  28.925  1.00  0.00     0.034 A 
ATOM     51  C   UNL A   1      41.710  30.342  34.800  1.00  0.00     0.049 A 
ATOM     52  C   UNL A   1      42.624  27.369  30.149  1.00  0.00     0.074 A 
ATOM     53  C   UNL A   1      42.526  30.071  35.884  1.00  0.00     0.029 A 
ATOM     54  N   UNL A   1      42.106  29.492  33.780  1.00  0.00    -0.354 N 
ATOM     55  N   UNL A   1      42.506  27.952  31.317  1.00  0.00    -0.248 NA
ATOM     56  C   UNL A   1      43.748  26.425  30.061  1.00  0.00     0.031 C 
ATOM     57  C   UNL A   1      43.439  29.082  35.507  1.00  0.00     0.029 A 
ATOM     58  C   UNL A   1      43.164  28.707  34.203  1.00  0.00     0.049 A 
ATOM     59  H   UNL A   1      41.695  29.454  32.886  1.00  0.00     0.167 HD
ATOM     60  C   UNL A   1      43.512  27.419  32.114  1.00  0.00     0.074 A 
ATOM     61  C   UNL A   1      44.218  26.451  31.301  1.00  0.00     0.031 C 
ATOM     62  C   UNL A   1      43.827  27.710  33.400  1.00  0.00     0.034 A 
BRANCH  49  63
ATOM     63  C   UNL A   1      40.392  32.212  35.879  1.00  0.00     0.023 A 
ATOM     64  C   UNL A   1      41.186  33.362  36.069  1.00  0.00     0.012 A 
ATOM     65  C   UNL A   1      39.329  31.954  36.766  1.00  0.00     0.148 A 
ATOM     66  C   UNL A   1      40.953  34.219  37.144  1.00  0.00     0.002 A 
ATOM     67  C   UNL A   1      39.071  32.838  37.806  1.00  0.00     0.091 A 
ATOM     68  F   UNL A   1      38.597  30.846  36.581  1.00  0.00    -0.205 F 
ATOM     69  C   UNL A   1      39.889  33.962  38.006  1.00  0.00     0.022 A 
BRANCH  67  70
ATOM     70  S   UNL A   1      37.676  32.643  38.922  1.00  0.00     0.127 S 
ATOM     71  O   UNL A   1      37.894  33.742  39.861  1.00  0.00    -0.237 OA
ATOM     72  O   UNL A   1      36.537  32.826  38.023  1.00  0.00    -0.237 OA
ATOM     73  O   UNL A   1      37.796  31.307  39.487  1.00  0.00    -0.744 OA
ENDBRANCH  67  70
ENDBRANCH  49  63
BRANCH  50  74
ATOM     74  C   UNL A   1      42.042  26.723  27.694  1.00  0.00     0.023 A 
ATOM     75  C   UNL A   1      42.626  27.358  26.580  1.00  0.00     0.012 A 
ATOM     76  C   UNL A   1      41.751  25.347  27.625  1.00  0.00     0.148 A 
ATOM     77  C   UNL A   1      42.881  26.646  25.408  1.00  0.00     0.002 A 
ATOM     78  C   UNL A   1      42.061  24.630  26.475  1.00  0.00     0.091 A 
ATOM     79  F   UNL A   1      41.188  24.764  28.692  1.00  0.00    -0.205 F 
ATOM     80  C   UNL A   1      42.608  25.281  25.358  1.00  0.00     0.022 A 
BRANCH  78  81
ATOM     81  S   UNL A   1      41.862  22.849  26.366  1.00  0.00     0.127 S 
ATOM     82  O   UNL A   1      42.613  22.393  27.533  1.00  0.00    -0.237 OA
ATOM     83  O   UNL A   1      40.410  22.702  26.469  1.00  0.00    -0.237 OA
ATOM     84  O   UNL A   1      42.414  22.469  25.073  1.00  0.00    -0.744 OA
ENDBRANCH  78  81
ENDBRANCH  50  74
BRANCH  62  85
ATOM     85  C   UNL A   1      44.958  26.943  34.035  1.00  0.00     0.023 A 
ATOM     86  C   UNL A   1      46.277  27.429  33.952  1.00  0.00     0.012 A 
ATOM     87  C   UNL A   1      44.698  25.775  34.780  1.00  0.00     0.148 A 
ATOM     88  C   UNL A   1      47.324  26.747  34.570  1.00  0.00     0.002 A 
ATOM     89  C   UNL A   1      45.736  25.130  35.439  1.00  0.00     0.091 A 
ATOM     90  F   UNL A   1      43.438  25.319  34.833  1.00  0.00    -0.205 F 
ATOM     91  C   UNL A   1      47.052  25.606  35.323  1.00  0.00     0.022 A 
BRANCH  89  92
ATOM     92  S   UNL A   1      45.468  23.716  36.512  1.00  0.00     0.127 S 
ATOM     93  O   UNL A   1      44.744  22.804  35.628  1.00  0.00    -0.237 OA
ATOM     94  O   UNL A   1      46.835  23.303  36.827  1.00  0.00    -0.237 OA
ATOM     95  O   UNL A   1      44.709  24.213  37.652  1.00  0.00    -0.744 OA
ENDBRANCH  89  92
ENDBRANCH  62  85
ENDBRANCH  36  37
ENDBRANCH  28  31
ENDBRANCH  26  27
ENDBRANCH  25  26
ENDBRANCH  24  25
ENDBRANCH   1  24
TORSDOF 22
ENDMDL
MODEL 2
REMARK VINA RESULT:     -10.1      2.087      8.235
REMARK SMILES Cc1cc(OCC(=O)N[C@@H](CO)C(=O)NCCCCCCNC(=O)c2ccc(-c3c4nc(c(-c5cccc(S(=O)(=O)[O-])c5F)c5ccc([nH]5)c(-c5cccc(S(=O)(=O)[O-])c5F)c5nc(c(-c6cccc(S(=O)(=O)[O-])c6F)c6ccc3[nH]6)C=C5)C=C4)cc2)no1
REMARK SMILES IDX 18 1 17 2 16 3 15 4 13 5 14 6 10 8 9 9 7 10 8 11 6 13 5 14
REMARK SMILES IDX 4 15 1 16 2 17 3 18 89 19 88 20 11 21 12 22 19 24 20 25
REMARK SMILES IDX 21 26 22 27 23 28 24 30 25 31 26 32 87 33 27 34 86 35 28 36
REMARK SMILES IDX 29 37 30 38 80 39 31 40 85 41 79 42 81 43 32 44 84 45 78 46
REMARK SMILES IDX 77 47 33 49 65 50 45 51 64 52 46 53 49 54 63 55 82 56 47 57
REMARK SMILES IDX 48 58 62 60 83 61 50 62 34 63 35 64 43 65 36 66 38 67 44 68
REMARK SMILES IDX 37 69 39 70 40 71 41 72 42 73 66 74 67 75 75 76 68 77 70 78
REMARK SMILES IDX 76 79 69 80 71 81 72 82 73 83 74 84 51 85 52 86 60 87 53 88
REMARK SMILES IDX 55 89 61 90 54 91 56 92 57 93 58 94 59 95
REMARK H PARENT 15 7 9 12 12 23 22 29 81 48 49 59
REMARK Flexibility Score: inf
ROOT
ATOM      1  C   UNL A   1      34.129  29.441  26.574  1.00  0.00     0.002 C 
ENDROOT
BRANCH   1   2
ATOM      2  C   UNL A   1      32.937  28.508  26.805  1.00  0.00     0.021 C 
BRANCH   2   3
ATOM      3  C   UNL A   1      31.650  28.961  26.123  1.00  0.00     0.116 C 
BRANCH   3   4
ATOM      4  N   UNL A   1      30.962  27.848  25.497  1.00  0.00    -0.354 N 
ATOM      5  C   UNL A   1      30.890  27.457  24.194  1.00  0.00     0.244 C 
ATOM      6  O   UNL A   1      30.346  26.372  23.959  1.00  0.00    -0.273 OA
ATOM      7  H   UNL A   1      30.459  27.275  26.122  1.00  0.00     0.163 HD
BRANCH   5   8
ATOM      8  C   UNL A   1      31.502  28.278  23.045  1.00  0.00     0.197 C 
BRANCH   8   9
ATOM      9  N   UNL A   1      32.192  27.419  22.075  1.00  0.00    -0.339 N 
ATOM     10  C   UNL A   1      33.210  26.545  22.298  1.00  0.00     0.258 C 
ATOM     11  O   UNL A   1      33.507  25.739  21.415  1.00  0.00    -0.271 OA
ATOM     12  H   UNL A   1      31.877  27.483  21.144  1.00  0.00     0.164 HD
BRANCH  10  13
ATOM     13  C   UNL A   1      33.977  26.591  23.620  1.00  0.00     0.331 C 
BRANCH  13  14
ATOM     14  O   UNL A   1      34.294  25.332  24.186  1.00  0.00    -0.465 OA
BRANCH  14  15
ATOM     15  C   UNL A   1      33.281  24.744  24.858  1.00  0.00     0.254 A 
ATOM     16  C   UNL A   1      30.606  22.577  26.078  1.00  0.00     0.091 C 
ATOM     17  C   UNL A   1      31.667  23.517  25.676  1.00  0.00     0.137 A 
ATOM     18  C   UNL A   1      32.459  23.643  24.560  1.00  0.00     0.116 A 
ATOM     19  O   UNL A   1      31.984  24.495  26.567  1.00  0.00    -0.358 OA
ATOM     20  N   UNL A   1      33.006  25.276  26.048  1.00  0.00    -0.041 NA
ENDBRANCH  14  15
ENDBRANCH  13  14
ENDBRANCH  10  13
ENDBRANCH   8   9
BRANCH   8  21
ATOM     21  C   UNL A   1      30.494  29.262  22.430  1.00  0.00     0.191 C 
BRANCH  21  22
ATOM     22  O   UNL A   1      29.136  28.860  22.578  1.00  0.00    -0.394 OA
ATOM     23  H   UNL A   1      28.796  28.549  21.725  1.00  0.00     0.210 HD
ENDBRANCH  21  22
ENDBRANCH   8  21
ENDBRANCH   5   8
ENDBRANCH   3   4
ENDBRANCH   2   3
ENDBRANCH   1   2
BRANCH   1  24
ATOM     24  C   UNL A   1      34.359  30.480  27.677  1.00  0.00     0.002 C 
BRANCH  24  25
ATOM     25  C   UNL A   1      34.041  31.925  27.283  1.00  0.00     0.021 C 
BRANCH  25  26
ATOM     26  C   UNL A   1      32.616  32.370  27.589  1.00  0.00     0.116 C 
BRANCH  26  27
ATOM     27  N   UNL A   1      32.508  33.816  27.709  1.00  0.00    -0.352 N 
ATOM     28  C   UNL A   1      33.182  34.667  28.545  1.00  0.00     0.251 C 
ATOM     29  H   UNL A   1      31.859  34.243  27.104  1.00  0.00     0.163 HD
ATOM     30  O   UNL A   1      32.826  35.839  28.649  1.00  0.00    -0.269 OA
BRANCH  28  31
ATOM     31  C   UNL A   1      34.327  34.165  29.333  1.00  0.00     0.039 A 
ATOM     32  C   UNL A   1      34.081  33.363  30.450  1.00  0.00     0.014 A 
ATOM     33  C   UNL A   1      35.638  34.481  28.967  1.00  0.00     0.014 A 
ATOM     34  C   UNL A   1      35.154  32.834  31.169  1.00  0.00     0.010 A 
ATOM     35  C   UNL A   1      36.704  33.888  29.637  1.00  0.00     0.010 A 
ATOM     36  C   UNL A   1      36.474  33.067  30.751  1.00  0.00    -0.014 A 
BRANCH  36  37
ATOM     37  C   UNL A   1      37.627  32.458  31.462  1.00  0.00     0.031 A 
ATOM     38  C   UNL A   1      38.379  31.311  30.842  1.00  0.00     0.074 A 
ATOM     39  C   UNL A   1      37.947  32.884  32.700  1.00  0.00     0.049 A 
ATOM     40  N   UNL A   1      39.371  30.615  31.333  1.00  0.00    -0.248 NA
ATOM     41  C   UNL A   1      37.941  30.869  29.508  1.00  0.00     0.031 C 
ATOM     42  C   UNL A   1      37.249  33.940  33.438  1.00  0.00     0.029 A 
ATOM     43  N   UNL A   1      38.924  32.465  33.568  1.00  0.00    -0.354 N 
ATOM     44  C   UNL A   1      39.653  29.635  30.389  1.00  0.00     0.074 A 
ATOM     45  C   UNL A   1      38.703  29.803  29.310  1.00  0.00     0.031 C 
ATOM     46  C   UNL A   1      37.824  34.089  34.642  1.00  0.00     0.029 A 
ATOM     47  C   UNL A   1      38.905  33.119  34.778  1.00  0.00     0.049 A 
ATOM     48  H   UNL A   1      39.577  31.762  33.345  1.00  0.00     0.167 HD
ATOM     49  C   UNL A   1      40.632  28.699  30.402  1.00  0.00     0.034 A 
ATOM     50  C   UNL A   1      39.666  32.949  35.877  1.00  0.00     0.034 A 
ATOM     51  C   UNL A   1      41.596  28.558  31.460  1.00  0.00     0.049 A 
ATOM     52  C   UNL A   1      40.759  31.915  35.857  1.00  0.00     0.074 A 
ATOM     53  C   UNL A   1      42.676  27.696  31.529  1.00  0.00     0.029 A 
ATOM     54  N   UNL A   1      41.591  29.288  32.638  1.00  0.00    -0.354 N 
ATOM     55  N   UNL A   1      41.107  31.099  34.892  1.00  0.00    -0.248 NA
ATOM     56  C   UNL A   1      41.590  31.803  37.066  1.00  0.00     0.031 C 
ATOM     57  C   UNL A   1      43.303  27.881  32.765  1.00  0.00     0.029 A 
ATOM     58  C   UNL A   1      42.640  28.887  33.447  1.00  0.00     0.049 A 
ATOM     59  H   UNL A   1      40.937  29.989  32.865  1.00  0.00     0.167 HD
ATOM     60  C   UNL A   1      42.218  30.407  35.359  1.00  0.00     0.074 A 
ATOM     61  C   UNL A   1      42.496  30.913  36.687  1.00  0.00     0.031 C 
ATOM     62  C   UNL A   1      42.937  29.434  34.747  1.00  0.00     0.034 A 
BRANCH  49  63
ATOM     63  C   UNL A   1      40.735  27.776  29.214  1.00  0.00     0.023 A 
ATOM     64  C   UNL A   1      39.938  26.613  29.162  1.00  0.00     0.012 A 
ATOM     65  C   UNL A   1      41.573  28.087  28.126  1.00  0.00     0.148 A 
ATOM     66  C   UNL A   1      40.004  25.754  28.066  1.00  0.00     0.002 A 
ATOM     67  C   UNL A   1      41.597  27.253  27.015  1.00  0.00     0.091 A 
ATOM     68  F   UNL A   1      42.337  29.187  28.201  1.00  0.00    -0.205 F 
ATOM     69  C   UNL A   1      40.825  26.079  26.988  1.00  0.00     0.022 A 
BRANCH  67  70
ATOM     70  S   UNL A   1      42.557  27.624  25.543  1.00  0.00     0.127 S 
ATOM     71  O   UNL A   1      42.281  26.456  24.709  1.00  0.00    -0.237 OA
ATOM     72  O   UNL A   1      41.936  28.865  25.077  1.00  0.00    -0.237 OA
ATOM     73  O   UNL A   1      43.936  27.763  25.985  1.00  0.00    -0.744 OA
ENDBRANCH  67  70
ENDBRANCH  49  63
BRANCH  50  74
ATOM     74  C   UNL A   1      39.455  33.815  37.072  1.00  0.00     0.023 A 
ATOM     75  C   UNL A   1      39.890  35.155  37.042  1.00  0.00     0.012 A 
ATOM     76  C   UNL A   1      38.814  33.327  38.226  1.00  0.00     0.148 A 
ATOM     77  C   UNL A   1      39.724  35.981  38.153  1.00  0.00     0.002 A 
ATOM     78  C   UNL A   1      38.600  34.172  39.309  1.00  0.00     0.091 A 
ATOM     79  F   UNL A   1      38.415  32.048  38.237  1.00  0.00    -0.205 F 
ATOM     80  C   UNL A   1      39.071  35.494  39.282  1.00  0.00     0.022 A 
BRANCH  78  81
ATOM     81  S   UNL A   1      37.657  33.670  40.752  1.00  0.00     0.127 S 
ATOM     82  O   UNL A   1      38.544  32.681  41.359  1.00  0.00    -0.237 OA
ATOM     83  O   UNL A   1      37.541  34.929  41.488  1.00  0.00    -0.237 OA
ATOM     84  O   UNL A   1      36.395  33.155  40.239  1.00  0.00    -0.744 OA
ENDBRANCH  78  81
ENDBRANCH  50  74
BRANCH  62  85
ATOM     85  C   UNL A   1      44.129  28.877  35.481  1.00  0.00     0.023 A 
ATOM     86  C   UNL A   1      45.402  29.455  35.305  1.00  0.00     0.012 A 
ATOM     87  C   UNL A   1      43.970  27.824  36.404  1.00  0.00     0.148 A 
ATOM     88  C   UNL A   1      46.504  28.971  36.009  1.00  0.00     0.002 A 
ATOM     89  C   UNL A   1      45.060  27.383  37.143  1.00  0.00     0.091 A 
ATOM     90  F   UNL A   1      42.754  27.277  36.546  1.00  0.00    -0.205 F 
ATOM     91  C   UNL A   1      46.331  27.945  36.937  1.00  0.00     0.022 A 
BRANCH  89  92
ATOM     92  S   UNL A   1      44.915  26.139  38.430  1.00  0.00     0.127 S 
ATOM     93  O   UNL A   1      44.485  24.969  37.666  1.00  0.00    -0.237 OA
ATOM     94  O   UNL A   1      46.282  26.064  38.944  1.00  0.00    -0.237 OA
ATOM     95  O   UNL A   1      43.939  26.655  39.381  1.00  0.00    -0.744 OA
ENDBRANCH  89  92
ENDBRANCH  62  85
ENDBRANCH  36  37
ENDBRANCH  28  31
ENDBRANCH  26  27
ENDBRANCH  25  26
ENDBRANCH  24  25
ENDBRANCH   1  24
TORSDOF 22
ENDMDL
MODEL 3
REMARK VINA RESULT:     -10.1      5.076      8.191
REMARK SMILES Cc1cc(OCC(=O)N[C@@H](CO)C(=O)NCCCCCCNC(=O)c2ccc(-c3c4nc(c(-c5cccc(S(=O)(=O)[O-])c5F)c5ccc([nH]5)c(-c5cccc(S(=O)(=O)[O-])c5F)c5nc(c(-c6cccc(S(=O)(=O)[O-])c6F)c6ccc3[nH]6)C=C5)C=C4)cc2)no1
REMARK SMILES IDX 18 1 17 2 16 3 15 4 13 5 14 6 10 8 9 9 7 10 8 11 6 13 5 14
REMARK SMILES IDX 4 15 1 16 2 17 3 18 89 19 88 20 11 21 12 22 19 24 20 25
REMARK SMILES IDX 21 26 22 27 23 28 24 30 25 31 26 32 87 33 27 34 86 35 28 36
REMARK SMILES IDX 29 37 30 38 80 39 31 40 85 41 79 42 81 43 32 44 84 45 78 46
REMARK SMILES IDX 77 47 33 49 65 50 45 51 64 52 46 53 49 54 63 55 82 56 47 57
REMARK SMILES IDX 48 58 62 60 83 61 50 62 34 63 35 64 43 65 36 66 38 67 44 68
REMARK SMILES IDX 37 69 39 70 40 71 41 72 42 73 66 74 67 75 75 76 68 77 70 78
REMARK SMILES IDX 76 79 69 80 71 81 72 82 73 83 74 84 51 85 52 86 60 87 53 88
REMARK SMILES IDX 55 89 61 90 54 91 56 92 57 93 58 94 59 95
REMARK H PARENT 15 7 9 12 12 23 22 29 81 48 49 59
REMARK Flexibility Score: inf
ROOT
ATOM      1  C   UNL A   1      33.503  22.299  25.999  1.00  0.00     0.002 C 
ENDROOT
BRANCH   1   2
ATOM      2  C   UNL A   1      32.747  23.303  26.874  1.00  0.00     0.021 C 
BRANCH   2   3
ATOM      3  C   UNL A   1      31.823  24.235  26.098  1.00  0.00     0.116 C 
BRANCH   3   4
ATOM      4  N   UNL A   1      31.496  25.420  26.869  1.00  0.00    -0.354 N 
ATOM      5  C   UNL A   1      31.545  26.741  26.545  1.00  0.00     0.244 C 
ATOM      6  O   UNL A   1      31.063  27.540  27.357  1.00  0.00    -0.273 OA
ATOM      7  H   UNL A   1      31.184  25.236  27.785  1.00  0.00     0.163 HD
BRANCH   5   8
ATOM      8  C   UNL A   1      32.116  27.249  25.209  1.00  0.00     0.197 C 
BRANCH   8   9
ATOM      9  N   UNL A   1      31.481  28.505  24.793  1.00  0.00    -0.339 N 
ATOM     10  C   UNL A   1      30.497  28.687  23.871  1.00  0.00     0.258 C 
ATOM     11  O   UNL A   1      29.922  29.777  23.820  1.00  0.00    -0.271 OA
ATOM     12  H   UNL A   1      31.808  29.320  25.238  1.00  0.00     0.164 HD
BRANCH  10  13
ATOM     13  C   UNL A   1      30.137  27.555  22.907  1.00  0.00     0.331 C 
BRANCH  13  14
ATOM     14  O   UNL A   1      31.009  27.396  21.803  1.00  0.00    -0.465 OA
BRANCH  14  15
ATOM     15  C   UNL A   1      31.857  26.349  21.898  1.00  0.00     0.254 A 
ATOM     16  C   UNL A   1      33.457  23.096  22.342  1.00  0.00     0.091 C 
ATOM     17  C   UNL A   1      32.913  24.450  22.135  1.00  0.00     0.137 A 
ATOM     18  C   UNL A   1      31.687  25.030  22.354  1.00  0.00     0.116 A 
ATOM     19  O   UNL A   1      33.761  25.373  21.605  1.00  0.00    -0.358 OA
ATOM     20  N   UNL A   1      33.093  26.579  21.457  1.00  0.00    -0.041 NA
ENDBRANCH  14  15
ENDBRANCH  13  14
ENDBRANCH  10  13
ENDBRANCH   8   9
BRANCH   8  21
ATOM     21  C   UNL A   1      33.652  27.273  25.203  1.00  0.00     0.191 C 
BRANCH  21  22
ATOM     22  O   UNL A   1      34.245  25.996  24.995  1.00  0.00    -0.394 OA
ATOM     23  H   UNL A   1      34.549  25.638  25.843  1.00  0.00     0.210 HD
ENDBRANCH  21  22
ENDBRANCH   8  21
ENDBRANCH   5   8
ENDBRANCH   3   4
ENDBRANCH   2   3
ENDBRANCH   1   2
BRANCH   1  24
ATOM     24  C   UNL A   1      34.998  22.587  25.828  1.00  0.00     0.002 C 
BRANCH  24  25
ATOM     25  C   UNL A   1      35.713  21.713  24.794  1.00  0.00     0.021 C 
BRANCH  25  26
ATOM     26  C   UNL A   1      37.224  21.900  24.739  1.00  0.00     0.116 C 
BRANCH  26  27
ATOM     27  N   UNL A   1      37.935  20.807  25.386  1.00  0.00    -0.352 N 
ATOM     28  C   UNL A   1      39.081  20.846  26.136  1.00  0.00     0.251 C 
ATOM     29  H   UNL A   1      37.535  19.915  25.270  1.00  0.00     0.163 HD
ATOM     30  O   UNL A   1      39.651  19.801  26.445  1.00  0.00    -0.269 OA
BRANCH  28  31
ATOM     31  C   UNL A   1      39.638  22.149  26.555  1.00  0.00     0.039 A 
ATOM     32  C   UNL A   1      40.764  22.171  27.382  1.00  0.00     0.014 A 
ATOM     33  C   UNL A   1      39.052  23.345  26.130  1.00  0.00     0.014 A 
ATOM     34  C   UNL A   1      41.334  23.394  27.738  1.00  0.00     0.010 A 
ATOM     35  C   UNL A   1      39.669  24.558  26.421  1.00  0.00     0.010 A 
ATOM     36  C   UNL A   1      40.810  24.596  27.236  1.00  0.00    -0.014 A 
BRANCH  36  37
ATOM     37  C   UNL A   1      41.443  25.903  27.548  1.00  0.00     0.031 A 
ATOM     38  C   UNL A   1      40.694  26.936  28.347  1.00  0.00     0.074 A 
ATOM     39  C   UNL A   1      42.659  26.191  27.045  1.00  0.00     0.049 A 
ATOM     40  N   UNL A   1      41.056  28.150  28.670  1.00  0.00    -0.248 NA
ATOM     41  C   UNL A   1      39.350  26.567  28.822  1.00  0.00     0.031 C 
ATOM     42  C   UNL A   1      43.456  25.302  26.197  1.00  0.00     0.029 A 
ATOM     43  N   UNL A   1      43.428  27.323  27.151  1.00  0.00    -0.354 N 
ATOM     44  C   UNL A   1      39.979  28.701  29.353  1.00  0.00     0.074 A 
ATOM     45  C   UNL A   1      38.933  27.701  29.367  1.00  0.00     0.031 C 
ATOM     46  C   UNL A   1      44.602  25.919  25.866  1.00  0.00     0.029 A 
ATOM     47  C   UNL A   1      44.607  27.257  26.446  1.00  0.00     0.049 A 
ATOM     48  H   UNL A   1      43.161  28.108  27.682  1.00  0.00     0.167 HD
ATOM     49  C   UNL A   1      39.877  29.917  29.941  1.00  0.00     0.034 A 
ATOM     50  C   UNL A   1      45.579  28.176  26.276  1.00  0.00     0.034 A 
ATOM     51  C   UNL A   1      40.931  30.894  29.954  1.00  0.00     0.049 A 
ATOM     52  C   UNL A   1      45.449  29.511  26.957  1.00  0.00     0.074 A 
ATOM     53  C   UNL A   1      40.957  32.122  30.591  1.00  0.00     0.029 A 
ATOM     54  N   UNL A   1      42.141  30.763  29.290  1.00  0.00    -0.354 N 
ATOM     55  N   UNL A   1      44.486  29.957  27.726  1.00  0.00    -0.248 NA
ATOM     56  C   UNL A   1      46.559  30.460  26.777  1.00  0.00     0.031 C 
ATOM     57  C   UNL A   1      42.169  32.748  30.284  1.00  0.00     0.029 A 
ATOM     58  C   UNL A   1      42.915  31.893  29.490  1.00  0.00     0.049 A 
ATOM     59  H   UNL A   1      42.409  29.981  28.755  1.00  0.00     0.167 HD
ATOM     60  C   UNL A   1      44.889  31.216  28.153  1.00  0.00     0.074 A 
ATOM     61  C   UNL A   1      46.194  31.455  27.572  1.00  0.00     0.031 C 
ATOM     62  C   UNL A   1      44.235  32.098  28.947  1.00  0.00     0.034 A 
BRANCH  49  63
ATOM     63  C   UNL A   1      38.590  30.243  30.655  1.00  0.00     0.023 A 
ATOM     64  C   UNL A   1      38.399  29.810  31.984  1.00  0.00     0.012 A 
ATOM     65  C   UNL A   1      37.597  31.026  30.036  1.00  0.00     0.148 A 
ATOM     66  C   UNL A   1      37.224  30.114  32.670  1.00  0.00     0.002 A 
ATOM     67  C   UNL A   1      36.450  31.367  30.743  1.00  0.00     0.091 A 
ATOM     68  F   UNL A   1      37.787  31.414  28.767  1.00  0.00    -0.205 F 
ATOM     69  C   UNL A   1      36.255  30.901  32.053  1.00  0.00     0.022 A 
BRANCH  67  70
ATOM     70  S   UNL A   1      35.180  32.445  30.069  1.00  0.00     0.127 S 
ATOM     71  O   UNL A   1      34.265  32.568  31.203  1.00  0.00    -0.237 OA
ATOM     72  O   UNL A   1      35.938  33.658  29.763  1.00  0.00    -0.237 OA
ATOM     73  O   UNL A   1      34.641  31.755  28.906  1.00  0.00    -0.744 OA
ENDBRANCH  67  70
ENDBRANCH  49  63
BRANCH  50  74
ATOM     74  C   UNL A   1      46.786  27.844  25.467  1.00  0.00     0.023 A 
ATOM     75  C   UNL A   1      46.758  28.030  24.071  1.00  0.00     0.012 A 
ATOM     76  C   UNL A   1      47.963  27.364  26.072  1.00  0.00     0.148 A 
ATOM     77  C   UNL A   1      47.867  27.709  23.288  1.00  0.00     0.002 A 
ATOM     78  C   UNL A   1      49.084  27.100  25.293  1.00  0.00     0.091 A 
ATOM     79  F   UNL A   1      47.967  27.186  27.400  1.00  0.00    -0.205 F 
ATOM     80  C   UNL A   1      49.032  27.253  23.899  1.00  0.00     0.022 A 
BRANCH  78  81
ATOM     81  S   UNL A   1      50.664  26.633  26.006  1.00  0.00     0.127 S 
ATOM     82  O   UNL A   1      51.386  26.140  24.836  1.00  0.00    -0.237 OA
ATOM     83  O   UNL A   1      51.144  27.909  26.535  1.00  0.00    -0.237 OA
ATOM     84  O   UNL A   1      50.359  25.637  27.024  1.00  0.00    -0.744 OA
ENDBRANCH  78  81
ENDBRANCH  50  74
BRANCH  62  85
ATOM     85  C   UNL A   1      44.931  33.392  29.282  1.00  0.00     0.023 A 
ATOM     86  C   UNL A   1      45.832  33.452  30.363  1.00  0.00     0.012 A 
ATOM     87  C   UNL A   1      44.747  34.531  28.473  1.00  0.00     0.148 A 
ATOM     88  C   UNL A   1      46.511  34.633  30.656  1.00  0.00     0.002 A 
ATOM     89  C   UNL A   1      45.467  35.689  28.736  1.00  0.00     0.091 A 
ATOM     90  F   UNL A   1      43.873  34.459  27.458  1.00  0.00    -0.205 F 
ATOM     91  C   UNL A   1      46.338  35.747  29.836  1.00  0.00     0.022 A 
BRANCH  89  92
ATOM     92  S   UNL A   1      45.387  37.137  27.677  1.00  0.00     0.127 S 
ATOM     93  O   UNL A   1      45.804  38.198  28.592  1.00  0.00    -0.237 OA
ATOM     94  O   UNL A   1      46.359  36.813  26.635  1.00  0.00    -0.237 OA
ATOM     95  O   UNL A   1      44.008  37.221  27.213  1.00  0.00    -0.744 OA
ENDBRANCH  89  92
ENDBRANCH  62  85
ENDBRANCH  36  37
ENDBRANCH  28  31
ENDBRANCH  26  27
ENDBRANCH  25  26
ENDBRANCH  24  25
ENDBRANCH   1  24
TORSDOF 22
ENDMDL
