MODEL 1
REMARK VINA RESULT:     -11.6      0.000      0.000
REMARK SMILES N#CCC(=O)NNC(=O)c1ccccc1C(=O)NCCCCCCNC(=O)c1ccc(-c2c3nc(c(-c4cccc(S(=O)(=O)[O-])c4F)c4ccc([nH]4)c(-c4cccc(S(=O)(=O)[O-])c4F)c4nc(c(-c5cccc(S(=O)(=O)[O-])c5F)c5ccc2[nH]5)C=C4)C=C3)cc1
REMARK SMILES IDX 21 1 20 2 19 3 18 4 16 5 17 6 15 8 10 9 11 10 12 11 14 12
REMARK SMILES IDX 13 13 8 14 7 15 9 17 6 18 4 19 5 20 3 22 2 23 1 24 22 25
REMARK SMILES IDX 23 26 24 27 25 28 26 29 27 31 28 32 29 33 90 34 30 35 89 36
REMARK SMILES IDX 31 37 32 38 33 39 83 40 34 41 88 42 82 43 84 44 35 45 87 46
REMARK SMILES IDX 81 47 80 48 36 50 68 51 48 52 67 53 49 54 52 55 66 56 85 57
REMARK SMILES IDX 50 58 51 59 65 61 86 62 53 63 37 64 38 65 46 66 39 67 41 68
REMARK SMILES IDX 47 69 40 70 42 71 43 72 44 73 45 74 69 75 70 76 78 77 71 78
REMARK SMILES IDX 73 79 79 80 72 81 74 82 75 83 76 84 77 85 54 86 55 87 63 88
REMARK SMILES IDX 56 89 58 90 64 91 57 92 59 93 60 94 61 95 62 96
REMARK H PARENT 18 7 7 16 6 21 25 30 84 49 52 60
REMARK Flexibility Score: inf
ROOT
ATOM      1  C   UNL A   1      31.877  26.978  25.703  1.00  0.00     0.002 C 
ENDROOT
BRANCH   1   2
ATOM      2  C   UNL A   1      33.278  26.381  25.885  1.00  0.00     0.021 C 
BRANCH   2   3
ATOM      3  C   UNL A   1      33.985  25.879  24.622  1.00  0.00     0.116 C 
BRANCH   3   4
ATOM      4  N   UNL A   1      33.169  25.074  23.729  1.00  0.00    -0.352 N 
ATOM      5  C   UNL A   1      33.268  23.737  23.421  1.00  0.00     0.252 C 
ATOM      6  O   UNL A   1      32.468  23.249  22.623  1.00  0.00    -0.269 OA
ATOM      7  H   UNL A   1      32.439  25.556  23.279  1.00  0.00     0.163 HD
BRANCH   5   8
ATOM      8  C   UNL A   1      34.343  22.863  23.951  1.00  0.00     0.052 A 
ATOM      9  C   UNL A   1      34.216  21.914  24.965  1.00  0.00     0.054 A 
ATOM     10  C   UNL A   1      35.374  21.273  25.462  1.00  0.00     0.015 A 
ATOM     11  C   UNL A   1      36.625  21.493  24.892  1.00  0.00     0.001 A 
ATOM     12  C   UNL A   1      35.605  23.028  23.340  1.00  0.00     0.014 A 
ATOM     13  C   UNL A   1      36.736  22.346  23.803  1.00  0.00     0.001 A 
BRANCH   9  14
ATOM     14  C   UNL A   1      32.971  21.481  25.626  1.00  0.00     0.270 C 
ATOM     15  N   UNL A   1      32.329  20.299  25.328  1.00  0.00    -0.263 N 
ATOM     16  H   UNL A   1      31.589  20.041  25.923  1.00  0.00     0.191 HD
ATOM     17  O   UNL A   1      32.529  22.191  26.529  1.00  0.00    -0.267 OA
BRANCH  15  18
ATOM     18  N   UNL A   1      32.614  19.431  24.279  1.00  0.00    -0.266 N 
ATOM     19  C   UNL A   1      32.746  18.058  24.369  1.00  0.00     0.252 C 
ATOM     20  O   UNL A   1      32.946  17.430  23.322  1.00  0.00    -0.272 OA
ATOM     21  H   UNL A   1      32.733  19.832  23.388  1.00  0.00     0.191 HD
BRANCH  19  22
ATOM     22  C   UNL A   1      32.655  17.285  25.690  1.00  0.00     0.221 C 
BRANCH  22  23
ATOM     23  C   UNL A   1      33.175  15.874  25.468  1.00  0.00     0.072 C 
ATOM     24  N   UNL A   1      33.606  14.703  25.284  1.00  0.00    -0.198 NA
ENDBRANCH  22  23
ENDBRANCH  19  22
ENDBRANCH  15  18
ENDBRANCH   9  14
ENDBRANCH   5   8
ENDBRANCH   3   4
ENDBRANCH   2   3
ENDBRANCH   1   2
BRANCH   1  25
ATOM     25  C   UNL A   1      31.777  28.097  24.680  1.00  0.00     0.002 C 
BRANCH  25  26
ATOM     26  C   UNL A   1      32.357  29.465  24.983  1.00  0.00     0.021 C 
BRANCH  26  27
ATOM     27  C   UNL A   1      32.340  29.865  26.438  1.00  0.00     0.116 C 
BRANCH  27  28
ATOM     28  N   UNL A   1      32.247  31.305  26.632  1.00  0.00    -0.352 N 
ATOM     29  C   UNL A   1      33.097  32.152  27.309  1.00  0.00     0.251 C 
ATOM     30  H   UNL A   1      31.464  31.736  26.219  1.00  0.00     0.163 HD
ATOM     31  O   UNL A   1      32.789  33.323  27.476  1.00  0.00    -0.269 OA
BRANCH  29  32
ATOM     32  C   UNL A   1      34.369  31.624  27.855  1.00  0.00     0.039 A 
ATOM     33  C   UNL A   1      35.450  32.490  28.031  1.00  0.00     0.014 A 
ATOM     34  C   UNL A   1      34.479  30.284  28.229  1.00  0.00     0.014 A 
ATOM     35  C   UNL A   1      36.613  32.024  28.650  1.00  0.00     0.010 A 
ATOM     36  C   UNL A   1      35.578  29.860  28.961  1.00  0.00     0.010 A 
ATOM     37  C   UNL A   1      36.671  30.714  29.156  1.00  0.00    -0.014 A 
BRANCH  37  38
ATOM     38  C   UNL A   1      37.866  30.197  29.868  1.00  0.00     0.031 A 
ATOM     39  C   UNL A   1      38.162  30.665  31.268  1.00  0.00     0.074 A 
ATOM     40  C   UNL A   1      38.733  29.391  29.224  1.00  0.00     0.049 A 
ATOM     41  N   UNL A   1      39.180  30.378  32.038  1.00  0.00    -0.248 NA
ATOM     42  C   UNL A   1      37.209  31.613  31.872  1.00  0.00     0.031 C 
ATOM     43  C   UNL A   1      38.600  28.937  27.838  1.00  0.00     0.029 A 
ATOM     44  N   UNL A   1      39.909  28.826  29.646  1.00  0.00    -0.354 N 
ATOM     45  C   UNL A   1      39.015  31.146  33.185  1.00  0.00     0.074 A 
ATOM     46  C   UNL A   1      37.829  31.948  32.992  1.00  0.00     0.031 C 
ATOM     47  C   UNL A   1      39.636  28.137  27.536  1.00  0.00     0.029 A 
ATOM     48  C   UNL A   1      40.524  28.053  28.690  1.00  0.00     0.049 A 
ATOM     49  H   UNL A   1      40.277  28.961  30.549  1.00  0.00     0.167 HD
ATOM     50  C   UNL A   1      39.761  31.158  34.315  1.00  0.00     0.034 A 
ATOM     51  C   UNL A   1      41.672  27.352  28.742  1.00  0.00     0.034 A 
ATOM     52  C   UNL A   1      40.912  30.322  34.517  1.00  0.00     0.049 A 
ATOM     53  C   UNL A   1      42.468  27.353  30.019  1.00  0.00     0.074 A 
ATOM     54  C   UNL A   1      41.678  30.172  35.657  1.00  0.00     0.029 A 
ATOM     55  N   UNL A   1      41.470  29.501  33.548  1.00  0.00    -0.354 N 
ATOM     56  N   UNL A   1      42.208  27.953  31.155  1.00  0.00    -0.248 NA
ATOM     57  C   UNL A   1      43.701  26.553  30.031  1.00  0.00     0.031 C 
ATOM     58  C   UNL A   1      42.725  29.291  35.365  1.00  0.00     0.029 A 
ATOM     59  C   UNL A   1      42.585  28.859  34.055  1.00  0.00     0.049 A 
ATOM     60  H   UNL A   1      41.123  29.393  32.633  1.00  0.00     0.167 HD
ATOM     61  C   UNL A   1      43.219  27.573  32.029  1.00  0.00     0.074 A 
ATOM     62  C   UNL A   1      44.089  26.678  31.293  1.00  0.00     0.031 C 
ATOM     63  C   UNL A   1      43.416  27.937  33.321  1.00  0.00     0.034 A 
BRANCH  50  64
ATOM     64  C   UNL A   1      39.328  32.084  35.423  1.00  0.00     0.023 A 
ATOM     65  C   UNL A   1      38.425  31.630  36.408  1.00  0.00     0.012 A 
ATOM     66  C   UNL A   1      39.820  33.402  35.500  1.00  0.00     0.148 A 
ATOM     67  C   UNL A   1      37.973  32.486  37.411  1.00  0.00     0.002 A 
ATOM     68  C   UNL A   1      39.406  34.233  36.534  1.00  0.00     0.091 A 
ATOM     69  F   UNL A   1      40.659  33.828  34.545  1.00  0.00    -0.205 F 
ATOM     70  C   UNL A   1      38.470  33.783  37.480  1.00  0.00     0.022 A 
BRANCH  68  71
ATOM     71  S   UNL A   1      40.057  35.892  36.756  1.00  0.00     0.127 S 
ATOM     72  O   UNL A   1      41.489  35.632  36.899  1.00  0.00    -0.237 OA
ATOM     73  O   UNL A   1      39.680  36.541  35.500  1.00  0.00    -0.237 OA
ATOM     74  O   UNL A   1      39.394  36.427  37.937  1.00  0.00    -0.744 OA
ENDBRANCH  68  71
ENDBRANCH  50  64
BRANCH  51  75
ATOM     75  C   UNL A   1      42.085  26.512  27.581  1.00  0.00     0.023 A 
ATOM     76  C   UNL A   1      42.847  27.100  26.551  1.00  0.00     0.012 A 
ATOM     77  C   UNL A   1      41.768  25.143  27.505  1.00  0.00     0.148 A 
ATOM     78  C   UNL A   1      43.264  26.347  25.454  1.00  0.00     0.002 A 
ATOM     79  C   UNL A   1      42.229  24.385  26.432  1.00  0.00     0.091 A 
ATOM     80  F   UNL A   1      41.040  24.604  28.492  1.00  0.00    -0.205 F 
ATOM     81  C   UNL A   1      42.963  24.988  25.399  1.00  0.00     0.022 A 
BRANCH  79  82
ATOM     82  S   UNL A   1      41.992  22.608  26.324  1.00  0.00     0.127 S 
ATOM     83  O   UNL A   1      40.534  22.503  26.301  1.00  0.00    -0.237 OA
ATOM     84  O   UNL A   1      42.652  22.296  25.056  1.00  0.00    -0.237 OA
ATOM     85  O   UNL A   1      42.641  22.049  27.501  1.00  0.00    -0.744 OA
ENDBRANCH  79  82
ENDBRANCH  51  75
BRANCH  63  86
ATOM     86  C   UNL A   1      44.594  27.338  34.044  1.00  0.00     0.023 A 
ATOM     87  C   UNL A   1      45.841  27.993  34.025  1.00  0.00     0.012 A 
ATOM     88  C   UNL A   1      44.441  26.162  34.805  1.00  0.00     0.148 A 
ATOM     89  C   UNL A   1      46.927  27.468  34.724  1.00  0.00     0.002 A 
ATOM     90  C   UNL A   1      45.512  25.675  35.543  1.00  0.00     0.091 A 
ATOM     91  F   UNL A   1      43.250  25.545  34.797  1.00  0.00    -0.205 F 
ATOM     92  C   UNL A   1      46.759  26.318  35.492  1.00  0.00     0.022 A 
BRANCH  90  93
ATOM     93  S   UNL A   1      45.361  24.262  36.642  1.00  0.00     0.127 S 
ATOM     94  O   UNL A   1      44.523  24.804  37.710  1.00  0.00    -0.237 OA
ATOM     95  O   UNL A   1      44.697  23.276  35.788  1.00  0.00    -0.237 OA
ATOM     96  O   UNL A   1      46.718  23.907  37.033  1.00  0.00    -0.744 OA
ENDBRANCH  90  93
ENDBRANCH  63  86
ENDBRANCH  37  38
ENDBRANCH  29  32
ENDBRANCH  27  28
ENDBRANCH  26  27
ENDBRANCH  25  26
ENDBRANCH   1  25
TORSDOF 20
ENDMDL
MODEL 2
REMARK VINA RESULT:     -11.5      1.740      2.230
REMARK SMILES N#CCC(=O)NNC(=O)c1ccccc1C(=O)NCCCCCCNC(=O)c1ccc(-c2c3nc(c(-c4cccc(S(=O)(=O)[O-])c4F)c4ccc([nH]4)c(-c4cccc(S(=O)(=O)[O-])c4F)c4nc(c(-c5cccc(S(=O)(=O)[O-])c5F)c5ccc2[nH]5)C=C4)C=C3)cc1
REMARK SMILES IDX 21 1 20 2 19 3 18 4 16 5 17 6 15 8 10 9 11 10 12 11 14 12
REMARK SMILES IDX 13 13 8 14 7 15 9 17 6 18 4 19 5 20 3 22 2 23 1 24 22 25
REMARK SMILES IDX 23 26 24 27 25 28 26 29 27 31 28 32 29 33 90 34 30 35 89 36
REMARK SMILES IDX 31 37 32 38 33 39 83 40 34 41 88 42 82 43 84 44 35 45 87 46
REMARK SMILES IDX 81 47 80 48 36 50 68 51 48 52 67 53 49 54 52 55 66 56 85 57
REMARK SMILES IDX 50 58 51 59 65 61 86 62 53 63 37 64 38 65 46 66 39 67 41 68
REMARK SMILES IDX 47 69 40 70 42 71 43 72 44 73 45 74 69 75 70 76 78 77 71 78
REMARK SMILES IDX 73 79 79 80 72 81 74 82 75 83 76 84 77 85 54 86 55 87 63 88
REMARK SMILES IDX 56 89 58 90 64 91 57 92 59 93 60 94 61 95 62 96
REMARK H PARENT 18 7 7 16 6 21 25 30 84 49 52 60
REMARK Flexibility Score: inf
ROOT
ATOM      1  C   UNL A   1      32.877  28.158  25.881  1.00  0.00     0.002 C 
ENDROOT
BRANCH   1   2
ATOM      2  C   UNL A   1      32.685  26.638  25.974  1.00  0.00     0.021 C 
BRANCH   2   3
ATOM      3  C   UNL A   1      31.243  26.125  26.030  1.00  0.00     0.116 C 
BRANCH   3   4
ATOM      4  N   UNL A   1      31.023  24.978  26.893  1.00  0.00    -0.352 N 
ATOM      5  C   UNL A   1      31.292  23.648  26.667  1.00  0.00     0.252 C 
ATOM      6  O   UNL A   1      31.017  22.827  27.540  1.00  0.00    -0.269 OA
ATOM      7  H   UNL A   1      30.622  25.181  27.769  1.00  0.00     0.163 HD
BRANCH   5   8
ATOM      8  C   UNL A   1      31.836  23.142  25.383  1.00  0.00     0.052 A 
ATOM      9  C   UNL A   1      33.030  22.442  25.206  1.00  0.00     0.054 A 
ATOM     10  C   UNL A   1      33.482  22.166  23.896  1.00  0.00     0.015 A 
ATOM     11  C   UNL A   1      32.715  22.489  22.780  1.00  0.00     0.001 A 
ATOM     12  C   UNL A   1      31.038  23.405  24.248  1.00  0.00     0.014 A 
ATOM     13  C   UNL A   1      31.471  23.078  22.958  1.00  0.00     0.001 A 
BRANCH   9  14
ATOM     14  C   UNL A   1      33.928  21.937  26.261  1.00  0.00     0.270 C 
ATOM     15  N   UNL A   1      33.898  20.640  26.722  1.00  0.00    -0.263 N 
ATOM     16  H   UNL A   1      34.630  20.371  27.322  1.00  0.00     0.191 HD
ATOM     17  O   UNL A   1      34.782  22.708  26.698  1.00  0.00    -0.267 OA
BRANCH  15  18
ATOM     18  N   UNL A   1      32.948  19.667  26.430  1.00  0.00    -0.266 N 
ATOM     19  C   UNL A   1      33.030  18.720  25.426  1.00  0.00     0.252 C 
ATOM     20  O   UNL A   1      32.115  17.891  25.342  1.00  0.00    -0.272 OA
ATOM     21  H   UNL A   1      32.139  19.651  26.992  1.00  0.00     0.191 HD
BRANCH  19  22
ATOM     22  C   UNL A   1      34.187  18.649  24.425  1.00  0.00     0.221 C 
BRANCH  22  23
ATOM     23  C   UNL A   1      34.119  17.319  23.691  1.00  0.00     0.072 C 
ATOM     24  N   UNL A   1      34.063  16.216  23.083  1.00  0.00    -0.198 NA
ENDBRANCH  22  23
ENDBRANCH  19  22
ENDBRANCH  15  18
ENDBRANCH   9  14
ENDBRANCH   5   8
ENDBRANCH   3   4
ENDBRANCH   2   3
ENDBRANCH   1   2
BRANCH   1  25
ATOM     25  C   UNL A   1      31.603  28.979  25.990  1.00  0.00     0.002 C 
BRANCH  25  26
ATOM     26  C   UNL A   1      31.635  30.362  26.612  1.00  0.00     0.021 C 
BRANCH  26  27
ATOM     27  C   UNL A   1      32.941  31.104  26.466  1.00  0.00     0.116 C 
BRANCH  27  28
ATOM     28  N   UNL A   1      32.878  32.469  26.969  1.00  0.00    -0.352 N 
ATOM     29  C   UNL A   1      33.713  33.111  27.858  1.00  0.00     0.251 C 
ATOM     30  H   UNL A   1      32.133  33.012  26.624  1.00  0.00     0.163 HD
ATOM     31  O   UNL A   1      33.430  34.228  28.265  1.00  0.00    -0.269 OA
BRANCH  29  32
ATOM     32  C   UNL A   1      34.936  32.424  28.335  1.00  0.00     0.039 A 
ATOM     33  C   UNL A   1      36.150  33.114  28.340  1.00  0.00     0.014 A 
ATOM     34  C   UNL A   1      34.875  31.116  28.815  1.00  0.00     0.014 A 
ATOM     35  C   UNL A   1      37.284  32.511  28.893  1.00  0.00     0.010 A 
ATOM     36  C   UNL A   1      35.962  30.573  29.482  1.00  0.00     0.010 A 
ATOM     37  C   UNL A   1      37.188  31.250  29.505  1.00  0.00    -0.014 A 
BRANCH  37  38
ATOM     38  C   UNL A   1      38.354  30.600  30.153  1.00  0.00     0.031 A 
ATOM     39  C   UNL A   1      38.713  30.952  31.572  1.00  0.00     0.074 A 
ATOM     40  C   UNL A   1      39.142  29.774  29.438  1.00  0.00     0.049 A 
ATOM     41  N   UNL A   1      39.722  30.540  32.296  1.00  0.00    -0.248 NA
ATOM     42  C   UNL A   1      37.849  31.928  32.258  1.00  0.00     0.031 C 
ATOM     43  C   UNL A   1      38.947  29.422  28.029  1.00  0.00     0.029 A 
ATOM     44  N   UNL A   1      40.280  29.095  29.794  1.00  0.00    -0.354 N 
ATOM     45  C   UNL A   1      39.640  31.241  33.493  1.00  0.00     0.074 A 
ATOM     46  C   UNL A   1      38.516  32.142  33.381  1.00  0.00     0.031 C 
ATOM     47  C   UNL A   1      39.912  28.567  27.651  1.00  0.00     0.029 A 
ATOM     48  C   UNL A   1      40.814  28.341  28.775  1.00  0.00     0.049 A 
ATOM     49  H   UNL A   1      40.676  29.143  30.694  1.00  0.00     0.167 HD
ATOM     50  C   UNL A   1      40.407  31.124  34.602  1.00  0.00     0.034 A 
ATOM     51  C   UNL A   1      41.906  27.553  28.754  1.00  0.00     0.034 A 
ATOM     52  C   UNL A   1      41.494  30.192  34.722  1.00  0.00     0.049 A 
ATOM     53  C   UNL A   1      42.725  27.411  30.008  1.00  0.00     0.074 A 
ATOM     54  C   UNL A   1      42.270  29.911  35.831  1.00  0.00     0.029 A 
ATOM     55  N   UNL A   1      41.967  29.396  33.689  1.00  0.00    -0.354 N 
ATOM     56  N   UNL A   1      42.535  27.955  31.186  1.00  0.00    -0.248 NA
ATOM     57  C   UNL A   1      43.892  26.521  29.939  1.00  0.00     0.031 C 
ATOM     58  C   UNL A   1      43.239  28.974  35.458  1.00  0.00     0.029 A 
ATOM     59  C   UNL A   1      43.040  28.639  34.127  1.00  0.00     0.049 A 
ATOM     60  H   UNL A   1      41.595  29.373  32.778  1.00  0.00     0.167 HD
ATOM     61  C   UNL A   1      43.532  27.443  32.008  1.00  0.00     0.074 A 
ATOM     62  C   UNL A   1      44.314  26.534  31.195  1.00  0.00     0.031 C 
ATOM     63  C   UNL A   1      43.782  27.707  33.315  1.00  0.00     0.034 A 
BRANCH  50  64
ATOM     64  C   UNL A   1      40.069  32.007  35.777  1.00  0.00     0.023 A 
ATOM     65  C   UNL A   1      40.850  33.151  36.046  1.00  0.00     0.012 A 
ATOM     66  C   UNL A   1      38.974  31.713  36.613  1.00  0.00     0.148 A 
ATOM     67  C   UNL A   1      40.586  33.951  37.156  1.00  0.00     0.002 A 
ATOM     68  C   UNL A   1      38.684  32.546  37.687  1.00  0.00     0.091 A 
ATOM     69  F   UNL A   1      38.254  30.610  36.360  1.00  0.00    -0.205 F 
ATOM     70  C   UNL A   1      39.499  33.654  37.971  1.00  0.00     0.022 A 
BRANCH  68  71
ATOM     71  S   UNL A   1      37.252  32.294  38.742  1.00  0.00     0.127 S 
ATOM     72  O   UNL A   1      36.212  33.011  38.005  1.00  0.00    -0.237 OA
ATOM     73  O   UNL A   1      37.112  30.838  38.728  1.00  0.00    -0.237 OA
ATOM     74  O   UNL A   1      37.607  32.857  40.037  1.00  0.00    -0.744 OA
ENDBRANCH  68  71
ENDBRANCH  50  64
BRANCH  51  75
ATOM     75  C   UNL A   1      42.228  26.761  27.532  1.00  0.00     0.023 A 
ATOM     76  C   UNL A   1      42.830  27.413  26.437  1.00  0.00     0.012 A 
ATOM     77  C   UNL A   1      41.985  25.377  27.458  1.00  0.00     0.148 A 
ATOM     78  C   UNL A   1      43.159  26.707  25.280  1.00  0.00     0.002 A 
ATOM     79  C   UNL A   1      42.362  24.669  26.321  1.00  0.00     0.091 A 
ATOM     80  F   UNL A   1      41.410  24.777  28.509  1.00  0.00    -0.205 F 
ATOM     81  C   UNL A   1      42.934  25.334  25.226  1.00  0.00     0.022 A 
BRANCH  79  82
ATOM     82  S   UNL A   1      42.217  22.883  26.196  1.00  0.00     0.127 S 
ATOM     83  O   UNL A   1      43.035  22.438  27.323  1.00  0.00    -0.237 OA
ATOM     84  O   UNL A   1      40.777  22.688  26.365  1.00  0.00    -0.237 OA
ATOM     85  O   UNL A   1      42.726  22.535  24.877  1.00  0.00    -0.744 OA
ENDBRANCH  79  82
ENDBRANCH  51  75
BRANCH  63  86
ATOM     86  C   UNL A   1      44.924  26.975  33.969  1.00  0.00     0.023 A 
ATOM     87  C   UNL A   1      46.225  27.513  33.924  1.00  0.00     0.012 A 
ATOM     88  C   UNL A   1      44.691  25.788  34.693  1.00  0.00     0.148 A 
ATOM     89  C   UNL A   1      47.283  26.864  34.561  1.00  0.00     0.002 A 
ATOM     90  C   UNL A   1      45.739  25.177  35.370  1.00  0.00     0.091 A 
ATOM     91  F   UNL A   1      43.449  25.283  34.710  1.00  0.00    -0.205 F 
ATOM     92  C   UNL A   1      47.037  25.705  35.293  1.00  0.00     0.022 A 
BRANCH  90  93
ATOM     93  S   UNL A   1      45.497  23.742  36.423  1.00  0.00     0.127 S 
ATOM     94  O   UNL A   1      44.913  22.781  35.488  1.00  0.00    -0.237 OA
ATOM     95  O   UNL A   1      46.865  23.431  36.841  1.00  0.00    -0.237 OA
ATOM     96  O   UNL A   1      44.620  24.175  37.502  1.00  0.00    -0.744 OA
ENDBRANCH  90  93
ENDBRANCH  63  86
ENDBRANCH  37  38
ENDBRANCH  29  32
ENDBRANCH  27  28
ENDBRANCH  26  27
ENDBRANCH  25  26
ENDBRANCH   1  25
TORSDOF 20
ENDMDL
MODEL 3
REMARK VINA RESULT:     -11.5      5.069      8.793
REMARK SMILES N#CCC(=O)NNC(=O)c1ccccc1C(=O)NCCCCCCNC(=O)c1ccc(-c2c3nc(c(-c4cccc(S(=O)(=O)[O-])c4F)c4ccc([nH]4)c(-c4cccc(S(=O)(=O)[O-])c4F)c4nc(c(-c5cccc(S(=O)(=O)[O-])c5F)c5ccc2[nH]5)C=C4)C=C3)cc1
REMARK SMILES IDX 21 1 20 2 19 3 18 4 16 5 17 6 15 8 10 9 11 10 12 11 14 12
REMARK SMILES IDX 13 13 8 14 7 15 9 17 6 18 4 19 5 20 3 22 2 23 1 24 22 25
REMARK SMILES IDX 23 26 24 27 25 28 26 29 27 31 28 32 29 33 90 34 30 35 89 36
REMARK SMILES IDX 31 37 32 38 33 39 83 40 34 41 88 42 82 43 84 44 35 45 87 46
REMARK SMILES IDX 81 47 80 48 36 50 68 51 48 52 67 53 49 54 52 55 66 56 85 57
REMARK SMILES IDX 50 58 51 59 65 61 86 62 53 63 37 64 38 65 46 66 39 67 41 68
REMARK SMILES IDX 47 69 40 70 42 71 43 72 44 73 45 74 69 75 70 76 78 77 71 78
REMARK SMILES IDX 73 79 79 80 72 81 74 82 75 83 76 84 77 85 54 86 55 87 63 88
REMARK SMILES IDX 56 89 58 90 64 91 57 92 59 93 60 94 61 95 62 96
REMARK H PARENT 18 7 7 16 6 21 25 30 84 49 52 60
REMARK Flexibility Score: inf
ROOT
ATOM      1  C   UNL A   1      33.364  23.801  26.489  1.00  0.00     0.002 C 
ENDROOT
BRANCH   1   2
ATOM      2  C   UNL A   1      32.796  23.624  25.075  1.00  0.00     0.021 C 
BRANCH   2   3
ATOM      3  C   UNL A   1      32.545  24.901  24.266  1.00  0.00     0.116 C 
BRANCH   3   4
ATOM      4  N   UNL A   1      31.150  25.208  24.002  1.00  0.00    -0.352 N 
ATOM      5  C   UNL A   1      30.420  26.322  24.344  1.00  0.00     0.252 C 
ATOM      6  O   UNL A   1      29.233  26.378  24.025  1.00  0.00    -0.269 OA
ATOM      7  H   UNL A   1      30.654  24.517  23.507  1.00  0.00     0.163 HD
BRANCH   5   8
ATOM      8  C   UNL A   1      30.978  27.438  25.146  1.00  0.00     0.052 A 
ATOM      9  C   UNL A   1      31.446  28.658  24.658  1.00  0.00     0.054 A 
ATOM     10  C   UNL A   1      32.091  29.555  25.540  1.00  0.00     0.015 A 
ATOM     11  C   UNL A   1      32.182  29.292  26.904  1.00  0.00     0.001 A 
ATOM     12  C   UNL A   1      31.018  27.214  26.540  1.00  0.00     0.014 A 
ATOM     13  C   UNL A   1      31.611  28.134  27.412  1.00  0.00     0.001 A 
BRANCH   9  14
ATOM     14  C   UNL A   1      31.359  29.153  23.271  1.00  0.00     0.270 C 
ATOM     15  N   UNL A   1      30.285  29.869  22.790  1.00  0.00    -0.263 N 
ATOM     16  H   UNL A   1      30.390  30.270  21.898  1.00  0.00     0.191 HD
ATOM     17  O   UNL A   1      32.328  28.961  22.537  1.00  0.00    -0.267 OA
BRANCH  15  18
ATOM     18  N   UNL A   1      29.069  30.088  23.429  1.00  0.00    -0.266 N 
ATOM     19  C   UNL A   1      28.271  31.210  23.303  1.00  0.00     0.252 C 
ATOM     20  O   UNL A   1      27.189  31.216  23.902  1.00  0.00    -0.272 OA
ATOM     21  H   UNL A   1      28.745  29.377  24.028  1.00  0.00     0.191 HD
BRANCH  19  22
ATOM     22  C   UNL A   1      28.659  32.433  22.464  1.00  0.00     0.221 C 
BRANCH  22  23
ATOM     23  C   UNL A   1      28.108  32.256  21.058  1.00  0.00     0.072 C 
ATOM     24  N   UNL A   1      27.652  32.110  19.891  1.00  0.00    -0.198 NA
ENDBRANCH  22  23
ENDBRANCH  19  22
ENDBRANCH  15  18
ENDBRANCH   9  14
ENDBRANCH   5   8
ENDBRANCH   3   4
ENDBRANCH   2   3
ENDBRANCH   1   2
BRANCH   1  25
ATOM     25  C   UNL A   1      34.554  22.917  26.824  1.00  0.00     0.002 C 
BRANCH  25  26
ATOM     26  C   UNL A   1      35.050  21.890  25.823  1.00  0.00     0.021 C 
BRANCH  26  27
ATOM     27  C   UNL A   1      36.425  22.152  25.260  1.00  0.00     0.116 C 
BRANCH  27  28
ATOM     28  N   UNL A   1      37.324  21.016  25.404  1.00  0.00    -0.352 N 
ATOM     29  C   UNL A   1      38.634  20.988  25.832  1.00  0.00     0.251 C 
ATOM     30  H   UNL A   1      36.942  20.142  25.160  1.00  0.00     0.163 HD
ATOM     31  O   UNL A   1      39.277  19.950  25.767  1.00  0.00    -0.269 OA
BRANCH  29  32
ATOM     32  C   UNL A   1      39.260  22.230  26.344  1.00  0.00     0.039 A 
ATOM     33  C   UNL A   1      40.352  22.140  27.209  1.00  0.00     0.014 A 
ATOM     34  C   UNL A   1      38.793  23.480  25.937  1.00  0.00     0.014 A 
ATOM     35  C   UNL A   1      41.017  23.304  27.604  1.00  0.00     0.010 A 
ATOM     36  C   UNL A   1      39.532  24.618  26.220  1.00  0.00     0.010 A 
ATOM     37  C   UNL A   1      40.636  24.550  27.080  1.00  0.00    -0.014 A 
BRANCH  37  38
ATOM     38  C   UNL A   1      41.349  25.803  27.431  1.00  0.00     0.031 A 
ATOM     39  C   UNL A   1      40.633  26.880  28.201  1.00  0.00     0.074 A 
ATOM     40  C   UNL A   1      42.600  26.012  26.974  1.00  0.00     0.049 A 
ATOM     41  N   UNL A   1      41.059  28.065  28.556  1.00  0.00    -0.248 NA
ATOM     42  C   UNL A   1      39.239  26.608  28.592  1.00  0.00     0.031 C 
ATOM     43  C   UNL A   1      43.368  25.080  26.146  1.00  0.00     0.029 A 
ATOM     44  N   UNL A   1      43.437  27.087  27.126  1.00  0.00    -0.354 N 
ATOM     45  C   UNL A   1      39.975  28.692  29.160  1.00  0.00     0.074 A 
ATOM     46  C   UNL A   1      38.858  27.779  29.079  1.00  0.00     0.031 C 
ATOM     47  C   UNL A   1      44.576  25.609  25.891  1.00  0.00     0.029 A 
ATOM     48  C   UNL A   1      44.654  26.931  26.504  1.00  0.00     0.049 A 
ATOM     49  H   UNL A   1      43.192  27.894  27.634  1.00  0.00     0.167 HD
ATOM     50  C   UNL A   1      39.919  29.903  29.761  1.00  0.00     0.034 A 
ATOM     51  C   UNL A   1      45.713  27.760  26.439  1.00  0.00     0.034 A 
ATOM     52  C   UNL A   1      41.047  30.786  29.878  1.00  0.00     0.049 A 
ATOM     53  C   UNL A   1      45.641  29.088  27.142  1.00  0.00     0.074 A 
ATOM     54  C   UNL A   1      41.135  31.986  30.557  1.00  0.00     0.029 A 
ATOM     55  N   UNL A   1      42.284  30.566  29.289  1.00  0.00    -0.354 N 
ATOM     56  N   UNL A   1      44.664  29.595  27.854  1.00  0.00    -0.248 NA
ATOM     57  C   UNL A   1      46.832  29.945  27.061  1.00  0.00     0.031 C 
ATOM     58  C   UNL A   1      42.413  32.513  30.345  1.00  0.00     0.029 A 
ATOM     59  C   UNL A   1      43.136  31.619  29.570  1.00  0.00     0.049 A 
ATOM     60  H   UNL A   1      42.520  29.776  28.751  1.00  0.00     0.167 HD
ATOM     61  C   UNL A   1      45.134  30.810  28.338  1.00  0.00     0.074 A 
ATOM     62  C   UNL A   1      46.490  30.955  27.850  1.00  0.00     0.031 C 
ATOM     63  C   UNL A   1      44.499  31.727  29.110  1.00  0.00     0.034 A 
BRANCH  50  64
ATOM     64  C   UNL A   1      38.600  30.321  30.361  1.00  0.00     0.023 A 
ATOM     65  C   UNL A   1      38.265  29.921  31.673  1.00  0.00     0.012 A 
ATOM     66  C   UNL A   1      37.694  31.118  29.635  1.00  0.00     0.148 A 
ATOM     67  C   UNL A   1      37.030  30.254  32.226  1.00  0.00     0.002 A 
ATOM     68  C   UNL A   1      36.487  31.491  30.214  1.00  0.00     0.091 A 
ATOM     69  F   UNL A   1      38.014  31.472  28.382  1.00  0.00    -0.205 F 
ATOM     70  C   UNL A   1      36.145  31.046  31.502  1.00  0.00     0.022 A 
BRANCH  68  71
ATOM     71  S   UNL A   1      35.320  32.581  29.392  1.00  0.00     0.127 S 
ATOM     72  O   UNL A   1      34.854  31.739  28.291  1.00  0.00    -0.237 OA
ATOM     73  O   UNL A   1      34.326  32.815  30.441  1.00  0.00    -0.237 OA
ATOM     74  O   UNL A   1      36.079  33.761  29.004  1.00  0.00    -0.744 OA
ENDBRANCH  68  71
ENDBRANCH  50  64
BRANCH  51  75
ATOM     75  C   UNL A   1      46.966  27.315  25.763  1.00  0.00     0.023 A 
ATOM     76  C   UNL A   1      47.122  27.564  24.385  1.00  0.00     0.012 A 
ATOM     77  C   UNL A   1      48.010  26.691  26.471  1.00  0.00     0.148 A 
ATOM     78  C   UNL A   1      48.284  27.177  23.718  1.00  0.00     0.002 A 
ATOM     79  C   UNL A   1      49.186  26.351  25.810  1.00  0.00     0.091 A 
ATOM     80  F   UNL A   1      47.840  26.460  27.780  1.00  0.00    -0.205 F 
ATOM     81  C   UNL A   1      49.319  26.579  24.432  1.00  0.00     0.022 A 
BRANCH  79  82
ATOM     82  S   UNL A   1      50.619  25.680  26.660  1.00  0.00     0.127 S 
ATOM     83  O   UNL A   1      50.072  24.458  27.248  1.00  0.00    -0.237 OA
ATOM     84  O   UNL A   1      51.550  25.466  25.552  1.00  0.00    -0.237 OA
ATOM     85  O   UNL A   1      51.031  26.702  27.611  1.00  0.00    -0.744 OA
ENDBRANCH  79  82
ENDBRANCH  51  75
BRANCH  63  86
ATOM     86  C   UNL A   1      45.272  32.954  29.516  1.00  0.00     0.023 A 
ATOM     87  C   UNL A   1      46.040  32.946  30.697  1.00  0.00     0.012 A 
ATOM     88  C   UNL A   1      45.293  34.091  28.684  1.00  0.00     0.148 A 
ATOM     89  C   UNL A   1      46.791  34.063  31.061  1.00  0.00     0.002 A 
ATOM     90  C   UNL A   1      46.087  35.179  29.025  1.00  0.00     0.091 A 
ATOM     91  F   UNL A   1      44.543  34.085  27.573  1.00  0.00    -0.205 F 
ATOM     92  C   UNL A   1      46.824  35.173  30.219  1.00  0.00     0.022 A 
BRANCH  90  93
ATOM     93  S   UNL A   1      46.275  36.608  27.951  1.00  0.00     0.127 S 
ATOM     94  O   UNL A   1      47.210  37.433  28.715  1.00  0.00    -0.237 OA
ATOM     95  O   UNL A   1      46.838  36.012  26.739  1.00  0.00    -0.237 OA
ATOM     96  O   UNL A   1      44.941  37.167  27.786  1.00  0.00    -0.744 OA
ENDBRANCH  90  93
ENDBRANCH  63  86
ENDBRANCH  37  38
ENDBRANCH  29  32
ENDBRANCH  27  28
ENDBRANCH  26  27
ENDBRANCH  25  26
ENDBRANCH   1  25
TORSDOF 20
ENDMDL
