MODEL 1
REMARK VINA RESULT:      -9.7      0.000      0.000
REMARK SMILES N#CCC[NH+]1CCN(c2cc(C(=O)NCCCCCCNC(=O)c3ccc(-c4c5nc(c(-c6cccc(S(=O)(=O)[O-])c6F)c6ccc([nH]6)c(-c6cccc(S(=O)(=O)[O-])c6F)c6nc(c(-c7cccc(S(=O)(=O)[O-])c7F)c7ccc4[nH]7)C=C6)C=C5)cc3)c3cc(NS(=O)(=O)c4ccccc4Cl)ccc3n2)CC1
REMARK SMILES IDX 17 1 16 2 15 3 14 4 12 5 13 6 11 8 9 9 10 10 104 11 103 12
REMARK SMILES IDX 87 13 102 14 88 15 101 16 89 17 8 18 5 19 6 20 106 21 7 23
REMARK SMILES IDX 105 24 4 25 3 26 2 27 1 28 90 29 91 31 92 32 93 33 94 34
REMARK SMILES IDX 95 35 99 36 96 37 98 38 100 39 97 40 18 41 19 42 20 43 21 44
REMARK SMILES IDX 22 45 23 47 24 48 25 49 86 50 26 51 85 52 27 53 28 54 29 55
REMARK SMILES IDX 79 56 30 57 84 58 78 59 80 60 31 61 83 62 77 63 76 64 32 66
REMARK SMILES IDX 64 67 44 68 63 69 45 70 48 71 62 72 81 73 46 74 47 75 61 77
REMARK SMILES IDX 82 78 49 79 33 80 34 81 42 82 35 83 37 84 43 85 36 86 38 87
REMARK SMILES IDX 39 88 40 89 41 90 65 91 66 92 74 93 67 94 69 95 75 96 68 97
REMARK SMILES IDX 70 98 71 99 72 100 73 101 50 102 51 103 59 104 52 105 54 106
REMARK SMILES IDX 60 107 53 108 55 109 56 110 57 111 58 112
REMARK H PARENT 14 7 5 22 90 30 21 46 80 65 48 76
REMARK Flexibility Score: inf
ROOT
ATOM      1  C   UNL A   1      39.216  26.327  28.338  1.00  0.00     0.002 C 
ENDROOT
BRANCH   1   2
ATOM      2  C   UNL A   1      39.395  26.938  29.730  1.00  0.00     0.021 C 
BRANCH   2   3
ATOM      3  C   UNL A   1      39.129  28.444  29.759  1.00  0.00     0.116 C 
BRANCH   3   4
ATOM      4  N   UNL A   1      37.803  28.746  29.266  1.00  0.00    -0.352 N 
ATOM      5  C   UNL A   1      37.608  29.615  28.223  1.00  0.00     0.252 C 
ATOM      6  O   UNL A   1      38.350  29.715  27.257  1.00  0.00    -0.269 OA
ATOM      7  H   UNL A   1      37.023  28.319  29.689  1.00  0.00     0.163 HD
BRANCH   5   8
ATOM      8  C   UNL A   1      36.425  30.495  28.357  1.00  0.00     0.052 A 
ATOM      9  C   UNL A   1      35.268  32.107  29.668  1.00  0.00     0.130 A 
ATOM     10  C   UNL A   1      36.426  31.404  29.410  1.00  0.00     0.061 A 
ATOM     11  N   UNL A   1      34.195  31.998  28.862  1.00  0.00    -0.231 NA
ATOM     12  C   UNL A   1      34.150  31.071  27.911  1.00  0.00     0.074 A 
ATOM     13  C   UNL A   1      35.240  30.244  27.620  1.00  0.00     0.015 A 
ATOM     14  C   UNL A   1      32.932  30.861  27.288  1.00  0.00     0.031 A 
ATOM     15  C   UNL A   1      35.027  29.150  26.750  1.00  0.00     0.038 A 
ATOM     16  C   UNL A   1      32.707  29.724  26.519  1.00  0.00     0.029 A 
ATOM     17  C   UNL A   1      33.737  28.811  26.338  1.00  0.00     0.050 A 
BRANCH   9  18
ATOM     18  N   UNL A   1      35.104  32.872  30.789  1.00  0.00    -0.345 N 
ATOM     19  N   UNL A   1      35.821  34.432  33.165  1.00  0.00    -0.331 N 
ATOM     20  C   UNL A   1      35.611  32.952  33.211  1.00  0.00     0.284 C 
ATOM     21  C   UNL A   1      36.352  34.718  31.801  1.00  0.00     0.284 C 
ATOM     22  H   UNL A   1      36.487  34.770  33.859  1.00  0.00     0.348 HD
ATOM     23  C   UNL A   1      34.705  32.358  32.092  1.00  0.00     0.179 C 
ATOM     24  C   UNL A   1      35.389  34.306  30.674  1.00  0.00     0.179 C 
BRANCH  19  25
ATOM     25  C   UNL A   1      34.557  35.134  33.490  1.00  0.00     0.277 C 
BRANCH  25  26
ATOM     26  C   UNL A   1      34.430  36.611  33.078  1.00  0.00     0.181 C 
BRANCH  26  27
ATOM     27  C   UNL A   1      33.293  36.811  32.089  1.00  0.00     0.068 C 
ATOM     28  N   UNL A   1      32.350  36.976  31.269  1.00  0.00    -0.198 NA
ENDBRANCH  26  27
ENDBRANCH  25  26
ENDBRANCH  19  25
ENDBRANCH   9  18
BRANCH  17  29
ATOM     29  N   UNL A   1      33.354  27.485  25.999  1.00  0.00    -0.280 N 
ATOM     30  H   UNL A   1      33.290  26.840  26.739  1.00  0.00     0.180 HD
BRANCH  29  31
ATOM     31  S   UNL A   1      33.000  26.917  24.478  1.00  0.00     0.263 S 
ATOM     32  O   UNL A   1      31.613  26.553  24.455  1.00  0.00    -0.201 OA
ATOM     33  O   UNL A   1      33.521  27.925  23.565  1.00  0.00    -0.201 OA
BRANCH  31  34
ATOM     34  C   UNL A   1      33.919  25.441  24.106  1.00  0.00     0.106 A 
ATOM     35  C   UNL A   1      34.795  25.019  25.127  1.00  0.00     0.024 A 
ATOM     36  C   UNL A   1      33.731  24.629  22.991  1.00  0.00     0.061 A 
ATOM     37  C   UNL A   1      35.393  23.761  25.090  1.00  0.00     0.002 A 
ATOM     38  C   UNL A   1      34.303  23.347  22.981  1.00  0.00     0.022 A 
ATOM     39  Cl  UNL A   1      32.889  25.098  21.564  1.00  0.00    -0.083 Cl
ATOM     40  C   UNL A   1      35.114  22.909  24.031  1.00  0.00     0.002 A 
ENDBRANCH  31  34
ENDBRANCH  29  31
ENDBRANCH  17  29
ENDBRANCH   5   8
ENDBRANCH   3   4
ENDBRANCH   2   3
ENDBRANCH   1   2
BRANCH   1  41
ATOM     41  C   UNL A   1      39.439  24.816  28.249  1.00  0.00     0.002 C 
BRANCH  41  42
ATOM     42  C   UNL A   1      39.717  24.294  26.844  1.00  0.00     0.021 C 
BRANCH  42  43
ATOM     43  C   UNL A   1      41.160  23.979  26.508  1.00  0.00     0.116 C 
BRANCH  43  44
ATOM     44  N   UNL A   1      41.710  24.810  25.452  1.00  0.00    -0.352 N 
ATOM     45  C   UNL A   1      42.486  25.940  25.577  1.00  0.00     0.251 C 
ATOM     46  H   UNL A   1      41.504  24.530  24.531  1.00  0.00     0.163 HD
ATOM     47  O   UNL A   1      42.776  26.603  24.586  1.00  0.00    -0.269 OA
BRANCH  45  48
ATOM     48  C   UNL A   1      42.944  26.363  26.921  1.00  0.00     0.039 A 
ATOM     49  C   UNL A   1      43.060  27.723  27.211  1.00  0.00     0.014 A 
ATOM     50  C   UNL A   1      43.229  25.411  27.905  1.00  0.00     0.014 A 
ATOM     51  C   UNL A   1      43.425  28.128  28.499  1.00  0.00     0.010 A 
ATOM     52  C   UNL A   1      43.475  25.817  29.210  1.00  0.00     0.010 A 
ATOM     53  C   UNL A   1      43.619  27.178  29.515  1.00  0.00    -0.014 A 
BRANCH  53  54
ATOM     54  C   UNL A   1      44.067  27.562  30.879  1.00  0.00     0.031 A 
ATOM     55  C   UNL A   1      45.389  27.042  31.390  1.00  0.00     0.074 A 
ATOM     56  C   UNL A   1      43.274  28.299  31.681  1.00  0.00     0.049 A 
ATOM     57  N   UNL A   1      45.923  27.157  32.578  1.00  0.00    -0.248 NA
ATOM     58  C   UNL A   1      46.199  26.241  30.452  1.00  0.00     0.031 C 
ATOM     59  C   UNL A   1      41.937  28.793  31.339  1.00  0.00     0.029 A 
ATOM     60  N   UNL A   1      43.473  28.748  32.964  1.00  0.00    -0.354 N 
ATOM     61  C   UNL A   1      47.090  26.401  32.543  1.00  0.00     0.074 A 
ATOM     62  C   UNL A   1      47.159  25.784  31.238  1.00  0.00     0.031 C 
ATOM     63  C   UNL A   1      41.448  29.493  32.376  1.00  0.00     0.029 A 
ATOM     64  C   UNL A   1      42.421  29.480  33.464  1.00  0.00     0.049 A 
ATOM     65  H   UNL A   1      44.292  28.562  33.477  1.00  0.00     0.167 HD
ATOM     66  C   UNL A   1      48.051  26.272  33.487  1.00  0.00     0.034 A 
ATOM     67  C   UNL A   1      42.270  30.081  34.661  1.00  0.00     0.034 A 
ATOM     68  C   UNL A   1      48.031  26.972  34.741  1.00  0.00     0.049 A 
ATOM     69  C   UNL A   1      43.397  30.002  35.659  1.00  0.00     0.074 A 
ATOM     70  C   UNL A   1      48.991  26.986  35.735  1.00  0.00     0.029 A 
ATOM     71  N   UNL A   1      47.005  27.804  35.157  1.00  0.00    -0.354 N 
ATOM     72  N   UNL A   1      44.553  29.392  35.555  1.00  0.00    -0.248 NA
ATOM     73  C   UNL A   1      43.217  30.730  36.925  1.00  0.00     0.031 C 
ATOM     74  C   UNL A   1      48.548  27.839  36.753  1.00  0.00     0.029 A 
ATOM     75  C   UNL A   1      47.315  28.356  36.387  1.00  0.00     0.049 A 
ATOM     76  H   UNL A   1      46.178  27.978  34.653  1.00  0.00     0.167 HD
ATOM     77  C   UNL A   1      45.252  29.693  36.718  1.00  0.00     0.074 A 
ATOM     78  C   UNL A   1      44.397  30.559  37.505  1.00  0.00     0.031 C 
ATOM     79  C   UNL A   1      46.479  29.276  37.113  1.00  0.00     0.034 A 
BRANCH  66  80
ATOM     80  C   UNL A   1      49.249  25.421  33.152  1.00  0.00     0.023 A 
ATOM     81  C   UNL A   1      50.321  25.993  32.436  1.00  0.00     0.012 A 
ATOM     82  C   UNL A   1      49.335  24.078  33.567  1.00  0.00     0.148 A 
ATOM     83  C   UNL A   1      51.439  25.232  32.098  1.00  0.00     0.002 A 
ATOM     84  C   UNL A   1      50.474  23.339  33.266  1.00  0.00     0.091 A 
ATOM     85  F   UNL A   1      48.299  23.544  34.230  1.00  0.00    -0.205 F 
ATOM     86  C   UNL A   1      51.520  23.910  32.521  1.00  0.00     0.022 A 
BRANCH  84  87
ATOM     87  S   UNL A   1      50.713  21.649  33.830  1.00  0.00     0.127 S 
ATOM     88  O   UNL A   1      52.057  21.358  33.328  1.00  0.00    -0.237 OA
ATOM     89  O   UNL A   1      50.624  21.794  35.283  1.00  0.00    -0.237 OA
ATOM     90  O   UNL A   1      49.640  20.870  33.231  1.00  0.00    -0.744 OA
ENDBRANCH  84  87
ENDBRANCH  66  80
BRANCH  67  91
ATOM     91  C   UNL A   1      41.056  30.900  34.945  1.00  0.00     0.023 A 
ATOM     92  C   UNL A   1      40.008  30.331  35.696  1.00  0.00     0.012 A 
ATOM     93  C   UNL A   1      40.931  32.228  34.494  1.00  0.00     0.148 A 
ATOM     94  C   UNL A   1      38.845  31.052  35.962  1.00  0.00     0.002 A 
ATOM     95  C   UNL A   1      39.788  32.959  34.804  1.00  0.00     0.091 A 
ATOM     96  F   UNL A   1      41.927  32.752  33.766  1.00  0.00    -0.205 F 
ATOM     97  C   UNL A   1      38.737  32.369  35.524  1.00  0.00     0.022 A 
BRANCH  95  98
ATOM     98  S   UNL A   1      39.622  34.697  34.377  1.00  0.00     0.127 S 
ATOM     99  O   UNL A   1      39.673  34.654  32.918  1.00  0.00    -0.237 OA
ATOM    100  O   UNL A   1      38.310  35.029  34.936  1.00  0.00    -0.237 OA
ATOM    101  O   UNL A   1      40.736  35.364  35.036  1.00  0.00    -0.744 OA
ENDBRANCH  95  98
ENDBRANCH  67  91
BRANCH  79 102
ATOM    102  C   UNL A   1      46.998  29.778  38.433  1.00  0.00     0.023 A 
ATOM    103  C   UNL A   1      47.745  30.971  38.476  1.00  0.00     0.012 A 
ATOM    104  C   UNL A   1      46.666  29.121  39.632  1.00  0.00     0.148 A 
ATOM    105  C   UNL A   1      48.177  31.490  39.696  1.00  0.00     0.002 A 
ATOM    106  C   UNL A   1      47.062  29.667  40.847  1.00  0.00     0.091 A 
ATOM    107  F   UNL A   1      45.969  27.977  39.566  1.00  0.00    -0.205 F 
ATOM    108  C   UNL A   1      47.825  30.846  40.880  1.00  0.00     0.022 A 
BRANCH 106 109
ATOM    109  S   UNL A   1      46.571  28.957  42.422  1.00  0.00     0.127 S 
ATOM    110  O   UNL A   1      45.114  28.953  42.307  1.00  0.00    -0.237 OA
ATOM    111  O   UNL A   1      47.190  27.632  42.375  1.00  0.00    -0.237 OA
ATOM    112  O   UNL A   1      47.119  29.839  43.444  1.00  0.00    -0.744 OA
ENDBRANCH 106 109
ENDBRANCH  79 102
ENDBRANCH  53  54
ENDBRANCH  45  48
ENDBRANCH  43  44
ENDBRANCH  42  43
ENDBRANCH  41  42
ENDBRANCH   1  41
TORSDOF 23
ENDMDL
MODEL 2
REMARK VINA RESULT:      -9.6      6.216     10.680
REMARK SMILES N#CCC[NH+]1CCN(c2cc(C(=O)NCCCCCCNC(=O)c3ccc(-c4c5nc(c(-c6cccc(S(=O)(=O)[O-])c6F)c6ccc([nH]6)c(-c6cccc(S(=O)(=O)[O-])c6F)c6nc(c(-c7cccc(S(=O)(=O)[O-])c7F)c7ccc4[nH]7)C=C6)C=C5)cc3)c3cc(NS(=O)(=O)c4ccccc4Cl)ccc3n2)CC1
REMARK SMILES IDX 17 1 16 2 15 3 14 4 12 5 13 6 11 8 9 9 10 10 104 11 103 12
REMARK SMILES IDX 87 13 102 14 88 15 101 16 89 17 8 18 5 19 6 20 106 21 7 23
REMARK SMILES IDX 105 24 4 25 3 26 2 27 1 28 90 29 91 31 92 32 93 33 94 34
REMARK SMILES IDX 95 35 99 36 96 37 98 38 100 39 97 40 18 41 19 42 20 43 21 44
REMARK SMILES IDX 22 45 23 47 24 48 25 49 86 50 26 51 85 52 27 53 28 54 29 55
REMARK SMILES IDX 79 56 30 57 84 58 78 59 80 60 31 61 83 62 77 63 76 64 32 66
REMARK SMILES IDX 64 67 44 68 63 69 45 70 48 71 62 72 81 73 46 74 47 75 61 77
REMARK SMILES IDX 82 78 49 79 33 80 34 81 42 82 35 83 37 84 43 85 36 86 38 87
REMARK SMILES IDX 39 88 40 89 41 90 65 91 66 92 74 93 67 94 69 95 75 96 68 97
REMARK SMILES IDX 70 98 71 99 72 100 73 101 50 102 51 103 59 104 52 105 54 106
REMARK SMILES IDX 60 107 53 108 55 109 56 110 57 111 58 112
REMARK H PARENT 14 7 5 22 90 30 21 46 80 65 48 76
REMARK Flexibility Score: inf
ROOT
ATOM      1  C   UNL A   1      39.541  30.239  32.073  1.00  0.00     0.002 C 
ENDROOT
BRANCH   1   2
ATOM      2  C   UNL A   1      39.588  29.676  30.650  1.00  0.00     0.021 C 
BRANCH   2   3
ATOM      3  C   UNL A   1      38.800  28.375  30.497  1.00  0.00     0.116 C 
BRANCH   3   4
ATOM      4  N   UNL A   1      37.555  28.602  29.794  1.00  0.00    -0.352 N 
ATOM      5  C   UNL A   1      37.515  29.317  28.624  1.00  0.00     0.252 C 
ATOM      6  O   UNL A   1      38.381  29.283  27.761  1.00  0.00    -0.269 OA
ATOM      7  H   UNL A   1      36.719  28.237  30.164  1.00  0.00     0.163 HD
BRANCH   5   8
ATOM      8  C   UNL A   1      36.339  30.204  28.475  1.00  0.00     0.052 A 
ATOM      9  C   UNL A   1      35.009  31.938  29.414  1.00  0.00     0.130 A 
ATOM     10  C   UNL A   1      36.183  31.214  29.419  1.00  0.00     0.061 A 
ATOM     11  N   UNL A   1      34.080  31.747  28.458  1.00  0.00    -0.231 NA
ATOM     12  C   UNL A   1      34.176  30.730  27.609  1.00  0.00     0.074 A 
ATOM     13  C   UNL A   1      35.286  29.879  27.584  1.00  0.00     0.015 A 
ATOM     14  C   UNL A   1      33.072  30.456  26.821  1.00  0.00     0.031 A 
ATOM     15  C   UNL A   1      35.200  28.702  26.804  1.00  0.00     0.038 A 
ATOM     16  C   UNL A   1      32.958  29.247  26.142  1.00  0.00     0.029 A 
ATOM     17  C   UNL A   1      33.990  28.323  26.223  1.00  0.00     0.050 A 
BRANCH   9  18
ATOM     18  N   UNL A   1      34.678  32.812  30.412  1.00  0.00    -0.345 N 
ATOM     19  N   UNL A   1      34.837  35.165  32.152  1.00  0.00    -0.331 N 
ATOM     20  C   UNL A   1      35.558  33.891  32.458  1.00  0.00     0.284 C 
ATOM     21  C   UNL A   1      34.779  35.244  30.664  1.00  0.00     0.284 C 
ATOM     22  H   UNL A   1      35.307  35.995  32.511  1.00  0.00     0.348 HD
ATOM     23  C   UNL A   1      34.959  32.601  31.825  1.00  0.00     0.179 C 
ATOM     24  C   UNL A   1      34.026  34.066  30.021  1.00  0.00     0.179 C 
BRANCH  19  25
ATOM     25  C   UNL A   1      33.512  35.171  32.818  1.00  0.00     0.277 C 
BRANCH  25  26
ATOM     26  C   UNL A   1      32.572  36.355  32.534  1.00  0.00     0.181 C 
BRANCH  26  27
ATOM     27  C   UNL A   1      33.302  37.681  32.667  1.00  0.00     0.068 C 
ATOM     28  N   UNL A   1      33.907  38.782  32.778  1.00  0.00    -0.198 NA
ENDBRANCH  26  27
ENDBRANCH  25  26
ENDBRANCH  19  25
ENDBRANCH   9  18
BRANCH  17  29
ATOM     29  N   UNL A   1      33.647  26.968  25.959  1.00  0.00    -0.280 N 
ATOM     30  H   UNL A   1      33.649  26.353  26.728  1.00  0.00     0.180 HD
BRANCH  29  31
ATOM     31  S   UNL A   1      33.239  26.321  24.484  1.00  0.00     0.263 S 
ATOM     32  O   UNL A   1      31.858  25.939  24.537  1.00  0.00    -0.201 OA
ATOM     33  O   UNL A   1      33.707  27.289  23.502  1.00  0.00    -0.201 OA
BRANCH  31  34
ATOM     34  C   UNL A   1      34.163  24.841  24.146  1.00  0.00     0.106 A 
ATOM     35  C   UNL A   1      35.097  24.488  25.143  1.00  0.00     0.024 A 
ATOM     36  C   UNL A   1      33.934  23.966  23.088  1.00  0.00     0.061 A 
ATOM     37  C   UNL A   1      35.714  23.239  25.144  1.00  0.00     0.002 A 
ATOM     38  C   UNL A   1      34.527  22.694  23.119  1.00  0.00     0.022 A 
ATOM     39  Cl  UNL A   1      33.014  24.343  21.683  1.00  0.00    -0.083 Cl
ATOM     40  C   UNL A   1      35.397  22.326  24.149  1.00  0.00     0.002 A 
ENDBRANCH  31  34
ENDBRANCH  29  31
ENDBRANCH  17  29
ENDBRANCH   5   8
ENDBRANCH   3   4
ENDBRANCH   2   3
ENDBRANCH   1   2
BRANCH   1  41
ATOM     41  C   UNL A   1      38.276  31.021  32.431  1.00  0.00     0.002 C 
BRANCH  41  42
ATOM     42  C   UNL A   1      37.607  30.590  33.731  1.00  0.00     0.021 C 
BRANCH  42  43
ATOM     43  C   UNL A   1      38.454  30.657  34.986  1.00  0.00     0.116 C 
BRANCH  43  44
ATOM     44  N   UNL A   1      38.182  31.819  35.813  1.00  0.00    -0.352 N 
ATOM     45  C   UNL A   1      38.860  33.016  35.845  1.00  0.00     0.251 C 
ATOM     46  H   UNL A   1      37.417  31.742  36.428  1.00  0.00     0.163 HD
ATOM     47  O   UNL A   1      38.579  33.863  36.688  1.00  0.00    -0.269 OA
BRANCH  45  48
ATOM     48  C   UNL A   1      39.948  33.262  34.870  1.00  0.00     0.039 A 
ATOM     49  C   UNL A   1      41.235  32.796  35.145  1.00  0.00     0.014 A 
ATOM     50  C   UNL A   1      39.686  33.927  33.668  1.00  0.00     0.014 A 
ATOM     51  C   UNL A   1      42.249  32.964  34.197  1.00  0.00     0.010 A 
ATOM     52  C   UNL A   1      40.663  33.986  32.683  1.00  0.00     0.010 A 
ATOM     53  C   UNL A   1      41.968  33.545  32.950  1.00  0.00    -0.014 A 
BRANCH  53  54
ATOM     54  C   UNL A   1      43.029  33.798  31.940  1.00  0.00     0.031 A 
ATOM     55  C   UNL A   1      43.658  35.168  31.866  1.00  0.00     0.074 A 
ATOM     56  C   UNL A   1      43.372  32.846  31.051  1.00  0.00     0.049 A 
ATOM     57  N   UNL A   1      44.515  35.642  30.999  1.00  0.00    -0.248 NA
ATOM     58  C   UNL A   1      43.228  36.156  32.873  1.00  0.00     0.031 C 
ATOM     59  C   UNL A   1      42.780  31.509  30.962  1.00  0.00     0.029 A 
ATOM     60  N   UNL A   1      44.297  32.865  30.036  1.00  0.00    -0.354 N 
ATOM     61  C   UNL A   1      44.678  36.985  31.322  1.00  0.00     0.074 A 
ATOM     62  C   UNL A   1      43.789  37.268  32.426  1.00  0.00     0.031 C 
ATOM     63  C   UNL A   1      43.371  30.831  29.963  1.00  0.00     0.029 A 
ATOM     64  C   UNL A   1      44.365  31.689  29.326  1.00  0.00     0.049 A 
ATOM     65  H   UNL A   1      44.858  33.649  29.835  1.00  0.00     0.167 HD
ATOM     66  C   UNL A   1      45.529  37.893  30.790  1.00  0.00     0.034 A 
ATOM     67  C   UNL A   1      45.152  31.343  28.288  1.00  0.00     0.034 A 
ATOM     68  C   UNL A   1      46.485  37.580  29.767  1.00  0.00     0.049 A 
ATOM     69  C   UNL A   1      46.159  32.341  27.777  1.00  0.00     0.074 A 
ATOM     70  C   UNL A   1      47.456  38.395  29.215  1.00  0.00     0.029 A 
ATOM     71  N   UNL A   1      46.608  36.340  29.161  1.00  0.00    -0.354 N 
ATOM     72  N   UNL A   1      46.390  33.566  28.186  1.00  0.00    -0.248 NA
ATOM     73  C   UNL A   1      47.043  31.898  26.689  1.00  0.00     0.031 C 
ATOM     74  C   UNL A   1      48.173  37.643  28.279  1.00  0.00     0.029 A 
ATOM     75  C   UNL A   1      47.651  36.359  28.254  1.00  0.00     0.049 A 
ATOM     76  H   UNL A   1      46.037  35.560  29.349  1.00  0.00     0.167 HD
ATOM     77  C   UNL A   1      47.467  34.024  27.436  1.00  0.00     0.074 A 
ATOM     78  C   UNL A   1      47.858  32.936  26.562  1.00  0.00     0.031 C 
ATOM     79  C   UNL A   1      48.068  35.239  27.451  1.00  0.00     0.034 A 
BRANCH  66  80
ATOM     80  C   UNL A   1      45.529  39.280  31.381  1.00  0.00     0.023 A 
ATOM     81  C   UNL A   1      46.357  39.555  32.489  1.00  0.00     0.012 A 
ATOM     82  C   UNL A   1      44.744  40.312  30.831  1.00  0.00     0.148 A 
ATOM     83  C   UNL A   1      46.373  40.823  33.069  1.00  0.00     0.002 A 
ATOM     84  C   UNL A   1      44.801  41.586  31.387  1.00  0.00     0.091 A 
ATOM     85  F   UNL A   1      43.948  40.028  29.791  1.00  0.00    -0.205 F 
ATOM     86  C   UNL A   1      45.603  41.839  32.513  1.00  0.00     0.022 A 
BRANCH  84  87
ATOM     87  S   UNL A   1      43.908  42.986  30.700  1.00  0.00     0.127 S 
ATOM     88  O   UNL A   1      44.380  42.987  29.316  1.00  0.00    -0.237 OA
ATOM     89  O   UNL A   1      42.513  42.574  30.867  1.00  0.00    -0.237 OA
ATOM     90  O   UNL A   1      44.298  44.141  31.495  1.00  0.00    -0.744 OA
ENDBRANCH  84  87
ENDBRANCH  66  80
BRANCH  67  91
ATOM     91  C   UNL A   1      45.101  29.960  27.732  1.00  0.00     0.023 A 
ATOM     92  C   UNL A   1      46.170  29.079  27.993  1.00  0.00     0.012 A 
ATOM     93  C   UNL A   1      44.013  29.506  26.962  1.00  0.00     0.148 A 
ATOM     94  C   UNL A   1      46.174  27.785  27.470  1.00  0.00     0.002 A 
ATOM     95  C   UNL A   1      44.001  28.198  26.484  1.00  0.00     0.091 A 
ATOM     96  F   UNL A   1      43.011  30.359  26.707  1.00  0.00    -0.205 F 
ATOM     97  C   UNL A   1      45.087  27.342  26.723  1.00  0.00     0.022 A 
BRANCH  95  98
ATOM     98  S   UNL A   1      42.586  27.514  25.613  1.00  0.00     0.127 S 
ATOM     99  O   UNL A   1      42.388  28.492  24.547  1.00  0.00    -0.237 OA
ATOM    100  O   UNL A   1      43.094  26.215  25.169  1.00  0.00    -0.237 OA
ATOM    101  O   UNL A   1      41.526  27.430  26.608  1.00  0.00    -0.744 OA
ENDBRANCH  95  98
ENDBRANCH  67  91
BRANCH  79 102
ATOM    102  C   UNL A   1      49.237  35.452  26.529  1.00  0.00     0.023 A 
ATOM    103  C   UNL A   1      49.021  36.000  25.249  1.00  0.00     0.012 A 
ATOM    104  C   UNL A   1      50.551  35.200  26.965  1.00  0.00     0.148 A 
ATOM    105  C   UNL A   1      50.097  36.269  24.406  1.00  0.00     0.002 A 
ATOM    106  C   UNL A   1      51.622  35.511  26.136  1.00  0.00     0.091 A 
ATOM    107  F   UNL A   1      50.733  34.660  28.180  1.00  0.00    -0.205 F 
ATOM    108  C   UNL A   1      51.396  36.037  24.853  1.00  0.00     0.022 A 
BRANCH 106 109
ATOM    109  S   UNL A   1      53.328  35.335  26.667  1.00  0.00     0.127 S 
ATOM    110  O   UNL A   1      54.038  36.120  25.659  1.00  0.00    -0.237 OA
ATOM    111  O   UNL A   1      53.304  35.934  28.002  1.00  0.00    -0.237 OA
ATOM    112  O   UNL A   1      53.603  33.904  26.657  1.00  0.00    -0.744 OA
ENDBRANCH 106 109
ENDBRANCH  79 102
ENDBRANCH  53  54
ENDBRANCH  45  48
ENDBRANCH  43  44
ENDBRANCH  42  43
ENDBRANCH  41  42
ENDBRANCH   1  41
TORSDOF 23
ENDMDL
MODEL 3
REMARK VINA RESULT:      -9.3      2.111      7.268
REMARK SMILES N#CCC[NH+]1CCN(c2cc(C(=O)NCCCCCCNC(=O)c3ccc(-c4c5nc(c(-c6cccc(S(=O)(=O)[O-])c6F)c6ccc([nH]6)c(-c6cccc(S(=O)(=O)[O-])c6F)c6nc(c(-c7cccc(S(=O)(=O)[O-])c7F)c7ccc4[nH]7)C=C6)C=C5)cc3)c3cc(NS(=O)(=O)c4ccccc4Cl)ccc3n2)CC1
REMARK SMILES IDX 17 1 16 2 15 3 14 4 12 5 13 6 11 8 9 9 10 10 104 11 103 12
REMARK SMILES IDX 87 13 102 14 88 15 101 16 89 17 8 18 5 19 6 20 106 21 7 23
REMARK SMILES IDX 105 24 4 25 3 26 2 27 1 28 90 29 91 31 92 32 93 33 94 34
REMARK SMILES IDX 95 35 99 36 96 37 98 38 100 39 97 40 18 41 19 42 20 43 21 44
REMARK SMILES IDX 22 45 23 47 24 48 25 49 86 50 26 51 85 52 27 53 28 54 29 55
REMARK SMILES IDX 79 56 30 57 84 58 78 59 80 60 31 61 83 62 77 63 76 64 32 66
REMARK SMILES IDX 64 67 44 68 63 69 45 70 48 71 62 72 81 73 46 74 47 75 61 77
REMARK SMILES IDX 82 78 49 79 33 80 34 81 42 82 35 83 37 84 43 85 36 86 38 87
REMARK SMILES IDX 39 88 40 89 41 90 65 91 66 92 74 93 67 94 69 95 75 96 68 97
REMARK SMILES IDX 70 98 71 99 72 100 73 101 50 102 51 103 59 104 52 105 54 106
REMARK SMILES IDX 60 107 53 108 55 109 56 110 57 111 58 112
REMARK H PARENT 14 7 5 22 90 30 21 46 80 65 48 76
REMARK Flexibility Score: inf
ROOT
ATOM      1  C   UNL A   1      39.324  26.241  28.128  1.00  0.00     0.002 C 
ENDROOT
BRANCH   1   2
ATOM      2  C   UNL A   1      39.116  26.561  29.610  1.00  0.00     0.021 C 
BRANCH   2   3
ATOM      3  C   UNL A   1      38.806  28.036  29.865  1.00  0.00     0.116 C 
BRANCH   3   4
ATOM      4  N   UNL A   1      37.555  28.418  29.246  1.00  0.00    -0.352 N 
ATOM      5  C   UNL A   1      37.498  29.408  28.298  1.00  0.00     0.252 C 
ATOM      6  O   UNL A   1      38.360  29.609  27.454  1.00  0.00    -0.269 OA
ATOM      7  H   UNL A   1      36.726  27.958  29.510  1.00  0.00     0.163 HD
BRANCH   5   8
ATOM      8  C   UNL A   1      36.309  30.286  28.383  1.00  0.00     0.052 A 
ATOM      9  C   UNL A   1      35.154  31.978  29.592  1.00  0.00     0.130 A 
ATOM     10  C   UNL A   1      36.315  31.267  29.369  1.00  0.00     0.061 A 
ATOM     11  N   UNL A   1      34.073  31.804  28.808  1.00  0.00    -0.231 NA
ATOM     12  C   UNL A   1      34.024  30.812  27.925  1.00  0.00     0.074 A 
ATOM     13  C   UNL A   1      35.118  29.975  27.681  1.00  0.00     0.015 A 
ATOM     14  C   UNL A   1      32.801  30.548  27.334  1.00  0.00     0.031 A 
ATOM     15  C   UNL A   1      34.904  28.820  26.893  1.00  0.00     0.038 A 
ATOM     16  C   UNL A   1      32.577  29.358  26.650  1.00  0.00     0.029 A 
ATOM     17  C   UNL A   1      33.612  28.443  26.522  1.00  0.00     0.050 A 
BRANCH   9  18
ATOM     18  N   UNL A   1      34.997  32.820  30.657  1.00  0.00    -0.345 N 
ATOM     19  N   UNL A   1      35.729  34.583  32.881  1.00  0.00    -0.331 N 
ATOM     20  C   UNL A   1      35.582  33.104  33.046  1.00  0.00     0.284 C 
ATOM     21  C   UNL A   1      36.201  34.785  31.481  1.00  0.00     0.284 C 
ATOM     22  H   UNL A   1      36.404  34.999  33.522  1.00  0.00     0.348 HD
ATOM     23  C   UNL A   1      34.664  32.392  32.009  1.00  0.00     0.179 C 
ATOM     24  C   UNL A   1      35.218  34.251  30.424  1.00  0.00     0.179 C 
BRANCH  19  25
ATOM     25  C   UNL A   1      34.448  35.258  33.200  1.00  0.00     0.277 C 
BRANCH  25  26
ATOM     26  C   UNL A   1      34.384  36.787  33.038  1.00  0.00     0.181 C 
BRANCH  26  27
ATOM     27  C   UNL A   1      33.524  37.179  31.847  1.00  0.00     0.068 C 
ATOM     28  N   UNL A   1      32.811  37.504  30.859  1.00  0.00    -0.198 NA
ENDBRANCH  26  27
ENDBRANCH  25  26
ENDBRANCH  19  25
ENDBRANCH   9  18
BRANCH  17  29
ATOM     29  N   UNL A   1      33.237  27.093  26.283  1.00  0.00    -0.280 N 
ATOM     30  H   UNL A   1      33.096  26.526  27.074  1.00  0.00     0.180 HD
BRANCH  29  31
ATOM     31  S   UNL A   1      33.009  26.379  24.800  1.00  0.00     0.263 S 
ATOM     32  O   UNL A   1      34.235  26.492  24.064  1.00  0.00    -0.201 OA
ATOM     33  O   UNL A   1      32.433  25.074  25.091  1.00  0.00    -0.201 OA
BRANCH  31  34
ATOM     34  C   UNL A   1      31.768  27.228  23.852  1.00  0.00     0.106 A 
ATOM     35  C   UNL A   1      30.476  26.668  23.936  1.00  0.00     0.024 A 
ATOM     36  C   UNL A   1      31.944  28.438  23.187  1.00  0.00     0.061 A 
ATOM     37  C   UNL A   1      29.361  27.351  23.456  1.00  0.00     0.002 A 
ATOM     38  C   UNL A   1      30.811  29.140  22.744  1.00  0.00     0.022 A 
ATOM     39  Cl  UNL A   1      33.470  29.132  22.796  1.00  0.00    -0.083 Cl
ATOM     40  C   UNL A   1      29.527  28.609  22.894  1.00  0.00     0.002 A 
ENDBRANCH  31  34
ENDBRANCH  29  31
ENDBRANCH  17  29
ENDBRANCH   5   8
ENDBRANCH   3   4
ENDBRANCH   2   3
ENDBRANCH   1   2
BRANCH   1  41
ATOM     41  C   UNL A   1      40.572  25.419  27.801  1.00  0.00     0.002 C 
BRANCH  41  42
ATOM     42  C   UNL A   1      41.043  25.524  26.354  1.00  0.00     0.021 C 
BRANCH  42  43
ATOM     43  C   UNL A   1      42.443  26.059  26.132  1.00  0.00     0.116 C 
BRANCH  43  44
ATOM     44  N   UNL A   1      42.475  27.394  25.561  1.00  0.00    -0.352 N 
ATOM     45  C   UNL A   1      42.683  28.590  26.209  1.00  0.00     0.251 C 
ATOM     46  H   UNL A   1      42.331  27.451  24.589  1.00  0.00     0.163 HD
ATOM     47  O   UNL A   1      42.563  29.650  25.603  1.00  0.00    -0.269 OA
BRANCH  45  48
ATOM     48  C   UNL A   1      43.028  28.586  27.650  1.00  0.00     0.039 A 
ATOM     49  C   UNL A   1      42.006  28.565  28.600  1.00  0.00     0.014 A 
ATOM     50  C   UNL A   1      44.365  28.572  28.059  1.00  0.00     0.014 A 
ATOM     51  C   UNL A   1      42.327  28.491  29.960  1.00  0.00     0.010 A 
ATOM     52  C   UNL A   1      44.677  28.379  29.399  1.00  0.00     0.010 A 
ATOM     53  C   UNL A   1      43.665  28.380  30.370  1.00  0.00    -0.014 A 
BRANCH  53  54
ATOM     54  C   UNL A   1      44.051  28.361  31.805  1.00  0.00     0.031 A 
ATOM     55  C   UNL A   1      43.798  29.587  32.649  1.00  0.00     0.074 A 
ATOM     56  C   UNL A   1      44.689  27.297  32.331  1.00  0.00     0.049 A 
ATOM     57  N   UNL A   1      44.150  29.832  33.884  1.00  0.00    -0.248 NA
ATOM     58  C   UNL A   1      43.096  30.710  32.000  1.00  0.00     0.031 C 
ATOM     59  C   UNL A   1      45.069  26.084  31.602  1.00  0.00     0.029 A 
ATOM     60  N   UNL A   1      45.148  27.073  33.606  1.00  0.00    -0.354 N 
ATOM     61  C   UNL A   1      43.767  31.145  34.134  1.00  0.00     0.074 A 
ATOM     62  C   UNL A   1      43.208  31.666  32.907  1.00  0.00     0.031 C 
ATOM     63  C   UNL A   1      45.682  25.236  32.446  1.00  0.00     0.029 A 
ATOM     64  C   UNL A   1      45.760  25.852  33.767  1.00  0.00     0.049 A 
ATOM     65  H   UNL A   1      45.048  27.726  34.336  1.00  0.00     0.167 HD
ATOM     66  C   UNL A   1      43.819  31.843  35.293  1.00  0.00     0.034 A 
ATOM     67  C   UNL A   1      46.311  25.292  34.864  1.00  0.00     0.034 A 
ATOM     68  C   UNL A   1      44.276  31.286  36.534  1.00  0.00     0.049 A 
ATOM     69  C   UNL A   1      46.271  26.053  36.164  1.00  0.00     0.074 A 
ATOM     70  C   UNL A   1      44.292  31.871  37.787  1.00  0.00     0.029 A 
ATOM     71  N   UNL A   1      44.773  30.001  36.682  1.00  0.00    -0.354 N 
ATOM     72  N   UNL A   1      45.781  27.244  36.410  1.00  0.00    -0.248 NA
ATOM     73  C   UNL A   1      46.821  25.376  37.348  1.00  0.00     0.031 C 
ATOM     74  C   UNL A   1      44.791  30.932  38.697  1.00  0.00     0.029 A 
ATOM     75  C   UNL A   1      45.081  29.764  38.009  1.00  0.00     0.049 A 
ATOM     76  H   UNL A   1      44.889  29.353  35.950  1.00  0.00     0.167 HD
ATOM     77  C   UNL A   1      45.926  27.443  37.778  1.00  0.00     0.074 A 
ATOM     78  C   UNL A   1      46.531  26.239  38.312  1.00  0.00     0.031 C 
ATOM     79  C   UNL A   1      45.611  28.529  38.526  1.00  0.00     0.034 A 
BRANCH  66  80
ATOM     80  C   UNL A   1      43.275  33.249  35.286  1.00  0.00     0.023 A 
ATOM     81  C   UNL A   1      44.144  34.321  34.993  1.00  0.00     0.012 A 
ATOM     82  C   UNL A   1      41.914  33.511  35.534  1.00  0.00     0.148 A 
ATOM     83  C   UNL A   1      43.678  35.635  34.990  1.00  0.00     0.002 A 
ATOM     84  C   UNL A   1      41.447  34.820  35.483  1.00  0.00     0.091 A 
ATOM     85  F   UNL A   1      41.106  32.482  35.829  1.00  0.00    -0.205 F 
ATOM     86  C   UNL A   1      42.330  35.883  35.225  1.00  0.00     0.022 A 
BRANCH  84  87
ATOM     87  S   UNL A   1      39.714  35.242  35.695  1.00  0.00     0.127 S 
ATOM     88  O   UNL A   1      39.288  34.253  36.685  1.00  0.00    -0.237 OA
ATOM     89  O   UNL A   1      39.790  36.614  36.200  1.00  0.00    -0.237 OA
ATOM     90  O   UNL A   1      39.105  35.114  34.380  1.00  0.00    -0.744 OA
ENDBRANCH  84  87
ENDBRANCH  66  80
BRANCH  67  91
ATOM     91  C   UNL A   1      46.848  23.902  34.811  1.00  0.00     0.023 A 
ATOM     92  C   UNL A   1      45.958  22.819  34.964  1.00  0.00     0.012 A 
ATOM     93  C   UNL A   1      48.216  23.639  34.603  1.00  0.00     0.148 A 
ATOM     94  C   UNL A   1      46.423  21.504  34.947  1.00  0.00     0.002 A 
ATOM     95  C   UNL A   1      48.665  22.322  34.539  1.00  0.00     0.091 A 
ATOM     96  F   UNL A   1      49.054  24.677  34.477  1.00  0.00    -0.205 F 
ATOM     97  C   UNL A   1      47.774  21.255  34.726  1.00  0.00     0.022 A 
BRANCH  95  98
ATOM     98  S   UNL A   1      50.370  21.915  34.142  1.00  0.00     0.127 S 
ATOM     99  O   UNL A   1      51.080  22.422  35.312  1.00  0.00    -0.237 OA
ATOM    100  O   UNL A   1      50.323  20.456  34.036  1.00  0.00    -0.237 OA
ATOM    101  O   UNL A   1      50.646  22.595  32.884  1.00  0.00    -0.744 OA
ENDBRANCH  95  98
ENDBRANCH  67  91
BRANCH  79 102
ATOM    102  C   UNL A   1      45.869  28.459  40.005  1.00  0.00     0.023 A 
ATOM    103  C   UNL A   1      44.894  27.900  40.855  1.00  0.00     0.012 A 
ATOM    104  C   UNL A   1      47.108  28.860  40.538  1.00  0.00     0.148 A 
ATOM    105  C   UNL A   1      45.142  27.764  42.220  1.00  0.00     0.002 A 
ATOM    106  C   UNL A   1      47.365  28.682  41.892  1.00  0.00     0.091 A 
ATOM    107  F   UNL A   1      48.015  29.408  39.714  1.00  0.00    -0.205 F 
ATOM    108  C   UNL A   1      46.380  28.142  42.735  1.00  0.00     0.022 A 
BRANCH 106 109
ATOM    109  S   UNL A   1      48.964  29.051  42.622  1.00  0.00     0.127 S 
ATOM    110  O   UNL A   1      49.854  28.194  41.841  1.00  0.00    -0.237 OA
ATOM    111  O   UNL A   1      49.106  30.483  42.354  1.00  0.00    -0.237 OA
ATOM    112  O   UNL A   1      48.845  28.714  44.033  1.00  0.00    -0.744 OA
ENDBRANCH 106 109
ENDBRANCH  79 102
ENDBRANCH  53  54
ENDBRANCH  45  48
ENDBRANCH  43  44
ENDBRANCH  42  43
ENDBRANCH  41  42
ENDBRANCH   1  41
TORSDOF 23
ENDMDL
