MODEL 1
REMARK VINA RESULT:     -11.6      0.000      0.000
REMARK SMILES O=C(NCCCCCCNC(=O)c1ccc(-c2c3nc(c(-c4cccc(S(=O)(=O)[O-])c4F)c4ccc([nH]4)c(-c4cccc(S(=O)(=O)[O-])c4F)c4nc(c(-c5cccc(S(=O)(=O)[O-])c5F)c5ccc2[nH]5)C=C4)C=C3)cc1)c1ccc(NS(=O)(=O)C2=Cc3ccccc3CC2)cc1
REMARK SMILES IDX 6 1 5 2 4 3 3 4 1 5 2 6 76 8 77 9 95 10 78 11 94 12 79 13
REMARK SMILES IDX 80 14 81 16 82 17 83 18 84 19 85 20 93 21 86 22 92 23 87 24
REMARK SMILES IDX 91 25 88 26 90 27 89 28 7 29 8 30 9 31 10 32 11 33 12 35
REMARK SMILES IDX 13 36 14 37 75 38 15 39 74 40 16 41 17 42 18 43 68 44 19 45
REMARK SMILES IDX 73 46 67 47 69 48 20 49 72 50 66 51 65 52 21 54 53 55 33 56
REMARK SMILES IDX 52 57 34 58 37 59 51 60 70 61 35 62 36 63 50 65 71 66 38 67
REMARK SMILES IDX 22 68 23 69 31 70 24 71 26 72 32 73 25 74 27 75 28 76 29 77
REMARK SMILES IDX 30 78 54 79 55 80 63 81 56 82 58 83 64 84 57 85 59 86 60 87
REMARK SMILES IDX 61 88 62 89 39 90 40 91 48 92 41 93 43 94 49 95 42 96 44 97
REMARK SMILES IDX 45 98 46 99 47 100
REMARK H PARENT 3 7 80 15 10 34 69 53 37 64
REMARK Flexibility Score: inf
ROOT
ATOM      1  C   UNL A   1      33.513  27.947  25.089  1.00  0.00     0.002 C 
ENDROOT
BRANCH   1   2
ATOM      2  C   UNL A   1      33.609  29.106  24.094  1.00  0.00     0.021 C 
BRANCH   2   3
ATOM      3  C   UNL A   1      33.311  28.743  22.642  1.00  0.00     0.116 C 
BRANCH   3   4
ATOM      4  N   UNL A   1      32.048  29.304  22.188  1.00  0.00    -0.352 N 
ATOM      5  O   UNL A   1      29.863  29.258  21.623  1.00  0.00    -0.269 OA
ATOM      6  C   UNL A   1      30.803  28.730  22.210  1.00  0.00     0.251 C 
ATOM      7  H   UNL A   1      32.093  30.214  21.818  1.00  0.00     0.163 HD
BRANCH   6   8
ATOM      8  C   UNL A   1      30.585  27.471  22.955  1.00  0.00     0.039 A 
ATOM      9  C   UNL A   1      30.988  26.250  22.409  1.00  0.00     0.016 A 
ATOM     10  C   UNL A   1      30.066  27.518  24.252  1.00  0.00     0.016 A 
ATOM     11  C   UNL A   1      30.844  25.077  23.149  1.00  0.00     0.027 A 
ATOM     12  C   UNL A   1      29.909  26.334  24.984  1.00  0.00     0.027 A 
ATOM     13  C   UNL A   1      30.288  25.107  24.428  1.00  0.00     0.049 A 
BRANCH  13  14
ATOM     14  N   UNL A   1      30.295  23.931  25.243  1.00  0.00    -0.280 N 
ATOM     15  H   UNL A   1      29.467  23.415  25.360  1.00  0.00     0.180 HD
BRANCH  14  16
ATOM     16  S   UNL A   1      31.729  23.419  26.011  1.00  0.00     0.258 S 
ATOM     17  O   UNL A   1      32.630  24.540  25.841  1.00  0.00    -0.202 OA
ATOM     18  O   UNL A   1      31.313  23.056  27.356  1.00  0.00    -0.202 OA
BRANCH  16  19
ATOM     19  C   UNL A   1      32.343  21.991  25.179  1.00  0.00     0.066 C 
ATOM     20  C   UNL A   1      33.035  22.215  24.039  1.00  0.00     0.026 C 
ATOM     21  C   UNL A   1      32.875  20.904  26.081  1.00  0.00     0.055 C 
ATOM     22  C   UNL A   1      34.511  22.323  24.227  1.00  0.00    -0.021 A 
ATOM     23  C   UNL A   1      34.309  21.235  26.519  1.00  0.00     0.041 C 
ATOM     24  C   UNL A   1      35.291  22.870  23.203  1.00  0.00     0.008 A 
ATOM     25  C   UNL A   1      35.124  21.874  25.415  1.00  0.00    -0.040 A 
ATOM     26  C   UNL A   1      36.668  23.017  23.376  1.00  0.00     0.001 A 
ATOM     27  C   UNL A   1      36.502  22.051  25.586  1.00  0.00     0.004 A 
ATOM     28  C   UNL A   1      37.268  22.623  24.571  1.00  0.00     0.000 A 
ENDBRANCH  16  19
ENDBRANCH  14  16
ENDBRANCH  13  14
ENDBRANCH   6   8
ENDBRANCH   3   4
ENDBRANCH   2   3
ENDBRANCH   1   2
BRANCH   1  29
ATOM     29  C   UNL A   1      32.832  28.268  26.423  1.00  0.00     0.002 C 
BRANCH  29  30
ATOM     30  C   UNL A   1      33.694  29.000  27.455  1.00  0.00     0.021 C 
BRANCH  30  31
ATOM     31  C   UNL A   1      34.307  30.320  26.993  1.00  0.00     0.116 C 
BRANCH  31  32
ATOM     32  N   UNL A   1      34.091  31.403  27.936  1.00  0.00    -0.352 N 
ATOM     33  C   UNL A   1      34.809  31.739  29.058  1.00  0.00     0.251 C 
ATOM     34  H   UNL A   1      33.319  31.983  27.743  1.00  0.00     0.163 HD
ATOM     35  O   UNL A   1      34.395  32.623  29.803  1.00  0.00    -0.269 OA
BRANCH  33  36
ATOM     36  C   UNL A   1      36.062  31.022  29.387  1.00  0.00     0.039 A 
ATOM     37  C   UNL A   1      37.267  31.505  28.868  1.00  0.00     0.014 A 
ATOM     38  C   UNL A   1      36.056  29.876  30.188  1.00  0.00     0.014 A 
ATOM     39  C   UNL A   1      38.470  30.875  29.198  1.00  0.00     0.010 A 
ATOM     40  C   UNL A   1      37.260  29.285  30.565  1.00  0.00     0.010 A 
ATOM     41  C   UNL A   1      38.480  29.777  30.072  1.00  0.00    -0.014 A 
BRANCH  41  42
ATOM     42  C   UNL A   1      39.753  29.138  30.494  1.00  0.00     0.031 A 
ATOM     43  C   UNL A   1      40.499  29.649  31.696  1.00  0.00     0.074 A 
ATOM     44  C   UNL A   1      40.283  28.153  29.742  1.00  0.00     0.049 A 
ATOM     45  N   UNL A   1      41.655  29.266  32.173  1.00  0.00    -0.248 NA
ATOM     46  C   UNL A   1      39.877  30.752  32.448  1.00  0.00     0.031 C 
ATOM     47  C   UNL A   1      39.699  27.626  28.507  1.00  0.00     0.029 A 
ATOM     48  N   UNL A   1      41.450  27.445  29.886  1.00  0.00    -0.354 N 
ATOM     49  C   UNL A   1      41.914  30.094  33.257  1.00  0.00     0.074 A 
ATOM     50  C   UNL A   1      40.809  31.025  33.349  1.00  0.00     0.031 C 
ATOM     51  C   UNL A   1      40.514  26.685  28.003  1.00  0.00     0.029 A 
ATOM     52  C   UNL A   1      41.685  26.556  28.863  1.00  0.00     0.049 A 
ATOM     53  H   UNL A   1      42.060  27.560  30.650  1.00  0.00     0.167 HD
ATOM     54  C   UNL A   1      42.957  30.065  34.120  1.00  0.00     0.034 A 
ATOM     55  C   UNL A   1      42.730  25.734  28.639  1.00  0.00     0.034 A 
ATOM     56  C   UNL A   1      44.031  29.110  34.057  1.00  0.00     0.049 A 
ATOM     57  C   UNL A   1      43.849  25.680  29.644  1.00  0.00     0.074 A 
ATOM     58  C   UNL A   1      45.096  28.953  34.927  1.00  0.00     0.029 A 
ATOM     59  N   UNL A   1      44.176  28.147  33.070  1.00  0.00    -0.354 N 
ATOM     60  N   UNL A   1      43.996  26.368  30.749  1.00  0.00    -0.248 NA
ATOM     61  C   UNL A   1      44.923  24.706  29.394  1.00  0.00     0.031 C 
ATOM     62  C   UNL A   1      45.887  27.895  34.463  1.00  0.00     0.029 A 
ATOM     63  C   UNL A   1      45.310  27.389  33.310  1.00  0.00     0.049 A 
ATOM     64  H   UNL A   1      43.563  28.020  32.310  1.00  0.00     0.167 HD
ATOM     65  C   UNL A   1      45.161  25.892  31.342  1.00  0.00     0.074 A 
ATOM     66  C   UNL A   1      45.666  24.838  30.486  1.00  0.00     0.031 C 
ATOM     67  C   UNL A   1      45.767  26.304  32.483  1.00  0.00     0.034 A 
BRANCH  54  68
ATOM     68  C   UNL A   1      42.950  31.051  35.258  1.00  0.00     0.023 A 
ATOM     69  C   UNL A   1      42.276  30.717  36.450  1.00  0.00     0.012 A 
ATOM     70  C   UNL A   1      43.650  32.271  35.177  1.00  0.00     0.148 A 
ATOM     71  C   UNL A   1      42.272  31.593  37.534  1.00  0.00     0.002 A 
ATOM     72  C   UNL A   1      43.674  33.122  36.277  1.00  0.00     0.091 A 
ATOM     73  F   UNL A   1      44.265  32.582  34.028  1.00  0.00    -0.205 F 
ATOM     74  C   UNL A   1      42.979  32.789  37.451  1.00  0.00     0.022 A 
BRANCH  72  75
ATOM     75  S   UNL A   1      44.614  34.653  36.294  1.00  0.00     0.127 S 
ATOM     76  O   UNL A   1      44.600  34.992  37.716  1.00  0.00    -0.237 OA
ATOM     77  O   UNL A   1      45.916  34.223  35.783  1.00  0.00    -0.237 OA
ATOM     78  O   UNL A   1      43.896  35.572  35.423  1.00  0.00    -0.744 OA
ENDBRANCH  72  75
ENDBRANCH  54  68
BRANCH  55  79
ATOM     79  C   UNL A   1      42.728  24.846  27.443  1.00  0.00     0.023 A 
ATOM     80  C   UNL A   1      43.311  25.299  26.244  1.00  0.00     0.012 A 
ATOM     81  C   UNL A   1      42.191  23.545  27.496  1.00  0.00     0.148 A 
ATOM     82  C   UNL A   1      43.334  24.484  25.112  1.00  0.00     0.002 A 
ATOM     83  C   UNL A   1      42.268  22.717  26.381  1.00  0.00     0.091 A 
ATOM     84  F   UNL A   1      41.624  23.135  28.640  1.00  0.00    -0.205 F 
ATOM     85  C   UNL A   1      42.824  23.191  25.183  1.00  0.00     0.022 A 
BRANCH  83  86
ATOM     86  S   UNL A   1      41.762  20.994  26.439  1.00  0.00     0.127 S 
ATOM     87  O   UNL A   1      40.336  21.089  26.142  1.00  0.00    -0.237 OA
ATOM     88  O   UNL A   1      42.575  20.398  25.379  1.00  0.00    -0.237 OA
ATOM     89  O   UNL A   1      42.108  20.538  27.778  1.00  0.00    -0.744 OA
ENDBRANCH  83  86
ENDBRANCH  55  79
BRANCH  67  90
ATOM     90  C   UNL A   1      47.035  25.603  32.892  1.00  0.00     0.023 A 
ATOM     91  C   UNL A   1      48.277  26.101  32.453  1.00  0.00     0.012 A 
ATOM     92  C   UNL A   1      47.002  24.502  33.770  1.00  0.00     0.148 A 
ATOM     93  C   UNL A   1      49.467  25.499  32.862  1.00  0.00     0.002 A 
ATOM     94  C   UNL A   1      48.192  23.933  34.207  1.00  0.00     0.091 A 
ATOM     95  F   UNL A   1      45.809  24.028  34.158  1.00  0.00    -0.205 F 
ATOM     96  C   UNL A   1      49.425  24.424  33.746  1.00  0.00     0.022 A 
BRANCH  94  97
ATOM     97  S   UNL A   1      48.233  22.604  35.415  1.00  0.00     0.127 S 
ATOM     98  O   UNL A   1      49.671  22.397  35.582  1.00  0.00    -0.237 OA
ATOM     99  O   UNL A   1      47.565  23.208  36.569  1.00  0.00    -0.237 OA
ATOM    100  O   UNL A   1      47.504  21.496  34.811  1.00  0.00    -0.744 OA
ENDBRANCH  94  97
ENDBRANCH  67  90
ENDBRANCH  41  42
ENDBRANCH  33  36
ENDBRANCH  31  32
ENDBRANCH  30  31
ENDBRANCH  29  30
ENDBRANCH   1  29
TORSDOF 19
ENDMDL
MODEL 2
REMARK VINA RESULT:     -11.3      3.544      8.375
REMARK SMILES O=C(NCCCCCCNC(=O)c1ccc(-c2c3nc(c(-c4cccc(S(=O)(=O)[O-])c4F)c4ccc([nH]4)c(-c4cccc(S(=O)(=O)[O-])c4F)c4nc(c(-c5cccc(S(=O)(=O)[O-])c5F)c5ccc2[nH]5)C=C4)C=C3)cc1)c1ccc(NS(=O)(=O)C2=Cc3ccccc3CC2)cc1
REMARK SMILES IDX 6 1 5 2 4 3 3 4 1 5 2 6 76 8 77 9 95 10 78 11 94 12 79 13
REMARK SMILES IDX 80 14 81 16 82 17 83 18 84 19 85 20 93 21 86 22 92 23 87 24
REMARK SMILES IDX 91 25 88 26 90 27 89 28 7 29 8 30 9 31 10 32 11 33 12 35
REMARK SMILES IDX 13 36 14 37 75 38 15 39 74 40 16 41 17 42 18 43 68 44 19 45
REMARK SMILES IDX 73 46 67 47 69 48 20 49 72 50 66 51 65 52 21 54 53 55 33 56
REMARK SMILES IDX 52 57 34 58 37 59 51 60 70 61 35 62 36 63 50 65 71 66 38 67
REMARK SMILES IDX 22 68 23 69 31 70 24 71 26 72 32 73 25 74 27 75 28 76 29 77
REMARK SMILES IDX 30 78 54 79 55 80 63 81 56 82 58 83 64 84 57 85 59 86 60 87
REMARK SMILES IDX 61 88 62 89 39 90 40 91 48 92 41 93 43 94 49 95 42 96 44 97
REMARK SMILES IDX 45 98 46 99 47 100
REMARK H PARENT 3 7 80 15 10 34 69 53 37 64
REMARK Flexibility Score: inf
ROOT
ATOM      1  C   UNL A   1      31.034  30.516  25.690  1.00  0.00     0.002 C 
ENDROOT
BRANCH   1   2
ATOM      2  C   UNL A   1      32.320  29.690  25.599  1.00  0.00     0.021 C 
BRANCH   2   3
ATOM      3  C   UNL A   1      32.694  29.219  24.197  1.00  0.00     0.116 C 
BRANCH   3   4
ATOM      4  N   UNL A   1      31.719  29.639  23.203  1.00  0.00    -0.352 N 
ATOM      5  O   UNL A   1      30.241  29.350  21.522  1.00  0.00    -0.269 OA
ATOM      6  C   UNL A   1      30.877  28.862  22.451  1.00  0.00     0.251 C 
ATOM      7  H   UNL A   1      31.656  30.609  23.051  1.00  0.00     0.163 HD
BRANCH   6   8
ATOM      8  C   UNL A   1      30.724  27.424  22.766  1.00  0.00     0.039 A 
ATOM      9  C   UNL A   1      31.627  26.490  22.255  1.00  0.00     0.016 A 
ATOM     10  C   UNL A   1      29.730  27.017  23.662  1.00  0.00     0.016 A 
ATOM     11  C   UNL A   1      31.517  25.147  22.616  1.00  0.00     0.027 A 
ATOM     12  C   UNL A   1      29.615  25.664  24.008  1.00  0.00     0.027 A 
ATOM     13  C   UNL A   1      30.503  24.723  23.476  1.00  0.00     0.049 A 
BRANCH  13  14
ATOM     14  N   UNL A   1      30.496  23.382  23.971  1.00  0.00    -0.280 N 
ATOM     15  H   UNL A   1      30.040  22.676  23.459  1.00  0.00     0.180 HD
BRANCH  14  16
ATOM     16  S   UNL A   1      31.270  22.996  25.441  1.00  0.00     0.258 S 
ATOM     17  O   UNL A   1      31.384  24.273  26.114  1.00  0.00    -0.202 OA
ATOM     18  O   UNL A   1      30.432  21.967  26.035  1.00  0.00    -0.202 OA
BRANCH  16  19
ATOM     19  C   UNL A   1      32.863  22.329  25.088  1.00  0.00     0.066 C 
ATOM     20  C   UNL A   1      33.235  21.251  25.813  1.00  0.00     0.026 C 
ATOM     21  C   UNL A   1      33.240  22.313  23.626  1.00  0.00     0.055 C 
ATOM     22  C   UNL A   1      32.919  19.941  25.174  1.00  0.00    -0.021 A 
ATOM     23  C   UNL A   1      32.606  21.101  22.930  1.00  0.00     0.041 C 
ATOM     24  C   UNL A   1      32.950  18.777  25.950  1.00  0.00     0.008 A 
ATOM     25  C   UNL A   1      32.600  19.863  23.802  1.00  0.00    -0.040 A 
ATOM     26  C   UNL A   1      32.617  17.548  25.379  1.00  0.00     0.001 A 
ATOM     27  C   UNL A   1      32.244  18.628  23.249  1.00  0.00     0.004 A 
ATOM     28  C   UNL A   1      32.250  17.477  24.036  1.00  0.00     0.000 A 
ENDBRANCH  16  19
ENDBRANCH  14  16
ENDBRANCH  13  14
ENDBRANCH   6   8
ENDBRANCH   3   4
ENDBRANCH   2   3
ENDBRANCH   1   2
BRANCH   1  29
ATOM     29  C   UNL A   1      31.144  31.839  26.453  1.00  0.00     0.002 C 
BRANCH  29  30
ATOM     30  C   UNL A   1      32.359  31.982  27.374  1.00  0.00     0.021 C 
BRANCH  30  31
ATOM     31  C   UNL A   1      33.254  33.190  27.110  1.00  0.00     0.116 C 
BRANCH  31  32
ATOM     32  N   UNL A   1      32.773  34.401  27.752  1.00  0.00    -0.352 N 
ATOM     33  C   UNL A   1      33.182  34.988  28.925  1.00  0.00     0.251 C 
ATOM     34  H   UNL A   1      32.049  34.870  27.278  1.00  0.00     0.163 HD
ATOM     35  O   UNL A   1      32.565  35.952  29.370  1.00  0.00    -0.269 OA
BRANCH  33  36
ATOM     36  C   UNL A   1      34.345  34.448  29.666  1.00  0.00     0.039 A 
ATOM     37  C   UNL A   1      34.114  33.737  30.848  1.00  0.00     0.014 A 
ATOM     38  C   UNL A   1      35.653  34.647  29.215  1.00  0.00     0.014 A 
ATOM     39  C   UNL A   1      35.188  33.178  31.546  1.00  0.00     0.010 A 
ATOM     40  C   UNL A   1      36.717  34.037  29.877  1.00  0.00     0.010 A 
ATOM     41  C   UNL A   1      36.496  33.299  31.051  1.00  0.00    -0.014 A 
BRANCH  41  42
ATOM     42  C   UNL A   1      37.642  32.649  31.736  1.00  0.00     0.031 A 
ATOM     43  C   UNL A   1      38.341  31.475  31.106  1.00  0.00     0.074 A 
ATOM     44  C   UNL A   1      38.000  33.062  32.969  1.00  0.00     0.049 A 
ATOM     45  N   UNL A   1      39.310  30.739  31.585  1.00  0.00    -0.248 NA
ATOM     46  C   UNL A   1      37.871  31.057  29.775  1.00  0.00     0.031 C 
ATOM     47  C   UNL A   1      37.348  34.135  33.722  1.00  0.00     0.029 A 
ATOM     48  N   UNL A   1      38.976  32.605  33.819  1.00  0.00    -0.354 N 
ATOM     49  C   UNL A   1      39.549  29.757  30.632  1.00  0.00     0.074 A 
ATOM     50  C   UNL A   1      38.598  29.970  29.561  1.00  0.00     0.031 C 
ATOM     51  C   UNL A   1      37.936  34.247  34.925  1.00  0.00     0.029 A 
ATOM     52  C   UNL A   1      38.990  33.244  35.037  1.00  0.00     0.049 A 
ATOM     53  H   UNL A   1      39.607  31.889  33.579  1.00  0.00     0.167 HD
ATOM     54  C   UNL A   1      40.493  28.786  30.629  1.00  0.00     0.034 A 
ATOM     55  C   UNL A   1      39.759  33.041  36.125  1.00  0.00     0.034 A 
ATOM     56  C   UNL A   1      41.467  28.604  31.671  1.00  0.00     0.049 A 
ATOM     57  C   UNL A   1      40.839  31.995  36.074  1.00  0.00     0.074 A 
ATOM     58  C   UNL A   1      42.510  27.695  31.726  1.00  0.00     0.029 A 
ATOM     59  N   UNL A   1      41.523  29.347  32.840  1.00  0.00    -0.354 N 
ATOM     60  N   UNL A   1      41.147  31.177  35.097  1.00  0.00    -0.248 NA
ATOM     61  C   UNL A   1      41.705  31.871  37.257  1.00  0.00     0.031 C 
ATOM     62  C   UNL A   1      43.194  27.887  32.932  1.00  0.00     0.029 A 
ATOM     63  C   UNL A   1      42.584  28.921  33.622  1.00  0.00     0.049 A 
ATOM     64  H   UNL A   1      40.901  30.071  33.080  1.00  0.00     0.167 HD
ATOM     65  C   UNL A   1      42.258  30.463  35.534  1.00  0.00     0.074 A 
ATOM     66  C   UNL A   1      42.585  30.964  36.853  1.00  0.00     0.031 C 
ATOM     67  C   UNL A   1      42.934  29.470  34.906  1.00  0.00     0.034 A 
BRANCH  54  68
ATOM     68  C   UNL A   1      40.567  27.889  29.423  1.00  0.00     0.023 A 
ATOM     69  C   UNL A   1      39.721  26.763  29.353  1.00  0.00     0.012 A 
ATOM     70  C   UNL A   1      41.418  28.182  28.340  1.00  0.00     0.148 A 
ATOM     71  C   UNL A   1      39.742  25.925  28.239  1.00  0.00     0.002 A 
ATOM     72  C   UNL A   1      41.404  27.364  27.215  1.00  0.00     0.091 A 
ATOM     73  F   UNL A   1      42.232  29.243  28.433  1.00  0.00    -0.205 F 
ATOM     74  C   UNL A   1      40.575  26.232  27.167  1.00  0.00     0.022 A 
BRANCH  72  75
ATOM     75  S   UNL A   1      42.390  27.713  25.753  1.00  0.00     0.127 S 
ATOM     76  O   UNL A   1      43.749  27.597  26.279  1.00  0.00    -0.237 OA
ATOM     77  O   UNL A   1      41.993  26.635  24.847  1.00  0.00    -0.237 OA
ATOM     78  O   UNL A   1      41.997  29.045  25.317  1.00  0.00    -0.744 OA
ENDBRANCH  72  75
ENDBRANCH  54  68
BRANCH  55  79
ATOM     79  C   UNL A   1      39.578  33.900  37.329  1.00  0.00     0.023 A 
ATOM     80  C   UNL A   1      40.044  35.228  37.308  1.00  0.00     0.012 A 
ATOM     81  C   UNL A   1      38.913  33.424  38.476  1.00  0.00     0.148 A 
ATOM     82  C   UNL A   1      39.877  36.058  38.417  1.00  0.00     0.002 A 
ATOM     83  C   UNL A   1      38.700  34.274  39.556  1.00  0.00     0.091 A 
ATOM     84  F   UNL A   1      38.491  32.151  38.487  1.00  0.00    -0.205 F 
ATOM     85  C   UNL A   1      39.196  35.586  39.535  1.00  0.00     0.022 A 
BRANCH  83  86
ATOM     86  S   UNL A   1      37.708  33.782  40.971  1.00  0.00     0.127 S 
ATOM     87  O   UNL A   1      37.475  35.062  41.634  1.00  0.00    -0.237 OA
ATOM     88  O   UNL A   1      36.529  33.196  40.333  1.00  0.00    -0.237 OA
ATOM     89  O   UNL A   1      38.526  32.822  41.699  1.00  0.00    -0.744 OA
ENDBRANCH  83  86
ENDBRANCH  55  79
BRANCH  67  90
ATOM     90  C   UNL A   1      44.113  28.866  35.622  1.00  0.00     0.023 A 
ATOM     91  C   UNL A   1      45.396  29.418  35.437  1.00  0.00     0.012 A 
ATOM     92  C   UNL A   1      43.940  27.807  36.535  1.00  0.00     0.148 A 
ATOM     93  C   UNL A   1      46.493  28.908  36.130  1.00  0.00     0.002 A 
ATOM     94  C   UNL A   1      45.031  27.332  37.253  1.00  0.00     0.091 A 
ATOM     95  F   UNL A   1      42.715  27.281  36.681  1.00  0.00    -0.205 F 
ATOM     96  C   UNL A   1      46.309  27.875  37.045  1.00  0.00     0.022 A 
BRANCH  94  97
ATOM     97  S   UNL A   1      44.868  26.065  38.517  1.00  0.00     0.127 S 
ATOM     98  O   UNL A   1      44.036  26.740  39.511  1.00  0.00    -0.237 OA
ATOM     99  O   UNL A   1      44.197  24.984  37.792  1.00  0.00    -0.237 OA
ATOM    100  O   UNL A   1      46.226  25.751  38.941  1.00  0.00    -0.744 OA
ENDBRANCH  94  97
ENDBRANCH  67  90
ENDBRANCH  41  42
ENDBRANCH  33  36
ENDBRANCH  31  32
ENDBRANCH  30  31
ENDBRANCH  29  30
ENDBRANCH   1  29
TORSDOF 19
ENDMDL
MODEL 3
REMARK VINA RESULT:     -11.2      4.130      7.509
REMARK SMILES O=C(NCCCCCCNC(=O)c1ccc(-c2c3nc(c(-c4cccc(S(=O)(=O)[O-])c4F)c4ccc([nH]4)c(-c4cccc(S(=O)(=O)[O-])c4F)c4nc(c(-c5cccc(S(=O)(=O)[O-])c5F)c5ccc2[nH]5)C=C4)C=C3)cc1)c1ccc(NS(=O)(=O)C2=Cc3ccccc3CC2)cc1
REMARK SMILES IDX 6 1 5 2 4 3 3 4 1 5 2 6 76 8 77 9 95 10 78 11 94 12 79 13
REMARK SMILES IDX 80 14 81 16 82 17 83 18 84 19 85 20 93 21 86 22 92 23 87 24
REMARK SMILES IDX 91 25 88 26 90 27 89 28 7 29 8 30 9 31 10 32 11 33 12 35
REMARK SMILES IDX 13 36 14 37 75 38 15 39 74 40 16 41 17 42 18 43 68 44 19 45
REMARK SMILES IDX 73 46 67 47 69 48 20 49 72 50 66 51 65 52 21 54 53 55 33 56
REMARK SMILES IDX 52 57 34 58 37 59 51 60 70 61 35 62 36 63 50 65 71 66 38 67
REMARK SMILES IDX 22 68 23 69 31 70 24 71 26 72 32 73 25 74 27 75 28 76 29 77
REMARK SMILES IDX 30 78 54 79 55 80 63 81 56 82 58 83 64 84 57 85 59 86 60 87
REMARK SMILES IDX 61 88 62 89 39 90 40 91 48 92 41 93 43 94 49 95 42 96 44 97
REMARK SMILES IDX 45 98 46 99 47 100
REMARK H PARENT 3 7 80 15 10 34 69 53 37 64
REMARK Flexibility Score: inf
ROOT
ATOM      1  C   UNL A   1      37.855  33.815  29.142  1.00  0.00     0.002 C 
ENDROOT
BRANCH   1   2
ATOM      2  C   UNL A   1      38.137  33.684  30.641  1.00  0.00     0.021 C 
BRANCH   2   3
ATOM      3  C   UNL A   1      37.387  32.559  31.349  1.00  0.00     0.116 C 
BRANCH   3   4
ATOM      4  N   UNL A   1      36.921  32.959  32.666  1.00  0.00    -0.352 N 
ATOM      5  O   UNL A   1      36.569  32.721  34.883  1.00  0.00    -0.269 OA
ATOM      6  C   UNL A   1      37.183  32.376  33.879  1.00  0.00     0.251 C 
ATOM      7  H   UNL A   1      36.340  33.754  32.691  1.00  0.00     0.163 HD
BRANCH   6   8
ATOM      8  C   UNL A   1      38.224  31.329  33.982  1.00  0.00     0.039 A 
ATOM      9  C   UNL A   1      38.011  30.065  33.427  1.00  0.00     0.016 A 
ATOM     10  C   UNL A   1      39.463  31.642  34.549  1.00  0.00     0.016 A 
ATOM     11  C   UNL A   1      39.025  29.109  33.467  1.00  0.00     0.027 A 
ATOM     12  C   UNL A   1      40.472  30.672  34.599  1.00  0.00     0.027 A 
ATOM     13  C   UNL A   1      40.250  29.397  34.068  1.00  0.00     0.049 A 
BRANCH  13  14
ATOM     14  N   UNL A   1      41.338  28.474  33.959  1.00  0.00    -0.280 N 
ATOM     15  H   UNL A   1      41.881  28.456  33.140  1.00  0.00     0.180 HD
BRANCH  14  16
ATOM     16  S   UNL A   1      41.698  27.405  35.238  1.00  0.00     0.258 S 
ATOM     17  O   UNL A   1      41.184  28.086  36.409  1.00  0.00    -0.202 OA
ATOM     18  O   UNL A   1      41.093  26.145  34.842  1.00  0.00    -0.202 OA
BRANCH  16  19
ATOM     19  C   UNL A   1      43.448  27.213  35.344  1.00  0.00     0.066 C 
ATOM     20  C   UNL A   1      43.890  26.153  36.056  1.00  0.00     0.026 C 
ATOM     21  C   UNL A   1      44.204  27.529  34.076  1.00  0.00     0.055 C 
ATOM     22  C   UNL A   1      44.146  24.929  35.243  1.00  0.00    -0.021 A 
ATOM     23  C   UNL A   1      44.154  26.330  33.118  1.00  0.00     0.041 C 
ATOM     24  C   UNL A   1      44.286  23.696  35.890  1.00  0.00     0.008 A 
ATOM     25  C   UNL A   1      44.254  25.003  33.838  1.00  0.00    -0.040 A 
ATOM     26  C   UNL A   1      44.484  22.534  35.143  1.00  0.00     0.001 A 
ATOM     27  C   UNL A   1      44.427  23.826  33.101  1.00  0.00     0.004 A 
ATOM     28  C   UNL A   1      44.539  22.598  33.752  1.00  0.00     0.000 A 
ENDBRANCH  16  19
ENDBRANCH  14  16
ENDBRANCH  13  14
ENDBRANCH   6   8
ENDBRANCH   3   4
ENDBRANCH   2   3
ENDBRANCH   1   2
BRANCH   1  29
ATOM     29  C   UNL A   1      36.467  34.343  28.767  1.00  0.00     0.002 C 
BRANCH  29  30
ATOM     30  C   UNL A   1      35.517  33.330  28.123  1.00  0.00     0.021 C 
BRANCH  30  31
ATOM     31  C   UNL A   1      34.698  32.478  29.090  1.00  0.00     0.116 C 
BRANCH  31  32
ATOM     32  N   UNL A   1      34.093  31.322  28.451  1.00  0.00    -0.352 N 
ATOM     33  C   UNL A   1      34.674  30.145  28.047  1.00  0.00     0.251 C 
ATOM     34  H   UNL A   1      33.125  31.391  28.284  1.00  0.00     0.163 HD
ATOM     35  O   UNL A   1      34.016  29.329  27.409  1.00  0.00    -0.269 OA
BRANCH  33  36
ATOM     36  C   UNL A   1      36.097  29.869  28.352  1.00  0.00     0.039 A 
ATOM     37  C   UNL A   1      36.424  29.349  29.608  1.00  0.00     0.014 A 
ATOM     38  C   UNL A   1      37.105  30.131  27.420  1.00  0.00     0.014 A 
ATOM     39  C   UNL A   1      37.753  29.037  29.908  1.00  0.00     0.010 A 
ATOM     40  C   UNL A   1      38.421  29.764  27.698  1.00  0.00     0.010 A 
ATOM     41  C   UNL A   1      38.759  29.216  28.946  1.00  0.00    -0.014 A 
BRANCH  41  42
ATOM     42  C   UNL A   1      40.165  28.822  29.218  1.00  0.00     0.031 A 
ATOM     43  C   UNL A   1      41.049  29.694  30.068  1.00  0.00     0.074 A 
ATOM     44  C   UNL A   1      40.674  27.723  28.627  1.00  0.00     0.049 A 
ATOM     45  N   UNL A   1      42.316  29.550  30.356  1.00  0.00    -0.248 NA
ATOM     46  C   UNL A   1      40.435  30.899  30.651  1.00  0.00     0.031 C 
ATOM     47  C   UNL A   1      39.943  26.840  27.714  1.00  0.00     0.029 A 
ATOM     48  N   UNL A   1      41.933  27.179  28.677  1.00  0.00    -0.354 N 
ATOM     49  C   UNL A   1      42.660  30.654  31.126  1.00  0.00     0.074 A 
ATOM     50  C   UNL A   1      41.475  31.478  31.232  1.00  0.00     0.031 C 
ATOM     51  C   UNL A   1      40.769  25.873  27.284  1.00  0.00     0.029 A 
ATOM     52  C   UNL A   1      42.090  26.076  27.871  1.00  0.00     0.049 A 
ATOM     53  H   UNL A   1      42.655  27.544  29.237  1.00  0.00     0.167 HD
ATOM     54  C   UNL A   1      43.843  30.942  31.719  1.00  0.00     0.034 A 
ATOM     55  C   UNL A   1      43.176  25.316  27.626  1.00  0.00     0.034 A 
ATOM     56  C   UNL A   1      45.006  30.099  31.652  1.00  0.00     0.049 A 
ATOM     57  C   UNL A   1      44.462  25.624  28.343  1.00  0.00     0.074 A 
ATOM     58  C   UNL A   1      46.229  30.269  32.279  1.00  0.00     0.029 A 
ATOM     59  N   UNL A   1      45.093  28.926  30.919  1.00  0.00    -0.354 N 
ATOM     60  N   UNL A   1      44.722  26.589  29.191  1.00  0.00    -0.248 NA
ATOM     61  C   UNL A   1      45.594  24.715  28.105  1.00  0.00     0.031 C 
ATOM     62  C   UNL A   1      47.056  29.198  31.920  1.00  0.00     0.029 A 
ATOM     63  C   UNL A   1      46.345  28.358  31.079  1.00  0.00     0.049 A 
ATOM     64  H   UNL A   1      44.370  28.552  30.366  1.00  0.00     0.167 HD
ATOM     65  C   UNL A   1      46.033  26.388  29.610  1.00  0.00     0.074 A 
ATOM     66  C   UNL A   1      46.505  25.193  28.942  1.00  0.00     0.031 C 
ATOM     67  C   UNL A   1      46.782  27.136  30.456  1.00  0.00     0.034 A 
BRANCH  54  68
ATOM     68  C   UNL A   1      43.916  32.189  32.560  1.00  0.00     0.023 A 
ATOM     69  C   UNL A   1      44.051  33.439  31.921  1.00  0.00     0.012 A 
ATOM     70  C   UNL A   1      43.793  32.139  33.962  1.00  0.00     0.148 A 
ATOM     71  C   UNL A   1      44.094  34.617  32.665  1.00  0.00     0.002 A 
ATOM     72  C   UNL A   1      43.796  33.321  34.694  1.00  0.00     0.091 A 
ATOM     73  F   UNL A   1      43.688  30.941  34.553  1.00  0.00    -0.205 F 
ATOM     74  C   UNL A   1      43.956  34.559  34.049  1.00  0.00     0.022 A 
BRANCH  72  75
ATOM     75  S   UNL A   1      43.555  33.357  36.474  1.00  0.00     0.127 S 
ATOM     76  O   UNL A   1      43.519  34.795  36.738  1.00  0.00    -0.237 OA
ATOM     77  O   UNL A   1      42.268  32.677  36.626  1.00  0.00    -0.237 OA
ATOM     78  O   UNL A   1      44.688  32.643  37.044  1.00  0.00    -0.744 OA
ENDBRANCH  72  75
ENDBRANCH  54  68
BRANCH  55  79
ATOM     79  C   UNL A   1      43.069  24.147  26.709  1.00  0.00     0.023 A 
ATOM     80  C   UNL A   1      43.700  24.194  25.451  1.00  0.00     0.012 A 
ATOM     81  C   UNL A   1      42.383  22.977  27.089  1.00  0.00     0.148 A 
ATOM     82  C   UNL A   1      43.627  23.110  24.577  1.00  0.00     0.002 A 
ATOM     83  C   UNL A   1      42.361  21.879  26.235  1.00  0.00     0.091 A 
ATOM     84  F   UNL A   1      41.773  22.955  28.282  1.00  0.00    -0.205 F 
ATOM     85  C   UNL A   1      42.968  21.950  24.973  1.00  0.00     0.022 A 
BRANCH  83  86
ATOM     86  S   UNL A   1      41.657  20.303  26.733  1.00  0.00     0.127 S 
ATOM     87  O   UNL A   1      42.524  19.924  27.845  1.00  0.00    -0.237 OA
ATOM     88  O   UNL A   1      40.295  20.679  27.114  1.00  0.00    -0.237 OA
ATOM     89  O   UNL A   1      41.729  19.458  25.548  1.00  0.00    -0.744 OA
ENDBRANCH  83  86
ENDBRANCH  55  79
BRANCH  67  90
ATOM     90  C   UNL A   1      48.189  26.679  30.732  1.00  0.00     0.023 A 
ATOM     91  C   UNL A   1      49.259  27.246  30.012  1.00  0.00     0.012 A 
ATOM     92  C   UNL A   1      48.460  25.748  31.755  1.00  0.00     0.148 A 
ATOM     93  C   UNL A   1      50.575  26.875  30.288  1.00  0.00     0.002 A 
ATOM     94  C   UNL A   1      49.776  25.414  32.052  1.00  0.00     0.091 A 
ATOM     95  F   UNL A   1      47.427  25.202  32.413  1.00  0.00    -0.205 F 
ATOM     96  C   UNL A   1      50.833  25.970  31.313  1.00  0.00     0.022 A 
BRANCH  94  97
ATOM     97  S   UNL A   1      50.204  24.325  33.415  1.00  0.00     0.127 S 
ATOM     98  O   UNL A   1      51.333  25.032  34.018  1.00  0.00    -0.237 OA
ATOM     99  O   UNL A   1      48.981  24.332  34.219  1.00  0.00    -0.237 OA
ATOM    100  O   UNL A   1      50.518  23.038  32.811  1.00  0.00    -0.744 OA
ENDBRANCH  94  97
ENDBRANCH  67  90
ENDBRANCH  41  42
ENDBRANCH  33  36
ENDBRANCH  31  32
ENDBRANCH  30  31
ENDBRANCH  29  30
ENDBRANCH   1  29
TORSDOF 19
ENDMDL
