MODEL 1
REMARK VINA RESULT:     -11.8      0.000      0.000
REMARK SMILES COc1cc2c(cc1OC)[C@H](C(=O)NCCCCCCNC(=O)c1ccc(-c3c4nc(c(-c5cccc(S(=O)(=O)[O-])c5F)c5ccc([nH]5)c(-c5cccc(S(=O)(=O)[O-])c5F)c5nc(c(-c6cccc(S(=O)(=O)[O-])c6F)c6ccc3[nH]6)C=C5)C=C4)cc1)[C@H](c1cccc(Cl)c1)N(C)C2=O
REMARK SMILES IDX 18 1 17 2 16 3 15 4 14 5 12 6 13 7 11 9 3 10 4 11 8 12 5 13
REMARK SMILES IDX 7 14 6 15 97 16 95 17 98 18 87 19 96 20 2 21 1 22 9 23 10 24
REMARK SMILES IDX 88 25 89 26 94 27 90 28 92 29 91 30 93 31 19 32 20 33 21 34
REMARK SMILES IDX 22 35 23 37 24 38 25 39 86 40 26 41 85 42 27 43 28 44 29 45
REMARK SMILES IDX 79 46 30 47 84 48 78 49 80 50 31 51 83 52 77 53 76 54 32 56
REMARK SMILES IDX 64 57 44 58 63 59 45 60 48 61 62 62 81 63 46 64 47 65 61 67
REMARK SMILES IDX 82 68 49 69 33 70 34 71 42 72 35 73 37 74 43 75 36 76 38 77
REMARK SMILES IDX 39 78 40 79 41 80 65 81 66 82 74 83 67 84 69 85 75 86 68 87
REMARK SMILES IDX 70 88 71 89 72 90 73 91 50 92 51 93 59 94 52 95 54 96 60 97
REMARK SMILES IDX 53 98 55 99 56 100 57 101 58 102
REMARK H PARENT 14 8 21 36 80 55 48 66
REMARK Flexibility Score: inf
ROOT
ATOM      1  C   UNL A   1      31.656  29.250  25.671  1.00  0.00     0.002 C 
ENDROOT
BRANCH   1   2
ATOM      2  C   UNL A   1      31.786  28.898  24.186  1.00  0.00     0.002 C 
BRANCH   2   3
ATOM      3  C   UNL A   1      33.168  29.168  23.573  1.00  0.00     0.021 C 
BRANCH   3   4
ATOM      4  C   UNL A   1      34.095  27.952  23.551  1.00  0.00     0.116 C 
BRANCH   4   5
ATOM      5  N   UNL A   1      33.585  26.971  22.612  1.00  0.00    -0.355 N 
ATOM      6  C   UNL A   1      33.522  25.614  22.682  1.00  0.00     0.230 C 
ATOM      7  O   UNL A   1      33.234  25.050  21.630  1.00  0.00    -0.274 OA
ATOM      8  H   UNL A   1      33.221  27.353  21.782  1.00  0.00     0.163 HD
BRANCH   6   9
ATOM      9  C   UNL A   1      33.767  24.911  24.013  1.00  0.00     0.136 C 
ATOM     10  C   UNL A   1      30.337  24.414  26.631  1.00  0.00     0.161 A 
ATOM     11  C   UNL A   1      31.581  23.840  26.934  1.00  0.00     0.064 A 
ATOM     12  C   UNL A   1      30.205  25.212  25.486  1.00  0.00     0.161 A 
ATOM     13  C   UNL A   1      32.681  24.040  26.090  1.00  0.00     0.048 A 
ATOM     14  C   UNL A   1      31.311  25.392  24.643  1.00  0.00     0.056 A 
ATOM     15  C   UNL A   1      32.551  24.801  24.918  1.00  0.00    -0.016 A 
ATOM     16  C   UNL A   1      33.982  23.365  26.400  1.00  0.00     0.254 C 
ATOM     17  N   UNL A   1      34.864  23.184  25.329  1.00  0.00    -0.333 N 
ATOM     18  O   UNL A   1      34.208  22.965  27.537  1.00  0.00    -0.269 OA
ATOM     19  C   UNL A   1      34.447  23.507  23.938  1.00  0.00     0.132 C 
ATOM     20  C   UNL A   1      36.117  22.488  25.555  1.00  0.00     0.147 C 
BRANCH  10  21
ATOM     21  O   UNL A   1      29.219  24.104  27.360  1.00  0.00    -0.493 OA
ATOM     22  C   UNL A   1      29.055  22.718  27.648  1.00  0.00     0.278 C 
ENDBRANCH  10  21
BRANCH  12  23
ATOM     23  O   UNL A   1      29.090  25.859  25.022  1.00  0.00    -0.493 OA
ATOM     24  C   UNL A   1      29.174  26.531  23.773  1.00  0.00     0.278 C 
ENDBRANCH  12  23
BRANCH  19  25
ATOM     25  C   UNL A   1      33.642  22.355  23.305  1.00  0.00    -0.023 A 
ATOM     26  C   UNL A   1      33.007  22.534  22.064  1.00  0.00     0.006 A 
ATOM     27  C   UNL A   1      33.490  21.095  23.913  1.00  0.00     0.026 A 
ATOM     28  C   UNL A   1      32.136  21.578  21.536  1.00  0.00     0.002 A 
ATOM     29  C   UNL A   1      32.653  20.120  23.364  1.00  0.00     0.041 A 
ATOM     30  C   UNL A   1      31.946  20.370  22.195  1.00  0.00     0.020 A 
ATOM     31  Cl  UNL A   1      32.493  18.595  24.145  1.00  0.00    -0.084 Cl
ENDBRANCH  19  25
ENDBRANCH   6   9
ENDBRANCH   4   5
ENDBRANCH   3   4
ENDBRANCH   2   3
ENDBRANCH   1   2
BRANCH   1  32
ATOM     32  C   UNL A   1      32.216  28.198  26.627  1.00  0.00     0.021 C 
BRANCH  32  33
ATOM     33  C   UNL A   1      33.389  28.677  27.471  1.00  0.00     0.116 C 
BRANCH  33  34
ATOM     34  N   UNL A   1      33.489  30.129  27.502  1.00  0.00    -0.352 N 
ATOM     35  C   UNL A   1      34.519  30.905  27.971  1.00  0.00     0.251 C 
ATOM     36  H   UNL A   1      32.716  30.618  27.139  1.00  0.00     0.163 HD
ATOM     37  O   UNL A   1      34.377  32.119  28.088  1.00  0.00    -0.269 OA
BRANCH  35  38
ATOM     38  C   UNL A   1      35.792  30.260  28.358  1.00  0.00     0.039 A 
ATOM     39  C   UNL A   1      36.861  30.279  27.462  1.00  0.00     0.014 A 
ATOM     40  C   UNL A   1      35.933  29.665  29.616  1.00  0.00     0.014 A 
ATOM     41  C   UNL A   1      38.092  29.749  27.849  1.00  0.00     0.010 A 
ATOM     42  C   UNL A   1      37.181  29.209  30.026  1.00  0.00     0.010 A 
ATOM     43  C   UNL A   1      38.273  29.238  29.145  1.00  0.00    -0.014 A 
BRANCH  43  44
ATOM     44  C   UNL A   1      39.594  28.739  29.600  1.00  0.00     0.031 A 
ATOM     45  C   UNL A   1      40.337  29.454  30.697  1.00  0.00     0.074 A 
ATOM     46  C   UNL A   1      40.164  27.693  28.970  1.00  0.00     0.049 A 
ATOM     47  N   UNL A   1      41.521  29.198  31.191  1.00  0.00    -0.248 NA
ATOM     48  C   UNL A   1      39.677  30.624  31.299  1.00  0.00     0.031 C 
ATOM     49  C   UNL A   1      39.581  26.967  27.839  1.00  0.00     0.029 A 
ATOM     50  N   UNL A   1      41.374  27.076  29.171  1.00  0.00    -0.354 N 
ATOM     51  C   UNL A   1      41.763  30.193  32.131  1.00  0.00     0.074 A 
ATOM     52  C   UNL A   1      40.619  31.076  32.115  1.00  0.00     0.031 C 
ATOM     53  C   UNL A   1      40.430  26.004  27.450  1.00  0.00     0.029 A 
ATOM     54  C   UNL A   1      41.631  26.061  28.277  1.00  0.00     0.049 A 
ATOM     55  H   UNL A   1      41.999  27.335  29.885  1.00  0.00     0.167 HD
ATOM     56  C   UNL A   1      42.829  30.342  32.954  1.00  0.00     0.034 A 
ATOM     57  C   UNL A   1      42.714  25.273  28.134  1.00  0.00     0.034 A 
ATOM     58  C   UNL A   1      43.946  29.438  32.995  1.00  0.00     0.049 A 
ATOM     59  C   UNL A   1      43.867  25.435  29.088  1.00  0.00     0.074 A 
ATOM     60  C   UNL A   1      45.029  29.450  33.856  1.00  0.00     0.029 A 
ATOM     61  N   UNL A   1      44.131  28.368  32.134  1.00  0.00    -0.354 N 
ATOM     62  N   UNL A   1      44.005  26.281  30.079  1.00  0.00    -0.248 NA
ATOM     63  C   UNL A   1      44.998  24.509  28.928  1.00  0.00     0.031 C 
ATOM     64  C   UNL A   1      45.885  28.405  33.495  1.00  0.00     0.029 A 
ATOM     65  C   UNL A   1      45.317  27.719  32.433  1.00  0.00     0.049 A 
ATOM     66  H   UNL A   1      43.511  28.108  31.416  1.00  0.00     0.167 HD
ATOM     67  C   UNL A   1      45.216  25.966  30.684  1.00  0.00     0.074 A 
ATOM     68  C   UNL A   1      45.763  24.839  29.959  1.00  0.00     0.031 C 
ATOM     69  C   UNL A   1      45.826  26.566  31.737  1.00  0.00     0.034 A 
BRANCH  56  70
ATOM     70  C   UNL A   1      42.817  31.505  33.914  1.00  0.00     0.023 A 
ATOM     71  C   UNL A   1      43.341  32.750  33.507  1.00  0.00     0.012 A 
ATOM     72  C   UNL A   1      42.234  31.385  35.189  1.00  0.00     0.148 A 
ATOM     73  C   UNL A   1      43.318  33.846  34.369  1.00  0.00     0.002 A 
ATOM     74  C   UNL A   1      42.171  32.494  36.024  1.00  0.00     0.091 A 
ATOM     75  F   UNL A   1      41.759  30.189  35.566  1.00  0.00    -0.205 F 
ATOM     76  C   UNL A   1      42.723  33.721  35.621  1.00  0.00     0.022 A 
BRANCH  74  77
ATOM     77  S   UNL A   1      41.353  32.460  37.623  1.00  0.00     0.127 S 
ATOM     78  O   UNL A   1      41.394  33.871  38.005  1.00  0.00    -0.237 OA
ATOM     79  O   UNL A   1      40.023  31.960  37.277  1.00  0.00    -0.237 OA
ATOM     80  O   UNL A   1      42.141  31.564  38.459  1.00  0.00    -0.744 OA
ENDBRANCH  74  77
ENDBRANCH  56  70
BRANCH  57  81
ATOM     81  C   UNL A   1      42.735  24.219  27.081  1.00  0.00     0.023 A 
ATOM     82  C   UNL A   1      43.412  24.462  25.870  1.00  0.00     0.012 A 
ATOM     83  C   UNL A   1      42.111  22.973  27.281  1.00  0.00     0.148 A 
ATOM     84  C   UNL A   1      43.436  23.497  24.862  1.00  0.00     0.002 A 
ATOM     85  C   UNL A   1      42.189  21.994  26.296  1.00  0.00     0.091 A 
ATOM     86  F   UNL A   1      41.466  22.764  28.437  1.00  0.00    -0.205 F 
ATOM     87  C   UNL A   1      42.833  22.261  25.078  1.00  0.00     0.022 A 
BRANCH  85  88
ATOM     88  S   UNL A   1      41.558  20.330  26.542  1.00  0.00     0.127 S 
ATOM     89  O   UNL A   1      40.114  20.550  26.515  1.00  0.00    -0.237 OA
ATOM     90  O   UNL A   1      42.097  19.628  25.377  1.00  0.00    -0.237 OA
ATOM     91  O   UNL A   1      42.107  19.885  27.816  1.00  0.00    -0.744 OA
ENDBRANCH  85  88
ENDBRANCH  57  81
BRANCH  69  92
ATOM     92  C   UNL A   1      47.137  25.991  32.208  1.00  0.00     0.023 A 
ATOM     93  C   UNL A   1      48.341  26.387  31.594  1.00  0.00     0.012 A 
ATOM     94  C   UNL A   1      47.178  25.116  33.311  1.00  0.00     0.148 A 
ATOM     95  C   UNL A   1      49.563  25.894  32.049  1.00  0.00     0.002 A 
ATOM     96  C   UNL A   1      48.403  24.670  33.793  1.00  0.00     0.091 A 
ATOM     97  F   UNL A   1      46.020  24.737  33.871  1.00  0.00    -0.205 F 
ATOM     98  C   UNL A   1      49.595  25.047  33.155  1.00  0.00     0.022 A 
BRANCH  96  99
ATOM     99  S   UNL A   1      48.547  23.659  35.271  1.00  0.00     0.127 S 
ATOM    100  O   UNL A   1      47.878  22.428  34.855  1.00  0.00    -0.237 OA
ATOM    101  O   UNL A   1      49.997  23.543  35.426  1.00  0.00    -0.237 OA
ATOM    102  O   UNL A   1      47.883  24.402  36.334  1.00  0.00    -0.744 OA
ENDBRANCH  96  99
ENDBRANCH  69  92
ENDBRANCH  43  44
ENDBRANCH  35  38
ENDBRANCH  33  34
ENDBRANCH  32  33
ENDBRANCH   1  32
TORSDOF 19
ENDMDL
MODEL 2
REMARK VINA RESULT:     -11.7      2.428      3.624
REMARK SMILES COc1cc2c(cc1OC)[C@H](C(=O)NCCCCCCNC(=O)c1ccc(-c3c4nc(c(-c5cccc(S(=O)(=O)[O-])c5F)c5ccc([nH]5)c(-c5cccc(S(=O)(=O)[O-])c5F)c5nc(c(-c6cccc(S(=O)(=O)[O-])c6F)c6ccc3[nH]6)C=C5)C=C4)cc1)[C@H](c1cccc(Cl)c1)N(C)C2=O
REMARK SMILES IDX 18 1 17 2 16 3 15 4 14 5 12 6 13 7 11 9 3 10 4 11 8 12 5 13
REMARK SMILES IDX 7 14 6 15 97 16 95 17 98 18 87 19 96 20 2 21 1 22 9 23 10 24
REMARK SMILES IDX 88 25 89 26 94 27 90 28 92 29 91 30 93 31 19 32 20 33 21 34
REMARK SMILES IDX 22 35 23 37 24 38 25 39 86 40 26 41 85 42 27 43 28 44 29 45
REMARK SMILES IDX 79 46 30 47 84 48 78 49 80 50 31 51 83 52 77 53 76 54 32 56
REMARK SMILES IDX 64 57 44 58 63 59 45 60 48 61 62 62 81 63 46 64 47 65 61 67
REMARK SMILES IDX 82 68 49 69 33 70 34 71 42 72 35 73 37 74 43 75 36 76 38 77
REMARK SMILES IDX 39 78 40 79 41 80 65 81 66 82 74 83 67 84 69 85 75 86 68 87
REMARK SMILES IDX 70 88 71 89 72 90 73 91 50 92 51 93 59 94 52 95 54 96 60 97
REMARK SMILES IDX 53 98 55 99 56 100 57 101 58 102
REMARK H PARENT 14 8 21 36 80 55 48 66
REMARK Flexibility Score: inf
ROOT
ATOM      1  C   UNL A   1      32.550  28.738  23.751  1.00  0.00     0.002 C 
ENDROOT
BRANCH   1   2
ATOM      2  C   UNL A   1      33.369  28.723  22.457  1.00  0.00     0.002 C 
BRANCH   2   3
ATOM      3  C   UNL A   1      33.572  27.334  21.832  1.00  0.00     0.021 C 
BRANCH   3   4
ATOM      4  C   UNL A   1      32.294  26.500  21.724  1.00  0.00     0.116 C 
BRANCH   4   5
ATOM      5  N   UNL A   1      32.613  25.193  21.182  1.00  0.00    -0.355 N 
ATOM      6  C   UNL A   1      32.861  24.006  21.798  1.00  0.00     0.230 C 
ATOM      7  O   UNL A   1      33.317  23.126  21.071  1.00  0.00    -0.274 OA
ATOM      8  H   UNL A   1      32.656  25.159  20.199  1.00  0.00     0.163 HD
BRANCH   6   9
ATOM      9  C   UNL A   1      32.538  23.837  23.279  1.00  0.00     0.136 C 
ATOM     10  C   UNL A   1      32.105  19.770  24.741  1.00  0.00     0.161 A 
ATOM     11  C   UNL A   1      32.080  20.870  25.612  1.00  0.00     0.064 A 
ATOM     12  C   UNL A   1      32.217  19.985  23.360  1.00  0.00     0.161 A 
ATOM     13  C   UNL A   1      32.190  22.174  25.114  1.00  0.00     0.048 A 
ATOM     14  C   UNL A   1      32.341  21.295  22.877  1.00  0.00     0.056 A 
ATOM     15  C   UNL A   1      32.347  22.400  23.738  1.00  0.00    -0.016 A 
ATOM     16  C   UNL A   1      32.226  23.329  26.068  1.00  0.00     0.254 C 
ATOM     17  N   UNL A   1      32.814  24.510  25.600  1.00  0.00    -0.333 N 
ATOM     18  O   UNL A   1      31.793  23.195  27.207  1.00  0.00    -0.269 OA
ATOM     19  C   UNL A   1      33.502  24.545  24.282  1.00  0.00     0.132 C 
ATOM     20  C   UNL A   1      32.927  25.646  26.495  1.00  0.00     0.147 C 
BRANCH  10  21
ATOM     21  O   UNL A   1      32.152  18.488  25.223  1.00  0.00    -0.493 OA
ATOM     22  C   UNL A   1      33.221  18.225  26.127  1.00  0.00     0.278 C 
ENDBRANCH  10  21
BRANCH  12  23
ATOM     23  O   UNL A   1      32.254  19.056  22.354  1.00  0.00    -0.493 OA
ATOM     24  C   UNL A   1      32.922  17.827  22.599  1.00  0.00     0.278 C 
ENDBRANCH  12  23
BRANCH  19  25
ATOM     25  C   UNL A   1      34.946  24.014  24.381  1.00  0.00    -0.023 A 
ATOM     26  C   UNL A   1      35.457  23.161  23.388  1.00  0.00     0.006 A 
ATOM     27  C   UNL A   1      35.815  24.335  25.442  1.00  0.00     0.026 A 
ATOM     28  C   UNL A   1      36.696  22.530  23.522  1.00  0.00     0.002 A 
ATOM     29  C   UNL A   1      37.072  23.737  25.556  1.00  0.00     0.041 A 
ATOM     30  C   UNL A   1      37.502  22.807  24.619  1.00  0.00     0.020 A 
ATOM     31  Cl  UNL A   1      38.098  24.153  26.874  1.00  0.00    -0.084 Cl
ENDBRANCH  19  25
ENDBRANCH   6   9
ENDBRANCH   4   5
ENDBRANCH   3   4
ENDBRANCH   2   3
ENDBRANCH   1   2
BRANCH   1  32
ATOM     32  C   UNL A   1      33.335  29.146  24.997  1.00  0.00     0.021 C 
BRANCH  32  33
ATOM     33  C   UNL A   1      32.469  29.483  26.203  1.00  0.00     0.116 C 
BRANCH  33  34
ATOM     34  N   UNL A   1      32.313  30.918  26.385  1.00  0.00    -0.352 N 
ATOM     35  C   UNL A   1      33.082  31.771  27.137  1.00  0.00     0.251 C 
ATOM     36  H   UNL A   1      31.558  31.330  25.908  1.00  0.00     0.163 HD
ATOM     37  O   UNL A   1      32.717  32.928  27.328  1.00  0.00    -0.269 OA
BRANCH  35  38
ATOM     38  C   UNL A   1      34.341  31.277  27.733  1.00  0.00     0.039 A 
ATOM     39  C   UNL A   1      35.366  32.184  28.002  1.00  0.00     0.014 A 
ATOM     40  C   UNL A   1      34.493  29.923  28.050  1.00  0.00     0.014 A 
ATOM     41  C   UNL A   1      36.525  31.743  28.642  1.00  0.00     0.010 A 
ATOM     42  C   UNL A   1      35.614  29.502  28.757  1.00  0.00     0.010 A 
ATOM     43  C   UNL A   1      36.646  30.405  29.053  1.00  0.00    -0.014 A 
BRANCH  43  44
ATOM     44  C   UNL A   1      37.838  29.934  29.801  1.00  0.00     0.031 A 
ATOM     45  C   UNL A   1      38.117  30.452  31.187  1.00  0.00     0.074 A 
ATOM     46  C   UNL A   1      38.716  29.105  29.202  1.00  0.00     0.049 A 
ATOM     47  N   UNL A   1      39.131  30.197  31.972  1.00  0.00    -0.248 NA
ATOM     48  C   UNL A   1      37.144  31.400  31.754  1.00  0.00     0.031 C 
ATOM     49  C   UNL A   1      38.600  28.597  27.833  1.00  0.00     0.029 A 
ATOM     50  N   UNL A   1      39.893  28.565  29.656  1.00  0.00    -0.354 N 
ATOM     51  C   UNL A   1      38.940  30.979  33.105  1.00  0.00     0.074 A 
ATOM     52  C   UNL A   1      37.731  31.742  32.893  1.00  0.00     0.031 C 
ATOM     53  C   UNL A   1      39.659  27.819  27.561  1.00  0.00     0.029 A 
ATOM     54  C   UNL A   1      40.546  27.796  28.720  1.00  0.00     0.049 A 
ATOM     55  H   UNL A   1      40.239  28.714  30.566  1.00  0.00     0.167 HD
ATOM     56  C   UNL A   1      39.687  31.035  34.234  1.00  0.00     0.034 A 
ATOM     57  C   UNL A   1      41.729  27.155  28.783  1.00  0.00     0.034 A 
ATOM     58  C   UNL A   1      40.866  30.244  34.459  1.00  0.00     0.049 A 
ATOM     59  C   UNL A   1      42.519  27.203  30.063  1.00  0.00     0.074 A 
ATOM     60  C   UNL A   1      41.640  30.159  35.603  1.00  0.00     0.029 A 
ATOM     61  N   UNL A   1      41.450  29.408  33.519  1.00  0.00    -0.354 N 
ATOM     62  N   UNL A   1      42.236  27.819  31.185  1.00  0.00    -0.248 NA
ATOM     63  C   UNL A   1      43.772  26.435  30.101  1.00  0.00     0.031 C 
ATOM     64  C   UNL A   1      42.709  29.297  35.345  1.00  0.00     0.029 A 
ATOM     65  C   UNL A   1      42.581  28.814  34.052  1.00  0.00     0.049 A 
ATOM     66  H   UNL A   1      41.110  29.259  32.607  1.00  0.00     0.167 HD
ATOM     67  C   UNL A   1      43.253  27.485  32.071  1.00  0.00     0.074 A 
ATOM     68  C   UNL A   1      44.148  26.595  31.362  1.00  0.00     0.031 C 
ATOM     69  C   UNL A   1      43.435  27.889  33.353  1.00  0.00     0.034 A 
BRANCH  56  70
ATOM     70  C   UNL A   1      39.225  31.953  35.337  1.00  0.00     0.023 A 
ATOM     71  C   UNL A   1      38.302  31.485  36.295  1.00  0.00     0.012 A 
ATOM     72  C   UNL A   1      39.749  33.254  35.463  1.00  0.00     0.148 A 
ATOM     73  C   UNL A   1      37.881  32.308  37.338  1.00  0.00     0.002 A 
ATOM     74  C   UNL A   1      39.361  34.052  36.532  1.00  0.00     0.091 A 
ATOM     75  F   UNL A   1      40.611  33.690  34.532  1.00  0.00    -0.205 F 
ATOM     76  C   UNL A   1      38.419  33.586  37.462  1.00  0.00     0.022 A 
BRANCH  74  77
ATOM     77  S   UNL A   1      40.056  35.681  36.829  1.00  0.00     0.127 S 
ATOM     78  O   UNL A   1      39.651  36.399  35.621  1.00  0.00    -0.237 OA
ATOM     79  O   UNL A   1      39.360  36.095  38.047  1.00  0.00    -0.237 OA
ATOM     80  O   UNL A   1      41.491  35.485  36.986  1.00  0.00    -0.744 OA
ENDBRANCH  74  77
ENDBRANCH  56  70
BRANCH  57  81
ATOM     81  C   UNL A   1      42.211  26.363  27.616  1.00  0.00     0.023 A 
ATOM     82  C   UNL A   1      43.018  26.984  26.642  1.00  0.00     0.012 A 
ATOM     83  C   UNL A   1      41.895  24.998  27.478  1.00  0.00     0.148 A 
ATOM     84  C   UNL A   1      43.472  26.268  25.534  1.00  0.00     0.002 A 
ATOM     85  C   UNL A   1      42.399  24.277  26.401  1.00  0.00     0.091 A 
ATOM     86  F   UNL A   1      41.119  24.429  28.410  1.00  0.00    -0.205 F 
ATOM     87  C   UNL A   1      43.171  24.915  25.417  1.00  0.00     0.022 A 
BRANCH  85  88
ATOM     88  S   UNL A   1      42.173  22.502  26.242  1.00  0.00     0.127 S 
ATOM     89  O   UNL A   1      40.719  22.392  26.152  1.00  0.00    -0.237 OA
ATOM     90  O   UNL A   1      42.892  22.217  25.000  1.00  0.00    -0.237 OA
ATOM     91  O   UNL A   1      42.778  21.920  27.433  1.00  0.00    -0.744 OA
ENDBRANCH  85  88
ENDBRANCH  57  81
BRANCH  69  92
ATOM     92  C   UNL A   1      44.625  27.340  34.098  1.00  0.00     0.023 A 
ATOM     93  C   UNL A   1      45.848  28.038  34.085  1.00  0.00     0.012 A 
ATOM     94  C   UNL A   1      44.503  26.171  34.874  1.00  0.00     0.148 A 
ATOM     95  C   UNL A   1      46.942  27.561  34.806  1.00  0.00     0.002 A 
ATOM     96  C   UNL A   1      45.582  25.730  35.632  1.00  0.00     0.091 A 
ATOM     97  F   UNL A   1      43.336  25.511  34.859  1.00  0.00    -0.205 F 
ATOM     98  C   UNL A   1      46.806  26.416  35.588  1.00  0.00     0.022 A 
BRANCH  96  99
ATOM     99  S   UNL A   1      45.468  24.325  36.745  1.00  0.00     0.127 S 
ATOM    100  O   UNL A   1      44.903  23.298  35.871  1.00  0.00    -0.237 OA
ATOM    101  O   UNL A   1      46.866  24.110  37.116  1.00  0.00    -0.237 OA
ATOM    102  O   UNL A   1      44.610  24.750  37.844  1.00  0.00    -0.744 OA
ENDBRANCH  96  99
ENDBRANCH  69  92
ENDBRANCH  43  44
ENDBRANCH  35  38
ENDBRANCH  33  34
ENDBRANCH  32  33
ENDBRANCH   1  32
TORSDOF 19
ENDMDL
MODEL 3
REMARK VINA RESULT:     -11.4      1.886      2.898
REMARK SMILES COc1cc2c(cc1OC)[C@H](C(=O)NCCCCCCNC(=O)c1ccc(-c3c4nc(c(-c5cccc(S(=O)(=O)[O-])c5F)c5ccc([nH]5)c(-c5cccc(S(=O)(=O)[O-])c5F)c5nc(c(-c6cccc(S(=O)(=O)[O-])c6F)c6ccc3[nH]6)C=C5)C=C4)cc1)[C@H](c1cccc(Cl)c1)N(C)C2=O
REMARK SMILES IDX 18 1 17 2 16 3 15 4 14 5 12 6 13 7 11 9 3 10 4 11 8 12 5 13
REMARK SMILES IDX 7 14 6 15 97 16 95 17 98 18 87 19 96 20 2 21 1 22 9 23 10 24
REMARK SMILES IDX 88 25 89 26 94 27 90 28 92 29 91 30 93 31 19 32 20 33 21 34
REMARK SMILES IDX 22 35 23 37 24 38 25 39 86 40 26 41 85 42 27 43 28 44 29 45
REMARK SMILES IDX 79 46 30 47 84 48 78 49 80 50 31 51 83 52 77 53 76 54 32 56
REMARK SMILES IDX 64 57 44 58 63 59 45 60 48 61 62 62 81 63 46 64 47 65 61 67
REMARK SMILES IDX 82 68 49 69 33 70 34 71 42 72 35 73 37 74 43 75 36 76 38 77
REMARK SMILES IDX 39 78 40 79 41 80 65 81 66 82 74 83 67 84 69 85 75 86 68 87
REMARK SMILES IDX 70 88 71 89 72 90 73 91 50 92 51 93 59 94 52 95 54 96 60 97
REMARK SMILES IDX 53 98 55 99 56 100 57 101 58 102
REMARK H PARENT 14 8 21 36 80 55 48 66
REMARK Flexibility Score: inf
ROOT
ATOM      1  C   UNL A   1      33.460  28.217  24.498  1.00  0.00     0.002 C 
ENDROOT
BRANCH   1   2
ATOM      2  C   UNL A   1      32.218  27.692  23.773  1.00  0.00     0.002 C 
BRANCH   2   3
ATOM      3  C   UNL A   1      32.415  27.395  22.278  1.00  0.00     0.021 C 
BRANCH   3   4
ATOM      4  C   UNL A   1      31.459  26.342  21.715  1.00  0.00     0.116 C 
BRANCH   4   5
ATOM      5  N   UNL A   1      32.223  25.220  21.202  1.00  0.00    -0.355 N 
ATOM      6  C   UNL A   1      32.831  24.185  21.841  1.00  0.00     0.230 C 
ATOM      7  O   UNL A   1      33.587  23.513  21.144  1.00  0.00    -0.274 OA
ATOM      8  H   UNL A   1      32.317  25.206  20.222  1.00  0.00     0.163 HD
BRANCH   6   9
ATOM      9  C   UNL A   1      32.521  23.913  23.309  1.00  0.00     0.136 C 
ATOM     10  C   UNL A   1      32.051  19.756  24.478  1.00  0.00     0.161 A 
ATOM     11  C   UNL A   1      32.050  20.790  25.427  1.00  0.00     0.064 A 
ATOM     12  C   UNL A   1      32.151  20.069  23.115  1.00  0.00     0.161 A 
ATOM     13  C   UNL A   1      32.172  22.126  25.023  1.00  0.00     0.048 A 
ATOM     14  C   UNL A   1      32.287  21.410  22.727  1.00  0.00     0.056 A 
ATOM     15  C   UNL A   1      32.317  22.449  23.665  1.00  0.00    -0.016 A 
ATOM     16  C   UNL A   1      32.232  23.208  26.058  1.00  0.00     0.254 C 
ATOM     17  N   UNL A   1      32.831  24.412  25.670  1.00  0.00    -0.333 N 
ATOM     18  O   UNL A   1      31.810  22.997  27.189  1.00  0.00    -0.269 OA
ATOM     19  C   UNL A   1      33.505  24.534  24.350  1.00  0.00     0.132 C 
ATOM     20  C   UNL A   1      32.968  25.479  26.643  1.00  0.00     0.147 C 
BRANCH  10  21
ATOM     21  O   UNL A   1      32.086  18.442  24.865  1.00  0.00    -0.493 OA
ATOM     22  C   UNL A   1      32.896  18.174  26.006  1.00  0.00     0.278 C 
ENDBRANCH  10  21
BRANCH  12  23
ATOM     23  O   UNL A   1      32.166  19.216  22.044  1.00  0.00    -0.493 OA
ATOM     24  C   UNL A   1      32.694  17.911  22.232  1.00  0.00     0.278 C 
ENDBRANCH  12  23
BRANCH  19  25
ATOM     25  C   UNL A   1      34.943  23.981  24.394  1.00  0.00    -0.023 A 
ATOM     26  C   UNL A   1      35.409  23.137  23.371  1.00  0.00     0.006 A 
ATOM     27  C   UNL A   1      35.850  24.269  25.432  1.00  0.00     0.026 A 
ATOM     28  C   UNL A   1      36.641  22.485  23.455  1.00  0.00     0.002 A 
ATOM     29  C   UNL A   1      37.101  23.651  25.496  1.00  0.00     0.041 A 
ATOM     30  C   UNL A   1      37.486  22.731  24.530  1.00  0.00     0.020 A 
ATOM     31  Cl  UNL A   1      38.174  24.029  26.787  1.00  0.00    -0.084 Cl
ENDBRANCH  19  25
ENDBRANCH   6   9
ENDBRANCH   4   5
ENDBRANCH   3   4
ENDBRANCH   2   3
ENDBRANCH   1   2
BRANCH   1  32
ATOM     32  C   UNL A   1      33.249  29.527  25.256  1.00  0.00     0.021 C 
BRANCH  32  33
ATOM     33  C   UNL A   1      33.842  29.544  26.658  1.00  0.00     0.116 C 
BRANCH  33  34
ATOM     34  N   UNL A   1      33.738  30.853  27.284  1.00  0.00    -0.352 N 
ATOM     35  C   UNL A   1      34.543  31.404  28.250  1.00  0.00     0.251 C 
ATOM     36  H   UNL A   1      32.994  31.417  26.975  1.00  0.00     0.163 HD
ATOM     37  O   UNL A   1      34.220  32.453  28.801  1.00  0.00    -0.269 OA
BRANCH  35  38
ATOM     38  C   UNL A   1      35.789  30.709  28.636  1.00  0.00     0.039 A 
ATOM     39  C   UNL A   1      36.982  31.052  27.999  1.00  0.00     0.014 A 
ATOM     40  C   UNL A   1      35.779  29.742  29.647  1.00  0.00     0.014 A 
ATOM     41  C   UNL A   1      38.178  30.463  28.413  1.00  0.00     0.010 A 
ATOM     42  C   UNL A   1      36.981  29.217  30.110  1.00  0.00     0.010 A 
ATOM     43  C   UNL A   1      38.193  29.565  29.493  1.00  0.00    -0.014 A 
BRANCH  43  44
ATOM     44  C   UNL A   1      39.463  28.987  29.997  1.00  0.00     0.031 A 
ATOM     45  C   UNL A   1      40.136  29.576  31.209  1.00  0.00     0.074 A 
ATOM     46  C   UNL A   1      40.056  27.986  29.317  1.00  0.00     0.049 A 
ATOM     47  N   UNL A   1      41.271  29.241  31.764  1.00  0.00    -0.248 NA
ATOM     48  C   UNL A   1      39.458  30.705  31.866  1.00  0.00     0.031 C 
ATOM     49  C   UNL A   1      39.546  27.385  28.082  1.00  0.00     0.029 A 
ATOM     50  N   UNL A   1      41.231  27.317  29.549  1.00  0.00    -0.354 N 
ATOM     51  C   UNL A   1      41.463  30.138  32.808  1.00  0.00     0.074 A 
ATOM     52  C   UNL A   1      40.344  31.053  32.789  1.00  0.00     0.031 C 
ATOM     53  C   UNL A   1      40.399  26.435  27.670  1.00  0.00     0.029 A 
ATOM     54  C   UNL A   1      41.533  26.380  28.587  1.00  0.00     0.049 A 
ATOM     55  H   UNL A   1      41.805  27.491  30.329  1.00  0.00     0.167 HD
ATOM     56  C   UNL A   1      42.465  30.179  33.719  1.00  0.00     0.034 A 
ATOM     57  C   UNL A   1      42.606  25.576  28.452  1.00  0.00     0.034 A 
ATOM     58  C   UNL A   1      43.554  29.242  33.759  1.00  0.00     0.049 A 
ATOM     59  C   UNL A   1      43.685  25.616  29.501  1.00  0.00     0.074 A 
ATOM     60  C   UNL A   1      44.568  29.142  34.696  1.00  0.00     0.029 A 
ATOM     61  N   UNL A   1      43.781  28.249  32.818  1.00  0.00    -0.354 N 
ATOM     62  N   UNL A   1      43.765  26.363  30.574  1.00  0.00    -0.248 NA
ATOM     63  C   UNL A   1      44.803  24.675  29.340  1.00  0.00     0.031 C 
ATOM     64  C   UNL A   1      45.425  28.109  34.304  1.00  0.00     0.029 A 
ATOM     65  C   UNL A   1      44.924  27.541  33.143  1.00  0.00     0.049 A 
ATOM     66  H   UNL A   1      43.212  28.075  32.034  1.00  0.00     0.167 HD
ATOM     67  C   UNL A   1      44.919  25.959  31.236  1.00  0.00     0.074 A 
ATOM     68  C   UNL A   1      45.494  24.886  30.452  1.00  0.00     0.031 C 
ATOM     69  C   UNL A   1      45.459  26.440  32.383  1.00  0.00     0.034 A 
BRANCH  56  70
ATOM     70  C   UNL A   1      42.406  31.249  34.779  1.00  0.00     0.023 A 
ATOM     71  C   UNL A   1      41.814  30.963  36.027  1.00  0.00     0.012 A 
ATOM     72  C   UNL A   1      42.990  32.512  34.566  1.00  0.00     0.148 A 
ATOM     73  C   UNL A   1      41.771  31.929  37.031  1.00  0.00     0.002 A 
ATOM     74  C   UNL A   1      42.987  33.453  35.588  1.00  0.00     0.091 A 
ATOM     75  F   UNL A   1      43.531  32.773  33.367  1.00  0.00    -0.205 F 
ATOM     76  C   UNL A   1      42.367  33.168  36.816  1.00  0.00     0.022 A 
BRANCH  74  77
ATOM     77  S   UNL A   1      43.799  35.049  35.441  1.00  0.00     0.127 S 
ATOM     78  O   UNL A   1      43.023  35.676  34.372  1.00  0.00    -0.237 OA
ATOM     79  O   UNL A   1      43.586  35.625  36.769  1.00  0.00    -0.237 OA
ATOM     80  O   UNL A   1      45.190  34.764  35.118  1.00  0.00    -0.744 OA
ENDBRANCH  74  77
ENDBRANCH  56  70
BRANCH  57  81
ATOM     81  C   UNL A   1      42.684  24.623  27.309  1.00  0.00     0.023 A 
ATOM     82  C   UNL A   1      43.368  25.000  26.137  1.00  0.00     0.012 A 
ATOM     83  C   UNL A   1      42.107  23.341  27.387  1.00  0.00     0.148 A 
ATOM     84  C   UNL A   1      43.445  24.130  25.048  1.00  0.00     0.002 A 
ATOM     85  C   UNL A   1      42.238  22.458  26.320  1.00  0.00     0.091 A 
ATOM     86  F   UNL A   1      41.454  23.005  28.508  1.00  0.00    -0.205 F 
ATOM     87  C   UNL A   1      42.889  22.858  25.143  1.00  0.00     0.022 A 
BRANCH  85  88
ATOM     88  S   UNL A   1      41.670  20.755  26.406  1.00  0.00     0.127 S 
ATOM     89  O   UNL A   1      42.449  20.126  25.342  1.00  0.00    -0.237 OA
ATOM     90  O   UNL A   1      42.062  20.376  27.764  1.00  0.00    -0.237 OA
ATOM     91  O   UNL A   1      40.231  20.809  26.190  1.00  0.00    -0.744 OA
ENDBRANCH  85  88
ENDBRANCH  57  81
BRANCH  69  92
ATOM     92  C   UNL A   1      46.716  25.786  32.894  1.00  0.00     0.023 A 
ATOM     93  C   UNL A   1      47.976  26.309  32.544  1.00  0.00     0.012 A 
ATOM     94  C   UNL A   1      46.642  24.698  33.786  1.00  0.00     0.148 A 
ATOM     95  C   UNL A   1      49.144  25.737  33.046  1.00  0.00     0.002 A 
ATOM     96  C   UNL A   1      47.808  24.166  34.324  1.00  0.00     0.091 A 
ATOM     97  F   UNL A   1      45.434  24.203  34.094  1.00  0.00    -0.205 F 
ATOM     98  C   UNL A   1      49.060  24.676  33.945  1.00  0.00     0.022 A 
BRANCH  96  99
ATOM     99  S   UNL A   1      47.792  22.866  35.564  1.00  0.00     0.127 S 
ATOM    100  O   UNL A   1      47.296  21.727  34.794  1.00  0.00    -0.237 OA
ATOM    101  O   UNL A   1      49.203  22.780  35.940  1.00  0.00    -0.237 OA
ATOM    102  O   UNL A   1      46.911  23.333  36.626  1.00  0.00    -0.744 OA
ENDBRANCH  96  99
ENDBRANCH  69  92
ENDBRANCH  43  44
ENDBRANCH  35  38
ENDBRANCH  33  34
ENDBRANCH  32  33
ENDBRANCH   1  32
TORSDOF 19
ENDMDL
