MODEL 1
REMARK VINA RESULT:     -12.2      0.000      0.000
REMARK SMILES [NH3+][C@]1(C(=O)NCCCCCCNC(=O)c2ccc(-c3c4nc(c(-c5cccc(S(=O)(=O)[O-])c5F)c5ccc([nH]5)c(-c5cccc(S(=O)(=O)[O-])c5F)c5nc(c(-c6cccc(S(=O)(=O)[O-])c6F)c6ccc3[nH]6)C=C5)C=C4)cc2)CC[C@@H](Sc2cc3ccccc3[nH]2)C1
REMARK SMILES IDX 9 1 8 2 7 3 6 4 5 5 3 6 4 7 2 9 78 10 91 11 79 12 80 13 1 14
REMARK SMILES IDX 81 18 82 19 83 20 90 21 84 22 89 23 85 25 88 26 86 27 87 28
REMARK SMILES IDX 10 29 11 30 12 31 13 32 14 34 15 35 16 36 77 37 17 38 76 39
REMARK SMILES IDX 18 40 19 41 20 42 70 43 21 44 75 45 69 46 71 47 22 48 74 49
REMARK SMILES IDX 68 50 67 51 23 53 55 54 35 55 54 56 36 57 39 58 53 59 72 60
REMARK SMILES IDX 37 61 38 62 52 64 73 65 40 66 24 67 25 68 33 69 26 70 28 71
REMARK SMILES IDX 34 72 27 73 29 74 30 75 31 76 32 77 56 78 57 79 65 80 58 81
REMARK SMILES IDX 60 82 66 83 59 84 61 85 62 86 63 87 64 88 41 89 42 90 50 91
REMARK SMILES IDX 43 92 45 93 51 94 44 95 46 96 47 97 48 98 49 99
REMARK H PARENT 5 8 1 15 1 16 1 17 90 24 12 33 71 52 39 63
REMARK Flexibility Score: inf
ROOT
ATOM      1  C   UNL A   1      35.168  22.418  26.753  1.00  0.00     0.002 C 
ENDROOT
BRANCH   1   2
ATOM      2  C   UNL A   1      33.942  21.683  27.303  1.00  0.00     0.002 C 
BRANCH   2   3
ATOM      3  C   UNL A   1      32.700  22.569  27.482  1.00  0.00     0.021 C 
BRANCH   3   4
ATOM      4  C   UNL A   1      32.666  23.750  26.511  1.00  0.00     0.116 C 
BRANCH   4   5
ATOM      5  N   UNL A   1      31.886  23.389  25.350  1.00  0.00    -0.351 N 
ATOM      6  C   UNL A   1      31.749  24.037  24.161  1.00  0.00     0.281 C 
ATOM      7  O   UNL A   1      30.746  23.763  23.495  1.00  0.00    -0.268 OA
ATOM      8  H   UNL A   1      31.377  22.550  25.429  1.00  0.00     0.163 HD
BRANCH   6   9
ATOM      9  C   UNL A   1      32.840  25.013  23.662  1.00  0.00     0.175 C 
ATOM     10  C   UNL A   1      32.621  25.347  22.178  1.00  0.00     0.080 C 
ATOM     11  C   UNL A   1      32.674  26.381  24.334  1.00  0.00     0.094 C 
ATOM     12  C   UNL A   1      33.274  26.705  21.963  1.00  0.00     0.022 C 
ATOM     13  C   UNL A   1      33.226  27.385  23.329  1.00  0.00     0.060 C 
BRANCH   9  14
ATOM     14  N   UNL A   1      34.215  24.564  23.956  1.00  0.00    -0.345 N 
ATOM     15  H   UNL A   1      34.564  24.003  23.178  1.00  0.00     0.345 HD
ATOM     16  H   UNL A   1      34.214  24.002  24.807  1.00  0.00     0.345 HD
ATOM     17  H   UNL A   1      34.818  25.377  24.086  1.00  0.00     0.345 HD
ENDBRANCH   9  14
BRANCH  13  18
ATOM     18  S   UNL A   1      32.313  28.926  23.447  1.00  0.00    -0.105 SA
BRANCH  18  19
ATOM     19  C   UNL A   1      30.940  28.787  22.377  1.00  0.00     0.073 A 
ATOM     20  C   UNL A   1      29.701  28.213  22.609  1.00  0.00     0.043 A 
ATOM     21  N   UNL A   1      30.686  29.905  21.617  1.00  0.00    -0.350 N 
ATOM     22  C   UNL A   1      28.835  29.359  22.703  1.00  0.00     0.001 A 
ATOM     23  C   UNL A   1      29.530  30.439  22.157  1.00  0.00     0.046 A 
ATOM     24  H   UNL A   1      31.211  30.248  20.859  1.00  0.00     0.167 HD
ATOM     25  C   UNL A   1      27.624  29.611  23.374  1.00  0.00     0.010 A 
ATOM     26  C   UNL A   1      29.146  31.769  22.311  1.00  0.00     0.027 A 
ATOM     27  C   UNL A   1      27.259  30.945  23.607  1.00  0.00     0.001 A 
ATOM     28  C   UNL A   1      28.022  32.002  23.104  1.00  0.00     0.002 A 
ENDBRANCH  18  19
ENDBRANCH  13  18
ENDBRANCH   6   9
ENDBRANCH   4   5
ENDBRANCH   3   4
ENDBRANCH   2   3
ENDBRANCH   1   2
BRANCH   1  29
ATOM     29  C   UNL A   1      35.899  21.673  25.634  1.00  0.00     0.021 C 
BRANCH  29  30
ATOM     30  C   UNL A   1      37.334  22.136  25.421  1.00  0.00     0.116 C 
BRANCH  30  31
ATOM     31  N   UNL A   1      38.290  21.126  25.849  1.00  0.00    -0.352 N 
ATOM     32  C   UNL A   1      39.553  21.297  26.357  1.00  0.00     0.251 C 
ATOM     33  H   UNL A   1      37.990  20.192  25.760  1.00  0.00     0.163 HD
ATOM     34  O   UNL A   1      40.317  20.345  26.446  1.00  0.00    -0.269 OA
BRANCH  32  35
ATOM     35  C   UNL A   1      39.983  22.646  26.783  1.00  0.00     0.039 A 
ATOM     36  C   UNL A   1      40.879  22.769  27.847  1.00  0.00     0.014 A 
ATOM     37  C   UNL A   1      39.505  23.784  26.126  1.00  0.00     0.014 A 
ATOM     38  C   UNL A   1      41.334  24.035  28.220  1.00  0.00     0.010 A 
ATOM     39  C   UNL A   1      40.020  25.035  26.447  1.00  0.00     0.010 A 
ATOM     40  C   UNL A   1      40.932  25.175  27.505  1.00  0.00    -0.014 A 
BRANCH  40  41
ATOM     41  C   UNL A   1      41.451  26.523  27.847  1.00  0.00     0.031 A 
ATOM     42  C   UNL A   1      42.885  26.876  27.554  1.00  0.00     0.074 A 
ATOM     43  C   UNL A   1      40.655  27.402  28.489  1.00  0.00     0.049 A 
ATOM     44  N   UNL A   1      43.538  27.975  27.834  1.00  0.00    -0.248 NA
ATOM     45  C   UNL A   1      43.701  25.852  26.880  1.00  0.00     0.031 C 
ATOM     46  C   UNL A   1      39.268  27.153  28.888  1.00  0.00     0.029 A 
ATOM     47  N   UNL A   1      40.906  28.673  28.940  1.00  0.00    -0.354 N 
ATOM     48  C   UNL A   1      44.840  27.766  27.396  1.00  0.00     0.074 A 
ATOM     49  C   UNL A   1      44.898  26.419  26.873  1.00  0.00     0.031 C 
ATOM     50  C   UNL A   1      38.788  28.238  29.517  1.00  0.00     0.029 A 
ATOM     51  C   UNL A   1      39.842  29.245  29.598  1.00  0.00     0.049 A 
ATOM     52  H   UNL A   1      41.765  29.133  28.804  1.00  0.00     0.167 HD
ATOM     53  C   UNL A   1      45.885  28.627  27.395  1.00  0.00     0.034 A 
ATOM     54  C   UNL A   1      39.730  30.442  30.208  1.00  0.00     0.034 A 
ATOM     55  C   UNL A   1      45.815  29.976  27.889  1.00  0.00     0.049 A 
ATOM     56  C   UNL A   1      40.907  31.382  30.187  1.00  0.00     0.074 A 
ATOM     57  C   UNL A   1      46.799  30.947  27.880  1.00  0.00     0.029 A 
ATOM     58  N   UNL A   1      44.699  30.543  28.484  1.00  0.00    -0.354 N 
ATOM     59  N   UNL A   1      42.087  31.216  29.643  1.00  0.00    -0.248 NA
ATOM     60  C   UNL A   1      40.722  32.690  30.832  1.00  0.00     0.031 C 
ATOM     61  C   UNL A   1      46.287  32.095  28.493  1.00  0.00     0.029 A 
ATOM     62  C   UNL A   1      44.971  31.850  28.851  1.00  0.00     0.049 A 
ATOM     63  H   UNL A   1      43.839  30.085  28.625  1.00  0.00     0.167 HD
ATOM     64  C   UNL A   1      42.770  32.411  29.841  1.00  0.00     0.074 A 
ATOM     65  C   UNL A   1      41.862  33.298  30.538  1.00  0.00     0.031 C 
ATOM     66  C   UNL A   1      44.037  32.741  29.491  1.00  0.00     0.034 A 
BRANCH  53  67
ATOM     67  C   UNL A   1      47.181  28.154  26.789  1.00  0.00     0.023 A 
ATOM     68  C   UNL A   1      48.248  27.785  27.634  1.00  0.00     0.012 A 
ATOM     69  C   UNL A   1      47.327  28.018  25.394  1.00  0.00     0.148 A 
ATOM     70  C   UNL A   1      49.452  27.323  27.102  1.00  0.00     0.002 A 
ATOM     71  C   UNL A   1      48.513  27.512  24.874  1.00  0.00     0.091 A 
ATOM     72  F   UNL A   1      46.310  28.391  24.605  1.00  0.00    -0.205 F 
ATOM     73  C   UNL A   1      49.579  27.177  25.725  1.00  0.00     0.022 A 
BRANCH  71  74
ATOM     74  S   UNL A   1      48.752  27.209  23.120  1.00  0.00     0.127 S 
ATOM     75  O   UNL A   1      48.132  25.894  22.961  1.00  0.00    -0.237 OA
ATOM     76  O   UNL A   1      48.006  28.312  22.513  1.00  0.00    -0.237 OA
ATOM     77  O   UNL A   1      50.191  27.250  22.895  1.00  0.00    -0.744 OA
ENDBRANCH  71  74
ENDBRANCH  53  67
BRANCH  54  78
ATOM     78  C   UNL A   1      38.445  30.848  30.844  1.00  0.00     0.023 A 
ATOM     79  C   UNL A   1      38.201  30.511  32.191  1.00  0.00     0.012 A 
ATOM     80  C   UNL A   1      37.464  31.560  30.128  1.00  0.00     0.148 A 
ATOM     81  C   UNL A   1      36.988  30.836  32.798  1.00  0.00     0.002 A 
ATOM     82  C   UNL A   1      36.281  31.931  30.756  1.00  0.00     0.091 A 
ATOM     83  F   UNL A   1      37.709  31.863  28.845  1.00  0.00    -0.205 F 
ATOM     84  C   UNL A   1      36.031  31.552  32.083  1.00  0.00     0.022 A 
BRANCH  82  85
ATOM     85  S   UNL A   1      35.050  32.964  29.953  1.00  0.00     0.127 S 
ATOM     86  O   UNL A   1      35.866  34.060  29.441  1.00  0.00    -0.237 OA
ATOM     87  O   UNL A   1      34.518  32.060  28.932  1.00  0.00    -0.237 OA
ATOM     88  O   UNL A   1      34.094  33.317  30.995  1.00  0.00    -0.744 OA
ENDBRANCH  82  85
ENDBRANCH  54  78
BRANCH  66  89
ATOM     89  C   UNL A   1      44.508  34.138  29.801  1.00  0.00     0.023 A 
ATOM     90  C   UNL A   1      45.203  34.400  30.997  1.00  0.00     0.012 A 
ATOM     91  C   UNL A   1      44.321  35.177  28.868  1.00  0.00     0.148 A 
ATOM     92  C   UNL A   1      45.672  35.683  31.279  1.00  0.00     0.002 A 
ATOM     93  C   UNL A   1      44.837  36.440  29.131  1.00  0.00     0.091 A 
ATOM     94  F   UNL A   1      43.642  34.911  27.743  1.00  0.00    -0.205 F 
ATOM     95  C   UNL A   1      45.500  36.698  30.341  1.00  0.00     0.022 A 
BRANCH  93  96
ATOM     96  S   UNL A   1      44.752  37.782  27.940  1.00  0.00     0.127 S 
ATOM     97  O   UNL A   1      45.223  38.915  28.736  1.00  0.00    -0.237 OA
ATOM     98  O   UNL A   1      45.684  37.336  26.904  1.00  0.00    -0.237 OA
ATOM     99  O   UNL A   1      43.362  37.856  27.513  1.00  0.00    -0.744 OA
ENDBRANCH  93  96
ENDBRANCH  66  89
ENDBRANCH  40  41
ENDBRANCH  32  35
ENDBRANCH  30  31
ENDBRANCH  29  30
ENDBRANCH   1  29
TORSDOF 19
ENDMDL
MODEL 2
REMARK VINA RESULT:     -12.0      5.183     10.651
REMARK SMILES [NH3+][C@]1(C(=O)NCCCCCCNC(=O)c2ccc(-c3c4nc(c(-c5cccc(S(=O)(=O)[O-])c5F)c5ccc([nH]5)c(-c5cccc(S(=O)(=O)[O-])c5F)c5nc(c(-c6cccc(S(=O)(=O)[O-])c6F)c6ccc3[nH]6)C=C5)C=C4)cc2)CC[C@@H](Sc2cc3ccccc3[nH]2)C1
REMARK SMILES IDX 9 1 8 2 7 3 6 4 5 5 3 6 4 7 2 9 78 10 91 11 79 12 80 13 1 14
REMARK SMILES IDX 81 18 82 19 83 20 90 21 84 22 89 23 85 25 88 26 86 27 87 28
REMARK SMILES IDX 10 29 11 30 12 31 13 32 14 34 15 35 16 36 77 37 17 38 76 39
REMARK SMILES IDX 18 40 19 41 20 42 70 43 21 44 75 45 69 46 71 47 22 48 74 49
REMARK SMILES IDX 68 50 67 51 23 53 55 54 35 55 54 56 36 57 39 58 53 59 72 60
REMARK SMILES IDX 37 61 38 62 52 64 73 65 40 66 24 67 25 68 33 69 26 70 28 71
REMARK SMILES IDX 34 72 27 73 29 74 30 75 31 76 32 77 56 78 57 79 65 80 58 81
REMARK SMILES IDX 60 82 66 83 59 84 61 85 62 86 63 87 64 88 41 89 42 90 50 91
REMARK SMILES IDX 43 92 45 93 51 94 44 95 46 96 47 97 48 98 49 99
REMARK H PARENT 5 8 1 15 1 16 1 17 90 24 12 33 71 52 39 63
REMARK Flexibility Score: inf
ROOT
ATOM      1  C   UNL A   1      31.576  29.000  25.986  1.00  0.00     0.002 C 
ENDROOT
BRANCH   1   2
ATOM      2  C   UNL A   1      31.858  28.412  24.600  1.00  0.00     0.002 C 
BRANCH   2   3
ATOM      3  C   UNL A   1      30.614  27.880  23.873  1.00  0.00     0.021 C 
BRANCH   3   4
ATOM      4  C   UNL A   1      30.958  26.976  22.688  1.00  0.00     0.116 C 
BRANCH   4   5
ATOM      5  N   UNL A   1      30.741  25.597  23.063  1.00  0.00    -0.351 N 
ATOM      6  C   UNL A   1      31.630  24.571  23.143  1.00  0.00     0.281 C 
ATOM      7  O   UNL A   1      31.162  23.430  23.089  1.00  0.00    -0.268 OA
ATOM      8  H   UNL A   1      29.813  25.366  23.294  1.00  0.00     0.163 HD
BRANCH   6   9
ATOM      9  C   UNL A   1      33.138  24.843  23.356  1.00  0.00     0.175 C 
ATOM     10  C   UNL A   1      33.449  24.995  24.853  1.00  0.00     0.080 C 
ATOM     11  C   UNL A   1      33.958  23.606  22.973  1.00  0.00     0.094 C 
ATOM     12  C   UNL A   1      34.917  24.625  25.006  1.00  0.00     0.022 C 
ATOM     13  C   UNL A   1      35.205  23.673  23.848  1.00  0.00     0.060 C 
BRANCH   9  14
ATOM     14  N   UNL A   1      33.658  25.960  22.541  1.00  0.00    -0.345 N 
ATOM     15  H   UNL A   1      34.561  25.699  22.143  1.00  0.00     0.345 HD
ATOM     16  H   UNL A   1      33.771  26.785  23.129  1.00  0.00     0.345 HD
ATOM     17  H   UNL A   1      33.001  26.166  21.789  1.00  0.00     0.345 HD
ENDBRANCH   9  14
BRANCH  13  18
ATOM     18  S   UNL A   1      35.744  22.013  24.264  1.00  0.00    -0.105 SA
BRANCH  18  19
ATOM     19  C   UNL A   1      34.373  21.194  24.971  1.00  0.00     0.073 A 
ATOM     20  C   UNL A   1      33.076  21.088  24.499  1.00  0.00     0.043 A 
ATOM     21  N   UNL A   1      34.657  19.971  25.531  1.00  0.00    -0.350 N 
ATOM     22  C   UNL A   1      33.003  19.713  24.081  1.00  0.00     0.001 A 
ATOM     23  C   UNL A   1      34.081  19.052  24.673  1.00  0.00     0.046 A 
ATOM     24  H   UNL A   1      35.159  19.791  26.358  1.00  0.00     0.167 HD
ATOM     25  C   UNL A   1      32.248  19.028  23.111  1.00  0.00     0.010 A 
ATOM     26  C   UNL A   1      34.515  17.782  24.299  1.00  0.00     0.027 A 
ATOM     27  C   UNL A   1      32.712  17.782  22.666  1.00  0.00     0.001 A 
ATOM     28  C   UNL A   1      33.839  17.184  23.235  1.00  0.00     0.002 A 
ENDBRANCH  18  19
ENDBRANCH  13  18
ENDBRANCH   6   9
ENDBRANCH   4   5
ENDBRANCH   3   4
ENDBRANCH   2   3
ENDBRANCH   1   2
BRANCH   1  29
ATOM     29  C   UNL A   1      31.787  30.513  26.082  1.00  0.00     0.021 C 
BRANCH  29  30
ATOM     30  C   UNL A   1      32.752  30.930  27.184  1.00  0.00     0.116 C 
BRANCH  30  31
ATOM     31  N   UNL A   1      32.920  32.374  27.228  1.00  0.00    -0.352 N 
ATOM     32  C   UNL A   1      33.889  33.109  27.865  1.00  0.00     0.251 C 
ATOM     33  H   UNL A   1      32.245  32.896  26.736  1.00  0.00     0.163 HD
ATOM     34  O   UNL A   1      33.756  34.318  28.003  1.00  0.00    -0.269 OA
BRANCH  32  35
ATOM     35  C   UNL A   1      35.088  32.421  28.390  1.00  0.00     0.039 A 
ATOM     36  C   UNL A   1      36.329  33.053  28.296  1.00  0.00     0.014 A 
ATOM     37  C   UNL A   1      34.979  31.159  28.981  1.00  0.00     0.014 A 
ATOM     38  C   UNL A   1      37.457  32.436  28.840  1.00  0.00     0.010 A 
ATOM     39  C   UNL A   1      36.088  30.584  29.592  1.00  0.00     0.010 A 
ATOM     40  C   UNL A   1      37.341  31.211  29.518  1.00  0.00    -0.014 A 
BRANCH  40  41
ATOM     41  C   UNL A   1      38.518  30.568  30.157  1.00  0.00     0.031 A 
ATOM     42  C   UNL A   1      38.966  31.005  31.526  1.00  0.00     0.074 A 
ATOM     43  C   UNL A   1      39.227  29.647  29.474  1.00  0.00     0.049 A 
ATOM     44  N   UNL A   1      40.002  30.609  32.219  1.00  0.00    -0.248 NA
ATOM     45  C   UNL A   1      38.158  32.039  32.195  1.00  0.00     0.031 C 
ATOM     46  C   UNL A   1      38.933  29.190  28.113  1.00  0.00     0.029 A 
ATOM     47  N   UNL A   1      40.354  28.948  29.821  1.00  0.00    -0.354 N 
ATOM     48  C   UNL A   1      39.986  31.360  33.389  1.00  0.00     0.074 A 
ATOM     49  C   UNL A   1      38.864  32.267  33.292  1.00  0.00     0.031 C 
ATOM     50  C   UNL A   1      39.851  28.282  27.745  1.00  0.00     0.029 A 
ATOM     51  C   UNL A   1      40.818  28.118  28.826  1.00  0.00     0.049 A 
ATOM     52  H   UNL A   1      40.791  29.030  30.700  1.00  0.00     0.167 HD
ATOM     53  C   UNL A   1      40.807  31.278  34.463  1.00  0.00     0.034 A 
ATOM     54  C   UNL A   1      41.906  27.324  28.785  1.00  0.00     0.034 A 
ATOM     55  C   UNL A   1      41.903  30.354  34.567  1.00  0.00     0.049 A 
ATOM     56  C   UNL A   1      42.799  27.249  29.995  1.00  0.00     0.074 A 
ATOM     57  C   UNL A   1      42.759  30.151  35.635  1.00  0.00     0.029 A 
ATOM     58  N   UNL A   1      42.299  29.479  33.567  1.00  0.00    -0.354 N 
ATOM     59  N   UNL A   1      42.685  27.866  31.145  1.00  0.00    -0.248 NA
ATOM     60  C   UNL A   1      43.951  26.339  29.914  1.00  0.00     0.031 C 
ATOM     61  C   UNL A   1      43.689  29.172  35.271  1.00  0.00     0.029 A 
ATOM     62  C   UNL A   1      43.389  28.739  33.989  1.00  0.00     0.049 A 
ATOM     63  H   UNL A   1      41.868  29.397  32.685  1.00  0.00     0.167 HD
ATOM     64  C   UNL A   1      43.722  27.387  31.939  1.00  0.00     0.074 A 
ATOM     65  C   UNL A   1      44.440  26.414  31.143  1.00  0.00     0.031 C 
ATOM     66  C   UNL A   1      44.057  27.730  33.207  1.00  0.00     0.034 A 
BRANCH  53  67
ATOM     67  C   UNL A   1      40.515  32.176  35.637  1.00  0.00     0.023 A 
ATOM     68  C   UNL A   1      41.336  33.299  35.873  1.00  0.00     0.012 A 
ATOM     69  C   UNL A   1      39.402  31.949  36.469  1.00  0.00     0.148 A 
ATOM     70  C   UNL A   1      41.077  34.161  36.938  1.00  0.00     0.002 A 
ATOM     71  C   UNL A   1      39.123  32.839  37.502  1.00  0.00     0.091 A 
ATOM     72  F   UNL A   1      38.643  30.868  36.243  1.00  0.00    -0.205 F 
ATOM     73  C   UNL A   1      39.965  33.936  37.744  1.00  0.00     0.022 A 
BRANCH  71  74
ATOM     74  S   UNL A   1      37.671  32.687  38.549  1.00  0.00     0.127 S 
ATOM     75  O   UNL A   1      37.788  31.304  39.014  1.00  0.00    -0.237 OA
ATOM     76  O   UNL A   1      37.926  33.698  39.575  1.00  0.00    -0.237 OA
ATOM     77  O   UNL A   1      36.525  32.961  37.694  1.00  0.00    -0.744 OA
ENDBRANCH  71  74
ENDBRANCH  53  67
BRANCH  54  78
ATOM     78  C   UNL A   1      42.188  26.492  27.580  1.00  0.00     0.023 A 
ATOM     79  C   UNL A   1      42.796  27.085  26.455  1.00  0.00     0.012 A 
ATOM     80  C   UNL A   1      41.857  25.125  27.539  1.00  0.00     0.148 A 
ATOM     81  C   UNL A   1      43.028  26.343  25.297  1.00  0.00     0.002 A 
ATOM     82  C   UNL A   1      42.144  24.377  26.402  1.00  0.00     0.091 A 
ATOM     83  F   UNL A   1      41.271  24.580  28.614  1.00  0.00    -0.205 F 
ATOM     84  C   UNL A   1      42.708  24.988  25.273  1.00  0.00     0.022 A 
BRANCH  82  85
ATOM     85  S   UNL A   1      41.886  22.600  26.330  1.00  0.00     0.127 S 
ATOM     86  O   UNL A   1      40.431  22.511  26.261  1.00  0.00    -0.237 OA
ATOM     87  O   UNL A   1      42.586  22.243  25.096  1.00  0.00    -0.237 OA
ATOM     88  O   UNL A   1      42.498  22.066  27.540  1.00  0.00    -0.744 OA
ENDBRANCH  82  85
ENDBRANCH  54  78
BRANCH  66  89
ATOM     89  C   UNL A   1      45.220  27.013  33.842  1.00  0.00     0.023 A 
ATOM     90  C   UNL A   1      46.510  27.574  33.789  1.00  0.00     0.012 A 
ATOM     91  C   UNL A   1      45.016  25.813  34.553  1.00  0.00     0.148 A 
ATOM     92  C   UNL A   1      47.588  26.934  34.402  1.00  0.00     0.002 A 
ATOM     93  C   UNL A   1      46.083  25.210  35.206  1.00  0.00     0.091 A 
ATOM     94  F   UNL A   1      43.783  25.287  34.577  1.00  0.00    -0.205 F 
ATOM     95  C   UNL A   1      47.372  25.761  35.120  1.00  0.00     0.022 A 
BRANCH  93  96
ATOM     96  S   UNL A   1      45.882  23.752  36.237  1.00  0.00     0.127 S 
ATOM     97  O   UNL A   1      45.906  22.680  35.243  1.00  0.00    -0.237 OA
ATOM     98  O   UNL A   1      47.065  23.816  37.096  1.00  0.00    -0.237 OA
ATOM     99  O   UNL A   1      44.616  23.924  36.936  1.00  0.00    -0.744 OA
ENDBRANCH  93  96
ENDBRANCH  66  89
ENDBRANCH  40  41
ENDBRANCH  32  35
ENDBRANCH  30  31
ENDBRANCH  29  30
ENDBRANCH   1  29
TORSDOF 19
ENDMDL
MODEL 3
REMARK VINA RESULT:     -12.0      2.336      2.850
REMARK SMILES [NH3+][C@]1(C(=O)NCCCCCCNC(=O)c2ccc(-c3c4nc(c(-c5cccc(S(=O)(=O)[O-])c5F)c5ccc([nH]5)c(-c5cccc(S(=O)(=O)[O-])c5F)c5nc(c(-c6cccc(S(=O)(=O)[O-])c6F)c6ccc3[nH]6)C=C5)C=C4)cc2)CC[C@@H](Sc2cc3ccccc3[nH]2)C1
REMARK SMILES IDX 9 1 8 2 7 3 6 4 5 5 3 6 4 7 2 9 78 10 91 11 79 12 80 13 1 14
REMARK SMILES IDX 81 18 82 19 83 20 90 21 84 22 89 23 85 25 88 26 86 27 87 28
REMARK SMILES IDX 10 29 11 30 12 31 13 32 14 34 15 35 16 36 77 37 17 38 76 39
REMARK SMILES IDX 18 40 19 41 20 42 70 43 21 44 75 45 69 46 71 47 22 48 74 49
REMARK SMILES IDX 68 50 67 51 23 53 55 54 35 55 54 56 36 57 39 58 53 59 72 60
REMARK SMILES IDX 37 61 38 62 52 64 73 65 40 66 24 67 25 68 33 69 26 70 28 71
REMARK SMILES IDX 34 72 27 73 29 74 30 75 31 76 32 77 56 78 57 79 65 80 58 81
REMARK SMILES IDX 60 82 66 83 59 84 61 85 62 86 63 87 64 88 41 89 42 90 50 91
REMARK SMILES IDX 43 92 45 93 51 94 44 95 46 96 47 97 48 98 49 99
REMARK H PARENT 5 8 1 15 1 16 1 17 90 24 12 33 71 52 39 63
REMARK Flexibility Score: inf
ROOT
ATOM      1  C   UNL A   1      34.947  21.576  26.376  1.00  0.00     0.002 C 
ENDROOT
BRANCH   1   2
ATOM      2  C   UNL A   1      34.761  20.896  25.015  1.00  0.00     0.002 C 
BRANCH   2   3
ATOM      3  C   UNL A   1      33.356  20.321  24.782  1.00  0.00     0.021 C 
BRANCH   3   4
ATOM      4  C   UNL A   1      32.589  21.053  23.680  1.00  0.00     0.116 C 
BRANCH   4   5
ATOM      5  N   UNL A   1      33.336  22.223  23.278  1.00  0.00    -0.351 N 
ATOM      6  C   UNL A   1      32.896  23.482  23.008  1.00  0.00     0.281 C 
ATOM      7  O   UNL A   1      33.632  24.187  22.312  1.00  0.00    -0.268 OA
ATOM      8  H   UNL A   1      34.306  22.090  23.184  1.00  0.00     0.163 HD
BRANCH   6   9
ATOM      9  C   UNL A   1      31.569  24.003  23.609  1.00  0.00     0.175 C 
ATOM     10  C   UNL A   1      31.562  23.816  25.135  1.00  0.00     0.080 C 
ATOM     11  C   UNL A   1      31.485  25.527  23.465  1.00  0.00     0.094 C 
ATOM     12  C   UNL A   1      30.601  24.866  25.672  1.00  0.00     0.022 C 
ATOM     13  C   UNL A   1      30.626  25.988  24.636  1.00  0.00     0.060 C 
BRANCH   9  14
ATOM     14  N   UNL A   1      30.366  23.451  22.954  1.00  0.00    -0.345 N 
ATOM     15  H   UNL A   1      29.535  23.913  23.326  1.00  0.00     0.345 HD
ATOM     16  H   UNL A   1      30.309  22.450  23.136  1.00  0.00     0.345 HD
ATOM     17  H   UNL A   1      30.423  23.612  21.948  1.00  0.00     0.345 HD
ENDBRANCH   9  14
BRANCH  13  18
ATOM     18  S   UNL A   1      31.172  27.605  25.190  1.00  0.00    -0.105 SA
BRANCH  18  19
ATOM     19  C   UNL A   1      31.227  28.634  23.779  1.00  0.00     0.073 A 
ATOM     20  C   UNL A   1      30.589  28.485  22.560  1.00  0.00     0.043 A 
ATOM     21  N   UNL A   1      31.189  29.982  24.048  1.00  0.00    -0.350 N 
ATOM     22  C   UNL A   1      29.576  29.506  22.606  1.00  0.00     0.001 A 
ATOM     23  C   UNL A   1      29.934  30.385  23.630  1.00  0.00     0.046 A 
ATOM     24  H   UNL A   1      31.897  30.535  24.448  1.00  0.00     0.167 HD
ATOM     25  C   UNL A   1      28.307  29.647  22.014  1.00  0.00     0.010 A 
ATOM     26  C   UNL A   1      29.076  31.343  24.168  1.00  0.00     0.027 A 
ATOM     27  C   UNL A   1      27.403  30.551  22.590  1.00  0.00     0.001 A 
ATOM     28  C   UNL A   1      27.776  31.364  23.663  1.00  0.00     0.002 A 
ENDBRANCH  18  19
ENDBRANCH  13  18
ENDBRANCH   6   9
ENDBRANCH   4   5
ENDBRANCH   3   4
ENDBRANCH   2   3
ENDBRANCH   1   2
BRANCH   1  29
ATOM     29  C   UNL A   1      35.034  23.103  26.309  1.00  0.00     0.021 C 
BRANCH  29  30
ATOM     30  C   UNL A   1      36.440  23.628  26.052  1.00  0.00     0.116 C 
BRANCH  30  31
ATOM     31  N   UNL A   1      37.433  22.570  26.160  1.00  0.00    -0.352 N 
ATOM     32  C   UNL A   1      38.780  22.675  26.402  1.00  0.00     0.251 C 
ATOM     33  H   UNL A   1      37.092  21.653  26.041  1.00  0.00     0.163 HD
ATOM     34  O   UNL A   1      39.515  21.713  26.229  1.00  0.00    -0.269 OA
BRANCH  32  35
ATOM     35  C   UNL A   1      39.331  23.967  26.864  1.00  0.00     0.039 A 
ATOM     36  C   UNL A   1      39.911  24.830  25.933  1.00  0.00     0.014 A 
ATOM     37  C   UNL A   1      39.266  24.324  28.215  1.00  0.00     0.014 A 
ATOM     38  C   UNL A   1      40.383  26.076  26.350  1.00  0.00     0.010 A 
ATOM     39  C   UNL A   1      39.663  25.595  28.613  1.00  0.00     0.010 A 
ATOM     40  C   UNL A   1      40.236  26.481  27.687  1.00  0.00    -0.014 A 
BRANCH  40  41
ATOM     41  C   UNL A   1      40.676  27.825  28.139  1.00  0.00     0.031 A 
ATOM     42  C   UNL A   1      42.142  28.169  28.167  1.00  0.00     0.074 A 
ATOM     43  C   UNL A   1      39.764  28.708  28.593  1.00  0.00     0.049 A 
ATOM     44  N   UNL A   1      42.723  29.263  28.586  1.00  0.00    -0.248 NA
ATOM     45  C   UNL A   1      43.079  27.141  27.684  1.00  0.00     0.031 C 
ATOM     46  C   UNL A   1      38.322  28.467  28.680  1.00  0.00     0.029 A 
ATOM     47  N   UNL A   1      39.918  29.977  29.092  1.00  0.00    -0.354 N 
ATOM     48  C   UNL A   1      44.089  29.047  28.442  1.00  0.00     0.074 A 
ATOM     49  C   UNL A   1      44.252  27.700  27.940  1.00  0.00     0.031 C 
ATOM     50  C   UNL A   1      37.723  29.555  29.191  1.00  0.00     0.029 A 
ATOM     51  C   UNL A   1      38.739  30.555  29.503  1.00  0.00     0.049 A 
ATOM     52  H   UNL A   1      40.789  30.432  29.149  1.00  0.00     0.167 HD
ATOM     53  C   UNL A   1      45.114  29.901  28.672  1.00  0.00     0.034 A 
ATOM     54  C   UNL A   1      38.504  31.751  30.077  1.00  0.00     0.034 A 
ATOM     55  C   UNL A   1      44.945  31.250  29.142  1.00  0.00     0.049 A 
ATOM     56  C   UNL A   1      39.662  32.684  30.316  1.00  0.00     0.074 A 
ATOM     57  C   UNL A   1      45.914  32.215  29.350  1.00  0.00     0.029 A 
ATOM     58  N   UNL A   1      43.730  31.824  29.481  1.00  0.00    -0.354 N 
ATOM     59  N   UNL A   1      40.932  32.511  30.043  1.00  0.00    -0.248 NA
ATOM     60  C   UNL A   1      39.349  33.992  30.910  1.00  0.00     0.031 C 
ATOM     61  C   UNL A   1      45.287  33.365  29.841  1.00  0.00     0.029 A 
ATOM     62  C   UNL A   1      43.923  33.128  29.902  1.00  0.00     0.049 A 
ATOM     63  H   UNL A   1      42.857  31.370  29.429  1.00  0.00     0.167 HD
ATOM     64  C   UNL A   1      41.562  33.701  30.389  1.00  0.00     0.074 A 
ATOM     65  C   UNL A   1      40.529  34.594  30.873  1.00  0.00     0.031 C 
ATOM     66  C   UNL A   1      42.877  34.024  30.324  1.00  0.00     0.034 A 
BRANCH  53  67
ATOM     67  C   UNL A   1      46.508  29.421  28.362  1.00  0.00     0.023 A 
ATOM     68  C   UNL A   1      47.068  29.686  27.094  1.00  0.00     0.012 A 
ATOM     69  C   UNL A   1      47.286  28.765  29.335  1.00  0.00     0.148 A 
ATOM     70  C   UNL A   1      48.364  29.274  26.786  1.00  0.00     0.002 A 
ATOM     71  C   UNL A   1      48.595  28.399  29.036  1.00  0.00     0.091 A 
ATOM     72  F   UNL A   1      46.734  28.505  30.528  1.00  0.00    -0.205 F 
ATOM     73  C   UNL A   1      49.129  28.641  27.761  1.00  0.00     0.022 A 
BRANCH  71  74
ATOM     74  S   UNL A   1      49.693  27.649  30.244  1.00  0.00     0.127 S 
ATOM     75  O   UNL A   1      51.006  28.033  29.726  1.00  0.00    -0.237 OA
ATOM     76  O   UNL A   1      49.302  28.331  31.478  1.00  0.00    -0.237 OA
ATOM     77  O   UNL A   1      49.407  26.221  30.219  1.00  0.00    -0.744 OA
ENDBRANCH  71  74
ENDBRANCH  53  67
BRANCH  54  78
ATOM     78  C   UNL A   1      37.113  32.165  30.419  1.00  0.00     0.023 A 
ATOM     79  C   UNL A   1      36.610  31.907  31.710  1.00  0.00     0.012 A 
ATOM     80  C   UNL A   1      36.287  32.807  29.477  1.00  0.00     0.148 A 
ATOM     81  C   UNL A   1      35.297  32.239  32.042  1.00  0.00     0.002 A 
ATOM     82  C   UNL A   1      34.997  33.188  29.834  1.00  0.00     0.091 A 
ATOM     83  F   UNL A   1      36.778  33.035  28.251  1.00  0.00    -0.205 F 
ATOM     84  C   UNL A   1      34.493  32.885  31.107  1.00  0.00     0.022 A 
BRANCH  82  85
ATOM     85  S   UNL A   1      33.939  34.138  28.736  1.00  0.00     0.127 S 
ATOM     86  O   UNL A   1      32.865  34.547  29.636  1.00  0.00    -0.237 OA
ATOM     87  O   UNL A   1      34.834  35.216  28.313  1.00  0.00    -0.237 OA
ATOM     88  O   UNL A   1      33.559  33.223  27.668  1.00  0.00    -0.744 OA
ENDBRANCH  82  85
ENDBRANCH  54  78
BRANCH  66  89
ATOM     89  C   UNL A   1      43.277  35.418  30.734  1.00  0.00     0.023 A 
ATOM     90  C   UNL A   1      43.638  35.686  32.068  1.00  0.00     0.012 A 
ATOM     91  C   UNL A   1      43.362  36.446  29.774  1.00  0.00     0.148 A 
ATOM     92  C   UNL A   1      44.041  36.965  32.450  1.00  0.00     0.002 A 
ATOM     93  C   UNL A   1      43.816  37.704  30.151  1.00  0.00     0.091 A 
ATOM     94  F   UNL A   1      42.997  36.175  28.513  1.00  0.00    -0.205 F 
ATOM     95  C   UNL A   1      44.142  37.969  31.491  1.00  0.00     0.022 A 
BRANCH  93  96
ATOM     96  S   UNL A   1      44.073  39.030  28.967  1.00  0.00     0.127 S 
ATOM     97  O   UNL A   1      42.710  39.278  28.498  1.00  0.00    -0.237 OA
ATOM     98  O   UNL A   1      44.632  40.090  29.806  1.00  0.00    -0.237 OA
ATOM     99  O   UNL A   1      44.990  38.504  27.965  1.00  0.00    -0.744 OA
ENDBRANCH  93  96
ENDBRANCH  66  89
ENDBRANCH  40  41
ENDBRANCH  32  35
ENDBRANCH  30  31
ENDBRANCH  29  30
ENDBRANCH   1  29
TORSDOF 19
ENDMDL
