MODEL 1
REMARK VINA RESULT:     -10.5      0.000      0.000
REMARK SMILES CC[C@H](C(=O)NCCCCCCNC(=O)c1ccc(-c2c3nc(c(-c4cccc(S(=O)(=O)[O-])c4F)c4ccc([nH]4)c(-c4cccc(S(=O)(=O)[O-])c4F)c4nc(c(-c5cccc(S(=O)(=O)[O-])c5F)c5ccc2[nH]5)C=C4)C=C3)cc1)N(C)c1cc(C)ccc1[N+](=O)[O-]
REMARK SMILES IDX 9 1 8 2 7 3 6 4 4 5 5 6 3 8 2 9 1 10 79 11 80 12 81 13 82 14
REMARK SMILES IDX 87 15 83 16 86 17 84 18 85 19 88 20 89 21 90 22 10 23 11 24
REMARK SMILES IDX 12 25 13 26 14 27 15 29 16 30 17 31 78 32 18 33 77 34 19 35
REMARK SMILES IDX 20 36 21 37 71 38 22 39 76 40 70 41 72 42 23 43 75 44 69 45
REMARK SMILES IDX 68 46 24 48 56 49 36 50 55 51 37 52 40 53 54 54 73 55 38 56
REMARK SMILES IDX 39 57 53 59 74 60 41 61 25 62 26 63 34 64 27 65 29 66 35 67
REMARK SMILES IDX 28 68 30 69 31 70 32 71 33 72 57 73 58 74 66 75 59 76 61 77
REMARK SMILES IDX 67 78 60 79 62 80 63 81 64 82 65 83 42 84 43 85 51 86 44 87
REMARK SMILES IDX 46 88 52 89 45 90 47 91 48 92 49 93 50 94
REMARK H PARENT 6 7 13 28 72 47 40 58
REMARK Flexibility Score: inf
ROOT
ATOM      1  C   UNL A   1      33.436  27.919  23.255  1.00  0.00     0.002 C 
ENDROOT
BRANCH   1   2
ATOM      2  C   UNL A   1      32.694  26.998  22.276  1.00  0.00     0.021 C 
BRANCH   2   3
ATOM      3  C   UNL A   1      33.168  25.548  22.280  1.00  0.00     0.116 C 
BRANCH   3   4
ATOM      4  N   UNL A   1      32.041  24.651  22.325  1.00  0.00    -0.354 N 
ATOM      5  C   UNL A   1      31.476  24.004  23.367  1.00  0.00     0.242 C 
ATOM      6  O   UNL A   1      30.793  23.015  23.068  1.00  0.00    -0.273 OA
ATOM      7  H   UNL A   1      31.612  24.484  21.454  1.00  0.00     0.163 HD
BRANCH   5   8
ATOM      8  C   UNL A   1      31.745  24.379  24.844  1.00  0.00     0.171 C 
BRANCH   8   9
ATOM      9  C   UNL A   1      30.785  25.249  25.677  1.00  0.00     0.032 C 
ATOM     10  C   UNL A   1      29.703  26.040  24.967  1.00  0.00     0.006 C 
ENDBRANCH   8   9
BRANCH   8  11
ATOM     11  N   UNL A   1      32.214  23.178  25.602  1.00  0.00    -0.357 N 
ATOM     12  C   UNL A   1      31.233  22.585  26.515  1.00  0.00     0.144 C 
BRANCH  11  13
ATOM     13  C   UNL A   1      33.445  22.547  25.478  1.00  0.00     0.116 A 
ATOM     14  C   UNL A   1      34.595  23.295  25.828  1.00  0.00     0.036 A 
ATOM     15  C   UNL A   1      33.719  21.245  25.014  1.00  0.00     0.292 A 
ATOM     16  C   UNL A   1      35.909  22.796  25.733  1.00  0.00    -0.049 A 
ATOM     17  C   UNL A   1      35.025  20.712  24.950  1.00  0.00     0.088 A 
ATOM     18  C   UNL A   1      37.064  23.685  26.085  1.00  0.00     0.044 C 
ATOM     19  C   UNL A   1      36.115  21.488  25.312  1.00  0.00     0.010 A 
BRANCH  15  20
ATOM     20  N   UNL A   1      32.721  20.366  24.439  1.00  0.00     0.064 N 
ATOM     21  O   UNL A   1      32.136  19.600  25.219  1.00  0.00    -0.258 OA
ATOM     22  O   UNL A   1      32.390  20.580  23.263  1.00  0.00    -0.258 OA
ENDBRANCH  15  20
ENDBRANCH  11  13
ENDBRANCH   8  11
ENDBRANCH   5   8
ENDBRANCH   3   4
ENDBRANCH   2   3
ENDBRANCH   1   2
BRANCH   1  23
ATOM     23  C   UNL A   1      32.572  28.539  24.356  1.00  0.00     0.002 C 
BRANCH  23  24
ATOM     24  C   UNL A   1      32.845  28.011  25.765  1.00  0.00     0.021 C 
BRANCH  24  25
ATOM     25  C   UNL A   1      34.058  28.625  26.450  1.00  0.00     0.116 C 
BRANCH  25  26
ATOM     26  N   UNL A   1      33.817  29.982  26.907  1.00  0.00    -0.352 N 
ATOM     27  C   UNL A   1      34.573  30.739  27.768  1.00  0.00     0.251 C 
ATOM     28  H   UNL A   1      33.006  30.414  26.553  1.00  0.00     0.163 HD
ATOM     29  O   UNL A   1      34.156  31.819  28.166  1.00  0.00    -0.269 OA
BRANCH  27  30
ATOM     30  C   UNL A   1      35.882  30.225  28.226  1.00  0.00     0.039 A 
ATOM     31  C   UNL A   1      36.996  30.398  27.407  1.00  0.00     0.014 A 
ATOM     32  C   UNL A   1      36.005  29.577  29.460  1.00  0.00     0.014 A 
ATOM     33  C   UNL A   1      38.244  29.942  27.835  1.00  0.00     0.010 A 
ATOM     34  C   UNL A   1      37.263  29.207  29.924  1.00  0.00     0.010 A 
ATOM     35  C   UNL A   1      38.390  29.355  29.103  1.00  0.00    -0.014 A 
BRANCH  35  36
ATOM     36  C   UNL A   1      39.705  28.842  29.561  1.00  0.00     0.031 A 
ATOM     37  C   UNL A   1      40.433  29.539  30.682  1.00  0.00     0.074 A 
ATOM     38  C   UNL A   1      40.270  27.788  28.941  1.00  0.00     0.049 A 
ATOM     39  N   UNL A   1      41.595  29.256  31.213  1.00  0.00    -0.248 NA
ATOM     40  C   UNL A   1      39.785  30.727  31.264  1.00  0.00     0.031 C 
ATOM     41  C   UNL A   1      39.700  27.076  27.795  1.00  0.00     0.029 A 
ATOM     42  N   UNL A   1      41.457  27.142  29.177  1.00  0.00    -0.354 N 
ATOM     43  C   UNL A   1      41.830  30.247  32.160  1.00  0.00     0.074 A 
ATOM     44  C   UNL A   1      40.717  31.165  32.098  1.00  0.00     0.031 C 
ATOM     45  C   UNL A   1      40.530  26.082  27.438  1.00  0.00     0.029 A 
ATOM     46  C   UNL A   1      41.702  26.105  28.309  1.00  0.00     0.049 A 
ATOM     47  H   UNL A   1      42.074  27.397  29.899  1.00  0.00     0.167 HD
ATOM     48  C   UNL A   1      42.863  30.365  33.028  1.00  0.00     0.034 A 
ATOM     49  C   UNL A   1      42.752  25.265  28.226  1.00  0.00     0.034 A 
ATOM     50  C   UNL A   1      43.949  29.428  33.112  1.00  0.00     0.049 A 
ATOM     51  C   UNL A   1      43.866  25.391  29.231  1.00  0.00     0.074 A 
ATOM     52  C   UNL A   1      45.007  29.414  34.003  1.00  0.00     0.029 A 
ATOM     53  N   UNL A   1      44.121  28.340  32.270  1.00  0.00    -0.354 N 
ATOM     54  N   UNL A   1      44.002  26.250  30.211  1.00  0.00    -0.248 NA
ATOM     55  C   UNL A   1      44.948  24.398  29.148  1.00  0.00     0.031 C 
ATOM     56  C   UNL A   1      45.835  28.334  33.680  1.00  0.00     0.029 A 
ATOM     57  C   UNL A   1      45.268  27.649  32.618  1.00  0.00     0.049 A 
ATOM     58  H   UNL A   1      43.516  28.096  31.533  1.00  0.00     0.167 HD
ATOM     59  C   UNL A   1      45.155  25.873  30.891  1.00  0.00     0.074 A 
ATOM     60  C   UNL A   1      45.670  24.699  30.218  1.00  0.00     0.031 C 
ATOM     61  C   UNL A   1      45.738  26.450  31.972  1.00  0.00     0.034 A 
BRANCH  48  62
ATOM     62  C   UNL A   1      42.841  31.532  33.982  1.00  0.00     0.023 A 
ATOM     63  C   UNL A   1      43.367  32.778  33.580  1.00  0.00     0.012 A 
ATOM     64  C   UNL A   1      42.264  31.410  35.261  1.00  0.00     0.148 A 
ATOM     65  C   UNL A   1      43.361  33.868  34.449  1.00  0.00     0.002 A 
ATOM     66  C   UNL A   1      42.213  32.516  36.102  1.00  0.00     0.091 A 
ATOM     67  F   UNL A   1      41.787  30.214  35.636  1.00  0.00    -0.205 F 
ATOM     68  C   UNL A   1      42.775  33.740  35.705  1.00  0.00     0.022 A 
BRANCH  66  69
ATOM     69  S   UNL A   1      41.404  32.476  37.705  1.00  0.00     0.127 S 
ATOM     70  O   UNL A   1      42.226  31.505  38.427  1.00  0.00    -0.237 OA
ATOM     71  O   UNL A   1      41.555  33.860  38.158  1.00  0.00    -0.237 OA
ATOM     72  O   UNL A   1      40.030  32.066  37.454  1.00  0.00    -0.744 OA
ENDBRANCH  66  69
ENDBRANCH  48  62
BRANCH  49  73
ATOM     73  C   UNL A   1      42.769  24.186  27.198  1.00  0.00     0.023 A 
ATOM     74  C   UNL A   1      43.490  24.377  26.002  1.00  0.00     0.012 A 
ATOM     75  C   UNL A   1      42.089  22.971  27.403  1.00  0.00     0.148 A 
ATOM     76  C   UNL A   1      43.499  23.393  25.012  1.00  0.00     0.002 A 
ATOM     77  C   UNL A   1      42.149  21.972  26.438  1.00  0.00     0.091 A 
ATOM     78  F   UNL A   1      41.405  22.812  28.545  1.00  0.00    -0.205 F 
ATOM     79  C   UNL A   1      42.836  22.189  25.234  1.00  0.00     0.022 A 
BRANCH  77  80
ATOM     80  S   UNL A   1      41.432  20.346  26.688  1.00  0.00     0.127 S 
ATOM     81  O   UNL A   1      41.774  19.673  25.438  1.00  0.00    -0.237 OA
ATOM     82  O   UNL A   1      42.164  19.873  27.864  1.00  0.00    -0.237 OA
ATOM     83  O   UNL A   1      40.011  20.570  26.916  1.00  0.00    -0.744 OA
ENDBRANCH  77  80
ENDBRANCH  49  73
BRANCH  61  84
ATOM     84  C   UNL A   1      46.961  25.780  32.545  1.00  0.00     0.023 A 
ATOM     85  C   UNL A   1      48.248  26.154  32.110  1.00  0.00     0.012 A 
ATOM     86  C   UNL A   1      46.828  24.813  33.561  1.00  0.00     0.148 A 
ATOM     87  C   UNL A   1      49.381  25.538  32.642  1.00  0.00     0.002 A 
ATOM     88  C   UNL A   1      47.963  24.246  34.127  1.00  0.00     0.091 A 
ATOM     89  F   UNL A   1      45.595  24.456  33.949  1.00  0.00    -0.205 F 
ATOM     90  C   UNL A   1      49.239  24.595  33.657  1.00  0.00     0.022 A 
BRANCH  88  91
ATOM     91  S   UNL A   1      47.875  23.103  35.509  1.00  0.00     0.127 S 
ATOM     92  O   UNL A   1      49.287  22.806  35.740  1.00  0.00    -0.237 OA
ATOM     93  O   UNL A   1      47.245  23.919  36.547  1.00  0.00    -0.237 OA
ATOM     94  O   UNL A   1      47.065  21.982  35.049  1.00  0.00    -0.744 OA
ENDBRANCH  88  91
ENDBRANCH  61  84
ENDBRANCH  35  36
ENDBRANCH  27  30
ENDBRANCH  25  26
ENDBRANCH  24  25
ENDBRANCH  23  24
ENDBRANCH   1  23
TORSDOF 20
ENDMDL
MODEL 2
REMARK VINA RESULT:     -10.0      2.150      2.825
REMARK SMILES CC[C@H](C(=O)NCCCCCCNC(=O)c1ccc(-c2c3nc(c(-c4cccc(S(=O)(=O)[O-])c4F)c4ccc([nH]4)c(-c4cccc(S(=O)(=O)[O-])c4F)c4nc(c(-c5cccc(S(=O)(=O)[O-])c5F)c5ccc2[nH]5)C=C4)C=C3)cc1)N(C)c1cc(C)ccc1[N+](=O)[O-]
REMARK SMILES IDX 9 1 8 2 7 3 6 4 4 5 5 6 3 8 2 9 1 10 79 11 80 12 81 13 82 14
REMARK SMILES IDX 87 15 83 16 86 17 84 18 85 19 88 20 89 21 90 22 10 23 11 24
REMARK SMILES IDX 12 25 13 26 14 27 15 29 16 30 17 31 78 32 18 33 77 34 19 35
REMARK SMILES IDX 20 36 21 37 71 38 22 39 76 40 70 41 72 42 23 43 75 44 69 45
REMARK SMILES IDX 68 46 24 48 56 49 36 50 55 51 37 52 40 53 54 54 73 55 38 56
REMARK SMILES IDX 39 57 53 59 74 60 41 61 25 62 26 63 34 64 27 65 29 66 35 67
REMARK SMILES IDX 28 68 30 69 31 70 32 71 33 72 57 73 58 74 66 75 59 76 61 77
REMARK SMILES IDX 67 78 60 79 62 80 63 81 64 82 65 83 42 84 43 85 51 86 44 87
REMARK SMILES IDX 46 88 52 89 45 90 47 91 48 92 49 93 50 94
REMARK H PARENT 6 7 13 28 72 47 40 58
REMARK Flexibility Score: inf
ROOT
ATOM      1  C   UNL A   1      32.762  29.443  24.874  1.00  0.00     0.002 C 
ENDROOT
BRANCH   1   2
ATOM      2  C   UNL A   1      32.759  28.722  23.518  1.00  0.00     0.021 C 
BRANCH   2   3
ATOM      3  C   UNL A   1      33.433  27.353  23.522  1.00  0.00     0.116 C 
BRANCH   3   4
ATOM      4  N   UNL A   1      32.490  26.330  23.144  1.00  0.00    -0.354 N 
ATOM      5  C   UNL A   1      31.955  25.322  23.867  1.00  0.00     0.242 C 
ATOM      6  O   UNL A   1      31.498  24.381  23.203  1.00  0.00    -0.273 OA
ATOM      7  H   UNL A   1      32.188  26.373  22.209  1.00  0.00     0.163 HD
BRANCH   5   8
ATOM      8  C   UNL A   1      32.004  25.268  25.412  1.00  0.00     0.171 C 
BRANCH   8   9
ATOM      9  C   UNL A   1      30.955  25.951  26.309  1.00  0.00     0.032 C 
ATOM     10  C   UNL A   1      31.305  27.264  26.984  1.00  0.00     0.006 C 
ENDBRANCH   8   9
BRANCH   8  11
ATOM     11  N   UNL A   1      32.310  23.877  25.868  1.00  0.00    -0.357 N 
ATOM     12  C   UNL A   1      31.243  23.209  26.619  1.00  0.00     0.144 C 
BRANCH  11  13
ATOM     13  C   UNL A   1      33.462  23.151  25.598  1.00  0.00     0.116 A 
ATOM     14  C   UNL A   1      34.700  23.752  25.930  1.00  0.00     0.036 A 
ATOM     15  C   UNL A   1      33.577  21.880  25.000  1.00  0.00     0.292 A 
ATOM     16  C   UNL A   1      35.951  23.146  25.697  1.00  0.00    -0.049 A 
ATOM     17  C   UNL A   1      34.818  21.238  24.794  1.00  0.00     0.088 A 
ATOM     18  C   UNL A   1      37.207  23.887  26.042  1.00  0.00     0.044 C 
ATOM     19  C   UNL A   1      36.000  21.871  25.145  1.00  0.00     0.010 A 
BRANCH  15  20
ATOM     20  N   UNL A   1      32.463  21.157  24.422  1.00  0.00     0.064 N 
ATOM     21  O   UNL A   1      32.310  21.255  23.194  1.00  0.00    -0.258 OA
ATOM     22  O   UNL A   1      31.874  20.348  25.154  1.00  0.00    -0.258 OA
ENDBRANCH  15  20
ENDBRANCH  11  13
ENDBRANCH   8  11
ENDBRANCH   5   8
ENDBRANCH   3   4
ENDBRANCH   2   3
ENDBRANCH   1   2
BRANCH   1  23
ATOM     23  C   UNL A   1      31.546  30.331  25.148  1.00  0.00     0.002 C 
BRANCH  23  24
ATOM     24  C   UNL A   1      31.491  30.938  26.550  1.00  0.00     0.021 C 
BRANCH  24  25
ATOM     25  C   UNL A   1      32.825  31.452  27.073  1.00  0.00     0.116 C 
BRANCH  25  26
ATOM     26  N   UNL A   1      32.805  32.877  27.353  1.00  0.00    -0.352 N 
ATOM     27  C   UNL A   1      33.653  33.600  28.155  1.00  0.00     0.251 C 
ATOM     28  H   UNL A   1      32.092  33.390  26.910  1.00  0.00     0.163 HD
ATOM     29  O   UNL A   1      33.416  34.776  28.401  1.00  0.00    -0.269 OA
BRANCH  27  30
ATOM     30  C   UNL A   1      34.841  32.938  28.737  1.00  0.00     0.039 A 
ATOM     31  C   UNL A   1      36.080  33.118  28.123  1.00  0.00     0.014 A 
ATOM     32  C   UNL A   1      34.730  32.146  29.885  1.00  0.00     0.014 A 
ATOM     33  C   UNL A   1      37.215  32.522  28.673  1.00  0.00     0.010 A 
ATOM     34  C   UNL A   1      35.875  31.630  30.482  1.00  0.00     0.010 A 
ATOM     35  C   UNL A   1      37.124  31.784  29.866  1.00  0.00    -0.014 A 
BRANCH  35  36
ATOM     36  C   UNL A   1      38.318  31.123  30.448  1.00  0.00     0.031 A 
ATOM     37  C   UNL A   1      38.788  31.503  31.828  1.00  0.00     0.074 A 
ATOM     38  C   UNL A   1      39.010  30.221  29.723  1.00  0.00     0.049 A 
ATOM     39  N   UNL A   1      39.815  31.055  32.504  1.00  0.00    -0.248 NA
ATOM     40  C   UNL A   1      38.022  32.547  32.531  1.00  0.00     0.031 C 
ATOM     41  C   UNL A   1      38.700  29.825  28.348  1.00  0.00     0.029 A 
ATOM     42  N   UNL A   1      40.126  29.489  30.037  1.00  0.00    -0.354 N 
ATOM     43  C   UNL A   1      39.838  31.783  33.688  1.00  0.00     0.074 A 
ATOM     44  C   UNL A   1      38.754  32.736  33.619  1.00  0.00     0.031 C 
ATOM     45  C   UNL A   1      39.595  28.909  27.942  1.00  0.00     0.029 A 
ATOM     46  C   UNL A   1      40.557  28.676  29.015  1.00  0.00     0.049 A 
ATOM     47  H   UNL A   1      40.576  29.540  30.911  1.00  0.00     0.167 HD
ATOM     48  C   UNL A   1      40.664  31.650  34.752  1.00  0.00     0.034 A 
ATOM     49  C   UNL A   1      41.609  27.837  28.952  1.00  0.00     0.034 A 
ATOM     50  C   UNL A   1      41.716  30.675  34.832  1.00  0.00     0.049 A 
ATOM     51  C   UNL A   1      42.485  27.674  30.165  1.00  0.00     0.074 A 
ATOM     52  C   UNL A   1      42.563  30.405  35.892  1.00  0.00     0.029 A 
ATOM     53  N   UNL A   1      42.070  29.810  33.807  1.00  0.00    -0.354 N 
ATOM     54  N   UNL A   1      42.405  28.272  31.329  1.00  0.00    -0.248 NA
ATOM     55  C   UNL A   1      43.569  26.685  30.071  1.00  0.00     0.031 C 
ATOM     56  C   UNL A   1      43.449  29.398  35.497  1.00  0.00     0.029 A 
ATOM     57  C   UNL A   1      43.125  29.008  34.208  1.00  0.00     0.049 A 
ATOM     58  H   UNL A   1      41.636  29.772  32.925  1.00  0.00     0.167 HD
ATOM     59  C   UNL A   1      43.392  27.697  32.122  1.00  0.00     0.074 A 
ATOM     60  C   UNL A   1      44.048  26.694  31.308  1.00  0.00     0.031 C 
ATOM     61  C   UNL A   1      43.730  27.977  33.405  1.00  0.00     0.034 A 
BRANCH  48  62
ATOM     62  C   UNL A   1      40.432  32.558  35.933  1.00  0.00     0.023 A 
ATOM     63  C   UNL A   1      41.182  33.746  36.063  1.00  0.00     0.012 A 
ATOM     64  C   UNL A   1      39.444  32.261  36.892  1.00  0.00     0.148 A 
ATOM     65  C   UNL A   1      40.987  34.597  37.150  1.00  0.00     0.002 A 
ATOM     66  C   UNL A   1      39.218  33.141  37.944  1.00  0.00     0.091 A 
ATOM     67  F   UNL A   1      38.753  31.118  36.765  1.00  0.00    -0.205 F 
ATOM     68  C   UNL A   1      39.998  34.300  38.084  1.00  0.00     0.022 A 
BRANCH  66  69
ATOM     69  S   UNL A   1      37.910  32.892  39.150  1.00  0.00     0.127 S 
ATOM     70  O   UNL A   1      38.097  34.046  40.030  1.00  0.00    -0.237 OA
ATOM     71  O   UNL A   1      36.709  32.951  38.316  1.00  0.00    -0.237 OA
ATOM     72  O   UNL A   1      38.164  31.595  39.759  1.00  0.00    -0.744 OA
ENDBRANCH  66  69
ENDBRANCH  48  62
BRANCH  49  73
ATOM     73  C   UNL A   1      41.850  27.031  27.721  1.00  0.00     0.023 A 
ATOM     74  C   UNL A   1      42.320  27.668  26.555  1.00  0.00     0.012 A 
ATOM     75  C   UNL A   1      41.632  25.641  27.704  1.00  0.00     0.148 A 
ATOM     76  C   UNL A   1      42.528  26.941  25.382  1.00  0.00     0.002 A 
ATOM     77  C   UNL A   1      41.896  24.913  26.549  1.00  0.00     0.091 A 
ATOM     78  F   UNL A   1      41.180  25.056  28.822  1.00  0.00    -0.205 F 
ATOM     79  C   UNL A   1      42.325  25.564  25.382  1.00  0.00     0.022 A 
BRANCH  77  80
ATOM     80  S   UNL A   1      41.782  23.122  26.491  1.00  0.00     0.127 S 
ATOM     81  O   UNL A   1      42.344  22.829  25.176  1.00  0.00    -0.237 OA
ATOM     82  O   UNL A   1      42.623  22.732  27.623  1.00  0.00    -0.237 OA
ATOM     83  O   UNL A   1      40.369  22.810  26.657  1.00  0.00    -0.744 OA
ENDBRANCH  77  80
ENDBRANCH  49  73
BRANCH  61  84
ATOM     84  C   UNL A   1      44.811  27.140  34.040  1.00  0.00     0.023 A 
ATOM     85  C   UNL A   1      46.165  27.514  33.921  1.00  0.00     0.012 A 
ATOM     86  C   UNL A   1      44.471  26.006  34.805  1.00  0.00     0.148 A 
ATOM     87  C   UNL A   1      47.166  26.743  34.512  1.00  0.00     0.002 A 
ATOM     88  C   UNL A   1      45.470  25.276  35.438  1.00  0.00     0.091 A 
ATOM     89  F   UNL A   1      43.181  25.655  34.891  1.00  0.00    -0.205 F 
ATOM     90  C   UNL A   1      46.818  25.633  35.278  1.00  0.00     0.022 A 
BRANCH  88  91
ATOM     91  S   UNL A   1      45.103  23.897  36.529  1.00  0.00     0.127 S 
ATOM     92  O   UNL A   1      46.431  23.556  37.033  1.00  0.00    -0.237 OA
ATOM     93  O   UNL A   1      44.214  24.511  37.516  1.00  0.00    -0.237 OA
ATOM     94  O   UNL A   1      44.469  22.886  35.694  1.00  0.00    -0.744 OA
ENDBRANCH  88  91
ENDBRANCH  61  84
ENDBRANCH  35  36
ENDBRANCH  27  30
ENDBRANCH  25  26
ENDBRANCH  24  25
ENDBRANCH  23  24
ENDBRANCH   1  23
TORSDOF 20
ENDMDL
MODEL 3
REMARK VINA RESULT:      -9.7      5.427      8.760
REMARK SMILES CC[C@H](C(=O)NCCCCCCNC(=O)c1ccc(-c2c3nc(c(-c4cccc(S(=O)(=O)[O-])c4F)c4ccc([nH]4)c(-c4cccc(S(=O)(=O)[O-])c4F)c4nc(c(-c5cccc(S(=O)(=O)[O-])c5F)c5ccc2[nH]5)C=C4)C=C3)cc1)N(C)c1cc(C)ccc1[N+](=O)[O-]
REMARK SMILES IDX 9 1 8 2 7 3 6 4 4 5 5 6 3 8 2 9 1 10 79 11 80 12 81 13 82 14
REMARK SMILES IDX 87 15 83 16 86 17 84 18 85 19 88 20 89 21 90 22 10 23 11 24
REMARK SMILES IDX 12 25 13 26 14 27 15 29 16 30 17 31 78 32 18 33 77 34 19 35
REMARK SMILES IDX 20 36 21 37 71 38 22 39 76 40 70 41 72 42 23 43 75 44 69 45
REMARK SMILES IDX 68 46 24 48 56 49 36 50 55 51 37 52 40 53 54 54 73 55 38 56
REMARK SMILES IDX 39 57 53 59 74 60 41 61 25 62 26 63 34 64 27 65 29 66 35 67
REMARK SMILES IDX 28 68 30 69 31 70 32 71 33 72 57 73 58 74 66 75 59 76 61 77
REMARK SMILES IDX 67 78 60 79 62 80 63 81 64 82 65 83 42 84 43 85 51 86 44 87
REMARK SMILES IDX 46 88 52 89 45 90 47 91 48 92 49 93 50 94
REMARK H PARENT 6 7 13 28 72 47 40 58
REMARK Flexibility Score: inf
ROOT
ATOM      1  C   UNL A   1      37.742  21.867  25.073  1.00  0.00     0.002 C 
ENDROOT
BRANCH   1   2
ATOM      2  C   UNL A   1      36.947  23.080  24.568  1.00  0.00     0.021 C 
BRANCH   2   3
ATOM      3  C   UNL A   1      36.326  23.938  25.667  1.00  0.00     0.116 C 
BRANCH   3   4
ATOM      4  N   UNL A   1      35.446  23.143  26.486  1.00  0.00    -0.354 N 
ATOM      5  C   UNL A   1      34.157  22.787  26.298  1.00  0.00     0.242 C 
ATOM      6  O   UNL A   1      33.547  22.450  27.322  1.00  0.00    -0.273 OA
ATOM      7  H   UNL A   1      35.850  22.804  27.317  1.00  0.00     0.163 HD
BRANCH   5   8
ATOM      8  C   UNL A   1      33.438  22.898  24.933  1.00  0.00     0.171 C 
BRANCH   8   9
ATOM      9  C   UNL A   1      32.950  21.672  24.138  1.00  0.00     0.032 C 
ATOM     10  C   UNL A   1      33.210  20.284  24.693  1.00  0.00     0.006 C 
ENDBRANCH   8   9
BRANCH   8  11
ATOM     11  N   UNL A   1      32.406  23.981  24.981  1.00  0.00    -0.357 N 
ATOM     12  C   UNL A   1      31.028  23.529  25.194  1.00  0.00     0.144 C 
BRANCH  11  13
ATOM     13  C   UNL A   1      32.635  25.347  24.909  1.00  0.00     0.116 A 
ATOM     14  C   UNL A   1      32.485  26.095  26.101  1.00  0.00     0.036 A 
ATOM     15  C   UNL A   1      32.978  26.119  23.781  1.00  0.00     0.292 A 
ATOM     16  C   UNL A   1      32.664  27.491  26.177  1.00  0.00    -0.049 A 
ATOM     17  C   UNL A   1      33.202  27.512  23.842  1.00  0.00     0.088 A 
ATOM     18  C   UNL A   1      32.434  28.196  27.480  1.00  0.00     0.044 C 
ATOM     19  C   UNL A   1      33.047  28.193  25.041  1.00  0.00     0.010 A 
BRANCH  15  20
ATOM     20  N   UNL A   1      33.014  25.601  22.429  1.00  0.00     0.064 N 
ATOM     21  O   UNL A   1      34.028  24.965  22.101  1.00  0.00    -0.258 OA
ATOM     22  O   UNL A   1      31.963  25.660  21.773  1.00  0.00    -0.258 OA
ENDBRANCH  15  20
ENDBRANCH  11  13
ENDBRANCH   8  11
ENDBRANCH   5   8
ENDBRANCH   3   4
ENDBRANCH   2   3
ENDBRANCH   1   2
BRANCH   1  23
ATOM     23  C   UNL A   1      38.887  22.187  26.036  1.00  0.00     0.002 C 
BRANCH  23  24
ATOM     24  C   UNL A   1      39.606  20.967  26.613  1.00  0.00     0.021 C 
BRANCH  24  25
ATOM     25  C   UNL A   1      39.650  19.759  25.689  1.00  0.00     0.116 C 
BRANCH  25  26
ATOM     26  N   UNL A   1      40.749  18.859  25.994  1.00  0.00    -0.352 N 
ATOM     27  C   UNL A   1      42.050  19.175  26.301  1.00  0.00     0.251 C 
ATOM     28  H   UNL A   1      40.532  17.899  25.981  1.00  0.00     0.163 HD
ATOM     29  O   UNL A   1      42.892  18.292  26.394  1.00  0.00    -0.269 OA
BRANCH  27  30
ATOM     30  C   UNL A   1      42.425  20.593  26.491  1.00  0.00     0.039 A 
ATOM     31  C   UNL A   1      42.550  21.086  27.790  1.00  0.00     0.014 A 
ATOM     32  C   UNL A   1      42.655  21.429  25.393  1.00  0.00     0.014 A 
ATOM     33  C   UNL A   1      42.929  22.415  27.989  1.00  0.00     0.010 A 
ATOM     34  C   UNL A   1      43.121  22.723  25.595  1.00  0.00     0.010 A 
ATOM     35  C   UNL A   1      43.231  23.240  26.892  1.00  0.00    -0.014 A 
BRANCH  35  36
ATOM     36  C   UNL A   1      43.610  24.662  27.088  1.00  0.00     0.031 A 
ATOM     37  C   UNL A   1      42.629  25.621  27.713  1.00  0.00     0.074 A 
ATOM     38  C   UNL A   1      44.809  25.104  26.661  1.00  0.00     0.049 A 
ATOM     39  N   UNL A   1      42.763  26.899  27.953  1.00  0.00    -0.248 NA
ATOM     40  C   UNL A   1      41.312  25.078  28.089  1.00  0.00     0.031 C 
ATOM     41  C   UNL A   1      45.815  24.291  25.974  1.00  0.00     0.029 A 
ATOM     42  N   UNL A   1      45.377  26.351  26.728  1.00  0.00    -0.354 N 
ATOM     43  C   UNL A   1      41.544  27.318  28.473  1.00  0.00     0.074 A 
ATOM     44  C   UNL A   1      40.665  26.171  28.467  1.00  0.00     0.031 C 
ATOM     45  C   UNL A   1      46.884  25.057  25.697  1.00  0.00     0.029 A 
ATOM     46  C   UNL A   1      46.627  26.418  26.159  1.00  0.00     0.049 A 
ATOM     47  H   UNL A   1      44.933  27.124  27.144  1.00  0.00     0.167 HD
ATOM     48  C   UNL A   1      41.194  28.538  28.944  1.00  0.00     0.034 A 
ATOM     49  C   UNL A   1      47.472  27.459  26.027  1.00  0.00     0.034 A 
ATOM     50  C   UNL A   1      42.083  29.666  28.983  1.00  0.00     0.049 A 
ATOM     51  C   UNL A   1      47.077  28.794  26.599  1.00  0.00     0.074 A 
ATOM     52  C   UNL A   1      41.855  30.926  29.506  1.00  0.00     0.029 A 
ATOM     53  N   UNL A   1      43.373  29.673  28.472  1.00  0.00    -0.354 N 
ATOM     54  N   UNL A   1      45.971  29.135  27.214  1.00  0.00    -0.248 NA
ATOM     55  C   UNL A   1      48.068  29.875  26.502  1.00  0.00     0.031 C 
ATOM     56  C   UNL A   1      42.996  31.704  29.285  1.00  0.00     0.029 A 
ATOM     57  C   UNL A   1      43.952  30.915  28.666  1.00  0.00     0.049 A 
ATOM     58  H   UNL A   1      43.811  28.907  28.036  1.00  0.00     0.167 HD
ATOM     59  C   UNL A   1      46.152  30.453  27.621  1.00  0.00     0.074 A 
ATOM     60  C   UNL A   1      47.480  30.842  27.194  1.00  0.00     0.031 C 
ATOM     61  C   UNL A   1      45.295  31.269  28.284  1.00  0.00     0.034 A 
BRANCH  48  62
ATOM     62  C   UNL A   1      39.799  28.701  29.492  1.00  0.00     0.023 A 
ATOM     63  C   UNL A   1      39.518  28.315  30.821  1.00  0.00     0.012 A 
ATOM     64  C   UNL A   1      38.777  29.273  28.712  1.00  0.00     0.148 A 
ATOM     65  C   UNL A   1      38.235  28.453  31.346  1.00  0.00     0.002 A 
ATOM     66  C   UNL A   1      37.512  29.457  29.260  1.00  0.00     0.091 A 
ATOM     67  F   UNL A   1      39.055  29.616  27.445  1.00  0.00    -0.205 F 
ATOM     68  C   UNL A   1      37.235  29.033  30.570  1.00  0.00     0.022 A 
BRANCH  66  69
ATOM     69  S   UNL A   1      36.181  30.273  28.372  1.00  0.00     0.127 S 
ATOM     70  O   UNL A   1      35.146  30.355  29.403  1.00  0.00    -0.237 OA
ATOM     71  O   UNL A   1      36.791  31.555  28.017  1.00  0.00    -0.237 OA
ATOM     72  O   UNL A   1      35.867  29.415  27.239  1.00  0.00    -0.744 OA
ENDBRANCH  66  69
ENDBRANCH  48  62
BRANCH  49  73
ATOM     73  C   UNL A   1      48.804  27.265  25.388  1.00  0.00     0.023 A 
ATOM     74  C   UNL A   1      49.904  26.877  26.178  1.00  0.00     0.012 A 
ATOM     75  C   UNL A   1      48.983  27.448  24.003  1.00  0.00     0.148 A 
ATOM     76  C   UNL A   1      51.168  26.716  25.608  1.00  0.00     0.002 A 
ATOM     77  C   UNL A   1      50.232  27.231  23.432  1.00  0.00     0.091 A 
ATOM     78  F   UNL A   1      47.925  27.822  23.270  1.00  0.00    -0.205 F 
ATOM     79  C   UNL A   1      51.330  26.884  24.236  1.00  0.00     0.022 A 
BRANCH  77  80
ATOM     80  S   UNL A   1      50.507  27.301  21.660  1.00  0.00     0.127 S 
ATOM     81  O   UNL A   1      49.393  26.506  21.152  1.00  0.00    -0.237 OA
ATOM     82  O   UNL A   1      50.410  28.738  21.399  1.00  0.00    -0.237 OA
ATOM     83  O   UNL A   1      51.834  26.740  21.443  1.00  0.00    -0.744 OA
ENDBRANCH  77  80
ENDBRANCH  49  73
BRANCH  61  84
ATOM     84  C   UNL A   1      45.788  32.644  28.655  1.00  0.00     0.023 A 
ATOM     85  C   UNL A   1      46.506  32.845  29.851  1.00  0.00     0.012 A 
ATOM     86  C   UNL A   1      45.583  33.730  27.781  1.00  0.00     0.148 A 
ATOM     87  C   UNL A   1      46.967  34.116  30.194  1.00  0.00     0.002 A 
ATOM     88  C   UNL A   1      46.096  34.981  28.102  1.00  0.00     0.091 A 
ATOM     89  F   UNL A   1      44.882  33.524  26.657  1.00  0.00    -0.205 F 
ATOM     90  C   UNL A   1      46.773  35.179  29.315  1.00  0.00     0.022 A 
BRANCH  88  91
ATOM     91  S   UNL A   1      45.982  36.379  26.980  1.00  0.00     0.127 S 
ATOM     92  O   UNL A   1      46.795  37.379  27.668  1.00  0.00    -0.237 OA
ATOM     93  O   UNL A   1      46.580  35.843  25.756  1.00  0.00    -0.237 OA
ATOM     94  O   UNL A   1      44.563  36.690  26.871  1.00  0.00    -0.744 OA
ENDBRANCH  88  91
ENDBRANCH  61  84
ENDBRANCH  35  36
ENDBRANCH  27  30
ENDBRANCH  25  26
ENDBRANCH  24  25
ENDBRANCH  23  24
ENDBRANCH   1  23
TORSDOF 20
ENDMDL
