MODEL 1
REMARK VINA RESULT:     -10.6      0.000      0.000
REMARK SMILES C[C@H]([NH2+]CC1(O)CCCC1)[C@H](C)C(=O)NCCCCCCNC(=O)c1ccc(-c2c3nc(c(-c4cccc(S(=O)(=O)[O-])c4F)c4ccc([nH]4)c(-c4cccc(S(=O)(=O)[O-])c4F)c4nc(c(-c5cccc(S(=O)(=O)[O-])c5F)c5ccc2[nH]5)C=C4)C=C3)cc1
REMARK SMILES IDX 17 1 16 2 15 3 13 4 14 5 11 7 12 8 2 9 1 10 3 11 4 14 5 15
REMARK SMILES IDX 7 16 10 17 8 18 9 19 6 20 18 22 19 23 20 24 21 25 22 26
REMARK SMILES IDX 23 27 24 29 25 30 26 31 87 32 27 33 86 34 28 35 29 36 30 37
REMARK SMILES IDX 80 38 31 39 85 40 79 41 81 42 32 43 84 44 78 45 77 46 33 48
REMARK SMILES IDX 65 49 45 50 64 51 46 52 49 53 63 54 82 55 47 56 48 57 62 59
REMARK SMILES IDX 83 60 50 61 34 62 35 63 43 64 36 65 38 66 44 67 37 68 39 69
REMARK SMILES IDX 40 70 41 71 42 72 66 73 67 74 75 75 68 76 70 77 76 78 69 79
REMARK SMILES IDX 71 80 72 81 73 82 74 83 51 84 52 85 60 86 53 87 55 88 61 89
REMARK SMILES IDX 54 90 56 91 57 92 58 93 59 94
REMARK H PARENT 15 6 3 12 3 13 6 21 22 28 81 47 49 58
REMARK Flexibility Score: inf
ROOT
ATOM      1  C   UNL A   1      34.357  24.725  23.853  1.00  0.00     0.021 C 
ENDROOT
BRANCH   1   2
ATOM      2  C   UNL A   1      33.273  25.011  22.825  1.00  0.00     0.116 C 
BRANCH   2   3
ATOM      3  N   UNL A   1      33.262  26.356  22.318  1.00  0.00    -0.356 N 
ATOM      4  C   UNL A   1      33.130  27.526  23.000  1.00  0.00     0.228 C 
ATOM      5  O   UNL A   1      33.370  28.563  22.368  1.00  0.00    -0.275 OA
ATOM      6  H   UNL A   1      33.364  26.442  21.342  1.00  0.00     0.163 HD
BRANCH   4   7
ATOM      7  C   UNL A   1      32.600  27.617  24.442  1.00  0.00     0.133 C 
ATOM      8  C   UNL A   1      33.528  28.506  25.273  1.00  0.00     0.024 C 
BRANCH   7   9
ATOM      9  C   UNL A   1      31.060  27.727  24.724  1.00  0.00     0.191 C 
ATOM     10  C   UNL A   1      30.263  26.421  24.616  1.00  0.00     0.076 C 
BRANCH   9  11
ATOM     11  N   UNL A   1      30.276  28.891  24.255  1.00  0.00    -0.341 N 
ATOM     12  H   UNL A   1      30.931  29.661  24.118  1.00  0.00     0.346 HD
ATOM     13  H   UNL A   1      29.571  29.028  24.980  1.00  0.00     0.346 HD
BRANCH  11  14
ATOM     14  C   UNL A   1      29.503  28.752  23.018  1.00  0.00     0.296 C 
BRANCH  14  15
ATOM     15  C   UNL A   1      29.441  30.062  22.204  1.00  0.00     0.113 C 
ATOM     16  C   UNL A   1      29.303  31.316  23.062  1.00  0.00     0.041 C 
ATOM     17  C   UNL A   1      28.194  30.119  21.316  1.00  0.00     0.041 C 
ATOM     18  C   UNL A   1      28.728  32.367  22.111  1.00  0.00     0.003 C 
ATOM     19  C   UNL A   1      28.017  31.600  20.995  1.00  0.00     0.003 C 
BRANCH  15  20
ATOM     20  O   UNL A   1      30.612  30.130  21.373  1.00  0.00    -0.384 OA
ATOM     21  H   UNL A   1      30.926  31.048  21.331  1.00  0.00     0.211 HD
ENDBRANCH  15  20
ENDBRANCH  14  15
ENDBRANCH  11  14
ENDBRANCH   9  11
ENDBRANCH   7   9
ENDBRANCH   4   7
ENDBRANCH   2   3
ENDBRANCH   1   2
BRANCH   1  22
ATOM     22  C   UNL A   1      35.140  23.439  23.594  1.00  0.00     0.002 C 
BRANCH  22  23
ATOM     23  C   UNL A   1      34.440  22.145  24.034  1.00  0.00     0.002 C 
BRANCH  23  24
ATOM     24  C   UNL A   1      35.009  21.475  25.289  1.00  0.00     0.021 C 
BRANCH  24  25
ATOM     25  C   UNL A   1      36.365  22.006  25.747  1.00  0.00     0.116 C 
BRANCH  25  26
ATOM     26  N   UNL A   1      37.353  20.946  25.859  1.00  0.00    -0.352 N 
ATOM     27  C   UNL A   1      38.710  21.025  26.025  1.00  0.00     0.251 C 
ATOM     28  H   UNL A   1      36.993  20.031  25.807  1.00  0.00     0.163 HD
ATOM     29  O   UNL A   1      39.397  20.012  25.887  1.00  0.00    -0.269 OA
BRANCH  27  30
ATOM     30  C   UNL A   1      39.353  22.310  26.368  1.00  0.00     0.039 A 
ATOM     31  C   UNL A   1      40.410  22.312  27.285  1.00  0.00     0.014 A 
ATOM     32  C   UNL A   1      38.886  23.516  25.838  1.00  0.00     0.014 A 
ATOM     33  C   UNL A   1      41.011  23.518  27.649  1.00  0.00     0.010 A 
ATOM     34  C   UNL A   1      39.533  24.709  26.148  1.00  0.00     0.010 A 
ATOM     35  C   UNL A   1      40.586  24.726  27.074  1.00  0.00    -0.014 A 
BRANCH  35  36
ATOM     36  C   UNL A   1      41.206  26.019  27.457  1.00  0.00     0.031 A 
ATOM     37  C   UNL A   1      42.636  26.309  27.079  1.00  0.00     0.074 A 
ATOM     38  C   UNL A   1      40.509  26.902  28.197  1.00  0.00     0.049 A 
ATOM     39  N   UNL A   1      43.365  27.359  27.358  1.00  0.00    -0.248 NA
ATOM     40  C   UNL A   1      43.348  25.274  26.312  1.00  0.00     0.031 C 
ATOM     41  C   UNL A   1      39.143  26.703  28.686  1.00  0.00     0.029 A 
ATOM     42  N   UNL A   1      40.860  28.134  28.686  1.00  0.00    -0.354 N 
ATOM     43  C   UNL A   1      44.626  27.096  26.836  1.00  0.00     0.074 A 
ATOM     44  C   UNL A   1      44.575  25.772  26.256  1.00  0.00     0.031 C 
ATOM     45  C   UNL A   1      38.771  27.776  29.401  1.00  0.00     0.029 A 
ATOM     46  C   UNL A   1      39.876  28.730  29.440  1.00  0.00     0.049 A 
ATOM     47  H   UNL A   1      41.734  28.554  28.513  1.00  0.00     0.167 HD
ATOM     48  C   UNL A   1      45.719  27.895  26.809  1.00  0.00     0.034 A 
ATOM     49  C   UNL A   1      39.866  29.911  30.088  1.00  0.00     0.034 A 
ATOM     50  C   UNL A   1      45.749  29.231  27.340  1.00  0.00     0.049 A 
ATOM     51  C   UNL A   1      41.074  30.804  29.992  1.00  0.00     0.074 A 
ATOM     52  C   UNL A   1      46.780  30.152  27.298  1.00  0.00     0.029 A 
ATOM     53  N   UNL A   1      44.697  29.840  28.007  1.00  0.00    -0.354 N 
ATOM     54  N   UNL A   1      42.207  30.597  29.366  1.00  0.00    -0.248 NA
ATOM     55  C   UNL A   1      40.985  32.115  30.653  1.00  0.00     0.031 C 
ATOM     56  C   UNL A   1      46.356  31.314  27.950  1.00  0.00     0.029 A 
ATOM     57  C   UNL A   1      45.052  31.124  28.377  1.00  0.00     0.049 A 
ATOM     58  H   UNL A   1      43.825  29.419  28.189  1.00  0.00     0.167 HD
ATOM     59  C   UNL A   1      42.946  31.765  29.518  1.00  0.00     0.074 A 
ATOM     60  C   UNL A   1      42.124  32.681  30.282  1.00  0.00     0.031 C 
ATOM     61  C   UNL A   1      44.197  32.048  29.079  1.00  0.00     0.034 A 
BRANCH  48  62
ATOM     62  C   UNL A   1      46.957  27.369  26.130  1.00  0.00     0.023 A 
ATOM     63  C   UNL A   1      47.138  27.592  24.749  1.00  0.00     0.012 A 
ATOM     64  C   UNL A   1      47.966  26.711  26.860  1.00  0.00     0.148 A 
ATOM     65  C   UNL A   1      48.283  27.137  24.098  1.00  0.00     0.002 A 
ATOM     66  C   UNL A   1      49.126  26.299  26.212  1.00  0.00     0.091 A 
ATOM     67  F   UNL A   1      47.768  26.489  28.166  1.00  0.00    -0.205 F 
ATOM     68  C   UNL A   1      49.281  26.501  24.830  1.00  0.00     0.022 A 
BRANCH  66  69
ATOM     69  S   UNL A   1      50.504  25.542  27.081  1.00  0.00     0.127 S 
ATOM     70  O   UNL A   1      49.864  24.374  27.686  1.00  0.00    -0.237 OA
ATOM     71  O   UNL A   1      51.426  25.232  25.987  1.00  0.00    -0.237 OA
ATOM     72  O   UNL A   1      50.989  26.544  28.018  1.00  0.00    -0.744 OA
ENDBRANCH  66  69
ENDBRANCH  48  62
BRANCH  49  73
ATOM     73  C   UNL A   1      38.643  30.354  30.815  1.00  0.00     0.023 A 
ATOM     74  C   UNL A   1      38.502  30.043  32.183  1.00  0.00     0.012 A 
ATOM     75  C   UNL A   1      37.632  31.093  30.172  1.00  0.00     0.148 A 
ATOM     76  C   UNL A   1      37.360  30.427  32.886  1.00  0.00     0.002 A 
ATOM     77  C   UNL A   1      36.522  31.519  30.892  1.00  0.00     0.091 A 
ATOM     78  F   UNL A   1      37.777  31.369  28.867  1.00  0.00    -0.205 F 
ATOM     79  C   UNL A   1      36.375  31.173  32.244  1.00  0.00     0.022 A 
BRANCH  77  80
ATOM     80  S   UNL A   1      35.271  32.592  30.177  1.00  0.00     0.127 S 
ATOM     81  O   UNL A   1      34.749  31.762  29.093  1.00  0.00    -0.237 OA
ATOM     82  O   UNL A   1      34.354  32.782  31.303  1.00  0.00    -0.237 OA
ATOM     83  O   UNL A   1      35.976  33.798  29.771  1.00  0.00    -0.744 OA
ENDBRANCH  77  80
ENDBRANCH  49  73
BRANCH  61  84
ATOM     84  C   UNL A   1      44.741  33.424  29.359  1.00  0.00     0.023 A 
ATOM     85  C   UNL A   1      45.489  33.659  30.529  1.00  0.00     0.012 A 
ATOM     86  C   UNL A   1      44.569  34.465  28.425  1.00  0.00     0.148 A 
ATOM     87  C   UNL A   1      46.029  34.920  30.783  1.00  0.00     0.002 A 
ATOM     88  C   UNL A   1      45.152  35.704  28.660  1.00  0.00     0.091 A 
ATOM     89  F   UNL A   1      43.837  34.227  27.327  1.00  0.00    -0.205 F 
ATOM     90  C   UNL A   1      45.871  35.937  29.843  1.00  0.00     0.022 A 
BRANCH  88  91
ATOM     91  S   UNL A   1      45.082  37.037  27.459  1.00  0.00     0.127 S 
ATOM     92  O   UNL A   1      45.513  38.182  28.259  1.00  0.00    -0.237 OA
ATOM     93  O   UNL A   1      46.049  36.601  26.451  1.00  0.00    -0.237 OA
ATOM     94  O   UNL A   1      43.703  37.080  26.991  1.00  0.00    -0.744 OA
ENDBRANCH  88  91
ENDBRANCH  61  84
ENDBRANCH  35  36
ENDBRANCH  27  30
ENDBRANCH  25  26
ENDBRANCH  24  25
ENDBRANCH  23  24
ENDBRANCH  22  23
ENDBRANCH   1  22
TORSDOF 21
ENDMDL
MODEL 2
REMARK VINA RESULT:     -10.5      3.091      4.809
REMARK SMILES C[C@H]([NH2+]CC1(O)CCCC1)[C@H](C)C(=O)NCCCCCCNC(=O)c1ccc(-c2c3nc(c(-c4cccc(S(=O)(=O)[O-])c4F)c4ccc([nH]4)c(-c4cccc(S(=O)(=O)[O-])c4F)c4nc(c(-c5cccc(S(=O)(=O)[O-])c5F)c5ccc2[nH]5)C=C4)C=C3)cc1
REMARK SMILES IDX 17 1 16 2 15 3 13 4 14 5 11 7 12 8 2 9 1 10 3 11 4 14 5 15
REMARK SMILES IDX 7 16 10 17 8 18 9 19 6 20 18 22 19 23 20 24 21 25 22 26
REMARK SMILES IDX 23 27 24 29 25 30 26 31 87 32 27 33 86 34 28 35 29 36 30 37
REMARK SMILES IDX 80 38 31 39 85 40 79 41 81 42 32 43 84 44 78 45 77 46 33 48
REMARK SMILES IDX 65 49 45 50 64 51 46 52 49 53 63 54 82 55 47 56 48 57 62 59
REMARK SMILES IDX 83 60 50 61 34 62 35 63 43 64 36 65 38 66 44 67 37 68 39 69
REMARK SMILES IDX 40 70 41 71 42 72 66 73 67 74 75 75 68 76 70 77 76 78 69 79
REMARK SMILES IDX 71 80 72 81 73 82 74 83 51 84 52 85 60 86 53 87 55 88 61 89
REMARK SMILES IDX 54 90 56 91 57 92 58 93 59 94
REMARK H PARENT 15 6 3 12 3 13 6 21 22 28 81 47 49 58
REMARK Flexibility Score: inf
ROOT
ATOM      1  C   UNL A   1      35.570  23.915  25.557  1.00  0.00     0.021 C 
ENDROOT
BRANCH   1   2
ATOM      2  C   UNL A   1      34.258  24.416  24.973  1.00  0.00     0.116 C 
BRANCH   2   3
ATOM      3  N   UNL A   1      33.198  24.588  25.929  1.00  0.00    -0.356 N 
ATOM      4  C   UNL A   1      32.204  23.722  26.269  1.00  0.00     0.228 C 
ATOM      5  O   UNL A   1      31.542  24.010  27.274  1.00  0.00    -0.275 OA
ATOM      6  H   UNL A   1      33.190  25.450  26.403  1.00  0.00     0.163 HD
BRANCH   4   7
ATOM      7  C   UNL A   1      31.810  22.500  25.420  1.00  0.00     0.133 C 
ATOM      8  C   UNL A   1      31.429  22.958  24.011  1.00  0.00     0.024 C 
BRANCH   7   9
ATOM      9  C   UNL A   1      32.599  21.149  25.546  1.00  0.00     0.191 C 
ATOM     10  C   UNL A   1      33.663  21.094  26.650  1.00  0.00     0.076 C 
BRANCH   9  11
ATOM     11  N   UNL A   1      33.010  20.387  24.347  1.00  0.00    -0.341 N 
ATOM     12  H   UNL A   1      33.946  20.023  24.525  1.00  0.00     0.346 HD
ATOM     13  H   UNL A   1      32.930  21.058  23.582  1.00  0.00     0.346 HD
BRANCH  11  14
ATOM     14  C   UNL A   1      32.177  19.256  23.926  1.00  0.00     0.296 C 
BRANCH  14  15
ATOM     15  C   UNL A   1      32.920  17.906  24.006  1.00  0.00     0.113 C 
ATOM     16  C   UNL A   1      32.489  17.033  25.181  1.00  0.00     0.041 C 
ATOM     17  C   UNL A   1      34.419  18.100  24.260  1.00  0.00     0.041 C 
ATOM     18  C   UNL A   1      33.659  16.071  25.391  1.00  0.00     0.003 C 
ATOM     19  C   UNL A   1      34.894  16.755  24.802  1.00  0.00     0.003 C 
BRANCH  15  20
ATOM     20  O   UNL A   1      32.741  17.219  22.757  1.00  0.00    -0.384 OA
ATOM     21  H   UNL A   1      32.454  17.852  22.078  1.00  0.00     0.211 HD
ENDBRANCH  15  20
ENDBRANCH  14  15
ENDBRANCH  11  14
ENDBRANCH   9  11
ENDBRANCH   7   9
ENDBRANCH   4   7
ENDBRANCH   2   3
ENDBRANCH   1   2
BRANCH   1  22
ATOM     22  C   UNL A   1      36.535  23.338  24.523  1.00  0.00     0.002 C 
BRANCH  22  23
ATOM     23  C   UNL A   1      36.356  21.843  24.223  1.00  0.00     0.002 C 
BRANCH  23  24
ATOM     24  C   UNL A   1      37.434  20.916  24.796  1.00  0.00     0.021 C 
BRANCH  24  25
ATOM     25  C   UNL A   1      38.458  21.597  25.700  1.00  0.00     0.116 C 
BRANCH  25  26
ATOM     26  N   UNL A   1      39.450  20.659  26.199  1.00  0.00    -0.352 N 
ATOM     27  C   UNL A   1      40.701  20.891  26.704  1.00  0.00     0.251 C 
ATOM     28  H   UNL A   1      39.181  19.712  26.171  1.00  0.00     0.163 HD
ATOM     29  O   UNL A   1      41.468  19.943  26.880  1.00  0.00    -0.269 OA
BRANCH  27  30
ATOM     30  C   UNL A   1      41.136  22.262  27.039  1.00  0.00     0.039 A 
ATOM     31  C   UNL A   1      41.605  22.525  28.331  1.00  0.00     0.014 A 
ATOM     32  C   UNL A   1      41.031  23.301  26.109  1.00  0.00     0.014 A 
ATOM     33  C   UNL A   1      41.991  23.821  28.679  1.00  0.00     0.010 A 
ATOM     34  C   UNL A   1      41.482  24.577  26.437  1.00  0.00     0.010 A 
ATOM     35  C   UNL A   1      41.944  24.856  27.732  1.00  0.00    -0.014 A 
BRANCH  35  36
ATOM     36  C   UNL A   1      42.340  26.241  28.087  1.00  0.00     0.031 A 
ATOM     37  C   UNL A   1      43.771  26.682  27.917  1.00  0.00     0.074 A 
ATOM     38  C   UNL A   1      41.432  27.080  28.620  1.00  0.00     0.049 A 
ATOM     39  N   UNL A   1      44.319  27.833  28.210  1.00  0.00    -0.248 NA
ATOM     40  C   UNL A   1      44.716  25.693  27.373  1.00  0.00     0.031 C 
ATOM     41  C   UNL A   1      40.034  26.745  28.902  1.00  0.00     0.029 A 
ATOM     42  N   UNL A   1      41.553  28.379  29.043  1.00  0.00    -0.354 N 
ATOM     43  C   UNL A   1      45.671  27.696  27.924  1.00  0.00     0.074 A 
ATOM     44  C   UNL A   1      45.870  26.337  27.468  1.00  0.00     0.031 C 
ATOM     45  C   UNL A   1      39.426  27.812  29.445  1.00  0.00     0.029 A 
ATOM     46  C   UNL A   1      40.394  28.898  29.572  1.00  0.00     0.049 A 
ATOM     47  H   UNL A   1      42.390  28.892  28.975  1.00  0.00     0.167 HD
ATOM     48  C   UNL A   1      46.656  28.623  27.998  1.00  0.00     0.034 A 
ATOM     49  C   UNL A   1      40.140  30.112  30.098  1.00  0.00     0.034 A 
ATOM     50  C   UNL A   1      46.444  29.987  28.400  1.00  0.00     0.049 A 
ATOM     51  C   UNL A   1      41.238  31.142  30.113  1.00  0.00     0.074 A 
ATOM     52  C   UNL A   1      47.356  31.026  28.439  1.00  0.00     0.029 A 
ATOM     53  N   UNL A   1      45.231  30.504  28.831  1.00  0.00    -0.354 N 
ATOM     54  N   UNL A   1      42.478  31.035  29.699  1.00  0.00    -0.248 NA
ATOM     55  C   UNL A   1      40.890  32.476  30.628  1.00  0.00     0.031 C 
ATOM     56  C   UNL A   1      46.698  32.169  28.905  1.00  0.00     0.029 A 
ATOM     57  C   UNL A   1      45.371  31.847  29.133  1.00  0.00     0.049 A 
ATOM     58  H   UNL A   1      44.395  29.990  28.910  1.00  0.00     0.167 HD
ATOM     59  C   UNL A   1      43.043  32.296  29.858  1.00  0.00     0.074 A 
ATOM     60  C   UNL A   1      42.005  33.154  30.393  1.00  0.00     0.031 C 
ATOM     61  C   UNL A   1      44.310  32.703  29.600  1.00  0.00     0.034 A 
BRANCH  48  62
ATOM     62  C   UNL A   1      48.042  28.210  27.577  1.00  0.00     0.023 A 
ATOM     63  C   UNL A   1      49.017  27.948  28.562  1.00  0.00     0.012 A 
ATOM     64  C   UNL A   1      48.366  28.021  26.219  1.00  0.00     0.148 A 
ATOM     65  C   UNL A   1      50.301  27.542  28.203  1.00  0.00     0.002 A 
ATOM     66  C   UNL A   1      49.636  27.573  25.871  1.00  0.00     0.091 A 
ATOM     67  F   UNL A   1      47.435  28.295  25.296  1.00  0.00    -0.205 F 
ATOM     68  C   UNL A   1      50.607  27.344  26.860  1.00  0.00     0.022 A 
BRANCH  66  69
ATOM     69  S   UNL A   1      50.104  27.211  24.174  1.00  0.00     0.127 S 
ATOM     70  O   UNL A   1      51.367  26.497  24.363  1.00  0.00    -0.237 OA
ATOM     71  O   UNL A   1      48.993  26.374  23.720  1.00  0.00    -0.237 OA
ATOM     72  O   UNL A   1      50.209  28.498  23.504  1.00  0.00    -0.744 OA
ENDBRANCH  66  69
ENDBRANCH  48  62
BRANCH  49  73
ATOM     73  C   UNL A   1      38.769  30.448  30.575  1.00  0.00     0.023 A 
ATOM     74  C   UNL A   1      38.396  30.112  31.893  1.00  0.00     0.012 A 
ATOM     75  C   UNL A   1      37.844  31.110  29.748  1.00  0.00     0.148 A 
ATOM     76  C   UNL A   1      37.113  30.396  32.363  1.00  0.00     0.002 A 
ATOM     77  C   UNL A   1      36.586  31.438  30.241  1.00  0.00     0.091 A 
ATOM     78  F   UNL A   1      38.213  31.411  28.494  1.00  0.00    -0.205 F 
ATOM     79  C   UNL A   1      36.212  31.067  31.541  1.00  0.00     0.022 A 
BRANCH  77  80
ATOM     80  S   UNL A   1      35.412  32.416  29.294  1.00  0.00     0.127 S 
ATOM     81  O   UNL A   1      35.082  31.508  28.199  1.00  0.00    -0.237 OA
ATOM     82  O   UNL A   1      34.337  32.624  30.267  1.00  0.00    -0.237 OA
ATOM     83  O   UNL A   1      36.124  33.629  28.922  1.00  0.00    -0.744 OA
ENDBRANCH  77  80
ENDBRANCH  49  73
BRANCH  61  84
ATOM     84  C   UNL A   1      44.640  34.153  29.836  1.00  0.00     0.023 A 
ATOM     85  C   UNL A   1      45.115  34.571  31.094  1.00  0.00     0.012 A 
ATOM     86  C   UNL A   1      44.544  35.087  28.785  1.00  0.00     0.148 A 
ATOM     87  C   UNL A   1      45.457  35.905  31.313  1.00  0.00     0.002 A 
ATOM     88  C   UNL A   1      44.935  36.404  28.997  1.00  0.00     0.091 A 
ATOM     89  F   UNL A   1      44.070  34.674  27.600  1.00  0.00    -0.205 F 
ATOM     90  C   UNL A   1      45.379  36.818  30.263  1.00  0.00     0.022 A 
BRANCH  88  91
ATOM     91  S   UNL A   1      44.960  37.619  27.675  1.00  0.00     0.127 S 
ATOM     92  O   UNL A   1      43.587  37.548  27.178  1.00  0.00    -0.237 OA
ATOM     93  O   UNL A   1      45.286  38.853  28.391  1.00  0.00    -0.237 OA
ATOM     94  O   UNL A   1      45.988  37.174  26.744  1.00  0.00    -0.744 OA
ENDBRANCH  88  91
ENDBRANCH  61  84
ENDBRANCH  35  36
ENDBRANCH  27  30
ENDBRANCH  25  26
ENDBRANCH  24  25
ENDBRANCH  23  24
ENDBRANCH  22  23
ENDBRANCH   1  22
TORSDOF 21
ENDMDL
MODEL 3
REMARK VINA RESULT:     -10.5      5.343     10.220
REMARK SMILES C[C@H]([NH2+]CC1(O)CCCC1)[C@H](C)C(=O)NCCCCCCNC(=O)c1ccc(-c2c3nc(c(-c4cccc(S(=O)(=O)[O-])c4F)c4ccc([nH]4)c(-c4cccc(S(=O)(=O)[O-])c4F)c4nc(c(-c5cccc(S(=O)(=O)[O-])c5F)c5ccc2[nH]5)C=C4)C=C3)cc1
REMARK SMILES IDX 17 1 16 2 15 3 13 4 14 5 11 7 12 8 2 9 1 10 3 11 4 14 5 15
REMARK SMILES IDX 7 16 10 17 8 18 9 19 6 20 18 22 19 23 20 24 21 25 22 26
REMARK SMILES IDX 23 27 24 29 25 30 26 31 87 32 27 33 86 34 28 35 29 36 30 37
REMARK SMILES IDX 80 38 31 39 85 40 79 41 81 42 32 43 84 44 78 45 77 46 33 48
REMARK SMILES IDX 65 49 45 50 64 51 46 52 49 53 63 54 82 55 47 56 48 57 62 59
REMARK SMILES IDX 83 60 50 61 34 62 35 63 43 64 36 65 38 66 44 67 37 68 39 69
REMARK SMILES IDX 40 70 41 71 42 72 66 73 67 74 75 75 68 76 70 77 76 78 69 79
REMARK SMILES IDX 71 80 72 81 73 82 74 83 51 84 52 85 60 86 53 87 55 88 61 89
REMARK SMILES IDX 54 90 56 91 57 92 58 93 59 94
REMARK H PARENT 15 6 3 12 3 13 6 21 22 28 81 47 49 58
REMARK Flexibility Score: inf
ROOT
ATOM      1  C   UNL A   1      33.647  25.776  23.863  1.00  0.00     0.021 C 
ENDROOT
BRANCH   1   2
ATOM      2  C   UNL A   1      34.474  24.501  23.917  1.00  0.00     0.116 C 
BRANCH   2   3
ATOM      3  N   UNL A   1      35.382  24.418  25.029  1.00  0.00    -0.356 N 
ATOM      4  C   UNL A   1      36.179  23.381  25.407  1.00  0.00     0.228 C 
ATOM      5  O   UNL A   1      37.033  23.627  26.268  1.00  0.00    -0.275 OA
ATOM      6  H   UNL A   1      35.435  25.222  25.595  1.00  0.00     0.163 HD
BRANCH   4   7
ATOM      7  C   UNL A   1      35.993  21.937  24.907  1.00  0.00     0.133 C 
ATOM      8  C   UNL A   1      37.362  21.299  24.662  1.00  0.00     0.024 C 
BRANCH   7   9
ATOM      9  C   UNL A   1      34.873  21.019  25.512  1.00  0.00     0.191 C 
ATOM     10  C   UNL A   1      34.633  19.687  24.790  1.00  0.00     0.076 C 
BRANCH   9  11
ATOM     11  N   UNL A   1      33.616  21.592  26.042  1.00  0.00    -0.341 N 
ATOM     12  H   UNL A   1      33.795  22.575  26.249  1.00  0.00     0.346 HD
ATOM     13  H   UNL A   1      33.387  21.002  26.842  1.00  0.00     0.346 HD
BRANCH  11  14
ATOM     14  C   UNL A   1      32.420  21.538  25.197  1.00  0.00     0.296 C 
BRANCH  14  15
ATOM     15  C   UNL A   1      31.335  22.545  25.634  1.00  0.00     0.113 C 
ATOM     16  C   UNL A   1      30.857  23.463  24.513  1.00  0.00     0.041 C 
ATOM     17  C   UNL A   1      31.867  23.532  26.678  1.00  0.00     0.041 C 
ATOM     18  C   UNL A   1      30.251  24.666  25.238  1.00  0.00     0.003 C 
ATOM     19  C   UNL A   1      30.898  24.710  26.623  1.00  0.00     0.003 C 
BRANCH  15  20
ATOM     20  O   UNL A   1      30.239  21.807  26.201  1.00  0.00    -0.384 OA
ATOM     21  H   UNL A   1      30.577  21.005  26.631  1.00  0.00     0.211 HD
ENDBRANCH  15  20
ENDBRANCH  14  15
ENDBRANCH  11  14
ENDBRANCH   9  11
ENDBRANCH   7   9
ENDBRANCH   4   7
ENDBRANCH   2   3
ENDBRANCH   1   2
BRANCH   1  22
ATOM     22  C   UNL A   1      34.017  26.807  24.928  1.00  0.00     0.002 C 
BRANCH  22  23
ATOM     23  C   UNL A   1      33.001  26.967  26.068  1.00  0.00     0.002 C 
BRANCH  23  24
ATOM     24  C   UNL A   1      32.751  28.404  26.539  1.00  0.00     0.021 C 
BRANCH  24  25
ATOM     25  C   UNL A   1      33.540  29.476  25.792  1.00  0.00     0.116 C 
BRANCH  25  26
ATOM     26  N   UNL A   1      33.256  30.809  26.296  1.00  0.00    -0.352 N 
ATOM     27  C   UNL A   1      33.837  31.500  27.325  1.00  0.00     0.251 C 
ATOM     28  H   UNL A   1      32.536  31.289  25.826  1.00  0.00     0.163 HD
ATOM     29  O   UNL A   1      33.311  32.538  27.730  1.00  0.00    -0.269 OA
BRANCH  27  30
ATOM     30  C   UNL A   1      35.084  31.014  27.951  1.00  0.00     0.039 A 
ATOM     31  C   UNL A   1      35.066  29.789  28.627  1.00  0.00     0.014 A 
ATOM     32  C   UNL A   1      36.252  31.781  27.925  1.00  0.00     0.014 A 
ATOM     33  C   UNL A   1      36.225  29.326  29.254  1.00  0.00     0.010 A 
ATOM     34  C   UNL A   1      37.424  31.284  28.489  1.00  0.00     0.010 A 
ATOM     35  C   UNL A   1      37.416  30.063  29.180  1.00  0.00    -0.014 A 
BRANCH  35  36
ATOM     36  C   UNL A   1      38.655  29.591  29.849  1.00  0.00     0.031 A 
ATOM     37  C   UNL A   1      39.043  30.146  31.194  1.00  0.00     0.074 A 
ATOM     38  C   UNL A   1      39.461  28.715  29.220  1.00  0.00     0.049 A 
ATOM     39  N   UNL A   1      40.104  29.893  31.916  1.00  0.00    -0.248 NA
ATOM     40  C   UNL A   1      38.135  31.137  31.796  1.00  0.00     0.031 C 
ATOM     41  C   UNL A   1      39.230  28.162  27.884  1.00  0.00     0.029 A 
ATOM     42  N   UNL A   1      40.649  28.152  29.611  1.00  0.00    -0.354 N 
ATOM     43  C   UNL A   1      40.011  30.715  33.032  1.00  0.00     0.074 A 
ATOM     44  C   UNL A   1      38.809  31.504  32.877  1.00  0.00     0.031 C 
ATOM     45  C   UNL A   1      40.241  27.336  27.568  1.00  0.00     0.029 A 
ATOM     46  C   UNL A   1      41.202  27.317  28.668  1.00  0.00     0.049 A 
ATOM     47  H   UNL A   1      41.068  28.329  30.484  1.00  0.00     0.167 HD
ATOM     48  C   UNL A   1      40.831  30.785  34.108  1.00  0.00     0.034 A 
ATOM     49  C   UNL A   1      42.352  26.616  28.688  1.00  0.00     0.034 A 
ATOM     50  C   UNL A   1      41.996  29.960  34.284  1.00  0.00     0.049 A 
ATOM     51  C   UNL A   1      43.214  26.667  29.921  1.00  0.00     0.074 A 
ATOM     52  C   UNL A   1      42.852  29.898  35.368  1.00  0.00     0.029 A 
ATOM     53  N   UNL A   1      42.467  29.050  33.350  1.00  0.00    -0.354 N 
ATOM     54  N   UNL A   1      43.030  27.342  31.030  1.00  0.00    -0.248 NA
ATOM     55  C   UNL A   1      44.420  25.824  29.923  1.00  0.00     0.031 C 
ATOM     56  C   UNL A   1      43.848  28.958  35.085  1.00  0.00     0.029 A 
ATOM     57  C   UNL A   1      43.598  28.418  33.835  1.00  0.00     0.049 A 
ATOM     58  H   UNL A   1      42.056  28.878  32.472  1.00  0.00     0.167 HD
ATOM     59  C   UNL A   1      44.068  26.971  31.878  1.00  0.00     0.074 A 
ATOM     60  C   UNL A   1      44.867  26.000  31.159  1.00  0.00     0.031 C 
ATOM     61  C   UNL A   1      44.343  27.405  33.132  1.00  0.00     0.034 A 
BRANCH  48  62
ATOM     62  C   UNL A   1      40.463  31.744  35.210  1.00  0.00     0.023 A 
ATOM     63  C   UNL A   1      41.110  32.995  35.286  1.00  0.00     0.012 A 
ATOM     64  C   UNL A   1      39.440  31.441  36.130  1.00  0.00     0.148 A 
ATOM     65  C   UNL A   1      40.774  33.912  36.280  1.00  0.00     0.002 A 
ATOM     66  C   UNL A   1      39.079  32.379  37.091  1.00  0.00     0.091 A 
ATOM     67  F   UNL A   1      38.850  30.240  36.056  1.00  0.00    -0.205 F 
ATOM     68  C   UNL A   1      39.752  33.610  37.175  1.00  0.00     0.022 A 
BRANCH  66  69
ATOM     69  S   UNL A   1      37.722  32.116  38.240  1.00  0.00     0.127 S 
ATOM     70  O   UNL A   1      36.726  33.064  37.740  1.00  0.00    -0.237 OA
ATOM     71  O   UNL A   1      37.392  30.709  38.010  1.00  0.00    -0.237 OA
ATOM     72  O   UNL A   1      38.253  32.408  39.563  1.00  0.00    -0.744 OA
ENDBRANCH  66  69
ENDBRANCH  48  62
BRANCH  49  73
ATOM     73  C   UNL A   1      42.713  25.740  27.538  1.00  0.00     0.023 A 
ATOM     74  C   UNL A   1      43.561  26.240  26.529  1.00  0.00     0.012 A 
ATOM     75  C   UNL A   1      42.242  24.417  27.444  1.00  0.00     0.148 A 
ATOM     76  C   UNL A   1      43.902  25.451  25.430  1.00  0.00     0.002 A 
ATOM     77  C   UNL A   1      42.630  23.619  26.374  1.00  0.00     0.091 A 
ATOM     78  F   UNL A   1      41.427  23.962  28.407  1.00  0.00    -0.205 F 
ATOM     79  C   UNL A   1      43.444  24.138  25.357  1.00  0.00     0.022 A 
BRANCH  77  80
ATOM     80  S   UNL A   1      42.193  21.879  26.270  1.00  0.00     0.127 S 
ATOM     81  O   UNL A   1      40.765  21.947  25.963  1.00  0.00    -0.237 OA
ATOM     82  O   UNL A   1      43.038  21.419  25.166  1.00  0.00    -0.237 OA
ATOM     83  O   UNL A   1      42.538  21.311  27.564  1.00  0.00    -0.744 OA
ENDBRANCH  77  80
ENDBRANCH  49  73
BRANCH  61  84
ATOM     84  C   UNL A   1      45.526  26.797  33.839  1.00  0.00     0.023 A 
ATOM     85  C   UNL A   1      46.788  27.418  33.759  1.00  0.00     0.012 A 
ATOM     86  C   UNL A   1      45.368  25.648  34.639  1.00  0.00     0.148 A 
ATOM     87  C   UNL A   1      47.883  26.883  34.438  1.00  0.00     0.002 A 
ATOM     88  C   UNL A   1      46.452  25.152  35.352  1.00  0.00     0.091 A 
ATOM     89  F   UNL A   1      44.163  25.060  34.686  1.00  0.00    -0.205 F 
ATOM     90  C   UNL A   1      47.712  25.759  35.243  1.00  0.00     0.022 A 
BRANCH  88  91
ATOM     91  S   UNL A   1      46.297  23.769  36.489  1.00  0.00     0.127 S 
ATOM     92  O   UNL A   1      45.313  24.276  37.443  1.00  0.00    -0.237 OA
ATOM     93  O   UNL A   1      45.806  22.701  35.617  1.00  0.00    -0.237 OA
ATOM     94  O   UNL A   1      47.633  23.542  37.024  1.00  0.00    -0.744 OA
ENDBRANCH  88  91
ENDBRANCH  61  84
ENDBRANCH  35  36
ENDBRANCH  27  30
ENDBRANCH  25  26
ENDBRANCH  24  25
ENDBRANCH  23  24
ENDBRANCH  22  23
ENDBRANCH   1  22
TORSDOF 21
ENDMDL
