MODEL 1
REMARK VINA RESULT:     -10.9      0.000      0.000
REMARK SMILES CCC1(C(=O)NCCCCCCNC(=O)c2ccc(-c3c4nc(c(-c5cccc(S(=O)(=O)[O-])c5F)c5ccc([nH]5)c(-c5cccc(S(=O)(=O)[O-])c5F)c5nc(c(-c6cccc(S(=O)(=O)[O-])c6F)c6ccc3[nH]6)C=C5)C=C4)cc2)CCN(C(=O)C[C@H]2CSCC[NH2+]2)CC1
REMARK SMILES IDX 10 1 9 2 8 3 7 4 6 5 4 6 5 7 3 9 79 10 92 11 80 12 91 13
REMARK SMILES IDX 81 14 82 15 83 16 2 17 1 18 84 19 85 20 86 21 90 22 87 23
REMARK SMILES IDX 89 24 88 27 11 28 12 29 13 30 14 31 15 33 16 34 17 35 78 36
REMARK SMILES IDX 18 37 77 38 19 39 20 40 21 41 71 42 22 43 76 44 70 45 72 46
REMARK SMILES IDX 23 47 75 48 69 49 68 50 24 52 56 53 36 54 55 55 37 56 40 57
REMARK SMILES IDX 54 58 73 59 38 60 39 61 53 63 74 64 41 65 25 66 26 67 34 68
REMARK SMILES IDX 27 69 29 70 35 71 28 72 30 73 31 74 32 75 33 76 57 77 58 78
REMARK SMILES IDX 66 79 59 80 61 81 67 82 60 83 62 84 63 85 64 86 65 87 42 88
REMARK SMILES IDX 43 89 51 90 44 91 46 92 52 93 45 94 47 95 48 96 49 97 50 98
REMARK H PARENT 6 8 90 25 90 26 13 32 72 51 40 62
REMARK Flexibility Score: inf
ROOT
ATOM      1  C   UNL A   1      33.975  27.177  24.471  1.00  0.00     0.002 C 
ENDROOT
BRANCH   1   2
ATOM      2  C   UNL A   1      33.767  26.191  25.628  1.00  0.00     0.002 C 
BRANCH   2   3
ATOM      3  C   UNL A   1      34.939  25.281  26.022  1.00  0.00     0.021 C 
BRANCH   3   4
ATOM      4  C   UNL A   1      35.455  24.316  24.949  1.00  0.00     0.116 C 
BRANCH   4   5
ATOM      5  N   UNL A   1      35.355  22.925  25.354  1.00  0.00    -0.356 N 
ATOM      6  C   UNL A   1      34.333  22.028  25.352  1.00  0.00     0.226 C 
ATOM      7  O   UNL A   1      34.680  20.874  25.637  1.00  0.00    -0.274 OA
ATOM      8  H   UNL A   1      36.198  22.557  25.703  1.00  0.00     0.163 HD
BRANCH   6   9
ATOM      9  C   UNL A   1      32.845  22.359  25.020  1.00  0.00     0.052 C 
ATOM     10  C   UNL A   1      32.163  23.190  26.135  1.00  0.00     0.038 C 
ATOM     11  C   UNL A   1      32.768  23.151  23.683  1.00  0.00     0.038 C 
ATOM     12  C   UNL A   1      30.745  23.620  25.750  1.00  0.00     0.120 C 
ATOM     13  C   UNL A   1      31.394  23.759  23.370  1.00  0.00     0.120 C 
ATOM     14  N   UNL A   1      30.776  24.408  24.524  1.00  0.00    -0.342 N 
ATOM     15  C   UNL A   1      30.048  25.589  24.492  1.00  0.00     0.228 C 
ATOM     16  O   UNL A   1      29.214  25.853  25.364  1.00  0.00    -0.275 OA
BRANCH   9  17
ATOM     17  C   UNL A   1      32.071  20.999  24.817  1.00  0.00     0.013 C 
ATOM     18  C   UNL A   1      32.322  20.243  23.508  1.00  0.00     0.005 C 
ENDBRANCH   9  17
BRANCH  15  19
ATOM     19  C   UNL A   1      30.364  26.644  23.444  1.00  0.00     0.166 C 
BRANCH  19  20
ATOM     20  C   UNL A   1      29.495  27.911  23.602  1.00  0.00     0.201 C 
ATOM     21  C   UNL A   1      30.165  29.140  22.935  1.00  0.00     0.135 C 
ATOM     22  N   UNL A   1      28.125  27.608  23.122  1.00  0.00    -0.342 N 
ATOM     23  S   UNL A   1      29.202  30.670  23.130  1.00  0.00    -0.150 SA
ATOM     24  C   UNL A   1      27.222  28.752  23.267  1.00  0.00     0.271 C 
ATOM     25  H   UNL A   1      27.754  26.826  23.663  1.00  0.00     0.346 HD
ATOM     26  H   UNL A   1      28.184  27.378  22.130  1.00  0.00     0.346 HD
ATOM     27  C   UNL A   1      27.651  30.003  22.497  1.00  0.00     0.131 C 
ENDBRANCH  19  20
ENDBRANCH  15  19
ENDBRANCH   6   9
ENDBRANCH   4   5
ENDBRANCH   3   4
ENDBRANCH   2   3
ENDBRANCH   1   2
BRANCH   1  28
ATOM     28  C   UNL A   1      33.399  28.589  24.603  1.00  0.00     0.021 C 
BRANCH  28  29
ATOM     29  C   UNL A   1      32.476  28.889  25.779  1.00  0.00     0.116 C 
BRANCH  29  30
ATOM     30  N   UNL A   1      32.225  30.305  25.950  1.00  0.00    -0.352 N 
ATOM     31  C   UNL A   1      32.854  31.212  26.773  1.00  0.00     0.251 C 
ATOM     32  H   UNL A   1      31.499  30.672  25.398  1.00  0.00     0.163 HD
ATOM     33  O   UNL A   1      32.367  32.332  26.908  1.00  0.00    -0.269 OA
BRANCH  31  34
ATOM     34  C   UNL A   1      34.095  30.859  27.512  1.00  0.00     0.039 A 
ATOM     35  C   UNL A   1      34.233  29.555  28.002  1.00  0.00     0.014 A 
ATOM     36  C   UNL A   1      35.090  31.802  27.785  1.00  0.00     0.014 A 
ATOM     37  C   UNL A   1      35.376  29.188  28.724  1.00  0.00     0.010 A 
ATOM     38  C   UNL A   1      36.257  31.421  28.455  1.00  0.00     0.010 A 
ATOM     39  C   UNL A   1      36.410  30.113  28.942  1.00  0.00    -0.014 A 
BRANCH  39  40
ATOM     40  C   UNL A   1      37.648  29.726  29.677  1.00  0.00     0.031 A 
ATOM     41  C   UNL A   1      37.938  30.290  31.044  1.00  0.00     0.074 A 
ATOM     42  C   UNL A   1      38.553  28.917  29.089  1.00  0.00     0.049 A 
ATOM     43  N   UNL A   1      38.981  30.100  31.812  1.00  0.00    -0.248 NA
ATOM     44  C   UNL A   1      36.934  31.201  31.617  1.00  0.00     0.031 C 
ATOM     45  C   UNL A   1      38.430  28.352  27.744  1.00  0.00     0.029 A 
ATOM     46  N   UNL A   1      39.768  28.453  29.532  1.00  0.00    -0.354 N 
ATOM     47  C   UNL A   1      38.779  30.892  32.938  1.00  0.00     0.074 A 
ATOM     48  C   UNL A   1      37.522  31.584  32.741  1.00  0.00     0.031 C 
ATOM     49  C   UNL A   1      39.525  27.624  27.471  1.00  0.00     0.029 A 
ATOM     50  C   UNL A   1      40.442  27.692  28.606  1.00  0.00     0.049 A 
ATOM     51  H   UNL A   1      40.123  28.649  30.430  1.00  0.00     0.167 HD
ATOM     52  C   UNL A   1      39.550  31.014  34.046  1.00  0.00     0.034 A 
ATOM     53  C   UNL A   1      41.662  27.121  28.655  1.00  0.00     0.034 A 
ATOM     54  C   UNL A   1      40.778  30.295  34.261  1.00  0.00     0.049 A 
ATOM     55  C   UNL A   1      42.487  27.248  29.908  1.00  0.00     0.074 A 
ATOM     56  C   UNL A   1      41.581  30.284  35.389  1.00  0.00     0.029 A 
ATOM     57  N   UNL A   1      41.389  29.470  33.331  1.00  0.00    -0.354 N 
ATOM     58  N   UNL A   1      42.198  27.867  31.026  1.00  0.00    -0.248 NA
ATOM     59  C   UNL A   1      43.791  26.567  29.921  1.00  0.00     0.031 C 
ATOM     60  C   UNL A   1      42.688  29.470  35.131  1.00  0.00     0.029 A 
ATOM     61  C   UNL A   1      42.564  28.954  33.852  1.00  0.00     0.049 A 
ATOM     62  H   UNL A   1      41.039  29.279  32.431  1.00  0.00     0.167 HD
ATOM     63  C   UNL A   1      43.264  27.624  31.886  1.00  0.00     0.074 A 
ATOM     64  C   UNL A   1      44.197  26.782  31.165  1.00  0.00     0.031 C 
ATOM     65  C   UNL A   1      43.460  28.073  33.150  1.00  0.00     0.034 A 
BRANCH  52  66
ATOM     66  C   UNL A   1      39.062  31.925  35.145  1.00  0.00     0.023 A 
ATOM     67  C   UNL A   1      39.170  33.321  34.984  1.00  0.00     0.012 A 
ATOM     68  C   UNL A   1      38.437  31.408  36.296  1.00  0.00     0.148 A 
ATOM     69  C   UNL A   1      38.696  34.189  35.968  1.00  0.00     0.002 A 
ATOM     70  C   UNL A   1      37.928  32.279  37.253  1.00  0.00     0.091 A 
ATOM     71  F   UNL A   1      38.357  30.078  36.440  1.00  0.00    -0.205 F 
ATOM     72  C   UNL A   1      38.067  33.669  37.095  1.00  0.00     0.022 A 
BRANCH  70  73
ATOM     73  S   UNL A   1      37.030  31.714  38.703  1.00  0.00     0.127 S 
ATOM     74  O   UNL A   1      38.012  31.932  39.763  1.00  0.00    -0.237 OA
ATOM     75  O   UNL A   1      35.887  32.627  38.734  1.00  0.00    -0.237 OA
ATOM     76  O   UNL A   1      36.686  30.322  38.443  1.00  0.00    -0.744 OA
ENDBRANCH  70  73
ENDBRANCH  52  66
BRANCH  53  77
ATOM     77  C   UNL A   1      42.153  26.320  27.496  1.00  0.00     0.023 A 
ATOM     78  C   UNL A   1      42.919  26.950  26.496  1.00  0.00     0.012 A 
ATOM     79  C   UNL A   1      41.895  24.939  27.394  1.00  0.00     0.148 A 
ATOM     80  C   UNL A   1      43.394  26.227  25.401  1.00  0.00     0.002 A 
ATOM     81  C   UNL A   1      42.420  24.213  26.331  1.00  0.00     0.091 A 
ATOM     82  F   UNL A   1      41.152  24.360  28.347  1.00  0.00    -0.205 F 
ATOM     83  C   UNL A   1      43.155  24.858  25.324  1.00  0.00     0.022 A 
BRANCH  81  84
ATOM     84  S   UNL A   1      42.281  22.424  26.227  1.00  0.00     0.127 S 
ATOM     85  O   UNL A   1      42.868  22.003  27.496  1.00  0.00    -0.237 OA
ATOM     86  O   UNL A   1      40.832  22.236  26.125  1.00  0.00    -0.237 OA
ATOM     87  O   UNL A   1      43.016  22.041  25.028  1.00  0.00    -0.744 OA
ENDBRANCH  81  84
ENDBRANCH  53  77
BRANCH  65  88
ATOM     88  C   UNL A   1      44.717  27.642  33.863  1.00  0.00     0.023 A 
ATOM     89  C   UNL A   1      45.864  28.459  33.812  1.00  0.00     0.012 A 
ATOM     90  C   UNL A   1      44.735  26.473  34.648  1.00  0.00     0.148 A 
ATOM     91  C   UNL A   1      47.018  28.103  34.510  1.00  0.00     0.002 A 
ATOM     92  C   UNL A   1      45.874  26.149  35.379  1.00  0.00     0.091 A 
ATOM     93  F   UNL A   1      43.640  25.698  34.668  1.00  0.00    -0.205 F 
ATOM     94  C   UNL A   1      47.019  26.957  35.301  1.00  0.00     0.022 A 
BRANCH  92  95
ATOM     95  S   UNL A   1      45.935  24.744  36.498  1.00  0.00     0.127 S 
ATOM     96  O   UNL A   1      44.831  25.041  37.409  1.00  0.00    -0.237 OA
ATOM     97  O   UNL A   1      45.694  23.618  35.595  1.00  0.00    -0.237 OA
ATOM     98  O   UNL A   1      47.262  24.765  37.096  1.00  0.00    -0.744 OA
ENDBRANCH  92  95
ENDBRANCH  65  88
ENDBRANCH  39  40
ENDBRANCH  31  34
ENDBRANCH  29  30
ENDBRANCH  28  29
ENDBRANCH   1  28
TORSDOF 19
ENDMDL
MODEL 2
REMARK VINA RESULT:     -10.8      2.533      3.123
REMARK SMILES CCC1(C(=O)NCCCCCCNC(=O)c2ccc(-c3c4nc(c(-c5cccc(S(=O)(=O)[O-])c5F)c5ccc([nH]5)c(-c5cccc(S(=O)(=O)[O-])c5F)c5nc(c(-c6cccc(S(=O)(=O)[O-])c6F)c6ccc3[nH]6)C=C5)C=C4)cc2)CCN(C(=O)C[C@H]2CSCC[NH2+]2)CC1
REMARK SMILES IDX 10 1 9 2 8 3 7 4 6 5 4 6 5 7 3 9 79 10 92 11 80 12 91 13
REMARK SMILES IDX 81 14 82 15 83 16 2 17 1 18 84 19 85 20 86 21 90 22 87 23
REMARK SMILES IDX 89 24 88 27 11 28 12 29 13 30 14 31 15 33 16 34 17 35 78 36
REMARK SMILES IDX 18 37 77 38 19 39 20 40 21 41 71 42 22 43 76 44 70 45 72 46
REMARK SMILES IDX 23 47 75 48 69 49 68 50 24 52 56 53 36 54 55 55 37 56 40 57
REMARK SMILES IDX 54 58 73 59 38 60 39 61 53 63 74 64 41 65 25 66 26 67 34 68
REMARK SMILES IDX 27 69 29 70 35 71 28 72 30 73 31 74 32 75 33 76 57 77 58 78
REMARK SMILES IDX 66 79 59 80 61 81 67 82 60 83 62 84 63 85 64 86 65 87 42 88
REMARK SMILES IDX 43 89 51 90 44 91 46 92 52 93 45 94 47 95 48 96 49 97 50 98
REMARK H PARENT 6 8 90 25 90 26 13 32 72 51 40 62
REMARK Flexibility Score: inf
ROOT
ATOM      1  C   UNL A   1      34.086  26.306  25.100  1.00  0.00     0.002 C 
ENDROOT
BRANCH   1   2
ATOM      2  C   UNL A   1      34.539  24.998  25.763  1.00  0.00     0.002 C 
BRANCH   2   3
ATOM      3  C   UNL A   1      35.880  24.392  25.326  1.00  0.00     0.021 C 
BRANCH   3   4
ATOM      4  C   UNL A   1      35.840  23.399  24.159  1.00  0.00     0.116 C 
BRANCH   4   5
ATOM      5  N   UNL A   1      35.668  22.026  24.599  1.00  0.00    -0.356 N 
ATOM      6  C   UNL A   1      34.580  21.222  24.733  1.00  0.00     0.226 C 
ATOM      7  O   UNL A   1      34.856  20.045  24.998  1.00  0.00    -0.274 OA
ATOM      8  H   UNL A   1      36.512  21.588  24.855  1.00  0.00     0.163 HD
BRANCH   6   9
ATOM      9  C   UNL A   1      33.097  21.680  24.569  1.00  0.00     0.052 C 
ATOM     10  C   UNL A   1      32.570  22.431  25.817  1.00  0.00     0.038 C 
ATOM     11  C   UNL A   1      32.967  22.612  23.330  1.00  0.00     0.038 C 
ATOM     12  C   UNL A   1      31.160  22.987  25.605  1.00  0.00     0.120 C 
ATOM     13  C   UNL A   1      31.621  23.335  23.202  1.00  0.00     0.120 C 
ATOM     14  N   UNL A   1      31.148  23.896  24.466  1.00  0.00    -0.342 N 
ATOM     15  C   UNL A   1      30.507  25.119  24.616  1.00  0.00     0.228 C 
ATOM     16  O   UNL A   1      29.768  25.342  25.581  1.00  0.00    -0.275 OA
BRANCH   9  17
ATOM     17  C   UNL A   1      32.213  20.401  24.302  1.00  0.00     0.013 C 
ATOM     18  C   UNL A   1      32.199  19.850  22.872  1.00  0.00     0.005 C 
ENDBRANCH   9  17
BRANCH  15  19
ATOM     19  C   UNL A   1      30.811  26.256  23.654  1.00  0.00     0.166 C 
BRANCH  19  20
ATOM     20  C   UNL A   1      29.811  27.425  23.789  1.00  0.00     0.201 C 
ATOM     21  C   UNL A   1      30.275  28.659  22.972  1.00  0.00     0.135 C 
ATOM     22  N   UNL A   1      28.454  26.928  23.456  1.00  0.00    -0.342 N 
ATOM     23  S   UNL A   1      29.153  30.081  23.130  1.00  0.00    -0.150 SA
ATOM     24  C   UNL A   1      27.435  27.972  23.590  1.00  0.00     0.271 C 
ATOM     25  H   UNL A   1      28.223  26.160  24.087  1.00  0.00     0.346 HD
ATOM     26  H   UNL A   1      28.463  26.620  22.484  1.00  0.00     0.346 HD
ATOM     27  C   UNL A   1      27.649  29.190  22.690  1.00  0.00     0.131 C 
ENDBRANCH  19  20
ENDBRANCH  15  19
ENDBRANCH   6   9
ENDBRANCH   4   5
ENDBRANCH   3   4
ENDBRANCH   2   3
ENDBRANCH   1   2
BRANCH   1  28
ATOM     28  C   UNL A   1      33.886  27.541  25.982  1.00  0.00     0.021 C 
BRANCH  28  29
ATOM     29  C   UNL A   1      34.220  28.910  25.398  1.00  0.00     0.116 C 
BRANCH  29  30
ATOM     30  N   UNL A   1      33.770  30.002  26.236  1.00  0.00    -0.352 N 
ATOM     31  C   UNL A   1      34.310  30.487  27.406  1.00  0.00     0.251 C 
ATOM     32  H   UNL A   1      32.960  30.465  25.925  1.00  0.00     0.163 HD
ATOM     33  O   UNL A   1      33.669  31.303  28.065  1.00  0.00    -0.269 OA
BRANCH  31  34
ATOM     34  C   UNL A   1      35.638  30.032  27.895  1.00  0.00     0.039 A 
ATOM     35  C   UNL A   1      35.719  29.452  29.168  1.00  0.00     0.014 A 
ATOM     36  C   UNL A   1      36.807  30.222  27.154  1.00  0.00     0.014 A 
ATOM     37  C   UNL A   1      36.955  29.032  29.676  1.00  0.00     0.010 A 
ATOM     38  C   UNL A   1      38.033  29.749  27.637  1.00  0.00     0.010 A 
ATOM     39  C   UNL A   1      38.123  29.159  28.908  1.00  0.00    -0.014 A 
BRANCH  39  40
ATOM     40  C   UNL A   1      39.440  28.682  29.421  1.00  0.00     0.031 A 
ATOM     41  C   UNL A   1      40.147  29.422  30.527  1.00  0.00     0.074 A 
ATOM     42  C   UNL A   1      40.038  27.618  28.847  1.00  0.00     0.049 A 
ATOM     43  N   UNL A   1      41.313  29.178  31.070  1.00  0.00    -0.248 NA
ATOM     44  C   UNL A   1      39.464  30.600  31.085  1.00  0.00     0.031 C 
ATOM     45  C   UNL A   1      39.496  26.849  27.725  1.00  0.00     0.029 A 
ATOM     46  N   UNL A   1      41.247  27.018  29.106  1.00  0.00    -0.354 N 
ATOM     47  C   UNL A   1      41.521  30.189  32.003  1.00  0.00     0.074 A 
ATOM     48  C   UNL A   1      40.368  31.062  31.936  1.00  0.00     0.031 C 
ATOM     49  C   UNL A   1      40.369  25.885  27.390  1.00  0.00     0.029 A 
ATOM     50  C   UNL A   1      41.546  25.983  28.251  1.00  0.00     0.049 A 
ATOM     51  H   UNL A   1      41.843  27.303  29.835  1.00  0.00     0.167 HD
ATOM     52  C   UNL A   1      42.558  30.361  32.858  1.00  0.00     0.034 A 
ATOM     53  C   UNL A   1      42.643  25.205  28.158  1.00  0.00     0.034 A 
ATOM     54  C   UNL A   1      43.684  29.471  32.955  1.00  0.00     0.049 A 
ATOM     55  C   UNL A   1      43.769  25.399  29.138  1.00  0.00     0.074 A 
ATOM     56  C   UNL A   1      44.738  29.513  33.852  1.00  0.00     0.029 A 
ATOM     57  N   UNL A   1      43.912  28.385  32.125  1.00  0.00    -0.354 N 
ATOM     58  N   UNL A   1      43.868  26.258  30.122  1.00  0.00    -0.248 NA
ATOM     59  C   UNL A   1      44.922  24.492  29.018  1.00  0.00     0.031 C 
ATOM     60  C   UNL A   1      45.614  28.466  33.548  1.00  0.00     0.029 A 
ATOM     61  C   UNL A   1      45.095  27.757  32.478  1.00  0.00     0.049 A 
ATOM     62  H   UNL A   1      43.320  28.102  31.391  1.00  0.00     0.167 HD
ATOM     63  C   UNL A   1      45.071  25.976  30.759  1.00  0.00     0.074 A 
ATOM     64  C   UNL A   1      45.659  24.851  30.061  1.00  0.00     0.031 C 
ATOM     65  C   UNL A   1      45.646  26.604  31.815  1.00  0.00     0.034 A 
BRANCH  52  66
ATOM     66  C   UNL A   1      42.503  31.536  33.802  1.00  0.00     0.023 A 
ATOM     67  C   UNL A   1      43.090  32.760  33.418  1.00  0.00     0.012 A 
ATOM     68  C   UNL A   1      41.814  31.455  35.028  1.00  0.00     0.148 A 
ATOM     69  C   UNL A   1      43.025  33.873  34.255  1.00  0.00     0.002 A 
ATOM     70  C   UNL A   1      41.716  32.581  35.838  1.00  0.00     0.091 A 
ATOM     71  F   UNL A   1      41.276  30.281  35.384  1.00  0.00    -0.205 F 
ATOM     72  C   UNL A   1      42.330  33.787  35.458  1.00  0.00     0.022 A 
BRANCH  70  73
ATOM     73  S   UNL A   1      40.776  32.597  37.369  1.00  0.00     0.127 S 
ATOM     74  O   UNL A   1      40.548  34.028  37.561  1.00  0.00    -0.237 OA
ATOM     75  O   UNL A   1      39.582  31.833  37.007  1.00  0.00    -0.237 OA
ATOM     76  O   UNL A   1      41.624  31.958  38.366  1.00  0.00    -0.744 OA
ENDBRANCH  70  73
ENDBRANCH  52  66
BRANCH  53  77
ATOM     77  C   UNL A   1      42.702  24.124  27.132  1.00  0.00     0.023 A 
ATOM     78  C   UNL A   1      43.439  24.333  25.950  1.00  0.00     0.012 A 
ATOM     79  C   UNL A   1      42.061  22.886  27.330  1.00  0.00     0.148 A 
ATOM     80  C   UNL A   1      43.515  23.339  24.973  1.00  0.00     0.002 A 
ATOM     81  C   UNL A   1      42.187  21.880  26.379  1.00  0.00     0.091 A 
ATOM     82  F   UNL A   1      41.350  22.711  28.454  1.00  0.00    -0.205 F 
ATOM     83  C   UNL A   1      42.899  22.110  25.192  1.00  0.00     0.022 A 
BRANCH  81  84
ATOM     84  S   UNL A   1      41.547  20.221  26.643  1.00  0.00     0.127 S 
ATOM     85  O   UNL A   1      41.987  19.533  25.433  1.00  0.00    -0.237 OA
ATOM     86  O   UNL A   1      42.240  19.819  27.868  1.00  0.00    -0.237 OA
ATOM     87  O   UNL A   1      40.106  20.375  26.798  1.00  0.00    -0.744 OA
ENDBRANCH  81  84
ENDBRANCH  53  77
BRANCH  65  88
ATOM     88  C   UNL A   1      46.968  26.077  32.312  1.00  0.00     0.023 A 
ATOM     89  C   UNL A   1      46.997  25.155  33.377  1.00  0.00     0.012 A 
ATOM     90  C   UNL A   1      48.172  26.432  31.673  1.00  0.00     0.148 A 
ATOM     91  C   UNL A   1      48.206  24.616  33.815  1.00  0.00     0.002 A 
ATOM     92  C   UNL A   1      49.369  25.854  32.083  1.00  0.00     0.091 A 
ATOM     93  F   UNL A   1      48.126  27.326  30.673  1.00  0.00    -0.205 F 
ATOM     94  C   UNL A   1      49.389  24.955  33.162  1.00  0.00     0.022 A 
BRANCH  92  95
ATOM     95  S   UNL A   1      50.927  26.160  31.242  1.00  0.00     0.127 S 
ATOM     96  O   UNL A   1      51.156  27.572  31.542  1.00  0.00    -0.237 OA
ATOM     97  O   UNL A   1      51.834  25.237  31.925  1.00  0.00    -0.237 OA
ATOM     98  O   UNL A   1      50.692  25.849  29.838  1.00  0.00    -0.744 OA
ENDBRANCH  92  95
ENDBRANCH  65  88
ENDBRANCH  39  40
ENDBRANCH  31  34
ENDBRANCH  29  30
ENDBRANCH  28  29
ENDBRANCH   1  28
TORSDOF 19
ENDMDL
MODEL 3
REMARK VINA RESULT:     -10.5      2.508      3.065
REMARK SMILES CCC1(C(=O)NCCCCCCNC(=O)c2ccc(-c3c4nc(c(-c5cccc(S(=O)(=O)[O-])c5F)c5ccc([nH]5)c(-c5cccc(S(=O)(=O)[O-])c5F)c5nc(c(-c6cccc(S(=O)(=O)[O-])c6F)c6ccc3[nH]6)C=C5)C=C4)cc2)CCN(C(=O)C[C@H]2CSCC[NH2+]2)CC1
REMARK SMILES IDX 10 1 9 2 8 3 7 4 6 5 4 6 5 7 3 9 79 10 92 11 80 12 91 13
REMARK SMILES IDX 81 14 82 15 83 16 2 17 1 18 84 19 85 20 86 21 90 22 87 23
REMARK SMILES IDX 89 24 88 27 11 28 12 29 13 30 14 31 15 33 16 34 17 35 78 36
REMARK SMILES IDX 18 37 77 38 19 39 20 40 21 41 71 42 22 43 76 44 70 45 72 46
REMARK SMILES IDX 23 47 75 48 69 49 68 50 24 52 56 53 36 54 55 55 37 56 40 57
REMARK SMILES IDX 54 58 73 59 38 60 39 61 53 63 74 64 41 65 25 66 26 67 34 68
REMARK SMILES IDX 27 69 29 70 35 71 28 72 30 73 31 74 32 75 33 76 57 77 58 78
REMARK SMILES IDX 66 79 59 80 61 81 67 82 60 83 62 84 63 85 64 86 65 87 42 88
REMARK SMILES IDX 43 89 51 90 44 91 46 92 52 93 45 94 47 95 48 96 49 97 50 98
REMARK H PARENT 6 8 90 25 90 26 13 32 72 51 40 62
REMARK Flexibility Score: inf
ROOT
ATOM      1  C   UNL A   1      33.965  26.302  25.256  1.00  0.00     0.002 C 
ENDROOT
BRANCH   1   2
ATOM      2  C   UNL A   1      34.435  25.087  26.067  1.00  0.00     0.002 C 
BRANCH   2   3
ATOM      3  C   UNL A   1      35.819  24.500  25.754  1.00  0.00     0.021 C 
BRANCH   3   4
ATOM      4  C   UNL A   1      35.935  23.642  24.488  1.00  0.00     0.116 C 
BRANCH   4   5
ATOM      5  N   UNL A   1      35.756  22.227  24.755  1.00  0.00    -0.356 N 
ATOM      6  C   UNL A   1      34.680  21.397  24.689  1.00  0.00     0.226 C 
ATOM      7  O   UNL A   1      34.960  20.202  24.848  1.00  0.00    -0.274 OA
ATOM      8  H   UNL A   1      36.581  21.775  25.043  1.00  0.00     0.163 HD
BRANCH   6   9
ATOM      9  C   UNL A   1      33.209  21.849  24.431  1.00  0.00     0.052 C 
ATOM     10  C   UNL A   1      32.578  22.537  25.666  1.00  0.00     0.038 C 
ATOM     11  C   UNL A   1      33.166  22.835  23.228  1.00  0.00     0.038 C 
ATOM     12  C   UNL A   1      31.182  23.091  25.369  1.00  0.00     0.120 C 
ATOM     13  C   UNL A   1      31.824  23.552  23.027  1.00  0.00     0.120 C 
ATOM     14  N   UNL A   1      31.247  24.051  24.274  1.00  0.00    -0.342 N 
ATOM     15  C   UNL A   1      30.582  25.259  24.428  1.00  0.00     0.228 C 
ATOM     16  O   UNL A   1      29.767  25.432  25.340  1.00  0.00    -0.275 OA
BRANCH   9  17
ATOM     17  C   UNL A   1      32.365  20.576  24.038  1.00  0.00     0.013 C 
ATOM     18  C   UNL A   1      32.050  20.379  22.551  1.00  0.00     0.005 C 
ENDBRANCH   9  17
BRANCH  15  19
ATOM     19  C   UNL A   1      30.946  26.442  23.545  1.00  0.00     0.166 C 
BRANCH  19  20
ATOM     20  C   UNL A   1      30.015  27.654  23.769  1.00  0.00     0.201 C 
ATOM     21  C   UNL A   1      30.734  28.986  23.429  1.00  0.00     0.135 C 
ATOM     22  N   UNL A   1      28.749  27.421  23.035  1.00  0.00    -0.342 N 
ATOM     23  S   UNL A   1      29.695  30.449  23.717  1.00  0.00    -0.150 SA
ATOM     24  C   UNL A   1      27.792  28.514  23.221  1.00  0.00     0.271 C 
ATOM     25  H   UNL A   1      28.328  26.555  23.374  1.00  0.00     0.346 HD
ATOM     26  H   UNL A   1      28.969  27.362  22.041  1.00  0.00     0.346 HD
ATOM     27  C   UNL A   1      28.287  29.881  22.745  1.00  0.00     0.131 C 
ENDBRANCH  19  20
ENDBRANCH  15  19
ENDBRANCH   6   9
ENDBRANCH   4   5
ENDBRANCH   3   4
ENDBRANCH   2   3
ENDBRANCH   1   2
BRANCH   1  28
ATOM     28  C   UNL A   1      33.650  27.600  26.002  1.00  0.00     0.021 C 
BRANCH  28  29
ATOM     29  C   UNL A   1      34.197  28.909  25.442  1.00  0.00     0.116 C 
BRANCH  29  30
ATOM     30  N   UNL A   1      33.789  30.064  26.215  1.00  0.00    -0.352 N 
ATOM     31  C   UNL A   1      34.335  30.583  27.368  1.00  0.00     0.251 C 
ATOM     32  H   UNL A   1      33.007  30.549  25.866  1.00  0.00     0.163 HD
ATOM     33  O   UNL A   1      33.725  31.463  27.973  1.00  0.00    -0.269 OA
BRANCH  31  34
ATOM     34  C   UNL A   1      35.632  30.091  27.903  1.00  0.00     0.039 A 
ATOM     35  C   UNL A   1      35.654  29.520  29.181  1.00  0.00     0.014 A 
ATOM     36  C   UNL A   1      36.830  30.239  27.198  1.00  0.00     0.014 A 
ATOM     37  C   UNL A   1      36.859  29.065  29.731  1.00  0.00     0.010 A 
ATOM     38  C   UNL A   1      38.023  29.732  27.723  1.00  0.00     0.010 A 
ATOM     39  C   UNL A   1      38.055  29.149  29.000  1.00  0.00    -0.014 A 
BRANCH  39  40
ATOM     40  C   UNL A   1      39.339  28.635  29.558  1.00  0.00     0.031 A 
ATOM     41  C   UNL A   1      39.987  29.310  30.740  1.00  0.00     0.074 A 
ATOM     42  C   UNL A   1      39.964  27.600  28.961  1.00  0.00     0.049 A 
ATOM     43  N   UNL A   1      41.120  29.029  31.333  1.00  0.00    -0.248 NA
ATOM     44  C   UNL A   1      39.279  30.461  31.322  1.00  0.00     0.031 C 
ATOM     45  C   UNL A   1      39.481  26.896  27.772  1.00  0.00     0.029 A 
ATOM     46  N   UNL A   1      41.153  26.978  29.254  1.00  0.00    -0.354 N 
ATOM     47  C   UNL A   1      41.280  29.986  32.329  1.00  0.00     0.074 A 
ATOM     48  C   UNL A   1      40.137  30.871  32.246  1.00  0.00     0.031 C 
ATOM     49  C   UNL A   1      40.367  25.945  27.434  1.00  0.00     0.029 A 
ATOM     50  C   UNL A   1      41.495  25.988  28.362  1.00  0.00     0.049 A 
ATOM     51  H   UNL A   1      41.710  27.219  30.030  1.00  0.00     0.167 HD
ATOM     52  C   UNL A   1      42.270  30.105  33.248  1.00  0.00     0.034 A 
ATOM     53  C   UNL A   1      42.592  25.208  28.288  1.00  0.00     0.034 A 
ATOM     54  C   UNL A   1      43.384  29.202  33.359  1.00  0.00     0.049 A 
ATOM     55  C   UNL A   1      43.663  25.340  29.338  1.00  0.00     0.074 A 
ATOM     56  C   UNL A   1      44.387  29.188  34.313  1.00  0.00     0.029 A 
ATOM     57  N   UNL A   1      43.654  28.161  32.485  1.00  0.00    -0.354 N 
ATOM     58  N   UNL A   1      43.710  26.145  30.371  1.00  0.00    -0.248 NA
ATOM     59  C   UNL A   1      44.817  24.433  29.233  1.00  0.00     0.031 C 
ATOM     60  C   UNL A   1      45.274  28.152  34.002  1.00  0.00     0.029 A 
ATOM     61  C   UNL A   1      44.812  27.506  32.868  1.00  0.00     0.049 A 
ATOM     62  H   UNL A   1      43.102  27.922  31.705  1.00  0.00     0.167 HD
ATOM     63  C   UNL A   1      44.876  25.820  31.057  1.00  0.00     0.074 A 
ATOM     64  C   UNL A   1      45.496  24.730  30.333  1.00  0.00     0.031 C 
ATOM     65  C   UNL A   1      45.394  26.386  32.175  1.00  0.00     0.034 A 
BRANCH  52  66
ATOM     66  C   UNL A   1      42.167  31.228  34.249  1.00  0.00     0.023 A 
ATOM     67  C   UNL A   1      41.569  30.985  35.503  1.00  0.00     0.012 A 
ATOM     68  C   UNL A   1      42.722  32.495  33.983  1.00  0.00     0.148 A 
ATOM     69  C   UNL A   1      41.491  31.995  36.461  1.00  0.00     0.002 A 
ATOM     70  C   UNL A   1      42.680  33.484  34.959  1.00  0.00     0.091 A 
ATOM     71  F   UNL A   1      43.273  32.713  32.781  1.00  0.00    -0.205 F 
ATOM     72  C   UNL A   1      42.055  33.239  36.194  1.00  0.00     0.022 A 
BRANCH  70  73
ATOM     73  S   UNL A   1      43.446  35.095  34.744  1.00  0.00     0.127 S 
ATOM     74  O   UNL A   1      42.791  35.575  33.529  1.00  0.00    -0.237 OA
ATOM     75  O   UNL A   1      43.048  35.792  35.967  1.00  0.00    -0.237 OA
ATOM     76  O   UNL A   1      44.877  34.845  34.628  1.00  0.00    -0.744 OA
ENDBRANCH  70  73
ENDBRANCH  52  66
BRANCH  53  77
ATOM     77  C   UNL A   1      42.703  24.184  27.210  1.00  0.00     0.023 A 
ATOM     78  C   UNL A   1      43.521  24.441  26.093  1.00  0.00     0.012 A 
ATOM     79  C   UNL A   1      42.030  22.949  27.296  1.00  0.00     0.148 A 
ATOM     80  C   UNL A   1      43.647  23.501  25.069  1.00  0.00     0.002 A 
ATOM     81  C   UNL A   1      42.205  21.993  26.302  1.00  0.00     0.091 A 
ATOM     82  F   UNL A   1      41.243  22.727  28.359  1.00  0.00    -0.205 F 
ATOM     83  C   UNL A   1      42.999  22.274  25.179  1.00  0.00     0.022 A 
BRANCH  81  84
ATOM     84  S   UNL A   1      41.523  20.336  26.430  1.00  0.00     0.127 S 
ATOM     85  O   UNL A   1      40.088  20.593  26.346  1.00  0.00    -0.237 OA
ATOM     86  O   UNL A   1      42.101  19.676  25.257  1.00  0.00    -0.237 OA
ATOM     87  O   UNL A   1      42.001  19.810  27.703  1.00  0.00    -0.744 OA
ENDBRANCH  81  84
ENDBRANCH  53  77
BRANCH  65  88
ATOM     88  C   UNL A   1      46.684  25.824  32.716  1.00  0.00     0.023 A 
ATOM     89  C   UNL A   1      47.913  26.389  32.321  1.00  0.00     0.012 A 
ATOM     90  C   UNL A   1      46.673  24.792  33.675  1.00  0.00     0.148 A 
ATOM     91  C   UNL A   1      49.112  25.917  32.853  1.00  0.00     0.002 A 
ATOM     92  C   UNL A   1      47.871  24.359  34.236  1.00  0.00     0.091 A 
ATOM     93  F   UNL A   1      45.495  24.254  34.024  1.00  0.00    -0.205 F 
ATOM     94  C   UNL A   1      49.091  24.912  33.817  1.00  0.00     0.022 A 
BRANCH  92  95
ATOM     95  S   UNL A   1      47.933  23.137  35.552  1.00  0.00     0.127 S 
ATOM     96  O   UNL A   1      49.356  23.134  35.888  1.00  0.00    -0.237 OA
ATOM     97  O   UNL A   1      47.068  23.734  36.570  1.00  0.00    -0.237 OA
ATOM     98  O   UNL A   1      47.424  21.900  34.976  1.00  0.00    -0.744 OA
ENDBRANCH  92  95
ENDBRANCH  65  88
ENDBRANCH  39  40
ENDBRANCH  31  34
ENDBRANCH  29  30
ENDBRANCH  28  29
ENDBRANCH   1  28
TORSDOF 19
ENDMDL
