MODEL 1
REMARK VINA RESULT:     -10.1      0.000      0.000
REMARK SMILES CCCc1n[nH]c(C(=O)N[C@H](C)CC(=O)NCCCCCCNC(=O)c2ccc(-c3c4nc(c(-c5cccc(S(=O)(=O)[O-])c5F)c5ccc([nH]5)c(-c5cccc(S(=O)(=O)[O-])c5F)c5nc(c(-c6cccc(S(=O)(=O)[O-])c6F)c6ccc3[nH]6)C=C5)C=C4)cc2)n1
REMARK SMILES IDX 18 1 17 2 16 3 14 4 15 5 13 7 11 8 12 9 10 10 8 11 9 12 7 14
REMARK SMILES IDX 4 15 5 16 89 17 6 18 3 20 2 21 1 22 19 23 20 24 21 25 22 26
REMARK SMILES IDX 23 27 24 28 25 30 26 31 27 32 88 33 28 34 87 35 29 36 30 37
REMARK SMILES IDX 31 38 81 39 32 40 86 41 80 42 82 43 33 44 85 45 79 46 78 47
REMARK SMILES IDX 34 49 66 50 46 51 65 52 47 53 50 54 64 55 83 56 48 57 49 58
REMARK SMILES IDX 63 60 84 61 51 62 35 63 36 64 44 65 37 66 39 67 45 68 38 69
REMARK SMILES IDX 40 70 41 71 42 72 43 73 67 74 68 75 76 76 69 77 71 78 77 79
REMARK SMILES IDX 70 80 72 81 73 82 74 83 75 84 52 85 53 86 61 87 54 88 56 89
REMARK SMILES IDX 62 90 55 91 57 92 58 93 59 94 60 95
REMARK H PARENT 16 6 10 13 6 19 23 29 82 48 50 59
REMARK Flexibility Score: inf
ROOT
ATOM      1  C   UNL A   1      33.537  26.699  25.122  1.00  0.00     0.021 C 
ENDROOT
BRANCH   1   2
ATOM      2  C   UNL A   1      32.061  26.596  24.723  1.00  0.00     0.116 C 
BRANCH   2   3
ATOM      3  N   UNL A   1      31.297  25.927  25.764  1.00  0.00    -0.356 N 
ATOM      4  C   UNL A   1      30.616  24.748  25.747  1.00  0.00     0.222 C 
ATOM      5  O   UNL A   1      29.951  24.456  26.744  1.00  0.00    -0.275 OA
ATOM      6  H   UNL A   1      31.267  26.406  26.624  1.00  0.00     0.163 HD
BRANCH   4   7
ATOM      7  C   UNL A   1      30.693  23.796  24.566  1.00  0.00     0.124 C 
BRANCH   7   8
ATOM      8  C   UNL A   1      31.769  22.706  24.720  1.00  0.00     0.088 C 
ATOM      9  C   UNL A   1      32.922  22.925  23.732  1.00  0.00     0.031 C 
BRANCH   8  10
ATOM     10  N   UNL A   1      32.316  22.676  26.085  1.00  0.00    -0.346 N 
ATOM     11  C   UNL A   1      33.129  21.707  26.646  1.00  0.00     0.288 C 
ATOM     12  O   UNL A   1      33.606  21.929  27.756  1.00  0.00    -0.266 OA
ATOM     13  H   UNL A   1      32.074  23.432  26.667  1.00  0.00     0.164 HD
BRANCH  11  14
ATOM     14  C   UNL A   1      33.453  20.512  25.894  1.00  0.00     0.214 A 
ATOM     15  C   UNL A   1      33.431  18.706  24.788  1.00  0.00     0.151 A 
ATOM     16  N   UNL A   1      34.691  19.129  24.637  1.00  0.00    -0.158 NA
ATOM     17  N   UNL A   1      32.649  19.515  25.571  1.00  0.00    -0.207 NA
ATOM     18  N   UNL A   1      34.682  20.268  25.352  1.00  0.00    -0.255 N 
ATOM     19  H   UNL A   1      35.465  20.853  25.470  1.00  0.00     0.192 HD
BRANCH  15  20
ATOM     20  C   UNL A   1      32.922  17.448  24.177  1.00  0.00     0.079 C 
BRANCH  20  21
ATOM     21  C   UNL A   1      34.019  16.434  23.841  1.00  0.00     0.005 C 
ATOM     22  C   UNL A   1      34.491  15.649  25.055  1.00  0.00     0.004 C 
ENDBRANCH  20  21
ENDBRANCH  15  20
ENDBRANCH  11  14
ENDBRANCH   8  10
ENDBRANCH   7   8
ENDBRANCH   4   7
ENDBRANCH   2   3
ENDBRANCH   1   2
BRANCH   1  23
ATOM     23  C   UNL A   1      34.089  25.483  25.865  1.00  0.00     0.002 C 
BRANCH  23  24
ATOM     24  C   UNL A   1      35.568  25.181  25.597  1.00  0.00     0.002 C 
BRANCH  24  25
ATOM     25  C   UNL A   1      36.003  23.717  25.749  1.00  0.00     0.021 C 
BRANCH  25  26
ATOM     26  C   UNL A   1      37.180  23.272  24.883  1.00  0.00     0.116 C 
BRANCH  26  27
ATOM     27  N   UNL A   1      38.063  22.341  25.565  1.00  0.00    -0.352 N 
ATOM     28  C   UNL A   1      39.151  22.583  26.368  1.00  0.00     0.251 C 
ATOM     29  H   UNL A   1      37.848  21.389  25.432  1.00  0.00     0.163 HD
ATOM     30  O   UNL A   1      39.856  21.644  26.731  1.00  0.00    -0.269 OA
BRANCH  28  31
ATOM     31  C   UNL A   1      39.496  23.962  26.781  1.00  0.00     0.039 A 
ATOM     32  C   UNL A   1      39.193  24.366  28.085  1.00  0.00     0.014 A 
ATOM     33  C   UNL A   1      40.087  24.865  25.891  1.00  0.00     0.014 A 
ATOM     34  C   UNL A   1      39.535  25.651  28.516  1.00  0.00     0.010 A 
ATOM     35  C   UNL A   1      40.480  26.127  26.340  1.00  0.00     0.010 A 
ATOM     36  C   UNL A   1      40.210  26.534  27.656  1.00  0.00    -0.014 A 
BRANCH  36  37
ATOM     37  C   UNL A   1      40.664  27.867  28.132  1.00  0.00     0.031 A 
ATOM     38  C   UNL A   1      42.128  28.206  28.191  1.00  0.00     0.074 A 
ATOM     39  C   UNL A   1      39.756  28.750  28.594  1.00  0.00     0.049 A 
ATOM     40  N   UNL A   1      42.703  29.307  28.603  1.00  0.00    -0.248 NA
ATOM     41  C   UNL A   1      43.071  27.165  27.753  1.00  0.00     0.031 C 
ATOM     42  C   UNL A   1      38.314  28.513  28.673  1.00  0.00     0.029 A 
ATOM     43  N   UNL A   1      39.914  30.013  29.110  1.00  0.00    -0.354 N 
ATOM     44  C   UNL A   1      44.072  29.082  28.508  1.00  0.00     0.074 A 
ATOM     45  C   UNL A   1      44.241  27.728  28.025  1.00  0.00     0.031 C 
ATOM     46  C   UNL A   1      37.720  29.591  29.208  1.00  0.00     0.029 A 
ATOM     47  C   UNL A   1      38.738  30.588  29.530  1.00  0.00     0.049 A 
ATOM     48  H   UNL A   1      40.787  30.463  29.174  1.00  0.00     0.167 HD
ATOM     49  C   UNL A   1      45.094  29.932  28.769  1.00  0.00     0.034 A 
ATOM     50  C   UNL A   1      38.500  31.781  30.110  1.00  0.00     0.034 A 
ATOM     51  C   UNL A   1      44.924  31.293  29.204  1.00  0.00     0.049 A 
ATOM     52  C   UNL A   1      39.646  32.729  30.337  1.00  0.00     0.074 A 
ATOM     53  C   UNL A   1      45.893  32.263  29.394  1.00  0.00     0.029 A 
ATOM     54  N   UNL A   1      43.708  31.875  29.528  1.00  0.00    -0.354 N 
ATOM     55  N   UNL A   1      40.917  32.563  30.068  1.00  0.00    -0.248 NA
ATOM     56  C   UNL A   1      39.319  34.043  30.911  1.00  0.00     0.031 C 
ATOM     57  C   UNL A   1      45.263  33.428  29.847  1.00  0.00     0.029 A 
ATOM     58  C   UNL A   1      43.901  33.188  29.926  1.00  0.00     0.049 A 
ATOM     59  H   UNL A   1      42.836  31.421  29.482  1.00  0.00     0.167 HD
ATOM     60  C   UNL A   1      41.540  33.759  30.411  1.00  0.00     0.074 A 
ATOM     61  C   UNL A   1      40.500  34.649  30.887  1.00  0.00     0.031 C 
ATOM     62  C   UNL A   1      42.855  34.083  30.351  1.00  0.00     0.034 A 
BRANCH  49  63
ATOM     63  C   UNL A   1      46.494  29.429  28.532  1.00  0.00     0.023 A 
ATOM     64  C   UNL A   1      47.083  29.595  27.260  1.00  0.00     0.012 A 
ATOM     65  C   UNL A   1      47.245  28.840  29.567  1.00  0.00     0.148 A 
ATOM     66  C   UNL A   1      48.379  29.148  27.012  1.00  0.00     0.002 A 
ATOM     67  C   UNL A   1      48.553  28.433  29.323  1.00  0.00     0.091 A 
ATOM     68  F   UNL A   1      46.664  28.667  30.763  1.00  0.00    -0.205 F 
ATOM     69  C   UNL A   1      49.117  28.576  28.044  1.00  0.00     0.022 A 
BRANCH  67  70
ATOM     70  S   UNL A   1      49.605  27.757  30.613  1.00  0.00     0.127 S 
ATOM     71  O   UNL A   1      50.928  27.861  30.000  1.00  0.00    -0.237 OA
ATOM     72  O   UNL A   1      49.374  28.682  31.723  1.00  0.00    -0.237 OA
ATOM     73  O   UNL A   1      49.121  26.403  30.847  1.00  0.00    -0.744 OA
ENDBRANCH  67  70
ENDBRANCH  49  63
BRANCH  50  74
ATOM     74  C   UNL A   1      37.100  32.172  30.439  1.00  0.00     0.023 A 
ATOM     75  C   UNL A   1      36.619  31.975  31.747  1.00  0.00     0.012 A 
ATOM     76  C   UNL A   1      36.269  32.792  29.486  1.00  0.00     0.148 A 
ATOM     77  C   UNL A   1      35.327  32.367  32.096  1.00  0.00     0.002 A 
ATOM     78  C   UNL A   1      35.003  33.231  29.855  1.00  0.00     0.091 A 
ATOM     79  F   UNL A   1      36.743  32.960  28.244  1.00  0.00    -0.205 F 
ATOM     80  C   UNL A   1      34.524  33.006  31.155  1.00  0.00     0.022 A 
BRANCH  78  81
ATOM     81  S   UNL A   1      33.954  34.184  28.751  1.00  0.00     0.127 S 
ATOM     82  O   UNL A   1      33.541  33.173  27.781  1.00  0.00    -0.237 OA
ATOM     83  O   UNL A   1      32.897  34.639  29.655  1.00  0.00    -0.237 OA
ATOM     84  O   UNL A   1      34.797  35.253  28.232  1.00  0.00    -0.744 OA
ENDBRANCH  78  81
ENDBRANCH  50  74
BRANCH  62  85
ATOM     85  C   UNL A   1      43.256  35.465  30.797  1.00  0.00     0.023 A 
ATOM     86  C   UNL A   1      43.618  35.686  32.140  1.00  0.00     0.012 A 
ATOM     87  C   UNL A   1      43.349  36.524  29.872  1.00  0.00     0.148 A 
ATOM     88  C   UNL A   1      44.042  36.946  32.562  1.00  0.00     0.002 A 
ATOM     89  C   UNL A   1      43.814  37.766  30.291  1.00  0.00     0.091 A 
ATOM     90  F   UNL A   1      42.979  36.301  28.602  1.00  0.00    -0.205 F 
ATOM     91  C   UNL A   1      44.151  37.981  31.637  1.00  0.00     0.022 A 
BRANCH  89  92
ATOM     92  S   UNL A   1      44.072  39.129  29.149  1.00  0.00     0.127 S 
ATOM     93  O   UNL A   1      44.569  40.175  30.040  1.00  0.00    -0.237 OA
ATOM     94  O   UNL A   1      45.073  38.584  28.231  1.00  0.00    -0.237 OA
ATOM     95  O   UNL A   1      42.775  39.388  28.539  1.00  0.00    -0.744 OA
ENDBRANCH  89  92
ENDBRANCH  62  85
ENDBRANCH  36  37
ENDBRANCH  28  31
ENDBRANCH  26  27
ENDBRANCH  25  26
ENDBRANCH  24  25
ENDBRANCH  23  24
ENDBRANCH   1  23
TORSDOF 21
ENDMDL
MODEL 2
REMARK VINA RESULT:     -10.0      2.684      4.358
REMARK SMILES CCCc1n[nH]c(C(=O)N[C@H](C)CC(=O)NCCCCCCNC(=O)c2ccc(-c3c4nc(c(-c5cccc(S(=O)(=O)[O-])c5F)c5ccc([nH]5)c(-c5cccc(S(=O)(=O)[O-])c5F)c5nc(c(-c6cccc(S(=O)(=O)[O-])c6F)c6ccc3[nH]6)C=C5)C=C4)cc2)n1
REMARK SMILES IDX 18 1 17 2 16 3 14 4 15 5 13 7 11 8 12 9 10 10 8 11 9 12 7 14
REMARK SMILES IDX 4 15 5 16 89 17 6 18 3 20 2 21 1 22 19 23 20 24 21 25 22 26
REMARK SMILES IDX 23 27 24 28 25 30 26 31 27 32 88 33 28 34 87 35 29 36 30 37
REMARK SMILES IDX 31 38 81 39 32 40 86 41 80 42 82 43 33 44 85 45 79 46 78 47
REMARK SMILES IDX 34 49 66 50 46 51 65 52 47 53 50 54 64 55 83 56 48 57 49 58
REMARK SMILES IDX 63 60 84 61 51 62 35 63 36 64 44 65 37 66 39 67 45 68 38 69
REMARK SMILES IDX 40 70 41 71 42 72 43 73 67 74 68 75 76 76 69 77 71 78 77 79
REMARK SMILES IDX 70 80 72 81 73 82 74 83 75 84 52 85 53 86 61 87 54 88 56 89
REMARK SMILES IDX 62 90 55 91 57 92 58 93 59 94 60 95
REMARK H PARENT 16 6 10 13 6 19 23 29 82 48 50 59
REMARK Flexibility Score: inf
ROOT
ATOM      1  C   UNL A   1      34.590  21.893  26.400  1.00  0.00     0.021 C 
ENDROOT
BRANCH   1   2
ATOM      2  C   UNL A   1      33.518  21.420  27.389  1.00  0.00     0.116 C 
BRANCH   2   3
ATOM      3  N   UNL A   1      32.539  22.470  27.620  1.00  0.00    -0.356 N 
ATOM      4  C   UNL A   1      31.559  22.962  26.814  1.00  0.00     0.222 C 
ATOM      5  O   UNL A   1      30.925  23.942  27.214  1.00  0.00    -0.275 OA
ATOM      6  H   UNL A   1      32.594  22.895  28.506  1.00  0.00     0.163 HD
BRANCH   4   7
ATOM      7  C   UNL A   1      31.217  22.314  25.483  1.00  0.00     0.124 C 
BRANCH   7   8
ATOM      8  C   UNL A   1      31.528  23.201  24.264  1.00  0.00     0.088 C 
ATOM      9  C   UNL A   1      31.891  22.352  23.041  1.00  0.00     0.031 C 
BRANCH   8  10
ATOM     10  N   UNL A   1      30.388  24.064  23.920  1.00  0.00    -0.346 N 
ATOM     11  C   UNL A   1      30.383  25.441  23.787  1.00  0.00     0.288 C 
ATOM     12  O   UNL A   1      29.365  25.973  23.348  1.00  0.00    -0.266 OA
ATOM     13  H   UNL A   1      29.528  23.609  23.767  1.00  0.00     0.164 HD
BRANCH  11  14
ATOM     14  C   UNL A   1      31.578  26.201  24.090  1.00  0.00     0.214 A 
ATOM     15  C   UNL A   1      33.086  27.406  24.961  1.00  0.00     0.151 A 
ATOM     16  N   UNL A   1      33.717  26.849  23.921  1.00  0.00    -0.158 NA
ATOM     17  N   UNL A   1      31.768  27.051  25.083  1.00  0.00    -0.207 NA
ATOM     18  N   UNL A   1      32.740  26.098  23.382  1.00  0.00    -0.255 N 
ATOM     19  H   UNL A   1      32.850  25.543  22.576  1.00  0.00     0.192 HD
BRANCH  15  20
ATOM     20  C   UNL A   1      33.752  28.352  25.897  1.00  0.00     0.079 C 
BRANCH  20  21
ATOM     21  C   UNL A   1      33.107  29.740  25.938  1.00  0.00     0.005 C 
ATOM     22  C   UNL A   1      32.126  29.902  27.089  1.00  0.00     0.004 C 
ENDBRANCH  20  21
ENDBRANCH  15  20
ENDBRANCH  11  14
ENDBRANCH   8  10
ENDBRANCH   7   8
ENDBRANCH   4   7
ENDBRANCH   2   3
ENDBRANCH   1   2
BRANCH   1  23
ATOM     23  C   UNL A   1      34.831  20.955  25.217  1.00  0.00     0.002 C 
BRANCH  23  24
ATOM     24  C   UNL A   1      36.290  20.528  25.022  1.00  0.00     0.002 C 
BRANCH  24  25
ATOM     25  C   UNL A   1      37.349  21.369  25.748  1.00  0.00     0.021 C 
BRANCH  25  26
ATOM     26  C   UNL A   1      38.785  21.217  25.250  1.00  0.00     0.116 C 
BRANCH  26  27
ATOM     27  N   UNL A   1      39.598  20.378  26.114  1.00  0.00    -0.352 N 
ATOM     28  C   UNL A   1      40.598  20.720  26.990  1.00  0.00     0.251 C 
ATOM     29  H   UNL A   1      39.399  19.415  26.065  1.00  0.00     0.163 HD
ATOM     30  O   UNL A   1      41.266  19.836  27.522  1.00  0.00    -0.269 OA
BRANCH  28  31
ATOM     31  C   UNL A   1      40.896  22.140  27.283  1.00  0.00     0.039 A 
ATOM     32  C   UNL A   1      41.665  22.445  28.411  1.00  0.00     0.014 A 
ATOM     33  C   UNL A   1      40.403  23.171  26.477  1.00  0.00     0.014 A 
ATOM     34  C   UNL A   1      41.991  23.774  28.696  1.00  0.00     0.010 A 
ATOM     35  C   UNL A   1      40.778  24.492  26.730  1.00  0.00     0.010 A 
ATOM     36  C   UNL A   1      41.576  24.808  27.841  1.00  0.00    -0.014 A 
BRANCH  36  37
ATOM     37  C   UNL A   1      41.996  26.214  28.081  1.00  0.00     0.031 A 
ATOM     38  C   UNL A   1      43.391  26.668  27.751  1.00  0.00     0.074 A 
ATOM     39  C   UNL A   1      41.140  27.068  28.678  1.00  0.00     0.049 A 
ATOM     40  N   UNL A   1      43.936  27.846  27.918  1.00  0.00    -0.248 NA
ATOM     41  C   UNL A   1      44.301  25.663  27.181  1.00  0.00     0.031 C 
ATOM     42  C   UNL A   1      39.789  26.731  29.128  1.00  0.00     0.029 A 
ATOM     43  N   UNL A   1      41.291  28.385  29.036  1.00  0.00    -0.354 N 
ATOM     44  C   UNL A   1      45.258  27.717  27.509  1.00  0.00     0.074 A 
ATOM     45  C   UNL A   1      45.440  26.338  27.111  1.00  0.00     0.031 C 
ATOM     46  C   UNL A   1      39.235  27.810  29.704  1.00  0.00     0.029 A 
ATOM     47  C   UNL A   1      40.197  28.909  29.683  1.00  0.00     0.049 A 
ATOM     48  H   UNL A   1      42.105  28.905  28.847  1.00  0.00     0.167 HD
ATOM     49  C   UNL A   1      46.223  28.665  27.441  1.00  0.00     0.034 A 
ATOM     50  C   UNL A   1      39.986  30.133  30.205  1.00  0.00     0.034 A 
ATOM     51  C   UNL A   1      46.028  30.046  27.793  1.00  0.00     0.049 A 
ATOM     52  C   UNL A   1      41.054  31.185  30.067  1.00  0.00     0.074 A 
ATOM     53  C   UNL A   1      46.913  31.102  27.659  1.00  0.00     0.029 A 
ATOM     54  N   UNL A   1      44.872  30.565  28.357  1.00  0.00    -0.354 N 
ATOM     55  N   UNL A   1      42.235  31.090  29.508  1.00  0.00    -0.248 NA
ATOM     56  C   UNL A   1      40.745  32.522  30.595  1.00  0.00     0.031 C 
ATOM     57  C   UNL A   1      46.297  32.256  28.157  1.00  0.00     0.029 A 
ATOM     58  C   UNL A   1      45.024  31.922  28.588  1.00  0.00     0.049 A 
ATOM     59  H   UNL A   1      44.063  30.043  28.564  1.00  0.00     0.167 HD
ATOM     60  C   UNL A   1      42.800  32.358  29.589  1.00  0.00     0.074 A 
ATOM     61  C   UNL A   1      41.820  33.210  30.232  1.00  0.00     0.031 C 
ATOM     62  C   UNL A   1      44.025  32.774  29.183  1.00  0.00     0.034 A 
BRANCH  49  63
ATOM     63  C   UNL A   1      47.570  28.249  26.909  1.00  0.00     0.023 A 
ATOM     64  C   UNL A   1      48.640  28.055  27.808  1.00  0.00     0.012 A 
ATOM     65  C   UNL A   1      47.770  28.002  25.537  1.00  0.00     0.148 A 
ATOM     66  C   UNL A   1      49.895  27.663  27.347  1.00  0.00     0.002 A 
ATOM     67  C   UNL A   1      49.014  27.571  25.089  1.00  0.00     0.091 A 
ATOM     68  F   UNL A   1      46.751  28.213  24.692  1.00  0.00    -0.205 F 
ATOM     69  C   UNL A   1      50.080  27.411  25.991  1.00  0.00     0.022 A 
BRANCH  67  70
ATOM     70  S   UNL A   1      49.324  27.149  23.371  1.00  0.00     0.127 S 
ATOM     71  O   UNL A   1      50.760  26.877  23.387  1.00  0.00    -0.237 OA
ATOM     72  O   UNL A   1      48.483  25.966  23.182  1.00  0.00    -0.237 OA
ATOM     73  O   UNL A   1      48.909  28.312  22.598  1.00  0.00    -0.744 OA
ENDBRANCH  67  70
ENDBRANCH  49  63
BRANCH  50  74
ATOM     74  C   UNL A   1      38.673  30.448  30.835  1.00  0.00     0.023 A 
ATOM     75  C   UNL A   1      38.444  30.075  32.173  1.00  0.00     0.012 A 
ATOM     76  C   UNL A   1      37.680  31.167  30.140  1.00  0.00     0.148 A 
ATOM     77  C   UNL A   1      37.239  30.391  32.802  1.00  0.00     0.002 A 
ATOM     78  C   UNL A   1      36.506  31.526  30.791  1.00  0.00     0.091 A 
ATOM     79  F   UNL A   1      37.915  31.502  28.865  1.00  0.00    -0.205 F 
ATOM     80  C   UNL A   1      36.277  31.127  32.117  1.00  0.00     0.022 A 
BRANCH  78  81
ATOM     81  S   UNL A   1      35.272  32.589  30.032  1.00  0.00     0.127 S 
ATOM     82  O   UNL A   1      34.706  31.712  29.012  1.00  0.00    -0.237 OA
ATOM     83  O   UNL A   1      34.385  32.876  31.160  1.00  0.00    -0.237 OA
ATOM     84  O   UNL A   1      36.002  33.749  29.537  1.00  0.00    -0.744 OA
ENDBRANCH  78  81
ENDBRANCH  50  74
BRANCH  62  85
ATOM     85  C   UNL A   1      44.381  34.221  29.402  1.00  0.00     0.023 A 
ATOM     86  C   UNL A   1      44.971  34.616  30.619  1.00  0.00     0.012 A 
ATOM     87  C   UNL A   1      44.205  35.173  28.378  1.00  0.00     0.148 A 
ATOM     88  C   UNL A   1      45.356  35.940  30.823  1.00  0.00     0.002 A 
ATOM     89  C   UNL A   1      44.631  36.482  28.573  1.00  0.00     0.091 A 
ATOM     90  F   UNL A   1      43.621  34.784  27.235  1.00  0.00    -0.205 F 
ATOM     91  C   UNL A   1      45.198  36.869  29.798  1.00  0.00     0.022 A 
BRANCH  89  92
ATOM     92  S   UNL A   1      44.547  37.721  27.275  1.00  0.00     0.127 S 
ATOM     93  O   UNL A   1      45.585  37.260  26.354  1.00  0.00    -0.237 OA
ATOM     94  O   UNL A   1      43.179  37.565  26.779  1.00  0.00    -0.237 OA
ATOM     95  O   UNL A   1      44.808  38.998  27.926  1.00  0.00    -0.744 OA
ENDBRANCH  89  92
ENDBRANCH  62  85
ENDBRANCH  36  37
ENDBRANCH  28  31
ENDBRANCH  26  27
ENDBRANCH  25  26
ENDBRANCH  24  25
ENDBRANCH  23  24
ENDBRANCH   1  23
TORSDOF 21
ENDMDL
MODEL 3
REMARK VINA RESULT:      -9.9      4.563      9.407
REMARK SMILES CCCc1n[nH]c(C(=O)N[C@H](C)CC(=O)NCCCCCCNC(=O)c2ccc(-c3c4nc(c(-c5cccc(S(=O)(=O)[O-])c5F)c5ccc([nH]5)c(-c5cccc(S(=O)(=O)[O-])c5F)c5nc(c(-c6cccc(S(=O)(=O)[O-])c6F)c6ccc3[nH]6)C=C5)C=C4)cc2)n1
REMARK SMILES IDX 18 1 17 2 16 3 14 4 15 5 13 7 11 8 12 9 10 10 8 11 9 12 7 14
REMARK SMILES IDX 4 15 5 16 89 17 6 18 3 20 2 21 1 22 19 23 20 24 21 25 22 26
REMARK SMILES IDX 23 27 24 28 25 30 26 31 27 32 88 33 28 34 87 35 29 36 30 37
REMARK SMILES IDX 31 38 81 39 32 40 86 41 80 42 82 43 33 44 85 45 79 46 78 47
REMARK SMILES IDX 34 49 66 50 46 51 65 52 47 53 50 54 64 55 83 56 48 57 49 58
REMARK SMILES IDX 63 60 84 61 51 62 35 63 36 64 44 65 37 66 39 67 45 68 38 69
REMARK SMILES IDX 40 70 41 71 42 72 43 73 67 74 68 75 76 76 69 77 71 78 77 79
REMARK SMILES IDX 70 80 72 81 73 82 74 83 75 84 52 85 53 86 61 87 54 88 56 89
REMARK SMILES IDX 62 90 55 91 57 92 58 93 59 94 60 95
REMARK H PARENT 16 6 10 13 6 19 23 29 82 48 50 59
REMARK Flexibility Score: inf
ROOT
ATOM      1  C   UNL A   1      33.456  27.205  26.191  1.00  0.00     0.021 C 
ENDROOT
BRANCH   1   2
ATOM      2  C   UNL A   1      33.624  25.758  25.716  1.00  0.00     0.116 C 
BRANCH   2   3
ATOM      3  N   UNL A   1      32.514  24.938  26.175  1.00  0.00    -0.356 N 
ATOM      4  C   UNL A   1      32.488  23.656  26.634  1.00  0.00     0.222 C 
ATOM      5  O   UNL A   1      31.386  23.151  26.860  1.00  0.00    -0.275 OA
ATOM      6  H   UNL A   1      31.637  25.383  26.150  1.00  0.00     0.163 HD
BRANCH   4   7
ATOM      7  C   UNL A   1      33.763  22.876  26.901  1.00  0.00     0.124 C 
BRANCH   7   8
ATOM      8  C   UNL A   1      34.410  22.292  25.633  1.00  0.00     0.088 C 
ATOM      9  C   UNL A   1      35.726  21.577  25.962  1.00  0.00     0.031 C 
BRANCH   8  10
ATOM     10  N   UNL A   1      33.512  21.341  24.958  1.00  0.00    -0.346 N 
ATOM     11  C   UNL A   1      32.792  21.543  23.793  1.00  0.00     0.288 C 
ATOM     12  O   UNL A   1      32.210  20.578  23.303  1.00  0.00    -0.266 OA
ATOM     13  H   UNL A   1      33.410  20.460  25.386  1.00  0.00     0.164 HD
BRANCH  11  14
ATOM     14  C   UNL A   1      32.805  22.842  23.152  1.00  0.00     0.214 A 
ATOM     15  C   UNL A   1      32.376  24.786  22.432  1.00  0.00     0.151 A 
ATOM     16  N   UNL A   1      33.677  24.648  22.153  1.00  0.00    -0.158 NA
ATOM     17  N   UNL A   1      31.801  23.691  23.022  1.00  0.00    -0.207 NA
ATOM     18  N   UNL A   1      33.923  23.408  22.611  1.00  0.00    -0.255 N 
ATOM     19  H   UNL A   1      34.800  22.963  22.561  1.00  0.00     0.192 HD
BRANCH  15  20
ATOM     20  C   UNL A   1      31.606  26.018  22.107  1.00  0.00     0.079 C 
BRANCH  20  21
ATOM     21  C   UNL A   1      31.400  26.953  23.301  1.00  0.00     0.005 C 
ATOM     22  C   UNL A   1      30.043  26.775  23.964  1.00  0.00     0.004 C 
ENDBRANCH  20  21
ENDBRANCH  15  20
ENDBRANCH  11  14
ENDBRANCH   8  10
ENDBRANCH   7   8
ENDBRANCH   4   7
ENDBRANCH   2   3
ENDBRANCH   1   2
BRANCH   1  23
ATOM     23  C   UNL A   1      32.193  27.470  27.010  1.00  0.00     0.002 C 
BRANCH  23  24
ATOM     24  C   UNL A   1      31.834  28.951  27.178  1.00  0.00     0.002 C 
BRANCH  24  25
ATOM     25  C   UNL A   1      32.674  29.951  26.372  1.00  0.00     0.021 C 
BRANCH  25  26
ATOM     26  C   UNL A   1      34.004  30.371  26.996  1.00  0.00     0.116 C 
BRANCH  26  27
ATOM     27  N   UNL A   1      33.882  31.538  27.853  1.00  0.00    -0.352 N 
ATOM     28  C   UNL A   1      34.670  31.951  28.900  1.00  0.00     0.251 C 
ATOM     29  H   UNL A   1      33.117  32.124  27.652  1.00  0.00     0.163 HD
ATOM     30  O   UNL A   1      34.307  32.897  29.595  1.00  0.00    -0.269 OA
BRANCH  28  31
ATOM     31  C   UNL A   1      35.939  31.255  29.213  1.00  0.00     0.039 A 
ATOM     32  C   UNL A   1      37.126  31.745  28.659  1.00  0.00     0.014 A 
ATOM     33  C   UNL A   1      35.966  30.114  30.020  1.00  0.00     0.014 A 
ATOM     34  C   UNL A   1      38.344  31.130  28.962  1.00  0.00     0.010 A 
ATOM     35  C   UNL A   1      37.188  29.536  30.368  1.00  0.00     0.010 A 
ATOM     36  C   UNL A   1      38.390  30.038  29.844  1.00  0.00    -0.014 A 
BRANCH  36  37
ATOM     37  C   UNL A   1      39.688  29.435  30.249  1.00  0.00     0.031 A 
ATOM     38  C   UNL A   1      40.498  30.031  31.367  1.00  0.00     0.074 A 
ATOM     39  C   UNL A   1      40.182  28.395  29.549  1.00  0.00     0.049 A 
ATOM     40  N   UNL A   1      41.660  29.655  31.834  1.00  0.00    -0.248 NA
ATOM     41  C   UNL A   1      39.941  31.219  32.033  1.00  0.00     0.031 C 
ATOM     42  C   UNL A   1      39.538  27.778  28.388  1.00  0.00     0.029 A 
ATOM     43  N   UNL A   1      41.352  27.691  29.693  1.00  0.00    -0.354 N 
ATOM     44  C   UNL A   1      41.992  30.575  32.822  1.00  0.00     0.074 A 
ATOM     45  C   UNL A   1      40.920  31.545  32.867  1.00  0.00     0.031 C 
ATOM     46  C   UNL A   1      40.322  26.791  27.924  1.00  0.00     0.029 A 
ATOM     47  C   UNL A   1      41.531  26.717  28.739  1.00  0.00     0.049 A 
ATOM     48  H   UNL A   1      42.001  27.867  30.412  1.00  0.00     0.167 HD
ATOM     49  C   UNL A   1      43.074  30.595  33.637  1.00  0.00     0.034 A 
ATOM     50  C   UNL A   1      42.551  25.860  28.537  1.00  0.00     0.034 A 
ATOM     51  C   UNL A   1      44.117  29.604  33.623  1.00  0.00     0.049 A 
ATOM     52  C   UNL A   1      43.716  25.866  29.491  1.00  0.00     0.074 A 
ATOM     53  C   UNL A   1      45.198  29.479  34.478  1.00  0.00     0.029 A 
ATOM     54  N   UNL A   1      44.218  28.572  32.702  1.00  0.00    -0.354 N 
ATOM     55  N   UNL A   1      43.921  26.631  30.535  1.00  0.00    -0.248 NA
ATOM     56  C   UNL A   1      44.768  24.865  29.262  1.00  0.00     0.031 C 
ATOM     57  C   UNL A   1      45.960  28.381  34.064  1.00  0.00     0.029 A 
ATOM     58  C   UNL A   1      45.346  27.812  32.960  1.00  0.00     0.049 A 
ATOM     59  H   UNL A   1      43.579  28.404  31.971  1.00  0.00     0.167 HD
ATOM     60  C   UNL A   1      45.109  26.187  31.106  1.00  0.00     0.074 A 
ATOM     61  C   UNL A   1      45.566  25.071  30.304  1.00  0.00     0.031 C 
ATOM     62  C   UNL A   1      45.768  26.672  32.187  1.00  0.00     0.034 A 
BRANCH  49  63
ATOM     63  C   UNL A   1      43.154  31.698  34.659  1.00  0.00     0.023 A 
ATOM     64  C   UNL A   1      43.812  32.902  34.328  1.00  0.00     0.012 A 
ATOM     65  C   UNL A   1      42.545  31.572  35.922  1.00  0.00     0.148 A 
ATOM     66  C   UNL A   1      43.895  33.944  35.248  1.00  0.00     0.002 A 
ATOM     67  C   UNL A   1      42.596  32.632  36.821  1.00  0.00     0.091 A 
ATOM     68  F   UNL A   1      41.944  30.414  36.231  1.00  0.00    -0.205 F 
ATOM     69  C   UNL A   1      43.281  33.814  36.490  1.00  0.00     0.022 A 
BRANCH  67  70
ATOM     70  S   UNL A   1      41.768  32.582  38.414  1.00  0.00     0.127 S 
ATOM     71  O   UNL A   1      42.505  31.521  39.098  1.00  0.00    -0.237 OA
ATOM     72  O   UNL A   1      42.013  33.927  38.936  1.00  0.00    -0.237 OA
ATOM     73  O   UNL A   1      40.370  32.295  38.124  1.00  0.00    -0.744 OA
ENDBRANCH  67  70
ENDBRANCH  49  63
BRANCH  50  74
ATOM     74  C   UNL A   1      42.471  24.871  27.426  1.00  0.00     0.023 A 
ATOM     75  C   UNL A   1      43.257  25.063  26.274  1.00  0.00     0.012 A 
ATOM     76  C   UNL A   1      41.673  23.714  27.531  1.00  0.00     0.148 A 
ATOM     77  C   UNL A   1      43.233  24.133  25.234  1.00  0.00     0.002 A 
ATOM     78  C   UNL A   1      41.697  22.765  26.516  1.00  0.00     0.091 A 
ATOM     79  F   UNL A   1      40.925  23.557  28.631  1.00  0.00    -0.205 F 
ATOM     80  C   UNL A   1      42.464  22.979  25.360  1.00  0.00     0.022 A 
BRANCH  78  81
ATOM     81  S   UNL A   1      40.848  21.187  26.652  1.00  0.00     0.127 S 
ATOM     82  O   UNL A   1      41.765  20.291  25.955  1.00  0.00    -0.237 OA
ATOM     83  O   UNL A   1      40.786  21.001  28.102  1.00  0.00    -0.237 OA
ATOM     84  O   UNL A   1      39.550  21.383  26.019  1.00  0.00    -0.744 OA
ENDBRANCH  78  81
ENDBRANCH  50  74
BRANCH  62  85
ATOM     85  C   UNL A   1      47.052  25.993  32.586  1.00  0.00     0.023 A 
ATOM     86  C   UNL A   1      48.272  26.432  32.035  1.00  0.00     0.012 A 
ATOM     87  C   UNL A   1      47.060  24.975  33.560  1.00  0.00     0.148 A 
ATOM     88  C   UNL A   1      49.477  25.852  32.430  1.00  0.00     0.002 A 
ATOM     89  C   UNL A   1      48.269  24.431  33.980  1.00  0.00     0.091 A 
ATOM     90  F   UNL A   1      45.887  24.554  34.057  1.00  0.00    -0.205 F 
ATOM     91  C   UNL A   1      49.477  24.862  33.409  1.00  0.00     0.022 A 
BRANCH  89  92
ATOM     92  S   UNL A   1      48.368  23.216  35.300  1.00  0.00     0.127 S 
ATOM     93  O   UNL A   1      49.776  23.305  35.682  1.00  0.00    -0.237 OA
ATOM     94  O   UNL A   1      47.433  23.753  36.291  1.00  0.00    -0.237 OA
ATOM     95  O   UNL A   1      47.956  21.951  34.709  1.00  0.00    -0.744 OA
ENDBRANCH  89  92
ENDBRANCH  62  85
ENDBRANCH  36  37
ENDBRANCH  28  31
ENDBRANCH  26  27
ENDBRANCH  25  26
ENDBRANCH  24  25
ENDBRANCH  23  24
ENDBRANCH   1  23
TORSDOF 21
ENDMDL
