MODEL 1
REMARK VINA RESULT:     -12.1      0.000      0.000
REMARK SMILES Cc1c(Br)c(C(=O)NCCCCCCNC(=O)c2ccc(-c3c4nc(c(-c5cccc(S(=O)(=O)[O-])c5F)c5ccc([nH]5)c(-c5cccc(S(=O)(=O)[O-])c5F)c5nc(c(-c6cccc(S(=O)(=O)[O-])c6F)c6ccc3[nH]6)C=C5)C=C4)cc2)nn1-c1ccccc1
REMARK SMILES IDX 12 1 11 2 10 3 9 4 8 5 6 6 7 7 5 9 1 10 2 11 3 12 82 13 4 14
REMARK SMILES IDX 81 15 83 16 84 17 88 18 85 19 87 20 86 21 13 22 14 23 15 24
REMARK SMILES IDX 16 25 17 27 18 28 19 29 80 30 20 31 79 32 21 33 22 34 23 35
REMARK SMILES IDX 73 36 24 37 78 38 72 39 74 40 25 41 77 42 71 43 70 44 26 46
REMARK SMILES IDX 58 47 38 48 57 49 39 50 42 51 56 52 75 53 40 54 41 55 55 57
REMARK SMILES IDX 76 58 43 59 27 60 28 61 36 62 29 63 31 64 37 65 30 66 32 67
REMARK SMILES IDX 33 68 34 69 35 70 59 71 60 72 68 73 61 74 63 75 69 76 62 77
REMARK SMILES IDX 64 78 65 79 66 80 67 81 44 82 45 83 53 84 46 85 48 86 54 87
REMARK SMILES IDX 47 88 49 89 50 90 51 91 52 92
REMARK H PARENT 8 8 15 26 74 45 42 56
REMARK Flexibility Score: inf
ROOT
ATOM      1  C   UNL A   1      31.572  30.457  25.970  1.00  0.00     0.002 C 
ENDROOT
BRANCH   1   2
ATOM      2  C   UNL A   1      33.034  30.005  25.832  1.00  0.00     0.002 C 
BRANCH   2   3
ATOM      3  C   UNL A   1      33.436  28.742  26.598  1.00  0.00     0.021 C 
BRANCH   3   4
ATOM      4  C   UNL A   1      32.971  27.417  25.997  1.00  0.00     0.116 C 
BRANCH   4   5
ATOM      5  N   UNL A   1      33.568  27.143  24.699  1.00  0.00    -0.351 N 
ATOM      6  C   UNL A   1      32.998  27.157  23.439  1.00  0.00     0.272 C 
ATOM      7  O   UNL A   1      33.722  26.850  22.491  1.00  0.00    -0.267 OA
ATOM      8  H   UNL A   1      34.525  26.912  24.720  1.00  0.00     0.163 HD
BRANCH   6   9
ATOM      9  C   UNL A   1      31.577  27.507  23.269  1.00  0.00     0.165 A 
ATOM     10  C   UNL A   1      27.891  27.319  23.596  1.00  0.00     0.068 C 
ATOM     11  C   UNL A   1      29.340  27.602  23.439  1.00  0.00     0.056 A 
ATOM     12  C   UNL A   1      30.436  26.821  23.745  1.00  0.00     0.072 A 
ATOM     13  N   UNL A   1      29.876  28.743  22.864  1.00  0.00    -0.236 N 
ATOM     14  Br  UNL A   1      30.406  25.163  24.621  1.00  0.00    -0.046 Br
ATOM     15  N   UNL A   1      31.172  28.545  22.511  1.00  0.00    -0.161 NA
BRANCH  13  16
ATOM     16  C   UNL A   1      29.284  30.008  22.621  1.00  0.00     0.065 A 
ATOM     17  C   UNL A   1      28.882  30.334  21.317  1.00  0.00     0.028 A 
ATOM     18  C   UNL A   1      29.183  30.963  23.640  1.00  0.00     0.028 A 
ATOM     19  C   UNL A   1      28.331  31.586  21.048  1.00  0.00     0.002 A 
ATOM     20  C   UNL A   1      28.657  32.225  23.355  1.00  0.00     0.002 A 
ATOM     21  C   UNL A   1      28.221  32.531  22.066  1.00  0.00     0.000 A 
ENDBRANCH  13  16
ENDBRANCH   6   9
ENDBRANCH   4   5
ENDBRANCH   3   4
ENDBRANCH   2   3
ENDBRANCH   1   2
BRANCH   1  22
ATOM     22  C   UNL A   1      31.328  31.875  26.504  1.00  0.00     0.021 C 
BRANCH  22  23
ATOM     23  C   UNL A   1      32.521  32.482  27.226  1.00  0.00     0.116 C 
BRANCH  23  24
ATOM     24  N   UNL A   1      32.306  33.877  27.618  1.00  0.00    -0.352 N 
ATOM     25  C   UNL A   1      33.003  34.607  28.565  1.00  0.00     0.251 C 
ATOM     26  H   UNL A   1      31.581  34.352  27.153  1.00  0.00     0.163 HD
ATOM     27  O   UNL A   1      32.538  35.637  29.038  1.00  0.00    -0.269 OA
BRANCH  25  28
ATOM     28  C   UNL A   1      34.327  34.116  28.992  1.00  0.00     0.039 A 
ATOM     29  C   UNL A   1      34.512  33.461  30.213  1.00  0.00     0.014 A 
ATOM     30  C   UNL A   1      35.385  34.282  28.106  1.00  0.00     0.014 A 
ATOM     31  C   UNL A   1      35.757  32.904  30.494  1.00  0.00     0.010 A 
ATOM     32  C   UNL A   1      36.543  33.578  28.300  1.00  0.00     0.010 A 
ATOM     33  C   UNL A   1      36.765  32.949  29.520  1.00  0.00    -0.014 A 
BRANCH  33  34
ATOM     34  C   UNL A   1      38.042  32.271  29.712  1.00  0.00     0.031 A 
ATOM     35  C   UNL A   1      38.097  30.876  29.197  1.00  0.00     0.074 A 
ATOM     36  C   UNL A   1      39.152  32.937  30.103  1.00  0.00     0.049 A 
ATOM     37  N   UNL A   1      38.237  29.787  29.881  1.00  0.00    -0.248 NA
ATOM     38  C   UNL A   1      37.834  30.649  27.767  1.00  0.00     0.031 C 
ATOM     39  C   UNL A   1      39.296  34.382  30.345  1.00  0.00     0.029 A 
ATOM     40  N   UNL A   1      40.432  32.490  30.214  1.00  0.00    -0.354 N 
ATOM     41  C   UNL A   1      38.330  28.763  28.939  1.00  0.00     0.074 A 
ATOM     42  C   UNL A   1      37.871  29.317  27.694  1.00  0.00     0.031 C 
ATOM     43  C   UNL A   1      40.600  34.722  30.295  1.00  0.00     0.029 A 
ATOM     44  C   UNL A   1      41.383  33.506  30.224  1.00  0.00     0.049 A 
ATOM     45  H   UNL A   1      40.665  31.535  30.281  1.00  0.00     0.167 HD
ATOM     46  C   UNL A   1      39.035  27.627  29.199  1.00  0.00     0.034 A 
ATOM     47  C   UNL A   1      42.726  33.367  30.149  1.00  0.00     0.034 A 
ATOM     48  C   UNL A   1      39.353  27.518  30.600  1.00  0.00     0.049 A 
ATOM     49  C   UNL A   1      43.038  31.991  30.584  1.00  0.00     0.074 A 
ATOM     50  C   UNL A   1      38.642  27.401  31.775  1.00  0.00     0.029 A 
ATOM     51  N   UNL A   1      40.620  27.915  30.948  1.00  0.00    -0.354 N 
ATOM     52  N   UNL A   1      42.814  31.555  31.793  1.00  0.00    -0.248 NA
ATOM     53  C   UNL A   1      43.227  30.964  29.575  1.00  0.00     0.031 C 
ATOM     54  C   UNL A   1      39.398  28.130  32.741  1.00  0.00     0.029 A 
ATOM     55  C   UNL A   1      40.555  28.612  32.122  1.00  0.00     0.049 A 
ATOM     56  H   UNL A   1      41.440  27.727  30.436  1.00  0.00     0.167 HD
ATOM     57  C   UNL A   1      42.373  30.253  31.611  1.00  0.00     0.074 A 
ATOM     58  C   UNL A   1      42.804  29.899  30.261  1.00  0.00     0.031 C 
ATOM     59  C   UNL A   1      41.451  29.702  32.455  1.00  0.00     0.034 A 
BRANCH  46  60
ATOM     60  C   UNL A   1      39.809  26.822  28.174  1.00  0.00     0.023 A 
ATOM     61  C   UNL A   1      39.663  25.415  28.215  1.00  0.00     0.012 A 
ATOM     62  C   UNL A   1      40.874  27.327  27.393  1.00  0.00     0.148 A 
ATOM     63  C   UNL A   1      40.560  24.560  27.565  1.00  0.00     0.002 A 
ATOM     64  C   UNL A   1      41.717  26.477  26.685  1.00  0.00     0.091 A 
ATOM     65  F   UNL A   1      41.176  28.628  27.432  1.00  0.00    -0.205 F 
ATOM     66  C   UNL A   1      41.586  25.091  26.793  1.00  0.00     0.022 A 
BRANCH  64  67
ATOM     67  S   UNL A   1      43.033  27.113  25.640  1.00  0.00     0.127 S 
ATOM     68  O   UNL A   1      42.290  27.977  24.728  1.00  0.00    -0.237 OA
ATOM     69  O   UNL A   1      43.876  27.812  26.609  1.00  0.00    -0.237 OA
ATOM     70  O   UNL A   1      43.660  25.938  25.046  1.00  0.00    -0.744 OA
ENDBRANCH  64  67
ENDBRANCH  46  60
BRANCH  47  71
ATOM     71  C   UNL A   1      43.721  34.260  29.520  1.00  0.00     0.023 A 
ATOM     72  C   UNL A   1      44.510  35.112  30.314  1.00  0.00     0.012 A 
ATOM     73  C   UNL A   1      44.077  34.084  28.164  1.00  0.00     0.148 A 
ATOM     74  C   UNL A   1      45.638  35.749  29.780  1.00  0.00     0.002 A 
ATOM     75  C   UNL A   1      45.197  34.720  27.637  1.00  0.00     0.091 A 
ATOM     76  F   UNL A   1      43.365  33.227  27.419  1.00  0.00    -0.205 F 
ATOM     77  C   UNL A   1      45.987  35.545  28.447  1.00  0.00     0.022 A 
BRANCH  75  78
ATOM     78  S   UNL A   1      45.727  34.487  25.934  1.00  0.00     0.127 S 
ATOM     79  O   UNL A   1      46.633  35.619  25.745  1.00  0.00    -0.237 OA
ATOM     80  O   UNL A   1      46.381  33.183  25.994  1.00  0.00    -0.237 OA
ATOM     81  O   UNL A   1      44.516  34.544  25.124  1.00  0.00    -0.744 OA
ENDBRANCH  75  78
ENDBRANCH  47  71
BRANCH  59  82
ATOM     82  C   UNL A   1      41.157  30.435  33.744  1.00  0.00     0.023 A 
ATOM     83  C   UNL A   1      42.079  30.482  34.811  1.00  0.00     0.012 A 
ATOM     84  C   UNL A   1      40.002  31.229  33.813  1.00  0.00     0.148 A 
ATOM     85  C   UNL A   1      41.844  31.287  35.930  1.00  0.00     0.002 A 
ATOM     86  C   UNL A   1      39.792  32.061  34.906  1.00  0.00     0.091 A 
ATOM     87  F   UNL A   1      39.141  31.183  32.784  1.00  0.00    -0.205 F 
ATOM     88  C   UNL A   1      40.705  32.085  35.972  1.00  0.00     0.022 A 
BRANCH  86  89
ATOM     89  S   UNL A   1      38.414  33.207  34.973  1.00  0.00     0.127 S 
ATOM     90  O   UNL A   1      37.313  32.339  35.387  1.00  0.00    -0.237 OA
ATOM     91  O   UNL A   1      38.854  34.165  35.988  1.00  0.00    -0.237 OA
ATOM     92  O   UNL A   1      38.291  33.772  33.634  1.00  0.00    -0.744 OA
ENDBRANCH  86  89
ENDBRANCH  59  82
ENDBRANCH  33  34
ENDBRANCH  25  28
ENDBRANCH  23  24
ENDBRANCH  22  23
ENDBRANCH   1  22
TORSDOF 17
ENDMDL
MODEL 2
REMARK VINA RESULT:     -12.0      1.866      3.752
REMARK SMILES Cc1c(Br)c(C(=O)NCCCCCCNC(=O)c2ccc(-c3c4nc(c(-c5cccc(S(=O)(=O)[O-])c5F)c5ccc([nH]5)c(-c5cccc(S(=O)(=O)[O-])c5F)c5nc(c(-c6cccc(S(=O)(=O)[O-])c6F)c6ccc3[nH]6)C=C5)C=C4)cc2)nn1-c1ccccc1
REMARK SMILES IDX 12 1 11 2 10 3 9 4 8 5 6 6 7 7 5 9 1 10 2 11 3 12 82 13 4 14
REMARK SMILES IDX 81 15 83 16 84 17 88 18 85 19 87 20 86 21 13 22 14 23 15 24
REMARK SMILES IDX 16 25 17 27 18 28 19 29 80 30 20 31 79 32 21 33 22 34 23 35
REMARK SMILES IDX 73 36 24 37 78 38 72 39 74 40 25 41 77 42 71 43 70 44 26 46
REMARK SMILES IDX 58 47 38 48 57 49 39 50 42 51 56 52 75 53 40 54 41 55 55 57
REMARK SMILES IDX 76 58 43 59 27 60 28 61 36 62 29 63 31 64 37 65 30 66 32 67
REMARK SMILES IDX 33 68 34 69 35 70 59 71 60 72 68 73 61 74 63 75 69 76 62 77
REMARK SMILES IDX 64 78 65 79 66 80 67 81 44 82 45 83 53 84 46 85 48 86 54 87
REMARK SMILES IDX 47 88 49 89 50 90 51 91 52 92
REMARK H PARENT 8 8 15 26 74 45 42 56
REMARK Flexibility Score: inf
ROOT
ATOM      1  C   UNL A   1      31.600  30.395  26.141  1.00  0.00     0.002 C 
ENDROOT
BRANCH   1   2
ATOM      2  C   UNL A   1      31.862  29.310  27.196  1.00  0.00     0.002 C 
BRANCH   2   3
ATOM      3  C   UNL A   1      32.538  28.027  26.707  1.00  0.00     0.021 C 
BRANCH   3   4
ATOM      4  C   UNL A   1      31.683  27.111  25.832  1.00  0.00     0.116 C 
BRANCH   4   5
ATOM      5  N   UNL A   1      30.999  26.077  26.593  1.00  0.00    -0.351 N 
ATOM      6  C   UNL A   1      31.114  24.701  26.523  1.00  0.00     0.272 C 
ATOM      7  O   UNL A   1      30.387  24.038  27.264  1.00  0.00    -0.267 OA
ATOM      8  H   UNL A   1      30.355  26.408  27.260  1.00  0.00     0.163 HD
BRANCH   6   9
ATOM      9  C   UNL A   1      32.059  24.080  25.579  1.00  0.00     0.165 A 
ATOM     10  C   UNL A   1      33.579  23.049  22.361  1.00  0.00     0.068 C 
ATOM     11  C   UNL A   1      33.166  23.453  23.729  1.00  0.00     0.056 A 
ATOM     12  C   UNL A   1      31.993  24.032  24.167  1.00  0.00     0.072 A 
ATOM     13  N   UNL A   1      33.904  23.247  24.883  1.00  0.00    -0.236 N 
ATOM     14  Br  UNL A   1      30.582  24.636  23.087  1.00  0.00    -0.046 Br
ATOM     15  N   UNL A   1      33.121  23.358  25.986  1.00  0.00    -0.161 NA
BRANCH  13  16
ATOM     16  C   UNL A   1      35.284  22.963  25.045  1.00  0.00     0.065 A 
ATOM     17  C   UNL A   1      35.751  21.670  24.765  1.00  0.00     0.028 A 
ATOM     18  C   UNL A   1      36.160  23.922  25.567  1.00  0.00     0.028 A 
ATOM     19  C   UNL A   1      37.098  21.358  24.953  1.00  0.00     0.002 A 
ATOM     20  C   UNL A   1      37.500  23.591  25.781  1.00  0.00     0.002 A 
ATOM     21  C   UNL A   1      37.970  22.318  25.462  1.00  0.00     0.000 A 
ENDBRANCH  13  16
ENDBRANCH   6   9
ENDBRANCH   4   5
ENDBRANCH   3   4
ENDBRANCH   2   3
ENDBRANCH   1   2
BRANCH   1  22
ATOM     22  C   UNL A   1      31.336  31.818  26.654  1.00  0.00     0.021 C 
BRANCH  22  23
ATOM     23  C   UNL A   1      32.595  32.601  26.990  1.00  0.00     0.116 C 
BRANCH  23  24
ATOM     24  N   UNL A   1      32.315  33.939  27.518  1.00  0.00    -0.352 N 
ATOM     25  C   UNL A   1      32.943  34.583  28.570  1.00  0.00     0.251 C 
ATOM     26  H   UNL A   1      31.596  34.441  27.071  1.00  0.00     0.163 HD
ATOM     27  O   UNL A   1      32.422  35.542  29.127  1.00  0.00    -0.269 OA
BRANCH  25  28
ATOM     28  C   UNL A   1      34.262  34.086  29.006  1.00  0.00     0.039 A 
ATOM     29  C   UNL A   1      34.427  33.389  30.207  1.00  0.00     0.014 A 
ATOM     30  C   UNL A   1      35.337  34.293  28.150  1.00  0.00     0.014 A 
ATOM     31  C   UNL A   1      35.672  32.832  30.493  1.00  0.00     0.010 A 
ATOM     32  C   UNL A   1      36.496  33.592  28.342  1.00  0.00     0.010 A 
ATOM     33  C   UNL A   1      36.698  32.921  29.543  1.00  0.00    -0.014 A 
BRANCH  33  34
ATOM     34  C   UNL A   1      37.977  32.245  29.737  1.00  0.00     0.031 A 
ATOM     35  C   UNL A   1      38.041  30.855  29.210  1.00  0.00     0.074 A 
ATOM     36  C   UNL A   1      39.082  32.913  30.140  1.00  0.00     0.049 A 
ATOM     37  N   UNL A   1      38.181  29.762  29.886  1.00  0.00    -0.248 NA
ATOM     38  C   UNL A   1      37.787  30.639  27.777  1.00  0.00     0.031 C 
ATOM     39  C   UNL A   1      39.219  34.357  30.394  1.00  0.00     0.029 A 
ATOM     40  N   UNL A   1      40.364  32.470  30.254  1.00  0.00    -0.354 N 
ATOM     41  C   UNL A   1      38.283  28.745  28.937  1.00  0.00     0.074 A 
ATOM     42  C   UNL A   1      37.830  29.308  27.693  1.00  0.00     0.031 C 
ATOM     43  C   UNL A   1      40.522  34.702  30.354  1.00  0.00     0.029 A 
ATOM     44  C   UNL A   1      41.310  33.490  30.278  1.00  0.00     0.049 A 
ATOM     45  H   UNL A   1      40.600  31.516  30.315  1.00  0.00     0.167 HD
ATOM     46  C   UNL A   1      38.991  27.610  29.192  1.00  0.00     0.034 A 
ATOM     47  C   UNL A   1      42.654  33.356  30.210  1.00  0.00     0.034 A 
ATOM     48  C   UNL A   1      39.302  27.491  30.593  1.00  0.00     0.049 A 
ATOM     49  C   UNL A   1      42.969  31.979  30.636  1.00  0.00     0.074 A 
ATOM     50  C   UNL A   1      38.585  27.361  31.764  1.00  0.00     0.029 A 
ATOM     51  N   UNL A   1      40.566  27.890  30.952  1.00  0.00    -0.354 N 
ATOM     52  N   UNL A   1      42.739  31.532  31.840  1.00  0.00    -0.248 NA
ATOM     53  C   UNL A   1      43.168  30.961  29.619  1.00  0.00     0.031 C 
ATOM     54  C   UNL A   1      39.332  28.085  32.740  1.00  0.00     0.029 A 
ATOM     55  C   UNL A   1      40.490  28.577  32.131  1.00  0.00     0.049 A 
ATOM     56  H   UNL A   1      41.389  27.709  30.444  1.00  0.00     0.167 HD
ATOM     57  C   UNL A   1      42.305  30.229  31.645  1.00  0.00     0.074 A 
ATOM     58  C   UNL A   1      42.745  29.889  30.294  1.00  0.00     0.031 C 
ATOM     59  C   UNL A   1      41.380  29.668  32.479  1.00  0.00     0.034 A 
BRANCH  46  60
ATOM     60  C   UNL A   1      39.775  26.816  28.164  1.00  0.00     0.023 A 
ATOM     61  C   UNL A   1      39.651  25.408  28.206  1.00  0.00     0.012 A 
ATOM     62  C   UNL A   1      40.830  27.338  27.380  1.00  0.00     0.148 A 
ATOM     63  C   UNL A   1      40.558  24.566  27.553  1.00  0.00     0.002 A 
ATOM     64  C   UNL A   1      41.684  26.500  26.671  1.00  0.00     0.091 A 
ATOM     65  F   UNL A   1      41.112  28.643  27.419  1.00  0.00    -0.205 F 
ATOM     66  C   UNL A   1      41.574  25.112  26.779  1.00  0.00     0.022 A 
BRANCH  64  67
ATOM     67  S   UNL A   1      42.987  27.156  25.621  1.00  0.00     0.127 S 
ATOM     68  O   UNL A   1      43.831  27.840  26.596  1.00  0.00    -0.237 OA
ATOM     69  O   UNL A   1      43.559  25.935  25.053  1.00  0.00    -0.237 OA
ATOM     70  O   UNL A   1      42.311  28.004  24.647  1.00  0.00    -0.744 OA
ENDBRANCH  64  67
ENDBRANCH  46  60
BRANCH  47  71
ATOM     71  C   UNL A   1      43.649  34.259  29.595  1.00  0.00     0.023 A 
ATOM     72  C   UNL A   1      44.412  35.126  30.398  1.00  0.00     0.012 A 
ATOM     73  C   UNL A   1      44.033  34.079  28.247  1.00  0.00     0.148 A 
ATOM     74  C   UNL A   1      45.542  35.774  29.881  1.00  0.00     0.002 A 
ATOM     75  C   UNL A   1      45.154  34.727  27.737  1.00  0.00     0.091 A 
ATOM     76  F   UNL A   1      43.346  33.209  27.494  1.00  0.00    -0.205 F 
ATOM     77  C   UNL A   1      45.918  35.567  28.556  1.00  0.00     0.022 A 
BRANCH  75  78
ATOM     78  S   UNL A   1      45.719  34.491  26.045  1.00  0.00     0.127 S 
ATOM     79  O   UNL A   1      44.458  34.490  25.305  1.00  0.00    -0.237 OA
ATOM     80  O   UNL A   1      46.552  35.673  25.834  1.00  0.00    -0.237 OA
ATOM     81  O   UNL A   1      46.427  33.216  26.031  1.00  0.00    -0.744 OA
ENDBRANCH  75  78
ENDBRANCH  47  71
BRANCH  59  82
ATOM     82  C   UNL A   1      41.075  30.389  33.772  1.00  0.00     0.023 A 
ATOM     83  C   UNL A   1      41.969  30.388  34.863  1.00  0.00     0.012 A 
ATOM     84  C   UNL A   1      39.946  31.220  33.824  1.00  0.00     0.148 A 
ATOM     85  C   UNL A   1      41.731  31.181  35.989  1.00  0.00     0.002 A 
ATOM     86  C   UNL A   1      39.734  32.041  34.926  1.00  0.00     0.091 A 
ATOM     87  F   UNL A   1      39.112  31.220  32.772  1.00  0.00    -0.205 F 
ATOM     88  C   UNL A   1      40.619  32.017  36.015  1.00  0.00     0.022 A 
BRANCH  86  89
ATOM     89  S   UNL A   1      38.393  33.231  34.975  1.00  0.00     0.127 S 
ATOM     90  O   UNL A   1      38.637  34.017  33.767  1.00  0.00    -0.237 OA
ATOM     91  O   UNL A   1      37.211  32.371  34.918  1.00  0.00    -0.237 OA
ATOM     92  O   UNL A   1      38.543  33.957  36.231  1.00  0.00    -0.744 OA
ENDBRANCH  86  89
ENDBRANCH  59  82
ENDBRANCH  33  34
ENDBRANCH  25  28
ENDBRANCH  23  24
ENDBRANCH  22  23
ENDBRANCH   1  22
TORSDOF 17
ENDMDL
MODEL 3
REMARK VINA RESULT:     -11.9      4.010      9.444
REMARK SMILES Cc1c(Br)c(C(=O)NCCCCCCNC(=O)c2ccc(-c3c4nc(c(-c5cccc(S(=O)(=O)[O-])c5F)c5ccc([nH]5)c(-c5cccc(S(=O)(=O)[O-])c5F)c5nc(c(-c6cccc(S(=O)(=O)[O-])c6F)c6ccc3[nH]6)C=C5)C=C4)cc2)nn1-c1ccccc1
REMARK SMILES IDX 12 1 11 2 10 3 9 4 8 5 6 6 7 7 5 9 1 10 2 11 3 12 82 13 4 14
REMARK SMILES IDX 81 15 83 16 84 17 88 18 85 19 87 20 86 21 13 22 14 23 15 24
REMARK SMILES IDX 16 25 17 27 18 28 19 29 80 30 20 31 79 32 21 33 22 34 23 35
REMARK SMILES IDX 73 36 24 37 78 38 72 39 74 40 25 41 77 42 71 43 70 44 26 46
REMARK SMILES IDX 58 47 38 48 57 49 39 50 42 51 56 52 75 53 40 54 41 55 55 57
REMARK SMILES IDX 76 58 43 59 27 60 28 61 36 62 29 63 31 64 37 65 30 66 32 67
REMARK SMILES IDX 33 68 34 69 35 70 59 71 60 72 68 73 61 74 63 75 69 76 62 77
REMARK SMILES IDX 64 78 65 79 66 80 67 81 44 82 45 83 53 84 46 85 48 86 54 87
REMARK SMILES IDX 47 88 49 89 50 90 51 91 52 92
REMARK H PARENT 8 8 15 26 74 45 42 56
REMARK Flexibility Score: inf
ROOT
ATOM      1  C   UNL A   1      39.049  22.141  26.220  1.00  0.00     0.002 C 
ENDROOT
BRANCH   1   2
ATOM      2  C   UNL A   1      38.103  23.151  25.554  1.00  0.00     0.002 C 
BRANCH   2   3
ATOM      3  C   UNL A   1      36.604  22.946  25.791  1.00  0.00     0.021 C 
BRANCH   3   4
ATOM      4  C   UNL A   1      35.688  24.069  25.307  1.00  0.00     0.116 C 
BRANCH   4   5
ATOM      5  N   UNL A   1      35.292  23.915  23.915  1.00  0.00    -0.351 N 
ATOM      6  C   UNL A   1      34.153  24.351  23.264  1.00  0.00     0.272 C 
ATOM      7  O   UNL A   1      34.040  24.058  22.073  1.00  0.00    -0.267 OA
ATOM      8  H   UNL A   1      35.933  23.426  23.351  1.00  0.00     0.163 HD
BRANCH   6   9
ATOM      9  C   UNL A   1      33.124  25.113  23.992  1.00  0.00     0.165 A 
ATOM     10  C   UNL A   1      30.085  25.810  25.993  1.00  0.00     0.068 C 
ATOM     11  C   UNL A   1      31.380  25.709  25.274  1.00  0.00     0.056 A 
ATOM     12  C   UNL A   1      31.954  24.635  24.627  1.00  0.00     0.072 A 
ATOM     13  N   UNL A   1      32.262  26.756  25.060  1.00  0.00    -0.236 N 
ATOM     14  Br  UNL A   1      31.298  22.877  24.595  1.00  0.00    -0.046 Br
ATOM     15  N   UNL A   1      33.135  26.459  24.065  1.00  0.00    -0.161 NA
BRANCH  13  16
ATOM     16  C   UNL A   1      32.364  28.011  25.713  1.00  0.00     0.065 A 
ATOM     17  C   UNL A   1      31.634  29.100  25.214  1.00  0.00     0.028 A 
ATOM     18  C   UNL A   1      33.250  28.197  26.780  1.00  0.00     0.028 A 
ATOM     19  C   UNL A   1      31.748  30.353  25.816  1.00  0.00     0.002 A 
ATOM     20  C   UNL A   1      33.380  29.462  27.359  1.00  0.00     0.002 A 
ATOM     21  C   UNL A   1      32.622  30.533  26.887  1.00  0.00     0.000 A 
ENDBRANCH  13  16
ENDBRANCH   6   9
ENDBRANCH   4   5
ENDBRANCH   3   4
ENDBRANCH   2   3
ENDBRANCH   1   2
BRANCH   1  22
ATOM     22  C   UNL A   1      39.356  20.854  25.442  1.00  0.00     0.021 C 
BRANCH  22  23
ATOM     23  C   UNL A   1      39.714  19.666  26.320  1.00  0.00     0.116 C 
BRANCH  23  24
ATOM     24  N   UNL A   1      40.940  18.986  25.895  1.00  0.00    -0.352 N 
ATOM     25  C   UNL A   1      42.198  19.537  25.725  1.00  0.00     0.251 C 
ATOM     26  H   UNL A   1      40.861  18.023  25.708  1.00  0.00     0.163 HD
ATOM     27  O   UNL A   1      43.056  18.965  25.064  1.00  0.00    -0.269 OA
BRANCH  25  28
ATOM     28  C   UNL A   1      42.485  20.836  26.363  1.00  0.00     0.039 A 
ATOM     29  C   UNL A   1      42.900  21.946  25.621  1.00  0.00     0.014 A 
ATOM     30  C   UNL A   1      42.277  20.933  27.733  1.00  0.00     0.014 A 
ATOM     31  C   UNL A   1      43.022  23.175  26.266  1.00  0.00     0.010 A 
ATOM     32  C   UNL A   1      42.217  22.168  28.320  1.00  0.00     0.010 A 
ATOM     33  C   UNL A   1      42.658  23.282  27.615  1.00  0.00    -0.014 A 
BRANCH  33  34
ATOM     34  C   UNL A   1      42.645  24.569  28.302  1.00  0.00     0.031 A 
ATOM     35  C   UNL A   1      41.420  25.386  28.085  1.00  0.00     0.074 A 
ATOM     36  C   UNL A   1      43.560  24.883  29.247  1.00  0.00     0.049 A 
ATOM     37  N   UNL A   1      41.328  26.523  27.477  1.00  0.00    -0.248 NA
ATOM     38  C   UNL A   1      40.122  24.812  28.471  1.00  0.00     0.031 C 
ATOM     39  C   UNL A   1      44.640  24.030  29.772  1.00  0.00     0.029 A 
ATOM     40  N   UNL A   1      43.623  25.972  30.060  1.00  0.00    -0.354 N 
ATOM     41  C   UNL A   1      40.000  26.922  27.628  1.00  0.00     0.074 A 
ATOM     42  C   UNL A   1      39.275  25.755  28.053  1.00  0.00     0.031 C 
ATOM     43  C   UNL A   1      45.053  24.506  30.965  1.00  0.00     0.029 A 
ATOM     44  C   UNL A   1      44.420  25.789  31.185  1.00  0.00     0.049 A 
ATOM     45  H   UNL A   1      43.149  26.815  29.868  1.00  0.00     0.167 HD
ATOM     46  C   UNL A   1      39.657  28.240  27.658  1.00  0.00     0.034 A 
ATOM     47  C   UNL A   1      44.534  26.619  32.247  1.00  0.00     0.034 A 
ATOM     48  C   UNL A   1      40.743  29.072  27.207  1.00  0.00     0.049 A 
ATOM     49  C   UNL A   1      44.110  27.957  31.792  1.00  0.00     0.074 A 
ATOM     50  C   UNL A   1      41.453  29.236  26.037  1.00  0.00     0.029 A 
ATOM     51  N   UNL A   1      41.493  29.650  28.202  1.00  0.00    -0.354 N 
ATOM     52  N   UNL A   1      44.747  28.638  30.879  1.00  0.00    -0.248 NA
ATOM     53  C   UNL A   1      42.746  28.384  32.051  1.00  0.00     0.031 C 
ATOM     54  C   UNL A   1      42.784  29.540  26.448  1.00  0.00     0.029 A 
ATOM     55  C   UNL A   1      42.812  29.596  27.845  1.00  0.00     0.049 A 
ATOM     56  H   UNL A   1      41.139  30.039  29.035  1.00  0.00     0.167 HD
ATOM     57  C   UNL A   1      43.742  29.245  30.140  1.00  0.00     0.074 A 
ATOM     58  C   UNL A   1      42.562  29.186  30.999  1.00  0.00     0.031 C 
ATOM     59  C   UNL A   1      43.894  29.462  28.800  1.00  0.00     0.034 A 
BRANCH  46  60
ATOM     60  C   UNL A   1      38.525  28.833  28.473  1.00  0.00     0.023 A 
ATOM     61  C   UNL A   1      37.606  29.664  27.791  1.00  0.00     0.012 A 
ATOM     62  C   UNL A   1      38.486  28.868  29.886  1.00  0.00     0.148 A 
ATOM     63  C   UNL A   1      36.738  30.523  28.475  1.00  0.00     0.002 A 
ATOM     64  C   UNL A   1      37.570  29.666  30.563  1.00  0.00     0.091 A 
ATOM     65  F   UNL A   1      39.425  28.240  30.599  1.00  0.00    -0.205 F 
ATOM     66  C   UNL A   1      36.715  30.520  29.864  1.00  0.00     0.022 A 
BRANCH  64  67
ATOM     67  S   UNL A   1      37.470  29.669  32.358  1.00  0.00     0.127 S 
ATOM     68  O   UNL A   1      38.695  30.377  32.717  1.00  0.00    -0.237 OA
ATOM     69  O   UNL A   1      36.232  30.414  32.589  1.00  0.00    -0.237 OA
ATOM     70  O   UNL A   1      37.401  28.265  32.745  1.00  0.00    -0.744 OA
ENDBRANCH  64  67
ENDBRANCH  46  60
BRANCH  47  71
ATOM     71  C   UNL A   1      44.769  26.286  33.667  1.00  0.00     0.023 A 
ATOM     72  C   UNL A   1      46.079  26.250  34.179  1.00  0.00     0.012 A 
ATOM     73  C   UNL A   1      43.690  26.263  34.580  1.00  0.00     0.148 A 
ATOM     74  C   UNL A   1      46.308  26.219  35.562  1.00  0.00     0.002 A 
ATOM     75  C   UNL A   1      43.921  26.229  35.951  1.00  0.00     0.091 A 
ATOM     76  F   UNL A   1      42.442  26.358  34.100  1.00  0.00    -0.205 F 
ATOM     77  C   UNL A   1      45.231  26.219  36.446  1.00  0.00     0.022 A 
BRANCH  75  78
ATOM     78  S   UNL A   1      42.586  26.254  37.156  1.00  0.00     0.127 S 
ATOM     79  O   UNL A   1      41.910  24.987  36.880  1.00  0.00    -0.237 OA
ATOM     80  O   UNL A   1      43.318  26.294  38.420  1.00  0.00    -0.237 OA
ATOM     81  O   UNL A   1      41.793  27.439  36.854  1.00  0.00    -0.744 OA
ENDBRANCH  75  78
ENDBRANCH  47  71
BRANCH  59  82
ATOM     82  C   UNL A   1      45.279  29.301  28.218  1.00  0.00     0.023 A 
ATOM     83  C   UNL A   1      46.284  30.277  28.384  1.00  0.00     0.012 A 
ATOM     84  C   UNL A   1      45.622  28.069  27.639  1.00  0.00     0.148 A 
ATOM     85  C   UNL A   1      47.596  30.038  27.962  1.00  0.00     0.002 A 
ATOM     86  C   UNL A   1      46.936  27.817  27.261  1.00  0.00     0.091 A 
ATOM     87  F   UNL A   1      44.657  27.146  27.500  1.00  0.00    -0.205 F 
ATOM     88  C   UNL A   1      47.924  28.803  27.412  1.00  0.00     0.022 A 
BRANCH  86  89
ATOM     89  S   UNL A   1      47.457  26.210  26.660  1.00  0.00     0.127 S 
ATOM     90  O   UNL A   1      46.676  26.075  25.431  1.00  0.00    -0.237 OA
ATOM     91  O   UNL A   1      48.892  26.404  26.455  1.00  0.00    -0.237 OA
ATOM     92  O   UNL A   1      47.128  25.258  27.714  1.00  0.00    -0.744 OA
ENDBRANCH  86  89
ENDBRANCH  59  82
ENDBRANCH  33  34
ENDBRANCH  25  28
ENDBRANCH  23  24
ENDBRANCH  22  23
ENDBRANCH   1  22
TORSDOF 17
ENDMDL
