MODEL 1
REMARK VINA RESULT:     -11.3      0.000      0.000
REMARK SMILES C[C@H]1CCN(C(=O)NC[C@@H]2CC[C@H](C(=O)NCCCCCCNC(=O)c3ccc(-c4c5nc(c(-c6cccc(S(=O)(=O)[O-])c6F)c6ccc([nH]6)c(-c6cccc(S(=O)(=O)[O-])c6F)c6nc(c(-c7cccc(S(=O)(=O)[O-])c7F)c7ccc4[nH]7)C=C6)C=C5)cc3)O2)C1
REMARK SMILES IDX 19 1 18 2 17 3 16 4 14 5 15 6 13 8 10 9 11 10 89 11 12 12
REMARK SMILES IDX 9 13 8 14 6 15 7 16 5 18 1 19 2 20 3 21 90 22 4 23 20 24
REMARK SMILES IDX 21 25 22 26 23 27 24 28 25 30 26 31 27 32 88 33 28 34 87 35
REMARK SMILES IDX 29 36 30 37 31 38 81 39 32 40 86 41 80 42 82 43 33 44 85 45
REMARK SMILES IDX 79 46 78 47 34 49 66 50 46 51 65 52 47 53 50 54 64 55 83 56
REMARK SMILES IDX 48 57 49 58 63 60 84 61 51 62 35 63 36 64 44 65 37 66 39 67
REMARK SMILES IDX 45 68 38 69 40 70 41 71 42 72 43 73 67 74 68 75 76 76 69 77
REMARK SMILES IDX 71 78 77 79 70 80 72 81 73 82 74 83 75 84 52 85 53 86 61 87
REMARK SMILES IDX 54 88 56 89 62 90 55 91 57 92 58 93 59 94 60 95
REMARK H PARENT 16 7 8 17 23 29 82 48 50 59
REMARK Flexibility Score: inf
ROOT
ATOM      1  C   UNL A   1      33.068  29.337  26.448  1.00  0.00     0.002 C 
ENDROOT
BRANCH   1   2
ATOM      2  C   UNL A   1      33.412  28.057  25.692  1.00  0.00     0.021 C 
BRANCH   2   3
ATOM      3  C   UNL A   1      32.874  26.797  26.353  1.00  0.00     0.116 C 
BRANCH   3   4
ATOM      4  N   UNL A   1      32.375  25.824  25.413  1.00  0.00    -0.354 N 
ATOM      5  C   UNL A   1      32.660  24.486  25.349  1.00  0.00     0.249 C 
ATOM      6  O   UNL A   1      32.098  23.816  24.478  1.00  0.00    -0.272 OA
ATOM      7  H   UNL A   1      31.750  26.163  24.732  1.00  0.00     0.163 HD
BRANCH   5   8
ATOM      8  C   UNL A   1      33.685  23.838  26.313  1.00  0.00     0.207 C 
ATOM      9  C   UNL A   1      34.878  21.807  26.334  1.00  0.00     0.138 C 
ATOM     10  C   UNL A   1      33.704  21.618  27.285  1.00  0.00     0.037 C 
ATOM     11  O   UNL A   1      34.652  23.045  25.633  1.00  0.00    -0.363 OA
ATOM     12  C   UNL A   1      33.064  22.985  27.408  1.00  0.00     0.045 C 
BRANCH   9  13
ATOM     13  C   UNL A   1      35.023  20.662  25.307  1.00  0.00     0.149 C 
BRANCH  13  14
ATOM     14  N   UNL A   1      33.870  20.605  24.420  1.00  0.00    -0.335 N 
ATOM     15  C   UNL A   1      33.023  19.659  23.987  1.00  0.00     0.317 C 
ATOM     16  O   UNL A   1      32.132  20.039  23.223  1.00  0.00    -0.249 OA
ATOM     17  H   UNL A   1      33.657  21.487  24.040  1.00  0.00     0.165 HD
BRANCH  15  18
ATOM     18  N   UNL A   1      33.155  18.362  24.354  1.00  0.00    -0.325 N 
ATOM     19  C   UNL A   1      32.519  15.136  25.553  1.00  0.00     0.009 C 
ATOM     20  C   UNL A   1      33.409  16.368  25.636  1.00  0.00     0.007 C 
ATOM     21  C   UNL A   1      34.460  16.430  24.523  1.00  0.00     0.027 C 
ATOM     22  C   UNL A   1      32.608  17.663  25.496  1.00  0.00     0.124 C 
ATOM     23  C   UNL A   1      33.922  17.447  23.536  1.00  0.00     0.121 C 
ENDBRANCH  15  18
ENDBRANCH  13  14
ENDBRANCH   9  13
ENDBRANCH   5   8
ENDBRANCH   3   4
ENDBRANCH   2   3
ENDBRANCH   1   2
BRANCH   1  24
ATOM     24  C   UNL A   1      31.806  30.060  25.957  1.00  0.00     0.002 C 
BRANCH  24  25
ATOM     25  C   UNL A   1      31.588  31.473  26.512  1.00  0.00     0.021 C 
BRANCH  25  26
ATOM     26  C   UNL A   1      32.819  32.114  27.146  1.00  0.00     0.116 C 
BRANCH  26  27
ATOM     27  N   UNL A   1      32.601  33.516  27.466  1.00  0.00    -0.352 N 
ATOM     28  C   UNL A   1      33.170  34.295  28.442  1.00  0.00     0.251 C 
ATOM     29  H   UNL A   1      31.944  33.977  26.896  1.00  0.00     0.163 HD
ATOM     30  O   UNL A   1      32.703  35.402  28.689  1.00  0.00    -0.269 OA
BRANCH  28  31
ATOM     31  C   UNL A   1      34.341  33.799  29.196  1.00  0.00     0.039 A 
ATOM     32  C   UNL A   1      34.137  32.899  30.245  1.00  0.00     0.014 A 
ATOM     33  C   UNL A   1      35.630  34.243  28.891  1.00  0.00     0.014 A 
ATOM     34  C   UNL A   1      35.233  32.405  30.956  1.00  0.00     0.010 A 
ATOM     35  C   UNL A   1      36.726  33.696  29.553  1.00  0.00     0.010 A 
ATOM     36  C   UNL A   1      36.538  32.779  30.597  1.00  0.00    -0.014 A 
BRANCH  36  37
ATOM     37  C   UNL A   1      37.720  32.214  31.297  1.00  0.00     0.031 A 
ATOM     38  C   UNL A   1      38.495  31.077  30.685  1.00  0.00     0.074 A 
ATOM     39  C   UNL A   1      38.043  32.668  32.524  1.00  0.00     0.049 A 
ATOM     40  N   UNL A   1      39.512  30.417  31.174  1.00  0.00    -0.248 NA
ATOM     41  C   UNL A   1      38.052  30.604  29.364  1.00  0.00     0.031 C 
ATOM     42  C   UNL A   1      37.322  33.711  33.256  1.00  0.00     0.029 A 
ATOM     43  N   UNL A   1      39.044  32.290  33.385  1.00  0.00    -0.354 N 
ATOM     44  C   UNL A   1      39.809  29.431  30.240  1.00  0.00     0.074 A 
ATOM     45  C   UNL A   1      38.842  29.556  29.172  1.00  0.00     0.031 C 
ATOM     46  C   UNL A   1      37.904  33.892  34.451  1.00  0.00     0.029 A 
ATOM     47  C   UNL A   1      39.019  32.959  34.586  1.00  0.00     0.049 A 
ATOM     48  H   UNL A   1      39.715  31.605  33.162  1.00  0.00     0.167 HD
ATOM     49  C   UNL A   1      40.814  28.523  30.254  1.00  0.00     0.034 A 
ATOM     50  C   UNL A   1      39.798  32.829  35.677  1.00  0.00     0.034 A 
ATOM     51  C   UNL A   1      41.798  28.428  31.300  1.00  0.00     0.049 A 
ATOM     52  C   UNL A   1      40.930  31.839  35.652  1.00  0.00     0.074 A 
ATOM     53  C   UNL A   1      42.903  27.598  31.368  1.00  0.00     0.029 A 
ATOM     54  N   UNL A   1      41.792  29.183  32.463  1.00  0.00    -0.354 N 
ATOM     55  N   UNL A   1      41.288  31.019  34.694  1.00  0.00    -0.248 NA
ATOM     56  C   UNL A   1      41.790  31.782  36.843  1.00  0.00     0.031 C 
ATOM     57  C   UNL A   1      43.552  27.834  32.584  1.00  0.00     0.029 A 
ATOM     58  C   UNL A   1      42.869  28.833  33.260  1.00  0.00     0.049 A 
ATOM     59  H   UNL A   1      41.121  29.867  32.688  1.00  0.00     0.167 HD
ATOM     60  C   UNL A   1      42.433  30.375  35.149  1.00  0.00     0.074 A 
ATOM     61  C   UNL A   1      42.721  30.917  36.462  1.00  0.00     0.031 C 
ATOM     62  C   UNL A   1      43.171  29.414  34.542  1.00  0.00     0.034 A 
BRANCH  49  63
ATOM     63  C   UNL A   1      40.932  27.590  29.076  1.00  0.00     0.023 A 
ATOM     64  C   UNL A   1      40.127  26.433  29.022  1.00  0.00     0.012 A 
ATOM     65  C   UNL A   1      41.790  27.884  27.998  1.00  0.00     0.148 A 
ATOM     66  C   UNL A   1      40.201  25.564  27.935  1.00  0.00     0.002 A 
ATOM     67  C   UNL A   1      41.825  27.038  26.897  1.00  0.00     0.091 A 
ATOM     68  F   UNL A   1      42.562  28.977  28.075  1.00  0.00    -0.205 F 
ATOM     69  C   UNL A   1      41.042  25.871  26.868  1.00  0.00     0.022 A 
BRANCH  67  70
ATOM     70  S   UNL A   1      42.813  27.386  25.437  1.00  0.00     0.127 S 
ATOM     71  O   UNL A   1      42.738  26.112  24.721  1.00  0.00    -0.237 OA
ATOM     72  O   UNL A   1      42.068  28.479  24.814  1.00  0.00    -0.237 OA
ATOM     73  O   UNL A   1      44.135  27.750  25.924  1.00  0.00    -0.744 OA
ENDBRANCH  67  70
ENDBRANCH  49  63
BRANCH  50  74
ATOM     74  C   UNL A   1      39.571  33.705  36.860  1.00  0.00     0.023 A 
ATOM     75  C   UNL A   1      39.937  35.064  36.796  1.00  0.00     0.012 A 
ATOM     76  C   UNL A   1      38.968  33.212  38.034  1.00  0.00     0.148 A 
ATOM     77  C   UNL A   1      39.737  35.908  37.890  1.00  0.00     0.002 A 
ATOM     78  C   UNL A   1      38.720  34.069  39.098  1.00  0.00     0.091 A 
ATOM     79  F   UNL A   1      38.635  31.914  38.078  1.00  0.00    -0.205 F 
ATOM     80  C   UNL A   1      39.120  35.413  39.036  1.00  0.00     0.022 A 
BRANCH  78  81
ATOM     81  S   UNL A   1      37.816  33.551  40.561  1.00  0.00     0.127 S 
ATOM     82  O   UNL A   1      37.697  34.806  41.300  1.00  0.00    -0.237 OA
ATOM     83  O   UNL A   1      36.567  33.052  39.986  1.00  0.00    -0.237 OA
ATOM     84  O   UNL A   1      38.637  32.524  41.191  1.00  0.00    -0.744 OA
ENDBRANCH  78  81
ENDBRANCH  50  74
BRANCH  62  85
ATOM     85  C   UNL A   1      44.389  28.904  35.269  1.00  0.00     0.023 A 
ATOM     86  C   UNL A   1      45.626  29.561  35.113  1.00  0.00     0.012 A 
ATOM     87  C   UNL A   1      44.288  27.821  36.165  1.00  0.00     0.148 A 
ATOM     88  C   UNL A   1      46.751  29.125  35.812  1.00  0.00     0.002 A 
ATOM     89  C   UNL A   1      45.402  27.426  36.895  1.00  0.00     0.091 A 
ATOM     90  F   UNL A   1      43.107  27.199  36.285  1.00  0.00    -0.205 F 
ATOM     91  C   UNL A   1      46.637  28.067  36.712  1.00  0.00     0.022 A 
BRANCH  89  92
ATOM     92  S   UNL A   1      45.325  26.138  38.146  1.00  0.00     0.127 S 
ATOM     93  O   UNL A   1      44.331  26.680  39.070  1.00  0.00    -0.237 OA
ATOM     94  O   UNL A   1      44.873  24.982  37.372  1.00  0.00    -0.237 OA
ATOM     95  O   UNL A   1      46.675  26.016  38.681  1.00  0.00    -0.744 OA
ENDBRANCH  89  92
ENDBRANCH  62  85
ENDBRANCH  36  37
ENDBRANCH  28  31
ENDBRANCH  26  27
ENDBRANCH  25  26
ENDBRANCH  24  25
ENDBRANCH   1  24
TORSDOF 19
ENDMDL
MODEL 2
REMARK VINA RESULT:     -11.2      3.705      8.931
REMARK SMILES C[C@H]1CCN(C(=O)NC[C@@H]2CC[C@H](C(=O)NCCCCCCNC(=O)c3ccc(-c4c5nc(c(-c6cccc(S(=O)(=O)[O-])c6F)c6ccc([nH]6)c(-c6cccc(S(=O)(=O)[O-])c6F)c6nc(c(-c7cccc(S(=O)(=O)[O-])c7F)c7ccc4[nH]7)C=C6)C=C5)cc3)O2)C1
REMARK SMILES IDX 19 1 18 2 17 3 16 4 14 5 15 6 13 8 10 9 11 10 89 11 12 12
REMARK SMILES IDX 9 13 8 14 6 15 7 16 5 18 1 19 2 20 3 21 90 22 4 23 20 24
REMARK SMILES IDX 21 25 22 26 23 27 24 28 25 30 26 31 27 32 88 33 28 34 87 35
REMARK SMILES IDX 29 36 30 37 31 38 81 39 32 40 86 41 80 42 82 43 33 44 85 45
REMARK SMILES IDX 79 46 78 47 34 49 66 50 46 51 65 52 47 53 50 54 64 55 83 56
REMARK SMILES IDX 48 57 49 58 63 60 84 61 51 62 35 63 36 64 44 65 37 66 39 67
REMARK SMILES IDX 45 68 38 69 40 70 41 71 42 72 43 73 67 74 68 75 76 76 69 77
REMARK SMILES IDX 71 78 77 79 70 80 72 81 73 82 74 83 75 84 52 85 53 86 61 87
REMARK SMILES IDX 54 88 56 89 62 90 55 91 57 92 58 93 59 94 60 95
REMARK H PARENT 16 7 8 17 23 29 82 48 50 59
REMARK Flexibility Score: inf
ROOT
ATOM      1  C   UNL A   1      32.619  28.927  23.676  1.00  0.00     0.002 C 
ENDROOT
BRANCH   1   2
ATOM      2  C   UNL A   1      31.160  28.945  24.121  1.00  0.00     0.021 C 
BRANCH   2   3
ATOM      3  C   UNL A   1      30.367  27.733  23.656  1.00  0.00     0.116 C 
BRANCH   3   4
ATOM      4  N   UNL A   1      30.262  26.698  24.656  1.00  0.00    -0.354 N 
ATOM      5  C   UNL A   1      30.674  25.395  24.570  1.00  0.00     0.249 C 
ATOM      6  O   UNL A   1      30.519  24.673  25.561  1.00  0.00    -0.272 OA
ATOM      7  H   UNL A   1      29.843  26.961  25.507  1.00  0.00     0.163 HD
BRANCH   5   8
ATOM      8  C   UNL A   1      31.282  24.830  23.263  1.00  0.00     0.207 C 
ATOM      9  C   UNL A   1      32.485  22.882  22.706  1.00  0.00     0.138 C 
ATOM     10  C   UNL A   1      33.515  23.996  22.829  1.00  0.00     0.037 C 
ATOM     11  O   UNL A   1      31.240  23.408  23.209  1.00  0.00    -0.363 OA
ATOM     12  C   UNL A   1      32.712  25.270  22.994  1.00  0.00     0.045 C 
BRANCH   9  13
ATOM     13  C   UNL A   1      32.858  21.614  23.504  1.00  0.00     0.149 C 
BRANCH  13  14
ATOM     14  N   UNL A   1      32.679  21.821  24.933  1.00  0.00    -0.335 N 
ATOM     15  C   UNL A   1      33.455  22.173  25.969  1.00  0.00     0.317 C 
ATOM     16  O   UNL A   1      32.892  22.257  27.064  1.00  0.00    -0.249 OA
ATOM     17  H   UNL A   1      31.749  21.663  25.212  1.00  0.00     0.165 HD
BRANCH  15  18
ATOM     18  N   UNL A   1      34.782  22.403  25.820  1.00  0.00    -0.325 N 
ATOM     19  C   UNL A   1      38.024  23.673  26.168  1.00  0.00     0.009 C 
ATOM     20  C   UNL A   1      36.877  23.366  25.216  1.00  0.00     0.007 C 
ATOM     21  C   UNL A   1      36.819  21.895  24.794  1.00  0.00     0.027 C 
ATOM     22  C   UNL A   1      35.515  23.649  25.850  1.00  0.00     0.124 C 
ATOM     23  C   UNL A   1      35.693  21.297  25.615  1.00  0.00     0.121 C 
ENDBRANCH  15  18
ENDBRANCH  13  14
ENDBRANCH   9  13
ENDBRANCH   5   8
ENDBRANCH   3   4
ENDBRANCH   2   3
ENDBRANCH   1   2
BRANCH   1  24
ATOM     24  C   UNL A   1      33.636  28.680  24.799  1.00  0.00     0.002 C 
BRANCH  24  25
ATOM     25  C   UNL A   1      33.129  27.853  25.987  1.00  0.00     0.021 C 
BRANCH  25  26
ATOM     26  C   UNL A   1      33.388  28.470  27.359  1.00  0.00     0.116 C 
BRANCH  26  27
ATOM     27  N   UNL A   1      33.497  29.919  27.294  1.00  0.00    -0.352 N 
ATOM     28  C   UNL A   1      34.487  30.749  27.756  1.00  0.00     0.251 C 
ATOM     29  H   UNL A   1      32.745  30.374  26.852  1.00  0.00     0.163 HD
ATOM     30  O   UNL A   1      34.300  31.960  27.794  1.00  0.00    -0.269 OA
BRANCH  28  31
ATOM     31  C   UNL A   1      35.775  30.183  28.211  1.00  0.00     0.039 A 
ATOM     32  C   UNL A   1      36.868  30.204  27.341  1.00  0.00     0.014 A 
ATOM     33  C   UNL A   1      35.897  29.607  29.478  1.00  0.00     0.014 A 
ATOM     34  C   UNL A   1      38.098  29.692  27.761  1.00  0.00     0.010 A 
ATOM     35  C   UNL A   1      37.140  29.162  29.921  1.00  0.00     0.010 A 
ATOM     36  C   UNL A   1      38.250  29.192  29.065  1.00  0.00    -0.014 A 
BRANCH  36  37
ATOM     37  C   UNL A   1      39.565  28.704  29.553  1.00  0.00     0.031 A 
ATOM     38  C   UNL A   1      40.288  29.438  30.650  1.00  0.00     0.074 A 
ATOM     39  C   UNL A   1      40.147  27.650  28.947  1.00  0.00     0.049 A 
ATOM     40  N   UNL A   1      41.467  29.199  31.162  1.00  0.00    -0.248 NA
ATOM     41  C   UNL A   1      39.610  30.609  31.229  1.00  0.00     0.031 C 
ATOM     42  C   UNL A   1      39.581  26.904  27.821  1.00  0.00     0.029 A 
ATOM     43  N   UNL A   1      41.356  27.041  29.176  1.00  0.00    -0.354 N 
ATOM     44  C   UNL A   1      41.688  30.205  32.097  1.00  0.00     0.074 A 
ATOM     45  C   UNL A   1      40.535  31.078  32.054  1.00  0.00     0.031 C 
ATOM     46  C   UNL A   1      40.439  25.938  27.459  1.00  0.00     0.029 A 
ATOM     47  C   UNL A   1      41.627  26.013  28.304  1.00  0.00     0.049 A 
ATOM     48  H   UNL A   1      41.970  27.315  29.894  1.00  0.00     0.167 HD
ATOM     49  C   UNL A   1      42.739  30.370  32.935  1.00  0.00     0.034 A 
ATOM     50  C   UNL A   1      42.715  25.225  28.190  1.00  0.00     0.034 A 
ATOM     51  C   UNL A   1      43.864  29.476  33.000  1.00  0.00     0.049 A 
ATOM     52  C   UNL A   1      43.852  25.406  29.158  1.00  0.00     0.074 A 
ATOM     53  C   UNL A   1      44.939  29.509  33.870  1.00  0.00     0.029 A 
ATOM     54  N   UNL A   1      44.064  28.392  32.159  1.00  0.00    -0.354 N 
ATOM     55  N   UNL A   1      43.973  26.271  30.135  1.00  0.00    -0.248 NA
ATOM     56  C   UNL A   1      44.986  24.480  29.030  1.00  0.00     0.031 C 
ATOM     57  C   UNL A   1      45.802  28.459  33.539  1.00  0.00     0.029 A 
ATOM     58  C   UNL A   1      45.248  27.753  32.483  1.00  0.00     0.049 A 
ATOM     59  H   UNL A   1      43.452  28.116  31.438  1.00  0.00     0.167 HD
ATOM     60  C   UNL A   1      45.176  25.970  30.763  1.00  0.00     0.074 A 
ATOM     61  C   UNL A   1      45.737  24.830  30.067  1.00  0.00     0.031 C 
ATOM     62  C   UNL A   1      45.771  26.590  31.813  1.00  0.00     0.034 A 
BRANCH  49  63
ATOM     63  C   UNL A   1      42.697  31.537  33.888  1.00  0.00     0.023 A 
ATOM     64  C   UNL A   1      43.235  32.778  33.490  1.00  0.00     0.012 A 
ATOM     65  C   UNL A   1      42.077  31.425  35.147  1.00  0.00     0.148 A 
ATOM     66  C   UNL A   1      43.191  33.879  34.345  1.00  0.00     0.002 A 
ATOM     67  C   UNL A   1      41.996  32.539  35.975  1.00  0.00     0.091 A 
ATOM     68  F   UNL A   1      41.589  30.232  35.517  1.00  0.00    -0.205 F 
ATOM     69  C   UNL A   1      42.564  33.762  35.582  1.00  0.00     0.022 A 
BRANCH  67  70
ATOM     70  S   UNL A   1      41.139  32.514  37.554  1.00  0.00     0.127 S 
ATOM     71  O   UNL A   1      39.849  31.933  37.178  1.00  0.00    -0.237 OA
ATOM     72  O   UNL A   1      41.992  31.637  38.355  1.00  0.00    -0.237 OA
ATOM     73  O   UNL A   1      41.090  33.896  38.007  1.00  0.00    -0.744 OA
ENDBRANCH  67  70
ENDBRANCH  49  63
BRANCH  50  74
ATOM     74  C   UNL A   1      42.749  24.152  27.156  1.00  0.00     0.023 A 
ATOM     75  C   UNL A   1      43.463  24.366  25.961  1.00  0.00     0.012 A 
ATOM     76  C   UNL A   1      42.106  22.916  27.361  1.00  0.00     0.148 A 
ATOM     77  C   UNL A   1      43.510  23.378  24.975  1.00  0.00     0.002 A 
ATOM     78  C   UNL A   1      42.204  21.917  26.401  1.00  0.00     0.091 A 
ATOM     79  F   UNL A   1      41.424  22.737  28.502  1.00  0.00    -0.205 F 
ATOM     80  C   UNL A   1      42.890  22.152  25.199  1.00  0.00     0.022 A 
BRANCH  78  81
ATOM     81  S   UNL A   1      41.547  20.265  26.659  1.00  0.00     0.127 S 
ATOM     82  O   UNL A   1      42.310  19.817  27.821  1.00  0.00    -0.237 OA
ATOM     83  O   UNL A   1      40.133  20.538  26.918  1.00  0.00    -0.237 OA
ATOM     84  O   UNL A   1      41.800  19.541  25.420  1.00  0.00    -0.744 OA
ENDBRANCH  78  81
ENDBRANCH  50  74
BRANCH  62  85
ATOM     85  C   UNL A   1      47.081  26.031  32.304  1.00  0.00     0.023 A 
ATOM     86  C   UNL A   1      47.099  25.143  33.398  1.00  0.00     0.012 A 
ATOM     87  C   UNL A   1      48.284  26.329  31.634  1.00  0.00     0.148 A 
ATOM     88  C   UNL A   1      48.300  24.586  33.837  1.00  0.00     0.002 A 
ATOM     89  C   UNL A   1      49.468  25.730  32.046  1.00  0.00     0.091 A 
ATOM     90  F   UNL A   1      48.247  27.191  30.608  1.00  0.00    -0.205 F 
ATOM     91  C   UNL A   1      49.481  24.869  33.154  1.00  0.00     0.022 A 
BRANCH  89  92
ATOM     92  S   UNL A   1      51.019  25.960  31.168  1.00  0.00     0.127 S 
ATOM     93  O   UNL A   1      51.947  25.194  31.998  1.00  0.00    -0.237 OA
ATOM     94  O   UNL A   1      50.728  25.360  29.865  1.00  0.00    -0.237 OA
ATOM     95  O   UNL A   1      51.252  27.397  31.132  1.00  0.00    -0.744 OA
ENDBRANCH  89  92
ENDBRANCH  62  85
ENDBRANCH  36  37
ENDBRANCH  28  31
ENDBRANCH  26  27
ENDBRANCH  25  26
ENDBRANCH  24  25
ENDBRANCH   1  24
TORSDOF 19
ENDMDL
MODEL 3
REMARK VINA RESULT:     -11.2      1.535      2.241
REMARK SMILES C[C@H]1CCN(C(=O)NC[C@@H]2CC[C@H](C(=O)NCCCCCCNC(=O)c3ccc(-c4c5nc(c(-c6cccc(S(=O)(=O)[O-])c6F)c6ccc([nH]6)c(-c6cccc(S(=O)(=O)[O-])c6F)c6nc(c(-c7cccc(S(=O)(=O)[O-])c7F)c7ccc4[nH]7)C=C6)C=C5)cc3)O2)C1
REMARK SMILES IDX 19 1 18 2 17 3 16 4 14 5 15 6 13 8 10 9 11 10 89 11 12 12
REMARK SMILES IDX 9 13 8 14 6 15 7 16 5 18 1 19 2 20 3 21 90 22 4 23 20 24
REMARK SMILES IDX 21 25 22 26 23 27 24 28 25 30 26 31 27 32 88 33 28 34 87 35
REMARK SMILES IDX 29 36 30 37 31 38 81 39 32 40 86 41 80 42 82 43 33 44 85 45
REMARK SMILES IDX 79 46 78 47 34 49 66 50 46 51 65 52 47 53 50 54 64 55 83 56
REMARK SMILES IDX 48 57 49 58 63 60 84 61 51 62 35 63 36 64 44 65 37 66 39 67
REMARK SMILES IDX 45 68 38 69 40 70 41 71 42 72 43 73 67 74 68 75 76 76 69 77
REMARK SMILES IDX 71 78 77 79 70 80 72 81 73 82 74 83 75 84 52 85 53 86 61 87
REMARK SMILES IDX 54 88 56 89 62 90 55 91 57 92 58 93 59 94 60 95
REMARK H PARENT 16 7 8 17 23 29 82 48 50 59
REMARK Flexibility Score: inf
ROOT
ATOM      1  C   UNL A   1      33.061  30.024  26.823  1.00  0.00     0.002 C 
ENDROOT
BRANCH   1   2
ATOM      2  C   UNL A   1      33.617  28.928  25.919  1.00  0.00     0.021 C 
BRANCH   2   3
ATOM      3  C   UNL A   1      32.978  28.896  24.538  1.00  0.00     0.116 C 
BRANCH   3   4
ATOM      4  N   UNL A   1      33.325  27.725  23.772  1.00  0.00    -0.354 N 
ATOM      5  C   UNL A   1      32.854  26.448  23.921  1.00  0.00     0.249 C 
ATOM      6  O   UNL A   1      33.259  25.587  23.133  1.00  0.00    -0.272 OA
ATOM      7  H   UNL A   1      33.981  27.860  23.050  1.00  0.00     0.163 HD
BRANCH   5   8
ATOM      8  C   UNL A   1      31.875  26.081  25.063  1.00  0.00     0.207 C 
ATOM      9  C   UNL A   1      31.676  24.266  26.551  1.00  0.00     0.138 C 
ATOM     10  C   UNL A   1      30.651  24.026  25.451  1.00  0.00     0.037 C 
ATOM     11  O   UNL A   1      32.506  25.362  26.116  1.00  0.00    -0.363 OA
ATOM     12  C   UNL A   1      30.657  25.289  24.615  1.00  0.00     0.045 C 
BRANCH   9  13
ATOM     13  C   UNL A   1      32.567  23.037  26.834  1.00  0.00     0.149 C 
BRANCH  13  14
ATOM     14  N   UNL A   1      32.610  22.145  25.686  1.00  0.00    -0.335 N 
ATOM     15  C   UNL A   1      33.555  21.661  24.864  1.00  0.00     0.317 C 
ATOM     16  O   UNL A   1      33.165  20.885  23.989  1.00  0.00    -0.249 OA
ATOM     17  H   UNL A   1      31.716  21.809  25.450  1.00  0.00     0.165 HD
BRANCH  15  18
ATOM     18  N   UNL A   1      34.855  22.022  24.983  1.00  0.00    -0.325 N 
ATOM     19  C   UNL A   1      37.797  23.751  25.761  1.00  0.00     0.009 C 
ATOM     20  C   UNL A   1      36.965  23.086  24.673  1.00  0.00     0.007 C 
ATOM     21  C   UNL A   1      37.121  21.563  24.640  1.00  0.00     0.027 C 
ATOM     22  C   UNL A   1      35.468  23.327  24.869  1.00  0.00     0.124 C 
ATOM     23  C   UNL A   1      35.861  21.028  25.292  1.00  0.00     0.121 C 
ENDBRANCH  15  18
ENDBRANCH  13  14
ENDBRANCH   9  13
ENDBRANCH   5   8
ENDBRANCH   3   4
ENDBRANCH   2   3
ENDBRANCH   1   2
BRANCH   1  24
ATOM     24  C   UNL A   1      31.758  30.669  26.333  1.00  0.00     0.002 C 
BRANCH  24  25
ATOM     25  C   UNL A   1      31.607  32.168  26.615  1.00  0.00     0.021 C 
BRANCH  25  26
ATOM     26  C   UNL A   1      32.857  32.849  27.166  1.00  0.00     0.116 C 
BRANCH  26  27
ATOM     27  N   UNL A   1      32.581  34.195  27.644  1.00  0.00    -0.352 N 
ATOM     28  C   UNL A   1      33.092  34.868  28.724  1.00  0.00     0.251 C 
ATOM     29  H   UNL A   1      31.926  34.701  27.110  1.00  0.00     0.163 HD
ATOM     30  O   UNL A   1      32.579  35.922  29.086  1.00  0.00    -0.269 OA
BRANCH  28  31
ATOM     31  C   UNL A   1      34.255  34.321  29.455  1.00  0.00     0.039 A 
ATOM     32  C   UNL A   1      34.037  33.605  30.634  1.00  0.00     0.014 A 
ATOM     33  C   UNL A   1      35.556  34.539  28.995  1.00  0.00     0.014 A 
ATOM     34  C   UNL A   1      35.123  33.064  31.327  1.00  0.00     0.010 A 
ATOM     35  C   UNL A   1      36.631  33.940  29.646  1.00  0.00     0.010 A 
ATOM     36  C   UNL A   1      36.427  33.205  30.823  1.00  0.00    -0.014 A 
BRANCH  36  37
ATOM     37  C   UNL A   1      37.587  32.581  31.508  1.00  0.00     0.031 A 
ATOM     38  C   UNL A   1      38.320  31.432  30.870  1.00  0.00     0.074 A 
ATOM     39  C   UNL A   1      37.926  32.994  32.746  1.00  0.00     0.049 A 
ATOM     40  N   UNL A   1      39.313  30.724  31.342  1.00  0.00    -0.248 NA
ATOM     41  C   UNL A   1      37.860  31.005  29.538  1.00  0.00     0.031 C 
ATOM     42  C   UNL A   1      37.244  34.046  33.502  1.00  0.00     0.029 A 
ATOM     43  N   UNL A   1      38.913  32.560  33.597  1.00  0.00    -0.354 N 
ATOM     44  C   UNL A   1      39.575  29.750  30.385  1.00  0.00     0.074 A 
ATOM     45  C   UNL A   1      38.612  29.935  29.321  1.00  0.00     0.031 C 
ATOM     46  C   UNL A   1      37.832  34.177  34.701  1.00  0.00     0.029 A 
ATOM     47  C   UNL A   1      38.912  33.201  34.813  1.00  0.00     0.049 A 
ATOM     48  H   UNL A   1      39.559  31.857  33.358  1.00  0.00     0.167 HD
ATOM     49  C   UNL A   1      40.546  28.806  30.377  1.00  0.00     0.034 A 
ATOM     50  C   UNL A   1      39.686  33.018  35.900  1.00  0.00     0.034 A 
ATOM     51  C   UNL A   1      41.526  28.652  31.419  1.00  0.00     0.049 A 
ATOM     52  C   UNL A   1      40.782  31.989  35.851  1.00  0.00     0.074 A 
ATOM     53  C   UNL A   1      42.600  27.781  31.467  1.00  0.00     0.029 A 
ATOM     54  N   UNL A   1      41.547  29.378  32.600  1.00  0.00    -0.354 N 
ATOM     55  N   UNL A   1      41.109  31.178  34.874  1.00  0.00    -0.248 NA
ATOM     56  C   UNL A   1      41.638  31.872  37.040  1.00  0.00     0.031 C 
ATOM     57  C   UNL A   1      43.257  27.965  32.688  1.00  0.00     0.029 A 
ATOM     58  C   UNL A   1      42.610  28.971  33.387  1.00  0.00     0.049 A 
ATOM     59  H   UNL A   1      40.902  30.081  32.842  1.00  0.00     0.167 HD
ATOM     60  C   UNL A   1      42.230  30.484  35.313  1.00  0.00     0.074 A 
ATOM     61  C   UNL A   1      42.537  30.984  36.638  1.00  0.00     0.031 C 
ATOM     62  C   UNL A   1      42.934  29.511  34.683  1.00  0.00     0.034 A 
BRANCH  49  63
ATOM     63  C   UNL A   1      40.630  27.897  29.177  1.00  0.00     0.023 A 
ATOM     64  C   UNL A   1      39.778  26.777  29.093  1.00  0.00     0.012 A 
ATOM     65  C   UNL A   1      41.504  28.181  28.110  1.00  0.00     0.148 A 
ATOM     66  C   UNL A   1      39.821  25.932  27.986  1.00  0.00     0.002 A 
ATOM     67  C   UNL A   1      41.508  27.361  26.988  1.00  0.00     0.091 A 
ATOM     68  F   UNL A   1      42.320  29.240  28.215  1.00  0.00    -0.205 F 
ATOM     69  C   UNL A   1      40.678  26.229  26.929  1.00  0.00     0.022 A 
BRANCH  67  70
ATOM     70  S   UNL A   1      42.516  27.702  25.540  1.00  0.00     0.127 S 
ATOM     71  O   UNL A   1      42.272  26.512  24.725  1.00  0.00    -0.237 OA
ATOM     72  O   UNL A   1      41.909  28.929  25.024  1.00  0.00    -0.237 OA
ATOM     73  O   UNL A   1      43.879  27.855  26.026  1.00  0.00    -0.744 OA
ENDBRANCH  67  70
ENDBRANCH  49  63
BRANCH  50  74
ATOM     74  C   UNL A   1      39.490  33.874  37.104  1.00  0.00     0.023 A 
ATOM     75  C   UNL A   1      39.944  35.207  37.086  1.00  0.00     0.012 A 
ATOM     76  C   UNL A   1      38.833  33.388  38.251  1.00  0.00     0.148 A 
ATOM     77  C   UNL A   1      39.775  36.031  38.200  1.00  0.00     0.002 A 
ATOM     78  C   UNL A   1      38.618  34.229  39.335  1.00  0.00     0.091 A 
ATOM     79  F   UNL A   1      38.418  32.113  38.251  1.00  0.00    -0.205 F 
ATOM     80  C   UNL A   1      39.104  35.546  39.319  1.00  0.00     0.022 A 
BRANCH  78  81
ATOM     81  S   UNL A   1      37.653  33.730  40.765  1.00  0.00     0.127 S 
ATOM     82  O   UNL A   1      38.533  32.746  41.392  1.00  0.00    -0.237 OA
ATOM     83  O   UNL A   1      37.517  34.991  41.495  1.00  0.00    -0.237 OA
ATOM     84  O   UNL A   1      36.401  33.207  40.234  1.00  0.00    -0.744 OA
ENDBRANCH  78  81
ENDBRANCH  50  74
BRANCH  62  85
ATOM     85  C   UNL A   1      44.132  28.941  35.397  1.00  0.00     0.023 A 
ATOM     86  C   UNL A   1      45.401  29.525  35.215  1.00  0.00     0.012 A 
ATOM     87  C   UNL A   1      43.985  27.874  36.306  1.00  0.00     0.148 A 
ATOM     88  C   UNL A   1      46.511  29.033  35.901  1.00  0.00     0.002 A 
ATOM     89  C   UNL A   1      45.086  27.424  37.023  1.00  0.00     0.091 A 
ATOM     90  F   UNL A   1      42.773  27.320  36.450  1.00  0.00    -0.205 F 
ATOM     91  C   UNL A   1      46.352  27.993  36.814  1.00  0.00     0.022 A 
BRANCH  89  92
ATOM     92  S   UNL A   1      44.957  26.155  38.289  1.00  0.00     0.127 S 
ATOM     93  O   UNL A   1      46.362  25.899  38.598  1.00  0.00    -0.237 OA
ATOM     94  O   UNL A   1      44.217  26.847  39.345  1.00  0.00    -0.237 OA
ATOM     95  O   UNL A   1      44.239  25.046  37.675  1.00  0.00    -0.744 OA
ENDBRANCH  89  92
ENDBRANCH  62  85
ENDBRANCH  36  37
ENDBRANCH  28  31
ENDBRANCH  26  27
ENDBRANCH  25  26
ENDBRANCH  24  25
ENDBRANCH   1  24
TORSDOF 19
ENDMDL
