MODEL 1
REMARK VINA RESULT:     -11.9      0.000      0.000
REMARK SMILES O=C(NCCCCCCNC(=O)c1ccc(OC[C@H]2C[C@H]3CC[C@@H]2C3)c(Cl)c1)c1ccc(-c2c3nc(c(-c4cccc(S(=O)(=O)[O-])c4F)c4ccc([nH]4)c(-c4cccc(S(=O)(=O)[O-])c4F)c4nc(c(-c5cccc(S(=O)(=O)[O-])c5F)c5ccc2[nH]5)C=C4)C=C3)cc1
REMARK SMILES IDX 6 1 5 2 4 3 3 4 1 5 2 6 29 8 30 9 91 10 31 11 90 12 32 13
REMARK SMILES IDX 33 14 34 15 84 16 35 17 89 18 83 19 85 20 36 21 88 22 82 23
REMARK SMILES IDX 81 24 37 26 69 27 49 28 68 29 50 30 53 31 67 32 86 33 51 34
REMARK SMILES IDX 52 35 66 37 87 38 54 39 38 40 39 41 47 42 40 43 42 44 48 45
REMARK SMILES IDX 41 46 43 47 44 48 45 49 46 50 70 51 71 52 79 53 72 54 74 55
REMARK SMILES IDX 80 56 73 57 75 58 76 59 77 60 78 61 55 62 56 63 64 64 57 65
REMARK SMILES IDX 59 66 65 67 58 68 60 69 61 70 62 71 63 72 7 73 8 74 9 75
REMARK SMILES IDX 10 76 11 77 12 79 13 80 14 81 28 82 15 83 26 84 16 85 27 86
REMARK SMILES IDX 17 87 18 88 19 89 20 90 24 91 21 92 23 93 25 94 22 95
REMARK H PARENT 3 7 85 25 53 36 10 78
REMARK Flexibility Score: inf
ROOT
ATOM      1  C   UNL A   1      32.359  27.252  26.535  1.00  0.00     0.002 C 
ENDROOT
BRANCH   1   2
ATOM      2  C   UNL A   1      31.783  28.578  26.038  1.00  0.00     0.021 C 
BRANCH   2   3
ATOM      3  C   UNL A   1      32.828  29.619  25.657  1.00  0.00     0.116 C 
BRANCH   3   4
ATOM      4  N   UNL A   1      32.446  30.953  26.084  1.00  0.00    -0.352 N 
ATOM      5  O   UNL A   1      32.433  32.750  27.440  1.00  0.00    -0.269 OA
ATOM      6  C   UNL A   1      33.009  31.734  27.061  1.00  0.00     0.251 C 
ATOM      7  H   UNL A   1      31.680  31.350  25.609  1.00  0.00     0.163 HD
BRANCH   6   8
ATOM      8  C   UNL A   1      34.302  31.333  27.661  1.00  0.00     0.039 A 
ATOM      9  C   UNL A   1      35.307  32.280  27.880  1.00  0.00     0.014 A 
ATOM     10  C   UNL A   1      34.498  30.000  28.029  1.00  0.00     0.014 A 
ATOM     11  C   UNL A   1      36.541  31.880  28.378  1.00  0.00     0.010 A 
ATOM     12  C   UNL A   1      35.713  29.613  28.599  1.00  0.00     0.010 A 
ATOM     13  C   UNL A   1      36.746  30.547  28.771  1.00  0.00    -0.014 A 
BRANCH  13  14
ATOM     14  C   UNL A   1      37.990  30.181  29.492  1.00  0.00     0.031 A 
ATOM     15  C   UNL A   1      38.975  29.208  28.913  1.00  0.00     0.074 A 
ATOM     16  C   UNL A   1      38.187  30.705  30.717  1.00  0.00     0.049 A 
ATOM     17  N   UNL A   1      40.089  28.763  29.438  1.00  0.00    -0.248 NA
ATOM     18  C   UNL A   1      38.678  28.653  27.582  1.00  0.00     0.031 C 
ATOM     19  C   UNL A   1      37.261  31.616  31.400  1.00  0.00     0.029 A 
ATOM     20  N   UNL A   1      39.205  30.533  31.620  1.00  0.00    -0.354 N 
ATOM     21  C   UNL A   1      40.601  27.846  28.529  1.00  0.00     0.074 A 
ATOM     22  C   UNL A   1      39.684  27.803  27.411  1.00  0.00     0.031 C 
ATOM     23  C   UNL A   1      37.748  31.914  32.612  1.00  0.00     0.029 A 
ATOM     24  C   UNL A   1      38.990  31.178  32.816  1.00  0.00     0.049 A 
ATOM     25  H   UNL A   1      40.010  29.999  31.431  1.00  0.00     0.167 HD
ATOM     26  C   UNL A   1      41.739  27.116  28.622  1.00  0.00     0.034 A 
ATOM     27  C   UNL A   1      39.690  31.153  33.965  1.00  0.00     0.034 A 
ATOM     28  C   UNL A   1      42.664  27.200  29.722  1.00  0.00     0.049 A 
ATOM     29  C   UNL A   1      40.950  30.340  34.027  1.00  0.00     0.074 A 
ATOM     30  C   UNL A   1      43.903  26.596  29.848  1.00  0.00     0.029 A 
ATOM     31  N   UNL A   1      42.443  27.907  30.893  1.00  0.00    -0.354 N 
ATOM     32  N   UNL A   1      41.517  29.630  33.083  1.00  0.00    -0.248 NA
ATOM     33  C   UNL A   1      41.680  30.342  35.302  1.00  0.00     0.031 C 
ATOM     34  C   UNL A   1      44.415  26.909  31.112  1.00  0.00     0.029 A 
ATOM     35  C   UNL A   1      43.504  27.724  31.764  1.00  0.00     0.049 A 
ATOM     36  H   UNL A   1      41.648  28.457  31.080  1.00  0.00     0.167 HD
ATOM     37  C   UNL A   1      42.676  29.109  33.643  1.00  0.00     0.074 A 
ATOM     38  C   UNL A   1      42.748  29.617  34.999  1.00  0.00     0.031 C 
ATOM     39  C   UNL A   1      43.584  28.268  33.095  1.00  0.00     0.034 A 
BRANCH  26  40
ATOM     40  C   UNL A   1      42.084  26.178  27.498  1.00  0.00     0.023 A 
ATOM     41  C   UNL A   1      42.953  26.606  26.475  1.00  0.00     0.012 A 
ATOM     42  C   UNL A   1      41.649  24.837  27.523  1.00  0.00     0.148 A 
ATOM     43  C   UNL A   1      43.374  25.717  25.486  1.00  0.00     0.002 A 
ATOM     44  C   UNL A   1      42.100  23.948  26.554  1.00  0.00     0.091 A 
ATOM     45  F   UNL A   1      40.808  24.457  28.496  1.00  0.00    -0.205 F 
ATOM     46  C   UNL A   1      42.959  24.387  25.533  1.00  0.00     0.022 A 
BRANCH  44  47
ATOM     47  S   UNL A   1      41.684  22.201  26.568  1.00  0.00     0.127 S 
ATOM     48  O   UNL A   1      42.382  21.723  25.375  1.00  0.00    -0.237 OA
ATOM     49  O   UNL A   1      42.268  21.756  27.834  1.00  0.00    -0.237 OA
ATOM     50  O   UNL A   1      40.231  22.132  26.508  1.00  0.00    -0.744 OA
ENDBRANCH  44  47
ENDBRANCH  26  40
BRANCH  27  51
ATOM     51  C   UNL A   1      39.208  31.927  35.142  1.00  0.00     0.023 A 
ATOM     52  C   UNL A   1      38.297  31.337  36.037  1.00  0.00     0.012 A 
ATOM     53  C   UNL A   1      39.679  33.230  35.398  1.00  0.00     0.148 A 
ATOM     54  C   UNL A   1      37.842  32.042  37.152  1.00  0.00     0.002 A 
ATOM     55  C   UNL A   1      39.269  33.902  36.543  1.00  0.00     0.091 A 
ATOM     56  F   UNL A   1      40.531  33.784  34.524  1.00  0.00    -0.205 F 
ATOM     57  C   UNL A   1      38.337  33.318  37.412  1.00  0.00     0.022 A 
BRANCH  55  58
ATOM     58  S   UNL A   1      39.978  35.483  37.018  1.00  0.00     0.127 S 
ATOM     59  O   UNL A   1      39.630  36.324  35.876  1.00  0.00    -0.237 OA
ATOM     60  O   UNL A   1      39.253  35.788  38.252  1.00  0.00    -0.237 OA
ATOM     61  O   UNL A   1      41.398  35.222  37.214  1.00  0.00    -0.744 OA
ENDBRANCH  55  58
ENDBRANCH  27  51
BRANCH  39  62
ATOM     62  C   UNL A   1      44.741  27.839  33.957  1.00  0.00     0.023 A 
ATOM     63  C   UNL A   1      45.895  28.646  34.016  1.00  0.00     0.012 A 
ATOM     64  C   UNL A   1      44.657  26.686  34.759  1.00  0.00     0.148 A 
ATOM     65  C   UNL A   1      46.960  28.296  34.844  1.00  0.00     0.002 A 
ATOM     66  C   UNL A   1      45.703  26.369  35.618  1.00  0.00     0.091 A 
ATOM     67  F   UNL A   1      43.555  25.925  34.674  1.00  0.00    -0.205 F 
ATOM     68  C   UNL A   1      46.859  27.167  35.653  1.00  0.00     0.022 A 
BRANCH  66  69
ATOM     69  S   UNL A   1      45.628  24.986  36.762  1.00  0.00     0.127 S 
ATOM     70  O   UNL A   1      46.901  25.116  37.469  1.00  0.00    -0.237 OA
ATOM     71  O   UNL A   1      44.449  25.313  37.564  1.00  0.00    -0.237 OA
ATOM     72  O   UNL A   1      45.491  23.790  35.942  1.00  0.00    -0.744 OA
ENDBRANCH  66  69
ENDBRANCH  39  62
ENDBRANCH  13  14
ENDBRANCH   6   8
ENDBRANCH   3   4
ENDBRANCH   2   3
ENDBRANCH   1   2
BRANCH   1  73
ATOM     73  C   UNL A   1      33.584  26.742  25.769  1.00  0.00     0.002 C 
BRANCH  73  74
ATOM     74  C   UNL A   1      33.835  25.234  25.865  1.00  0.00     0.021 C 
BRANCH  74  75
ATOM     75  C   UNL A   1      34.750  24.667  24.781  1.00  0.00     0.116 C 
BRANCH  75  76
ATOM     76  N   UNL A   1      34.209  23.449  24.201  1.00  0.00    -0.352 N 
ATOM     77  C   UNL A   1      33.059  23.290  23.477  1.00  0.00     0.251 C 
ATOM     78  H   UNL A   1      34.739  22.633  24.349  1.00  0.00     0.163 HD
ATOM     79  O   UNL A   1      32.642  22.183  23.160  1.00  0.00    -0.269 OA
BRANCH  77  80
ATOM     80  C   UNL A   1      32.305  24.491  23.092  1.00  0.00     0.041 A 
ATOM     81  C   UNL A   1      32.762  25.307  22.061  1.00  0.00     0.018 A 
ATOM     82  C   UNL A   1      31.158  24.817  23.808  1.00  0.00     0.038 A 
ATOM     83  C   UNL A   1      32.057  26.470  21.759  1.00  0.00     0.049 A 
ATOM     84  C   UNL A   1      30.461  25.996  23.516  1.00  0.00     0.083 A 
ATOM     85  C   UNL A   1      30.894  26.826  22.466  1.00  0.00     0.137 A 
ATOM     86  Cl  UNL A   1      29.139  26.326  24.580  1.00  0.00    -0.080 Cl
BRANCH  85  87
ATOM     87  O   UNL A   1      30.374  27.995  21.986  1.00  0.00    -0.492 OA
BRANCH  87  88
ATOM     88  C   UNL A   1      30.621  29.238  22.633  1.00  0.00     0.233 C 
BRANCH  88  89
ATOM     89  C   UNL A   1      29.407  29.765  23.399  1.00  0.00     0.030 C 
ATOM     90  C   UNL A   1      29.595  31.216  23.881  1.00  0.00     0.011 C 
ATOM     91  C   UNL A   1      28.062  29.825  22.628  1.00  0.00    -0.004 C 
ATOM     92  C   UNL A   1      28.328  31.914  23.361  1.00  0.00    -0.010 C 
ATOM     93  C   UNL A   1      28.174  30.635  21.327  1.00  0.00     0.004 C 
ATOM     94  C   UNL A   1      27.277  30.811  23.503  1.00  0.00     0.007 C 
ATOM     95  C   UNL A   1      28.444  32.059  21.834  1.00  0.00     0.004 C 
ENDBRANCH  88  89
ENDBRANCH  87  88
ENDBRANCH  85  87
ENDBRANCH  77  80
ENDBRANCH  75  76
ENDBRANCH  74  75
ENDBRANCH  73  74
ENDBRANCH   1  73
TORSDOF 19
ENDMDL
MODEL 2
REMARK VINA RESULT:     -11.1      4.503      9.196
REMARK SMILES O=C(NCCCCCCNC(=O)c1ccc(OC[C@H]2C[C@H]3CC[C@@H]2C3)c(Cl)c1)c1ccc(-c2c3nc(c(-c4cccc(S(=O)(=O)[O-])c4F)c4ccc([nH]4)c(-c4cccc(S(=O)(=O)[O-])c4F)c4nc(c(-c5cccc(S(=O)(=O)[O-])c5F)c5ccc2[nH]5)C=C4)C=C3)cc1
REMARK SMILES IDX 6 1 5 2 4 3 3 4 1 5 2 6 29 8 30 9 91 10 31 11 90 12 32 13
REMARK SMILES IDX 33 14 34 15 84 16 35 17 89 18 83 19 85 20 36 21 88 22 82 23
REMARK SMILES IDX 81 24 37 26 69 27 49 28 68 29 50 30 53 31 67 32 86 33 51 34
REMARK SMILES IDX 52 35 66 37 87 38 54 39 38 40 39 41 47 42 40 43 42 44 48 45
REMARK SMILES IDX 41 46 43 47 44 48 45 49 46 50 70 51 71 52 79 53 72 54 74 55
REMARK SMILES IDX 80 56 73 57 75 58 76 59 77 60 78 61 55 62 56 63 64 64 57 65
REMARK SMILES IDX 59 66 65 67 58 68 60 69 61 70 62 71 63 72 7 73 8 74 9 75
REMARK SMILES IDX 10 76 11 77 12 79 13 80 14 81 28 82 15 83 26 84 16 85 27 86
REMARK SMILES IDX 17 87 18 88 19 89 20 90 24 91 21 92 23 93 25 94 22 95
REMARK H PARENT 3 7 85 25 53 36 10 78
REMARK Flexibility Score: inf
ROOT
ATOM      1  C   UNL A   1      35.854  22.000  24.185  1.00  0.00     0.002 C 
ENDROOT
BRANCH   1   2
ATOM      2  C   UNL A   1      36.373  23.353  24.671  1.00  0.00     0.021 C 
BRANCH   2   3
ATOM      3  C   UNL A   1      36.980  23.334  26.067  1.00  0.00     0.116 C 
BRANCH   3   4
ATOM      4  N   UNL A   1      38.142  22.466  26.144  1.00  0.00    -0.352 N 
ATOM      5  O   UNL A   1      40.336  21.979  26.264  1.00  0.00    -0.269 OA
ATOM      6  C   UNL A   1      39.438  22.795  26.451  1.00  0.00     0.251 C 
ATOM      7  H   UNL A   1      37.977  21.515  25.948  1.00  0.00     0.163 HD
BRANCH   6   8
ATOM      8  C   UNL A   1      39.741  24.139  26.992  1.00  0.00     0.039 A 
ATOM      9  C   UNL A   1      39.621  24.397  28.361  1.00  0.00     0.014 A 
ATOM     10  C   UNL A   1      40.173  25.142  26.122  1.00  0.00     0.014 A 
ATOM     11  C   UNL A   1      39.841  25.680  28.848  1.00  0.00     0.010 A 
ATOM     12  C   UNL A   1      40.466  26.413  26.623  1.00  0.00     0.010 A 
ATOM     13  C   UNL A   1      40.295  26.693  27.988  1.00  0.00    -0.014 A 
BRANCH  13  14
ATOM     14  C   UNL A   1      40.724  27.995  28.556  1.00  0.00     0.031 A 
ATOM     15  C   UNL A   1      39.727  29.004  29.048  1.00  0.00     0.074 A 
ATOM     16  C   UNL A   1      42.041  28.276  28.565  1.00  0.00     0.049 A 
ATOM     17  N   UNL A   1      39.947  30.197  29.538  1.00  0.00    -0.248 NA
ATOM     18  C   UNL A   1      38.302  28.639  28.978  1.00  0.00     0.031 C 
ATOM     19  C   UNL A   1      43.093  27.389  28.054  1.00  0.00     0.029 A 
ATOM     20  N   UNL A   1      42.725  29.387  28.988  1.00  0.00    -0.354 N 
ATOM     21  C   UNL A   1      38.696  30.744  29.792  1.00  0.00     0.074 A 
ATOM     22  C   UNL A   1      37.716  29.749  29.412  1.00  0.00     0.031 C 
ATOM     23  C   UNL A   1      44.282  27.992  28.186  1.00  0.00     0.029 A 
ATOM     24  C   UNL A   1      44.076  29.325  28.740  1.00  0.00     0.049 A 
ATOM     25  H   UNL A   1      42.290  30.154  29.427  1.00  0.00     0.167 HD
ATOM     26  C   UNL A   1      38.399  31.963  30.302  1.00  0.00     0.034 A 
ATOM     27  C   UNL A   1      45.042  30.249  28.901  1.00  0.00     0.034 A 
ATOM     28  C   UNL A   1      39.385  32.928  30.714  1.00  0.00     0.049 A 
ATOM     29  C   UNL A   1      44.675  31.585  29.479  1.00  0.00     0.074 A 
ATOM     30  C   UNL A   1      39.185  34.137  31.357  1.00  0.00     0.029 A 
ATOM     31  N   UNL A   1      40.748  32.810  30.499  1.00  0.00    -0.354 N 
ATOM     32  N   UNL A   1      43.506  32.009  29.891  1.00  0.00    -0.248 NA
ATOM     33  C   UNL A   1      45.762  32.562  29.634  1.00  0.00     0.031 C 
ATOM     34  C   UNL A   1      40.425  34.767  31.499  1.00  0.00     0.029 A 
ATOM     35  C   UNL A   1      41.400  33.941  30.964  1.00  0.00     0.049 A 
ATOM     36  H   UNL A   1      41.190  32.037  30.079  1.00  0.00     0.167 HD
ATOM     37  C   UNL A   1      43.716  33.297  30.366  1.00  0.00     0.074 A 
ATOM     38  C   UNL A   1      45.132  33.568  30.225  1.00  0.00     0.031 C 
ATOM     39  C   UNL A   1      42.815  34.182  30.853  1.00  0.00     0.034 A 
BRANCH  26  40
ATOM     40  C   UNL A   1      36.951  32.332  30.484  1.00  0.00     0.023 A 
ATOM     41  C   UNL A   1      36.314  32.070  31.712  1.00  0.00     0.012 A 
ATOM     42  C   UNL A   1      36.263  33.051  29.485  1.00  0.00     0.148 A 
ATOM     43  C   UNL A   1      35.008  32.505  31.939  1.00  0.00     0.002 A 
ATOM     44  C   UNL A   1      34.975  33.512  29.732  1.00  0.00     0.091 A 
ATOM     45  F   UNL A   1      36.884  33.274  28.317  1.00  0.00    -0.205 F 
ATOM     46  C   UNL A   1      34.344  33.236  30.956  1.00  0.00     0.022 A 
BRANCH  44  47
ATOM     47  S   UNL A   1      34.063  34.524  28.560  1.00  0.00     0.127 S 
ATOM     48  O   UNL A   1      34.868  35.745  28.538  1.00  0.00    -0.237 OA
ATOM     49  O   UNL A   1      34.139  33.722  27.338  1.00  0.00    -0.237 OA
ATOM     50  O   UNL A   1      32.724  34.671  29.112  1.00  0.00    -0.744 OA
ENDBRANCH  44  47
ENDBRANCH  26  40
BRANCH  27  51
ATOM     51  C   UNL A   1      46.443  29.931  28.511  1.00  0.00     0.023 A 
ATOM     52  C   UNL A   1      46.912  30.302  27.237  1.00  0.00     0.012 A 
ATOM     53  C   UNL A   1      47.323  29.297  29.410  1.00  0.00     0.148 A 
ATOM     54  C   UNL A   1      48.225  30.023  26.856  1.00  0.00     0.002 A 
ATOM     55  C   UNL A   1      48.645  29.077  29.046  1.00  0.00     0.091 A 
ATOM     56  F   UNL A   1      46.853  28.931  30.611  1.00  0.00    -0.205 F 
ATOM     57  C   UNL A   1      49.094  29.423  27.764  1.00  0.00     0.022 A 
BRANCH  55  58
ATOM     58  S   UNL A   1      49.857  28.447  30.213  1.00  0.00     0.127 S 
ATOM     59  O   UNL A   1      49.253  27.182  30.620  1.00  0.00    -0.237 OA
ATOM     60  O   UNL A   1      51.053  28.320  29.379  1.00  0.00    -0.237 OA
ATOM     61  O   UNL A   1      49.960  29.470  31.246  1.00  0.00    -0.744 OA
ENDBRANCH  55  58
ENDBRANCH  27  51
BRANCH  39  62
ATOM     62  C   UNL A   1      43.328  35.534  31.273  1.00  0.00     0.023 A 
ATOM     63  C   UNL A   1      43.754  35.729  32.602  1.00  0.00     0.012 A 
ATOM     64  C   UNL A   1      43.458  36.580  30.340  1.00  0.00     0.148 A 
ATOM     65  C   UNL A   1      44.279  36.957  33.002  1.00  0.00     0.002 A 
ATOM     66  C   UNL A   1      44.026  37.785  30.735  1.00  0.00     0.091 A 
ATOM     67  F   UNL A   1      43.031  36.375  29.085  1.00  0.00    -0.205 F 
ATOM     68  C   UNL A   1      44.426  37.979  32.068  1.00  0.00     0.022 A 
BRANCH  66  69
ATOM     69  S   UNL A   1      44.338  39.129  29.584  1.00  0.00     0.127 S 
ATOM     70  O   UNL A   1      42.981  39.505  29.191  1.00  0.00    -0.237 OA
ATOM     71  O   UNL A   1      45.022  40.107  30.430  1.00  0.00    -0.237 OA
ATOM     72  O   UNL A   1      45.161  38.566  28.521  1.00  0.00    -0.744 OA
ENDBRANCH  66  69
ENDBRANCH  39  62
ENDBRANCH  13  14
ENDBRANCH   6   8
ENDBRANCH   3   4
ENDBRANCH   2   3
ENDBRANCH   1   2
BRANCH   1  73
ATOM     73  C   UNL A   1      34.365  21.960  23.828  1.00  0.00     0.002 C 
BRANCH  73  74
ATOM     74  C   UNL A   1      33.476  21.186  24.807  1.00  0.00     0.021 C 
BRANCH  74  75
ATOM     75  C   UNL A   1      31.978  21.430  24.641  1.00  0.00     0.116 C 
BRANCH  75  76
ATOM     76  N   UNL A   1      31.338  21.735  25.910  1.00  0.00    -0.352 N 
ATOM     77  C   UNL A   1      31.155  22.956  26.499  1.00  0.00     0.251 C 
ATOM     78  H   UNL A   1      30.992  20.961  26.411  1.00  0.00     0.163 HD
ATOM     79  O   UNL A   1      30.721  23.066  27.639  1.00  0.00    -0.269 OA
BRANCH  77  80
ATOM     80  C   UNL A   1      31.510  24.160  25.734  1.00  0.00     0.041 A 
ATOM     81  C   UNL A   1      32.816  24.643  25.752  1.00  0.00     0.018 A 
ATOM     82  C   UNL A   1      30.508  24.827  25.036  1.00  0.00     0.038 A 
ATOM     83  C   UNL A   1      33.107  25.819  25.065  1.00  0.00     0.049 A 
ATOM     84  C   UNL A   1      30.799  26.019  24.361  1.00  0.00     0.083 A 
ATOM     85  C   UNL A   1      32.116  26.516  24.350  1.00  0.00     0.137 A 
ATOM     86  Cl  UNL A   1      29.424  26.794  23.657  1.00  0.00    -0.080 Cl
BRANCH  85  87
ATOM     87  O   UNL A   1      32.639  27.628  23.752  1.00  0.00    -0.492 OA
BRANCH  87  88
ATOM     88  C   UNL A   1      33.769  28.300  24.296  1.00  0.00     0.233 C 
BRANCH  88  89
ATOM     89  C   UNL A   1      33.391  29.539  25.111  1.00  0.00     0.030 C 
ATOM     90  C   UNL A   1      31.867  29.736  25.217  1.00  0.00     0.011 C 
ATOM     91  C   UNL A   1      33.851  29.572  26.592  1.00  0.00    -0.004 C 
ATOM     92  C   UNL A   1      31.649  29.892  26.730  1.00  0.00    -0.010 C 
ATOM     93  C   UNL A   1      33.373  28.340  27.376  1.00  0.00     0.004 C 
ATOM     94  C   UNL A   1      32.911  30.644  27.157  1.00  0.00     0.007 C 
ATOM     95  C   UNL A   1      31.848  28.518  27.395  1.00  0.00     0.004 C 
ENDBRANCH  88  89
ENDBRANCH  87  88
ENDBRANCH  85  87
ENDBRANCH  77  80
ENDBRANCH  75  76
ENDBRANCH  74  75
ENDBRANCH  73  74
ENDBRANCH   1  73
TORSDOF 19
ENDMDL
MODEL 3
REMARK VINA RESULT:     -10.9      4.407      7.320
REMARK SMILES O=C(NCCCCCCNC(=O)c1ccc(OC[C@H]2C[C@H]3CC[C@@H]2C3)c(Cl)c1)c1ccc(-c2c3nc(c(-c4cccc(S(=O)(=O)[O-])c4F)c4ccc([nH]4)c(-c4cccc(S(=O)(=O)[O-])c4F)c4nc(c(-c5cccc(S(=O)(=O)[O-])c5F)c5ccc2[nH]5)C=C4)C=C3)cc1
REMARK SMILES IDX 6 1 5 2 4 3 3 4 1 5 2 6 29 8 30 9 91 10 31 11 90 12 32 13
REMARK SMILES IDX 33 14 34 15 84 16 35 17 89 18 83 19 85 20 36 21 88 22 82 23
REMARK SMILES IDX 81 24 37 26 69 27 49 28 68 29 50 30 53 31 67 32 86 33 51 34
REMARK SMILES IDX 52 35 66 37 87 38 54 39 38 40 39 41 47 42 40 43 42 44 48 45
REMARK SMILES IDX 41 46 43 47 44 48 45 49 46 50 70 51 71 52 79 53 72 54 74 55
REMARK SMILES IDX 80 56 73 57 75 58 76 59 77 60 78 61 55 62 56 63 64 64 57 65
REMARK SMILES IDX 59 66 65 67 58 68 60 69 61 70 62 71 63 72 7 73 8 74 9 75
REMARK SMILES IDX 10 76 11 77 12 79 13 80 14 81 28 82 15 83 26 84 16 85 27 86
REMARK SMILES IDX 17 87 18 88 19 89 20 90 24 91 21 92 23 93 25 94 22 95
REMARK H PARENT 3 7 85 25 53 36 10 78
REMARK Flexibility Score: inf
ROOT
ATOM      1  C   UNL A   1      35.932  22.000  24.373  1.00  0.00     0.002 C 
ENDROOT
BRANCH   1   2
ATOM      2  C   UNL A   1      36.287  23.435  24.764  1.00  0.00     0.021 C 
BRANCH   2   3
ATOM      3  C   UNL A   1      37.130  23.558  26.025  1.00  0.00     0.116 C 
BRANCH   3   4
ATOM      4  N   UNL A   1      38.145  22.522  26.104  1.00  0.00    -0.352 N 
ATOM      5  O   UNL A   1      40.240  21.702  26.184  1.00  0.00    -0.269 OA
ATOM      6  C   UNL A   1      39.485  22.654  26.363  1.00  0.00     0.251 C 
ATOM      7  H   UNL A   1      37.828  21.602  25.949  1.00  0.00     0.163 HD
BRANCH   6   8
ATOM      8  C   UNL A   1      40.011  23.952  26.844  1.00  0.00     0.039 A 
ATOM      9  C   UNL A   1      40.266  24.992  25.944  1.00  0.00     0.014 A 
ATOM     10  C   UNL A   1      40.226  24.135  28.211  1.00  0.00     0.014 A 
ATOM     11  C   UNL A   1      40.825  26.181  26.397  1.00  0.00     0.010 A 
ATOM     12  C   UNL A   1      40.718  25.358  28.675  1.00  0.00     0.010 A 
ATOM     13  C   UNL A   1      41.029  26.387  27.771  1.00  0.00    -0.014 A 
BRANCH  13  14
ATOM     14  C   UNL A   1      41.427  27.731  28.258  1.00  0.00     0.031 A 
ATOM     15  C   UNL A   1      42.870  28.112  28.417  1.00  0.00     0.074 A 
ATOM     16  C   UNL A   1      40.451  28.589  28.610  1.00  0.00     0.049 A 
ATOM     17  N   UNL A   1      43.374  29.235  28.862  1.00  0.00    -0.248 NA
ATOM     18  C   UNL A   1      43.882  27.111  28.040  1.00  0.00     0.031 C 
ATOM     19  C   UNL A   1      39.014  28.297  28.552  1.00  0.00     0.029 A 
ATOM     20  N   UNL A   1      40.508  29.864  29.113  1.00  0.00    -0.354 N 
ATOM     21  C   UNL A   1      44.752  29.063  28.863  1.00  0.00     0.074 A 
ATOM     22  C   UNL A   1      45.011  27.730  28.364  1.00  0.00     0.031 C 
ATOM     23  C   UNL A   1      38.330  29.356  29.007  1.00  0.00     0.029 A 
ATOM     24  C   UNL A   1      39.274  30.379  29.439  1.00  0.00     0.049 A 
ATOM     25  H   UNL A   1      41.349  30.361  29.230  1.00  0.00     0.167 HD
ATOM     26  C   UNL A   1      45.709  29.944  29.240  1.00  0.00     0.034 A 
ATOM     27  C   UNL A   1      38.937  31.528  30.052  1.00  0.00     0.034 A 
ATOM     28  C   UNL A   1      45.439  31.282  29.697  1.00  0.00     0.049 A 
ATOM     29  C   UNL A   1      40.025  32.484  30.446  1.00  0.00     0.074 A 
ATOM     30  C   UNL A   1      46.345  32.290  29.982  1.00  0.00     0.029 A 
ATOM     31  N   UNL A   1      44.178  31.792  29.962  1.00  0.00    -0.354 N 
ATOM     32  N   UNL A   1      41.317  32.380  30.260  1.00  0.00    -0.248 NA
ATOM     33  C   UNL A   1      39.609  33.725  31.115  1.00  0.00     0.031 C 
ATOM     34  C   UNL A   1      45.632  33.397  30.454  1.00  0.00     0.029 A 
ATOM     35  C   UNL A   1      44.282  33.086  30.443  1.00  0.00     0.049 A 
ATOM     36  H   UNL A   1      43.333  31.305  29.829  1.00  0.00     0.167 HD
ATOM     37  C   UNL A   1      41.870  33.544  30.776  1.00  0.00     0.074 A 
ATOM     38  C   UNL A   1      40.767  34.356  31.249  1.00  0.00     0.031 C 
ATOM     39  C   UNL A   1      43.173  33.899  30.872  1.00  0.00     0.034 A 
BRANCH  26  40
ATOM     40  C   UNL A   1      47.151  29.520  29.153  1.00  0.00     0.023 A 
ATOM     41  C   UNL A   1      47.794  28.996  30.291  1.00  0.00     0.012 A 
ATOM     42  C   UNL A   1      47.825  29.524  27.914  1.00  0.00     0.148 A 
ATOM     43  C   UNL A   1      49.092  28.495  30.203  1.00  0.00     0.002 A 
ATOM     44  C   UNL A   1      49.105  28.989  27.827  1.00  0.00     0.091 A 
ATOM     45  F   UNL A   1      47.199  30.043  26.848  1.00  0.00    -0.205 F 
ATOM     46  C   UNL A   1      49.742  28.479  28.970  1.00  0.00     0.022 A 
BRANCH  44  47
ATOM     47  S   UNL A   1      49.999  28.856  26.274  1.00  0.00     0.127 S 
ATOM     48  O   UNL A   1      50.990  27.829  26.593  1.00  0.00    -0.237 OA
ATOM     49  O   UNL A   1      48.948  28.423  25.352  1.00  0.00    -0.237 OA
ATOM     50  O   UNL A   1      50.540  30.180  26.004  1.00  0.00    -0.744 OA
ENDBRANCH  44  47
ENDBRANCH  26  40
BRANCH  27  51
ATOM     51  C   UNL A   1      37.504  31.830  30.322  1.00  0.00     0.023 A 
ATOM     52  C   UNL A   1      36.908  31.367  31.510  1.00  0.00     0.012 A 
ATOM     53  C   UNL A   1      36.742  32.605  29.426  1.00  0.00     0.148 A 
ATOM     54  C   UNL A   1      35.569  31.649  31.787  1.00  0.00     0.002 A 
ATOM     55  C   UNL A   1      35.429  32.933  29.738  1.00  0.00     0.091 A 
ATOM     56  F   UNL A   1      37.320  33.020  28.290  1.00  0.00    -0.205 F 
ATOM     57  C   UNL A   1      34.834  32.441  30.909  1.00  0.00     0.022 A 
BRANCH  55  58
ATOM     58  S   UNL A   1      34.471  34.070  28.729  1.00  0.00     0.127 S 
ATOM     59  O   UNL A   1      33.284  34.276  29.554  1.00  0.00    -0.237 OA
ATOM     60  O   UNL A   1      35.364  35.225  28.633  1.00  0.00    -0.237 OA
ATOM     61  O   UNL A   1      34.261  33.376  27.465  1.00  0.00    -0.744 OA
ENDBRANCH  55  58
ENDBRANCH  27  51
BRANCH  39  62
ATOM     62  C   UNL A   1      43.486  35.225  31.512  1.00  0.00     0.023 A 
ATOM     63  C   UNL A   1      43.686  36.356  30.696  1.00  0.00     0.012 A 
ATOM     64  C   UNL A   1      43.507  35.365  32.913  1.00  0.00     0.148 A 
ATOM     65  C   UNL A   1      43.929  37.604  31.266  1.00  0.00     0.002 A 
ATOM     66  C   UNL A   1      43.701  36.622  33.474  1.00  0.00     0.091 A 
ATOM     67  F   UNL A   1      43.329  34.272  33.669  1.00  0.00    -0.205 F 
ATOM     68  C   UNL A   1      43.924  37.739  32.652  1.00  0.00     0.022 A 
BRANCH  66  69
ATOM     69  S   UNL A   1      43.623  36.911  35.245  1.00  0.00     0.127 S 
ATOM     70  O   UNL A   1      44.760  36.127  35.725  1.00  0.00    -0.237 OA
ATOM     71  O   UNL A   1      43.803  38.361  35.329  1.00  0.00    -0.237 OA
ATOM     72  O   UNL A   1      42.315  36.436  35.674  1.00  0.00    -0.744 OA
ENDBRANCH  66  69
ENDBRANCH  39  62
ENDBRANCH  13  14
ENDBRANCH   6   8
ENDBRANCH   3   4
ENDBRANCH   2   3
ENDBRANCH   1   2
BRANCH   1  73
ATOM     73  C   UNL A   1      34.498  21.794  23.875  1.00  0.00     0.002 C 
BRANCH  73  74
ATOM     74  C   UNL A   1      33.553  21.107  24.866  1.00  0.00     0.021 C 
BRANCH  74  75
ATOM     75  C   UNL A   1      32.072  21.418  24.659  1.00  0.00     0.116 C 
BRANCH  75  76
ATOM     76  N   UNL A   1      31.411  21.752  25.910  1.00  0.00    -0.352 N 
ATOM     77  C   UNL A   1      31.229  22.985  26.473  1.00  0.00     0.251 C 
ATOM     78  H   UNL A   1      31.049  20.990  26.419  1.00  0.00     0.163 HD
ATOM     79  O   UNL A   1      30.775  23.120  27.603  1.00  0.00    -0.269 OA
BRANCH  77  80
ATOM     80  C   UNL A   1      31.609  24.171  25.693  1.00  0.00     0.041 A 
ATOM     81  C   UNL A   1      32.929  24.614  25.687  1.00  0.00     0.018 A 
ATOM     82  C   UNL A   1      30.617  24.864  25.005  1.00  0.00     0.038 A 
ATOM     83  C   UNL A   1      33.245  25.775  24.986  1.00  0.00     0.049 A 
ATOM     84  C   UNL A   1      30.934  26.041  24.316  1.00  0.00     0.083 A 
ATOM     85  C   UNL A   1      32.265  26.497  24.281  1.00  0.00     0.137 A 
ATOM     86  Cl  UNL A   1      29.573  26.853  23.628  1.00  0.00    -0.080 Cl
BRANCH  85  87
ATOM     87  O   UNL A   1      32.813  27.588  23.666  1.00  0.00    -0.492 OA
BRANCH  87  88
ATOM     88  C   UNL A   1      33.833  28.357  24.291  1.00  0.00     0.233 C 
BRANCH  88  89
ATOM     89  C   UNL A   1      33.284  29.546  25.083  1.00  0.00     0.030 C 
ATOM     90  C   UNL A   1      31.746  29.545  25.162  1.00  0.00     0.011 C 
ATOM     91  C   UNL A   1      33.709  29.654  26.572  1.00  0.00    -0.004 C 
ATOM     92  C   UNL A   1      31.482  29.688  26.669  1.00  0.00    -0.010 C 
ATOM     93  C   UNL A   1      33.379  28.379  27.363  1.00  0.00     0.004 C 
ATOM     94  C   UNL A   1      32.628  30.601  27.107  1.00  0.00     0.007 C 
ATOM     95  C   UNL A   1      31.844  28.358  27.354  1.00  0.00     0.004 C 
ENDBRANCH  88  89
ENDBRANCH  87  88
ENDBRANCH  85  87
ENDBRANCH  77  80
ENDBRANCH  75  76
ENDBRANCH  74  75
ENDBRANCH  73  74
ENDBRANCH   1  73
TORSDOF 19
ENDMDL
