MODEL 1
REMARK VINA RESULT:     -10.7      0.000      0.000
REMARK SMILES CC(C)CSc1cc2c(cc1Cl)C=C(C(=O)NCCCCCCNC(=O)c1ccc(-c3c4nc(c(-c5cccc(S(=O)(=O)[O-])c5F)c5ccc([nH]5)c(-c5cccc(S(=O)(=O)[O-])c5F)c5nc(c(-c6cccc(S(=O)(=O)[O-])c6F)c6ccc3[nH]6)C=C5)C=C4)cc1)[C@@H](C(F)(F)F)O2
REMARK SMILES IDX 20 1 19 2 18 3 17 4 15 5 16 6 14 8 6 9 7 10 11 11 8 12 10 13
REMARK SMILES IDX 12 14 9 15 95 16 13 17 90 18 5 19 4 20 2 21 1 22 3 23 91 24
REMARK SMILES IDX 92 25 93 26 94 27 21 28 22 29 23 30 24 31 25 32 26 34 27 35
REMARK SMILES IDX 28 36 89 37 29 38 88 39 30 40 31 41 32 42 82 43 33 44 87 45
REMARK SMILES IDX 81 46 83 47 34 48 86 49 80 50 79 51 35 53 67 54 47 55 66 56
REMARK SMILES IDX 48 57 51 58 65 59 84 60 49 61 50 62 64 64 85 65 52 66 36 67
REMARK SMILES IDX 37 68 45 69 38 70 40 71 46 72 39 73 41 74 42 75 43 76 44 77
REMARK SMILES IDX 68 78 69 79 77 80 70 81 72 82 78 83 71 84 73 85 74 86 75 87
REMARK SMILES IDX 76 88 53 89 54 90 62 91 55 92 57 93 63 94 56 95 58 96 59 97
REMARK SMILES IDX 60 98 61 99
REMARK H PARENT 17 7 24 33 83 52 51 63
REMARK Flexibility Score: inf
ROOT
ATOM      1  C   UNL A   1      34.702  29.657  27.977  1.00  0.00     0.002 C 
ENDROOT
BRANCH   1   2
ATOM      2  C   UNL A   1      34.864  29.129  26.550  1.00  0.00     0.021 C 
BRANCH   2   3
ATOM      3  C   UNL A   1      33.569  28.932  25.771  1.00  0.00     0.116 C 
BRANCH   3   4
ATOM      4  N   UNL A   1      32.429  28.637  26.623  1.00  0.00    -0.352 N 
ATOM      5  C   UNL A   1      31.711  27.530  26.939  1.00  0.00     0.251 C 
ATOM      6  O   UNL A   1      30.798  27.696  27.755  1.00  0.00    -0.270 OA
ATOM      7  H   UNL A   1      32.096  29.440  27.086  1.00  0.00     0.163 HD
BRANCH   5   8
ATOM      8  C   UNL A   1      31.943  26.166  26.367  1.00  0.00     0.067 C 
ATOM      9  C   UNL A   1      34.052  21.748  25.078  1.00  0.00     0.030 A 
ATOM     10  C   UNL A   1      32.782  22.310  24.992  1.00  0.00     0.063 A 
ATOM     11  C   UNL A   1      35.106  22.603  25.463  1.00  0.00     0.055 A 
ATOM     12  C   UNL A   1      32.530  23.614  25.413  1.00  0.00     0.129 A 
ATOM     13  C   UNL A   1      34.858  23.939  25.835  1.00  0.00     0.033 A 
ATOM     14  Cl  UNL A   1      36.757  22.079  25.522  1.00  0.00    -0.083 Cl
ATOM     15  C   UNL A   1      33.553  24.437  25.849  1.00  0.00     0.019 A 
ATOM     16  O   UNL A   1      31.218  23.960  25.405  1.00  0.00    -0.475 OA
ATOM     17  C   UNL A   1      33.229  25.765  26.351  1.00  0.00     0.025 C 
ATOM     18  C   UNL A   1      30.845  25.298  25.811  1.00  0.00     0.314 C 
BRANCH   9  19
ATOM     19  S   UNL A   1      34.316  19.991  24.787  1.00  0.00    -0.124 SA
BRANCH  19  20
ATOM     20  C   UNL A   1      32.662  19.194  24.927  1.00  0.00     0.078 C 
BRANCH  20  21
ATOM     21  C   UNL A   1      32.551  17.733  24.436  1.00  0.00    -0.007 C 
ATOM     22  C   UNL A   1      32.982  17.482  22.990  1.00  0.00     0.008 C 
ATOM     23  C   UNL A   1      33.399  16.838  25.352  1.00  0.00     0.008 C 
ENDBRANCH  20  21
ENDBRANCH  19  20
ENDBRANCH   9  19
BRANCH  18  24
ATOM     24  C   UNL A   1      30.089  25.918  24.627  1.00  0.00     0.429 C 
ATOM     25  F   UNL A   1      30.715  27.048  24.215  1.00  0.00    -0.167 F 
ATOM     26  F   UNL A   1      30.020  25.103  23.553  1.00  0.00    -0.167 F 
ATOM     27  F   UNL A   1      28.820  26.251  24.956  1.00  0.00    -0.167 F 
ENDBRANCH  18  24
ENDBRANCH   5   8
ENDBRANCH   3   4
ENDBRANCH   2   3
ENDBRANCH   1   2
BRANCH   1  28
ATOM     28  C   UNL A   1      34.919  31.162  28.169  1.00  0.00     0.002 C 
BRANCH  28  29
ATOM     29  C   UNL A   1      33.716  32.064  27.886  1.00  0.00     0.021 C 
BRANCH  29  30
ATOM     30  C   UNL A   1      34.022  33.550  27.751  1.00  0.00     0.116 C 
BRANCH  30  31
ATOM     31  N   UNL A   1      33.210  34.383  28.623  1.00  0.00    -0.352 N 
ATOM     32  C   UNL A   1      33.373  34.644  29.966  1.00  0.00     0.251 C 
ATOM     33  H   UNL A   1      32.440  34.820  28.194  1.00  0.00     0.163 HD
ATOM     34  O   UNL A   1      32.527  35.282  30.576  1.00  0.00    -0.269 OA
BRANCH  32  35
ATOM     35  C   UNL A   1      34.560  34.104  30.666  1.00  0.00     0.039 A 
ATOM     36  C   UNL A   1      35.834  34.616  30.404  1.00  0.00     0.014 A 
ATOM     37  C   UNL A   1      34.398  33.036  31.551  1.00  0.00     0.014 A 
ATOM     38  C   UNL A   1      36.955  33.955  30.897  1.00  0.00     0.010 A 
ATOM     39  C   UNL A   1      35.525  32.418  32.103  1.00  0.00     0.010 A 
ATOM     40  C   UNL A   1      36.814  32.838  31.738  1.00  0.00    -0.014 A 
BRANCH  40  41
ATOM     41  C   UNL A   1      38.021  32.113  32.211  1.00  0.00     0.031 A 
ATOM     42  C   UNL A   1      38.617  32.408  33.562  1.00  0.00     0.074 A 
ATOM     43  C   UNL A   1      38.565  31.157  31.433  1.00  0.00     0.049 A 
ATOM     44  N   UNL A   1      39.670  31.878  34.129  1.00  0.00    -0.248 NA
ATOM     45  C   UNL A   1      37.949  33.430  34.386  1.00  0.00     0.031 C 
ATOM     46  C   UNL A   1      38.087  30.782  30.101  1.00  0.00     0.029 A 
ATOM     47  N   UNL A   1      39.634  30.323  31.650  1.00  0.00    -0.354 N 
ATOM     48  C   UNL A   1      39.818  32.527  35.348  1.00  0.00     0.074 A 
ATOM     49  C   UNL A   1      38.746  33.492  35.446  1.00  0.00     0.031 C 
ATOM     50  C   UNL A   1      38.835  29.772  29.634  1.00  0.00     0.029 A 
ATOM     51  C   UNL A   1      39.876  29.461  30.608  1.00  0.00     0.049 A 
ATOM     52  H   UNL A   1      40.173  30.342  32.472  1.00  0.00     0.167 HD
ATOM     53  C   UNL A   1      40.751  32.324  36.308  1.00  0.00     0.034 A 
ATOM     54  C   UNL A   1      40.838  28.532  30.443  1.00  0.00     0.034 A 
ATOM     55  C   UNL A   1      41.782  31.325  36.242  1.00  0.00     0.049 A 
ATOM     56  C   UNL A   1      41.856  28.325  31.524  1.00  0.00     0.074 A 
ATOM     57  C   UNL A   1      42.737  31.014  37.194  1.00  0.00     0.029 A 
ATOM     58  N   UNL A   1      41.990  30.472  35.171  1.00  0.00    -0.354 N 
ATOM     59  N   UNL A   1      41.934  28.902  32.699  1.00  0.00    -0.248 NA
ATOM     60  C   UNL A   1      42.915  27.339  31.265  1.00  0.00     0.031 C 
ATOM     61  C   UNL A   1      43.526  29.973  36.698  1.00  0.00     0.029 A 
ATOM     62  C   UNL A   1      43.061  29.637  35.437  1.00  0.00     0.049 A 
ATOM     63  H   UNL A   1      41.457  30.462  34.344  1.00  0.00     0.167 HD
ATOM     64  C   UNL A   1      43.046  28.348  33.320  1.00  0.00     0.074 A 
ATOM     65  C   UNL A   1      43.596  27.370  32.404  1.00  0.00     0.031 C 
ATOM     66  C   UNL A   1      43.575  28.641  34.532  1.00  0.00     0.034 A 
BRANCH  53  67
ATOM     67  C   UNL A   1      40.677  33.163  37.555  1.00  0.00     0.023 A 
ATOM     68  C   UNL A   1      39.805  32.775  38.591  1.00  0.00     0.012 A 
ATOM     69  C   UNL A   1      41.537  34.262  37.741  1.00  0.00     0.148 A 
ATOM     70  C   UNL A   1      39.785  33.475  39.796  1.00  0.00     0.002 A 
ATOM     71  C   UNL A   1      41.529  34.939  38.956  1.00  0.00     0.091 A 
ATOM     72  F   UNL A   1      42.347  34.617  36.735  1.00  0.00    -0.205 F 
ATOM     73  C   UNL A   1      40.653  34.550  39.982  1.00  0.00     0.022 A 
BRANCH  71  74
ATOM     74  S   UNL A   1      42.641  36.304  39.319  1.00  0.00     0.127 S 
ATOM     75  O   UNL A   1      42.174  36.719  40.641  1.00  0.00    -0.237 OA
ATOM     76  O   UNL A   1      43.946  35.645  39.312  1.00  0.00    -0.237 OA
ATOM     77  O   UNL A   1      42.441  37.281  38.257  1.00  0.00    -0.744 OA
ENDBRANCH  71  74
ENDBRANCH  53  67
BRANCH  54  78
ATOM     78  C   UNL A   1      40.841  27.703  29.208  1.00  0.00     0.023 A 
ATOM     79  C   UNL A   1      39.869  26.697  29.056  1.00  0.00     0.012 A 
ATOM     80  C   UNL A   1      41.739  27.964  28.157  1.00  0.00     0.148 A 
ATOM     81  C   UNL A   1      39.792  25.961  27.873  1.00  0.00     0.002 A 
ATOM     82  C   UNL A   1      41.628  27.259  26.965  1.00  0.00     0.091 A 
ATOM     83  F   UNL A   1      42.659  28.923  28.334  1.00  0.00    -0.205 F 
ATOM     84  C   UNL A   1      40.662  26.251  26.824  1.00  0.00     0.022 A 
BRANCH  82  85
ATOM     85  S   UNL A   1      42.623  27.641  25.519  1.00  0.00     0.127 S 
ATOM     86  O   UNL A   1      42.382  26.475  24.675  1.00  0.00    -0.237 OA
ATOM     87  O   UNL A   1      42.003  28.881  25.050  1.00  0.00    -0.237 OA
ATOM     88  O   UNL A   1      43.987  27.794  26.005  1.00  0.00    -0.744 OA
ENDBRANCH  82  85
ENDBRANCH  54  78
BRANCH  66  89
ATOM     89  C   UNL A   1      44.820  27.913  34.950  1.00  0.00     0.023 A 
ATOM     90  C   UNL A   1      46.072  28.516  34.724  1.00  0.00     0.012 A 
ATOM     91  C   UNL A   1      44.747  26.699  35.661  1.00  0.00     0.148 A 
ATOM     92  C   UNL A   1      47.240  27.917  35.194  1.00  0.00     0.002 A 
ATOM     93  C   UNL A   1      45.913  26.124  36.154  1.00  0.00     0.091 A 
ATOM     94  F   UNL A   1      43.543  26.143  35.852  1.00  0.00    -0.205 F 
ATOM     95  C   UNL A   1      47.158  26.729  35.918  1.00  0.00     0.022 A 
BRANCH  93  96
ATOM     96  S   UNL A   1      45.906  24.635  37.158  1.00  0.00     0.127 S 
ATOM     97  O   UNL A   1      47.194  24.732  37.843  1.00  0.00    -0.237 OA
ATOM     98  O   UNL A   1      44.740  24.844  38.016  1.00  0.00    -0.237 OA
ATOM     99  O   UNL A   1      45.780  23.521  36.227  1.00  0.00    -0.744 OA
ENDBRANCH  93  96
ENDBRANCH  66  89
ENDBRANCH  40  41
ENDBRANCH  32  35
ENDBRANCH  30  31
ENDBRANCH  29  30
ENDBRANCH  28  29
ENDBRANCH   1  28
TORSDOF 20
ENDMDL
MODEL 2
REMARK VINA RESULT:     -10.6      6.223     11.145
REMARK SMILES CC(C)CSc1cc2c(cc1Cl)C=C(C(=O)NCCCCCCNC(=O)c1ccc(-c3c4nc(c(-c5cccc(S(=O)(=O)[O-])c5F)c5ccc([nH]5)c(-c5cccc(S(=O)(=O)[O-])c5F)c5nc(c(-c6cccc(S(=O)(=O)[O-])c6F)c6ccc3[nH]6)C=C5)C=C4)cc1)[C@@H](C(F)(F)F)O2
REMARK SMILES IDX 20 1 19 2 18 3 17 4 15 5 16 6 14 8 6 9 7 10 11 11 8 12 10 13
REMARK SMILES IDX 12 14 9 15 95 16 13 17 90 18 5 19 4 20 2 21 1 22 3 23 91 24
REMARK SMILES IDX 92 25 93 26 94 27 21 28 22 29 23 30 24 31 25 32 26 34 27 35
REMARK SMILES IDX 28 36 89 37 29 38 88 39 30 40 31 41 32 42 82 43 33 44 87 45
REMARK SMILES IDX 81 46 83 47 34 48 86 49 80 50 79 51 35 53 67 54 47 55 66 56
REMARK SMILES IDX 48 57 51 58 65 59 84 60 49 61 50 62 64 64 85 65 52 66 36 67
REMARK SMILES IDX 37 68 45 69 38 70 40 71 46 72 39 73 41 74 42 75 43 76 44 77
REMARK SMILES IDX 68 78 69 79 77 80 70 81 72 82 78 83 71 84 73 85 74 86 75 87
REMARK SMILES IDX 76 88 53 89 54 90 62 91 55 92 57 93 63 94 56 95 58 96 59 97
REMARK SMILES IDX 60 98 61 99
REMARK H PARENT 17 7 24 33 83 52 51 63
REMARK Flexibility Score: inf
ROOT
ATOM      1  C   UNL A   1      39.460  23.641  26.365  1.00  0.00     0.002 C 
ENDROOT
BRANCH   1   2
ATOM      2  C   UNL A   1      37.932  23.698  26.406  1.00  0.00     0.021 C 
BRANCH   2   3
ATOM      3  C   UNL A   1      37.212  22.677  25.531  1.00  0.00     0.116 C 
BRANCH   3   4
ATOM      4  N   UNL A   1      36.146  21.979  26.230  1.00  0.00    -0.352 N 
ATOM      5  C   UNL A   1      34.796  22.090  26.306  1.00  0.00     0.251 C 
ATOM      6  O   UNL A   1      34.227  21.256  27.018  1.00  0.00    -0.270 OA
ATOM      7  H   UNL A   1      36.489  21.243  26.788  1.00  0.00     0.163 HD
BRANCH   5   8
ATOM      8  C   UNL A   1      33.982  23.136  25.610  1.00  0.00     0.067 C 
ATOM      9  C   UNL A   1      31.694  27.490  24.409  1.00  0.00     0.030 A 
ATOM     10  C   UNL A   1      31.891  26.261  23.787  1.00  0.00     0.063 A 
ATOM     11  C   UNL A   1      32.052  27.582  25.771  1.00  0.00     0.055 A 
ATOM     12  C   UNL A   1      32.550  25.214  24.427  1.00  0.00     0.129 A 
ATOM     13  C   UNL A   1      32.668  26.503  26.434  1.00  0.00     0.033 A 
ATOM     14  Cl  UNL A   1      31.779  29.013  26.711  1.00  0.00    -0.083 Cl
ATOM     15  C   UNL A   1      32.957  25.323  25.745  1.00  0.00     0.019 A 
ATOM     16  O   UNL A   1      32.794  24.139  23.636  1.00  0.00    -0.475 OA
ATOM     17  C   UNL A   1      33.709  24.231  26.346  1.00  0.00     0.025 C 
ATOM     18  C   UNL A   1      33.462  22.988  24.204  1.00  0.00     0.314 C 
BRANCH   9  19
ATOM     19  S   UNL A   1      31.086  28.914  23.491  1.00  0.00    -0.124 SA
BRANCH  19  20
ATOM     20  C   UNL A   1      29.579  28.345  22.601  1.00  0.00     0.078 C 
BRANCH  20  21
ATOM     21  C   UNL A   1      28.557  29.431  22.197  1.00  0.00    -0.007 C 
ATOM     22  C   UNL A   1      27.363  29.605  23.137  1.00  0.00     0.008 C 
ATOM     23  C   UNL A   1      29.286  30.779  22.093  1.00  0.00     0.008 C 
ENDBRANCH  20  21
ENDBRANCH  19  20
ENDBRANCH   9  19
BRANCH  18  24
ATOM     24  C   UNL A   1      32.519  21.793  24.002  1.00  0.00     0.429 C 
ATOM     25  F   UNL A   1      31.803  21.953  22.861  1.00  0.00    -0.167 F 
ATOM     26  F   UNL A   1      33.168  20.616  23.887  1.00  0.00    -0.167 F 
ATOM     27  F   UNL A   1      31.640  21.666  25.021  1.00  0.00    -0.167 F 
ENDBRANCH  18  24
ENDBRANCH   5   8
ENDBRANCH   3   4
ENDBRANCH   2   3
ENDBRANCH   1   2
BRANCH   1  28
ATOM     28  C   UNL A   1      40.147  23.027  27.590  1.00  0.00     0.002 C 
BRANCH  28  29
ATOM     29  C   UNL A   1      40.527  21.549  27.486  1.00  0.00     0.021 C 
BRANCH  29  30
ATOM     30  C   UNL A   1      40.395  20.929  26.100  1.00  0.00     0.116 C 
BRANCH  30  31
ATOM     31  N   UNL A   1      41.434  19.957  25.806  1.00  0.00    -0.352 N 
ATOM     32  C   UNL A   1      42.794  20.153  25.691  1.00  0.00     0.251 C 
ATOM     33  H   UNL A   1      41.125  19.033  25.673  1.00  0.00     0.163 HD
ATOM     34  O   UNL A   1      43.519  19.239  25.326  1.00  0.00    -0.269 OA
BRANCH  32  35
ATOM     35  C   UNL A   1      43.353  21.495  25.971  1.00  0.00     0.039 A 
ATOM     36  C   UNL A   1      43.938  21.777  27.209  1.00  0.00     0.014 A 
ATOM     37  C   UNL A   1      43.238  22.494  25.001  1.00  0.00     0.014 A 
ATOM     38  C   UNL A   1      44.255  23.092  27.535  1.00  0.00     0.010 A 
ATOM     39  C   UNL A   1      43.625  23.802  25.308  1.00  0.00     0.010 A 
ATOM     40  C   UNL A   1      44.087  24.123  26.594  1.00  0.00    -0.014 A 
BRANCH  40  41
ATOM     41  C   UNL A   1      44.378  25.528  26.978  1.00  0.00     0.031 A 
ATOM     42  C   UNL A   1      45.747  26.117  26.759  1.00  0.00     0.074 A 
ATOM     43  C   UNL A   1      43.396  26.291  27.495  1.00  0.00     0.049 A 
ATOM     44  N   UNL A   1      46.178  27.320  27.043  1.00  0.00    -0.248 NA
ATOM     45  C   UNL A   1      46.766  25.249  26.146  1.00  0.00     0.031 C 
ATOM     46  C   UNL A   1      42.030  25.835  27.763  1.00  0.00     0.029 A 
ATOM     47  N   UNL A   1      43.390  27.607  27.884  1.00  0.00    -0.354 N 
ATOM     48  C   UNL A   1      47.521  27.340  26.686  1.00  0.00     0.074 A 
ATOM     49  C   UNL A   1      47.839  26.030  26.163  1.00  0.00     0.031 C 
ATOM     50  C   UNL A   1      41.310  26.862  28.238  1.00  0.00     0.029 A 
ATOM     51  C   UNL A   1      42.173  28.033  28.357  1.00  0.00     0.049 A 
ATOM     52  H   UNL A   1      44.182  28.189  27.827  1.00  0.00     0.167 HD
ATOM     53  C   UNL A   1      48.404  28.362  26.769  1.00  0.00     0.034 A 
ATOM     54  C   UNL A   1      41.793  29.229  28.848  1.00  0.00     0.034 A 
ATOM     55  C   UNL A   1      48.077  29.683  27.232  1.00  0.00     0.049 A 
ATOM     56  C   UNL A   1      42.790  30.345  28.926  1.00  0.00     0.074 A 
ATOM     57  C   UNL A   1      48.898  30.796  27.299  1.00  0.00     0.029 A 
ATOM     58  N   UNL A   1      46.834  30.073  27.700  1.00  0.00    -0.354 N 
ATOM     59  N   UNL A   1      44.036  30.363  28.517  1.00  0.00    -0.248 NA
ATOM     60  C   UNL A   1      42.334  31.609  29.524  1.00  0.00     0.031 C 
ATOM     61  C   UNL A   1      48.150  31.860  27.810  1.00  0.00     0.029 A 
ATOM     62  C   UNL A   1      46.865  31.409  28.061  1.00  0.00     0.049 A 
ATOM     63  H   UNL A   1      46.045  29.488  27.767  1.00  0.00     0.167 HD
ATOM     64  C   UNL A   1      44.512  31.636  28.805  1.00  0.00     0.074 A 
ATOM     65  C   UNL A   1      43.414  32.371  29.398  1.00  0.00     0.031 C 
ATOM     66  C   UNL A   1      45.754  32.140  28.614  1.00  0.00     0.034 A 
BRANCH  53  67
ATOM     67  C   UNL A   1      49.812  28.121  26.297  1.00  0.00     0.023 A 
ATOM     68  C   UNL A   1      50.116  28.292  24.932  1.00  0.00     0.012 A 
ATOM     69  C   UNL A   1      50.844  27.833  27.210  1.00  0.00     0.148 A 
ATOM     70  C   UNL A   1      51.429  28.171  24.480  1.00  0.00     0.002 A 
ATOM     71  C   UNL A   1      52.154  27.739  26.756  1.00  0.00     0.091 A 
ATOM     72  F   UNL A   1      50.525  27.663  28.501  1.00  0.00    -0.205 F 
ATOM     73  C   UNL A   1      52.448  27.905  25.393  1.00  0.00     0.022 A 
BRANCH  71  74
ATOM     74  S   UNL A   1      53.549  27.450  27.852  1.00  0.00     0.127 S 
ATOM     75  O   UNL A   1      54.633  27.230  26.896  1.00  0.00    -0.237 OA
ATOM     76  O   UNL A   1      53.629  28.714  28.584  1.00  0.00    -0.237 OA
ATOM     77  O   UNL A   1      53.193  26.294  28.662  1.00  0.00    -0.744 OA
ENDBRANCH  71  74
ENDBRANCH  53  67
BRANCH  54  78
ATOM     78  C   UNL A   1      40.378  29.425  29.264  1.00  0.00     0.023 A 
ATOM     79  C   UNL A   1      39.413  29.733  28.288  1.00  0.00     0.012 A 
ATOM     80  C   UNL A   1      39.975  29.221  30.597  1.00  0.00     0.148 A 
ATOM     81  C   UNL A   1      38.065  29.837  28.634  1.00  0.00     0.002 A 
ATOM     82  C   UNL A   1      38.627  29.281  30.927  1.00  0.00     0.091 A 
ATOM     83  F   UNL A   1      40.918  28.936  31.507  1.00  0.00    -0.205 F 
ATOM     84  C   UNL A   1      37.671  29.599  29.948  1.00  0.00     0.022 A 
BRANCH  82  85
ATOM     85  S   UNL A   1      38.011  28.873  32.564  1.00  0.00     0.127 S 
ATOM     86  O   UNL A   1      38.868  29.693  33.416  1.00  0.00    -0.237 OA
ATOM     87  O   UNL A   1      36.620  29.318  32.479  1.00  0.00    -0.237 OA
ATOM     88  O   UNL A   1      38.179  27.434  32.703  1.00  0.00    -0.744 OA
ENDBRANCH  82  85
ENDBRANCH  54  78
BRANCH  66  89
ATOM     89  C   UNL A   1      46.015  33.551  29.057  1.00  0.00     0.023 A 
ATOM     90  C   UNL A   1      46.536  33.778  30.345  1.00  0.00     0.012 A 
ATOM     91  C   UNL A   1      45.855  34.632  28.168  1.00  0.00     0.148 A 
ATOM     92  C   UNL A   1      46.888  35.065  30.748  1.00  0.00     0.002 A 
ATOM     93  C   UNL A   1      46.239  35.907  28.566  1.00  0.00     0.091 A 
ATOM     94  F   UNL A   1      45.347  34.388  26.952  1.00  0.00    -0.205 F 
ATOM     95  C   UNL A   1      46.751  36.125  29.855  1.00  0.00     0.022 A 
BRANCH  93  96
ATOM     96  S   UNL A   1      46.167  37.325  27.465  1.00  0.00     0.127 S 
ATOM     97  O   UNL A   1      46.778  36.788  26.249  1.00  0.00    -0.237 OA
ATOM     98  O   UNL A   1      44.729  37.571  27.369  1.00  0.00    -0.237 OA
ATOM     99  O   UNL A   1      46.921  38.384  28.122  1.00  0.00    -0.744 OA
ENDBRANCH  93  96
ENDBRANCH  66  89
ENDBRANCH  40  41
ENDBRANCH  32  35
ENDBRANCH  30  31
ENDBRANCH  29  30
ENDBRANCH  28  29
ENDBRANCH   1  28
TORSDOF 20
ENDMDL
MODEL 3
REMARK VINA RESULT:     -10.2      5.193      8.486
REMARK SMILES CC(C)CSc1cc2c(cc1Cl)C=C(C(=O)NCCCCCCNC(=O)c1ccc(-c3c4nc(c(-c5cccc(S(=O)(=O)[O-])c5F)c5ccc([nH]5)c(-c5cccc(S(=O)(=O)[O-])c5F)c5nc(c(-c6cccc(S(=O)(=O)[O-])c6F)c6ccc3[nH]6)C=C5)C=C4)cc1)[C@@H](C(F)(F)F)O2
REMARK SMILES IDX 20 1 19 2 18 3 17 4 15 5 16 6 14 8 6 9 7 10 11 11 8 12 10 13
REMARK SMILES IDX 12 14 9 15 95 16 13 17 90 18 5 19 4 20 2 21 1 22 3 23 91 24
REMARK SMILES IDX 92 25 93 26 94 27 21 28 22 29 23 30 24 31 25 32 26 34 27 35
REMARK SMILES IDX 28 36 89 37 29 38 88 39 30 40 31 41 32 42 82 43 33 44 87 45
REMARK SMILES IDX 81 46 83 47 34 48 86 49 80 50 79 51 35 53 67 54 47 55 66 56
REMARK SMILES IDX 48 57 51 58 65 59 84 60 49 61 50 62 64 64 85 65 52 66 36 67
REMARK SMILES IDX 37 68 45 69 38 70 40 71 46 72 39 73 41 74 42 75 43 76 44 77
REMARK SMILES IDX 68 78 69 79 77 80 70 81 72 82 78 83 71 84 73 85 74 86 75 87
REMARK SMILES IDX 76 88 53 89 54 90 62 91 55 92 57 93 63 94 56 95 58 96 59 97
REMARK SMILES IDX 60 98 61 99
REMARK H PARENT 17 7 24 33 83 52 51 63
REMARK Flexibility Score: inf
ROOT
ATOM      1  C   UNL A   1      35.989  34.300  31.258  1.00  0.00     0.002 C 
ENDROOT
BRANCH   1   2
ATOM      2  C   UNL A   1      37.263  33.660  30.704  1.00  0.00     0.021 C 
BRANCH   2   3
ATOM      3  C   UNL A   1      37.412  33.701  29.187  1.00  0.00     0.116 C 
BRANCH   3   4
ATOM      4  N   UNL A   1      36.539  32.762  28.502  1.00  0.00    -0.352 N 
ATOM      5  C   UNL A   1      36.551  31.430  28.246  1.00  0.00     0.251 C 
ATOM      6  O   UNL A   1      35.573  30.991  27.633  1.00  0.00    -0.270 OA
ATOM      7  H   UNL A   1      35.740  33.203  28.131  1.00  0.00     0.163 HD
BRANCH   5   8
ATOM      8  C   UNL A   1      37.649  30.492  28.640  1.00  0.00     0.067 C 
ATOM      9  C   UNL A   1      41.709  27.468  28.533  1.00  0.00     0.030 A 
ATOM     10  C   UNL A   1      40.880  27.993  29.521  1.00  0.00     0.063 A 
ATOM     11  C   UNL A   1      41.299  27.645  27.195  1.00  0.00     0.055 A 
ATOM     12  C   UNL A   1      39.780  28.786  29.207  1.00  0.00     0.129 A 
ATOM     13  C   UNL A   1      40.153  28.401  26.880  1.00  0.00     0.033 A 
ATOM     14  Cl  UNL A   1      42.170  26.968  25.857  1.00  0.00    -0.083 Cl
ATOM     15  C   UNL A   1      39.410  29.012  27.892  1.00  0.00     0.019 A 
ATOM     16  O   UNL A   1      39.166  29.342  30.281  1.00  0.00    -0.475 OA
ATOM     17  C   UNL A   1      38.300  29.910  27.613  1.00  0.00     0.025 C 
ATOM     18  C   UNL A   1      38.002  30.175  30.070  1.00  0.00     0.314 C 
BRANCH   9  19
ATOM     19  S   UNL A   1      43.269  26.674  28.949  1.00  0.00    -0.124 SA
BRANCH  19  20
ATOM     20  C   UNL A   1      43.209  24.997  28.192  1.00  0.00     0.078 C 
BRANCH  20  21
ATOM     21  C   UNL A   1      42.099  24.046  28.692  1.00  0.00    -0.007 C 
ATOM     22  C   UNL A   1      40.807  24.042  27.873  1.00  0.00     0.008 C 
ATOM     23  C   UNL A   1      42.652  22.614  28.723  1.00  0.00     0.008 C 
ENDBRANCH  20  21
ENDBRANCH  19  20
ENDBRANCH   9  19
BRANCH  18  24
ATOM     24  C   UNL A   1      36.859  29.540  30.876  1.00  0.00     0.429 C 
ATOM     25  F   UNL A   1      35.969  28.952  30.038  1.00  0.00    -0.167 F 
ATOM     26  F   UNL A   1      37.277  28.582  31.728  1.00  0.00    -0.167 F 
ATOM     27  F   UNL A   1      36.186  30.458  31.606  1.00  0.00    -0.167 F 
ENDBRANCH  18  24
ENDBRANCH   5   8
ENDBRANCH   3   4
ENDBRANCH   2   3
ENDBRANCH   1   2
BRANCH   1  28
ATOM     28  C   UNL A   1      34.898  33.334  31.734  1.00  0.00     0.002 C 
BRANCH  28  29
ATOM     29  C   UNL A   1      34.259  33.646  33.088  1.00  0.00     0.021 C 
BRANCH  29  30
ATOM     30  C   UNL A   1      34.896  34.786  33.872  1.00  0.00     0.116 C 
BRANCH  30  31
ATOM     31  N   UNL A   1      35.156  34.450  35.262  1.00  0.00    -0.352 N 
ATOM     32  C   UNL A   1      36.213  33.745  35.797  1.00  0.00     0.251 C 
ATOM     33  H   UNL A   1      34.487  34.770  35.908  1.00  0.00     0.163 HD
ATOM     34  O   UNL A   1      36.220  33.453  36.985  1.00  0.00    -0.269 OA
BRANCH  32  35
ATOM     35  C   UNL A   1      37.313  33.311  34.907  1.00  0.00     0.039 A 
ATOM     36  C   UNL A   1      37.223  32.111  34.197  1.00  0.00     0.014 A 
ATOM     37  C   UNL A   1      38.470  34.090  34.830  1.00  0.00     0.014 A 
ATOM     38  C   UNL A   1      38.346  31.611  33.546  1.00  0.00     0.010 A 
ATOM     39  C   UNL A   1      39.575  33.618  34.114  1.00  0.00     0.010 A 
ATOM     40  C   UNL A   1      39.540  32.351  33.511  1.00  0.00    -0.014 A 
BRANCH  40  41
ATOM     41  C   UNL A   1      40.746  31.778  32.858  1.00  0.00     0.031 A 
ATOM     42  C   UNL A   1      41.420  32.497  31.720  1.00  0.00     0.074 A 
ATOM     43  C   UNL A   1      41.257  30.618  33.315  1.00  0.00     0.049 A 
ATOM     44  N   UNL A   1      42.473  32.138  31.031  1.00  0.00    -0.248 NA
ATOM     45  C   UNL A   1      40.842  33.784  31.297  1.00  0.00     0.031 C 
ATOM     46  C   UNL A   1      40.693  29.820  34.406  1.00  0.00     0.029 A 
ATOM     47  N   UNL A   1      42.367  29.911  32.926  1.00  0.00    -0.354 N 
ATOM     48  C   UNL A   1      42.656  33.124  30.069  1.00  0.00     0.074 A 
ATOM     49  C   UNL A   1      41.609  34.102  30.261  1.00  0.00     0.031 C 
ATOM     50  C   UNL A   1      41.476  28.754  34.621  1.00  0.00     0.029 A 
ATOM     51  C   UNL A   1      42.568  28.763  33.654  1.00  0.00     0.049 A 
ATOM     52  H   UNL A   1      42.961  30.199  32.196  1.00  0.00     0.167 HD
ATOM     53  C   UNL A   1      43.622  33.217  29.125  1.00  0.00     0.034 A 
ATOM     54  C   UNL A   1      43.518  27.813  33.548  1.00  0.00     0.034 A 
ATOM     55  C   UNL A   1      44.700  32.279  28.969  1.00  0.00     0.049 A 
ATOM     56  C   UNL A   1      44.577  27.942  32.495  1.00  0.00     0.074 A 
ATOM     57  C   UNL A   1      45.753  32.325  28.073  1.00  0.00     0.029 A 
ATOM     58  N   UNL A   1      44.868  31.133  29.728  1.00  0.00    -0.354 N 
ATOM     59  N   UNL A   1      44.773  28.920  31.644  1.00  0.00    -0.248 NA
ATOM     60  C   UNL A   1      45.552  26.846  32.389  1.00  0.00     0.031 C 
ATOM     61  C   UNL A   1      46.559  31.204  28.288  1.00  0.00     0.029 A 
ATOM     62  C   UNL A   1      46.007  30.461  29.319  1.00  0.00     0.049 A 
ATOM     63  H   UNL A   1      44.268  30.840  30.451  1.00  0.00     0.167 HD
ATOM     64  C   UNL A   1      45.891  28.560  30.903  1.00  0.00     0.074 A 
ATOM     65  C   UNL A   1      46.349  27.287  31.423  1.00  0.00     0.031 C 
ATOM     66  C   UNL A   1      46.472  29.215  29.871  1.00  0.00     0.034 A 
BRANCH  53  67
ATOM     67  C   UNL A   1      43.601  34.408  28.207  1.00  0.00     0.023 A 
ATOM     68  C   UNL A   1      43.048  34.272  26.918  1.00  0.00     0.012 A 
ATOM     69  C   UNL A   1      44.026  35.674  28.652  1.00  0.00     0.148 A 
ATOM     70  C   UNL A   1      42.926  35.379  26.081  1.00  0.00     0.002 A 
ATOM     71  C   UNL A   1      43.877  36.779  27.820  1.00  0.00     0.091 A 
ATOM     72  F   UNL A   1      44.559  35.774  29.877  1.00  0.00    -0.205 F 
ATOM     73  C   UNL A   1      43.331  36.633  26.535  1.00  0.00     0.022 A 
BRANCH  71  74
ATOM     74  S   UNL A   1      44.318  38.446  28.325  1.00  0.00     0.127 S 
ATOM     75  O   UNL A   1      43.468  38.633  29.499  1.00  0.00    -0.237 OA
ATOM     76  O   UNL A   1      45.744  38.309  28.620  1.00  0.00    -0.237 OA
ATOM     77  O   UNL A   1      44.006  39.307  27.192  1.00  0.00    -0.744 OA
ENDBRANCH  71  74
ENDBRANCH  53  67
BRANCH  54  78
ATOM     78  C   UNL A   1      43.515  26.676  34.508  1.00  0.00     0.023 A 
ATOM     79  C   UNL A   1      43.064  25.415  34.076  1.00  0.00     0.012 A 
ATOM     80  C   UNL A   1      44.035  26.818  35.808  1.00  0.00     0.148 A 
ATOM     81  C   UNL A   1      43.130  24.311  34.927  1.00  0.00     0.002 A 
ATOM     82  C   UNL A   1      44.140  25.706  36.634  1.00  0.00     0.091 A 
ATOM     83  F   UNL A   1      44.450  28.034  36.194  1.00  0.00    -0.205 F 
ATOM     84  C   UNL A   1      43.680  24.453  36.199  1.00  0.00     0.022 A 
BRANCH  82  85
ATOM     85  S   UNL A   1      44.941  25.766  38.240  1.00  0.00     0.127 S 
ATOM     86  O   UNL A   1      46.263  26.282  37.895  1.00  0.00    -0.237 OA
ATOM     87  O   UNL A   1      44.084  26.704  38.966  1.00  0.00    -0.237 OA
ATOM     88  O   UNL A   1      44.912  24.402  38.749  1.00  0.00    -0.744 OA
ENDBRANCH  82  85
ENDBRANCH  54  78
BRANCH  66  89
ATOM     89  C   UNL A   1      47.662  28.577  29.213  1.00  0.00     0.023 A 
ATOM     90  C   UNL A   1      48.948  28.845  29.718  1.00  0.00     0.012 A 
ATOM     91  C   UNL A   1      47.500  27.632  28.181  1.00  0.00     0.148 A 
ATOM     92  C   UNL A   1      50.062  28.187  29.200  1.00  0.00     0.002 A 
ATOM     93  C   UNL A   1      48.612  26.957  27.691  1.00  0.00     0.091 A 
ATOM     94  F   UNL A   1      46.265  27.404  27.712  1.00  0.00    -0.205 F 
ATOM     95  C   UNL A   1      49.892  27.236  28.196  1.00  0.00     0.022 A 
BRANCH  93  96
ATOM     96  S   UNL A   1      48.488  25.665  26.449  1.00  0.00     0.127 S 
ATOM     97  O   UNL A   1      49.597  26.002  25.557  1.00  0.00    -0.237 OA
ATOM     98  O   UNL A   1      48.689  24.453  27.242  1.00  0.00    -0.237 OA
ATOM     99  O   UNL A   1      47.160  25.793  25.864  1.00  0.00    -0.744 OA
ENDBRANCH  93  96
ENDBRANCH  66  89
ENDBRANCH  40  41
ENDBRANCH  32  35
ENDBRANCH  30  31
ENDBRANCH  29  30
ENDBRANCH  28  29
ENDBRANCH   1  28
TORSDOF 20
ENDMDL
