MODEL 1
REMARK VINA RESULT:     -12.3      0.000      0.000
REMARK SMILES CC(C)c1cc(N2CCC(C(=O)NCCCCCCNC(=O)c3ccc(-c4c5nc(c(-c6cccc(S(=O)(=O)[O-])c6F)c6ccc([nH]6)c(-c6cccc(S(=O)(=O)[O-])c6F)c6nc(c(-c7cccc(S(=O)(=O)[O-])c7F)c7ccc4[nH]7)C=C6)C=C5)cc3)CC2)nc(-c2ccc(F)cc2)n1
REMARK SMILES IDX 17 1 16 2 15 3 14 4 13 5 11 6 12 7 10 9 7 10 8 11 87 12 9 13
REMARK SMILES IDX 86 14 6 15 4 16 5 17 97 18 89 19 88 20 2 21 1 22 3 23 90 24
REMARK SMILES IDX 91 25 96 26 92 27 95 28 93 29 94 30 18 31 19 32 20 33 21 34
REMARK SMILES IDX 22 36 23 37 24 38 85 39 25 40 84 41 26 42 27 43 28 44 78 45
REMARK SMILES IDX 29 46 83 47 77 48 79 49 30 50 82 51 76 52 75 53 31 55 63 56
REMARK SMILES IDX 43 57 62 58 44 59 47 60 61 61 80 62 45 63 46 64 60 66 81 67
REMARK SMILES IDX 48 68 32 69 33 70 41 71 34 72 36 73 42 74 35 75 37 76 38 77
REMARK SMILES IDX 39 78 40 79 64 80 65 81 73 82 66 83 68 84 74 85 67 86 69 87
REMARK SMILES IDX 70 88 71 89 72 90 49 91 50 92 58 93 51 94 53 95 59 96 52 97
REMARK SMILES IDX 54 98 55 99 56 100 57 101
REMARK H PARENT 13 8 20 35 79 54 47 65
REMARK Flexibility Score: inf
ROOT
ATOM      1  C   UNL A   1      31.522  29.223  25.977  1.00  0.00     0.002 C 
ENDROOT
BRANCH   1   2
ATOM      2  C   UNL A   1      31.318  29.304  24.461  1.00  0.00     0.002 C 
BRANCH   2   3
ATOM      3  C   UNL A   1      30.223  28.388  23.908  1.00  0.00     0.021 C 
BRANCH   3   4
ATOM      4  C   UNL A   1      30.385  28.042  22.429  1.00  0.00     0.116 C 
BRANCH   4   5
ATOM      5  N   UNL A   1      31.790  27.996  22.044  1.00  0.00    -0.356 N 
ATOM      6  C   UNL A   1      32.689  26.974  22.100  1.00  0.00     0.223 C 
ATOM      7  O   UNL A   1      33.847  27.194  21.736  1.00  0.00    -0.275 OA
ATOM      8  H   UNL A   1      32.148  28.840  21.686  1.00  0.00     0.163 HD
BRANCH   6   9
ATOM      9  C   UNL A   1      32.284  25.589  22.586  1.00  0.00     0.082 C 
ATOM     10  N   UNL A   1      33.485  23.240  23.551  1.00  0.00    -0.356 N 
ATOM     11  C   UNL A   1      32.882  23.126  22.236  1.00  0.00     0.119 C 
ATOM     12  C   UNL A   1      32.738  23.983  24.544  1.00  0.00     0.119 C 
ATOM     13  C   UNL A   1      32.795  24.509  21.617  1.00  0.00     0.035 C 
ATOM     14  C   UNL A   1      32.638  25.430  24.080  1.00  0.00     0.035 C 
BRANCH  10  15
ATOM     15  C   UNL A   1      34.319  22.204  23.917  1.00  0.00     0.132 A 
ATOM     16  C   UNL A   1      36.414  21.342  24.596  1.00  0.00     0.049 A 
ATOM     17  C   UNL A   1      35.669  22.409  24.132  1.00  0.00     0.071 A 
ATOM     18  N   UNL A   1      35.851  20.138  24.817  1.00  0.00    -0.233 NA
ATOM     19  C   UNL A   1      34.543  20.012  24.534  1.00  0.00     0.161 A 
ATOM     20  N   UNL A   1      33.745  21.008  24.113  1.00  0.00    -0.211 NA
BRANCH  16  21
ATOM     21  C   UNL A   1      37.890  21.447  24.931  1.00  0.00     0.032 C 
ATOM     22  C   UNL A   1      38.232  22.415  26.068  1.00  0.00     0.014 C 
ATOM     23  C   UNL A   1      38.445  20.054  25.243  1.00  0.00     0.014 C 
ENDBRANCH  16  21
BRANCH  19  24
ATOM     24  C   UNL A   1      33.942  18.686  24.693  1.00  0.00     0.019 A 
ATOM     25  C   UNL A   1      34.379  17.592  23.924  1.00  0.00     0.015 A 
ATOM     26  C   UNL A   1      32.893  18.478  25.610  1.00  0.00     0.015 A 
ATOM     27  C   UNL A   1      33.799  16.329  24.078  1.00  0.00     0.040 A 
ATOM     28  C   UNL A   1      32.299  17.220  25.751  1.00  0.00     0.040 A 
ATOM     29  C   UNL A   1      32.765  16.156  24.991  1.00  0.00     0.123 A 
ATOM     30  F   UNL A   1      32.215  14.945  25.146  1.00  0.00    -0.207 F 
ENDBRANCH  19  24
ENDBRANCH  10  15
ENDBRANCH   6   9
ENDBRANCH   4   5
ENDBRANCH   3   4
ENDBRANCH   2   3
ENDBRANCH   1   2
BRANCH   1  31
ATOM     31  C   UNL A   1      32.467  28.114  26.445  1.00  0.00     0.021 C 
BRANCH  31  32
ATOM     32  C   UNL A   1      33.587  28.582  27.366  1.00  0.00     0.116 C 
BRANCH  32  33
ATOM     33  N   UNL A   1      33.643  30.033  27.461  1.00  0.00    -0.352 N 
ATOM     34  C   UNL A   1      34.613  30.824  28.022  1.00  0.00     0.251 C 
ATOM     35  H   UNL A   1      32.878  30.513  27.070  1.00  0.00     0.163 HD
ATOM     36  O   UNL A   1      34.402  32.024  28.196  1.00  0.00    -0.269 OA
BRANCH  34  37
ATOM     37  C   UNL A   1      35.901  30.228  28.431  1.00  0.00     0.039 A 
ATOM     38  C   UNL A   1      36.969  30.238  27.531  1.00  0.00     0.014 A 
ATOM     39  C   UNL A   1      36.054  29.659  29.699  1.00  0.00     0.014 A 
ATOM     40  C   UNL A   1      38.206  29.722  27.922  1.00  0.00     0.010 A 
ATOM     41  C   UNL A   1      37.308  29.220  30.114  1.00  0.00     0.010 A 
ATOM     42  C   UNL A   1      38.394  29.235  29.226  1.00  0.00    -0.014 A 
BRANCH  42  43
ATOM     43  C   UNL A   1      39.717  28.727  29.676  1.00  0.00     0.031 A 
ATOM     44  C   UNL A   1      40.481  29.461  30.747  1.00  0.00     0.074 A 
ATOM     45  C   UNL A   1      40.257  27.647  29.076  1.00  0.00     0.049 A 
ATOM     46  N   UNL A   1      41.670  29.209  31.230  1.00  0.00    -0.248 NA
ATOM     47  C   UNL A   1      39.833  30.643  31.342  1.00  0.00     0.031 C 
ATOM     48  C   UNL A   1      39.642  26.888  27.983  1.00  0.00     0.029 A 
ATOM     49  N   UNL A   1      41.457  27.015  29.282  1.00  0.00    -0.354 N 
ATOM     50  C   UNL A   1      41.924  30.212  32.159  1.00  0.00     0.074 A 
ATOM     51  C   UNL A   1      40.782  31.098  32.148  1.00  0.00     0.031 C 
ATOM     52  C   UNL A   1      40.469  25.895  27.618  1.00  0.00     0.029 A 
ATOM     53  C   UNL A   1      41.684  25.965  28.423  1.00  0.00     0.049 A 
ATOM     54  H   UNL A   1      42.096  27.288  29.980  1.00  0.00     0.167 HD
ATOM     55  C   UNL A   1      42.996  30.364  32.972  1.00  0.00     0.034 A 
ATOM     56  C   UNL A   1      42.757  25.161  28.288  1.00  0.00     0.034 A 
ATOM     57  C   UNL A   1      44.117  29.464  33.003  1.00  0.00     0.049 A 
ATOM     58  C   UNL A   1      43.931  25.351  29.213  1.00  0.00     0.074 A 
ATOM     59  C   UNL A   1      45.225  29.499  33.831  1.00  0.00     0.029 A 
ATOM     60  N   UNL A   1      44.275  28.369  32.169  1.00  0.00    -0.354 N 
ATOM     61  N   UNL A   1      44.088  26.220  30.181  1.00  0.00    -0.248 NA
ATOM     62  C   UNL A   1      45.060  24.423  29.052  1.00  0.00     0.031 C 
ATOM     63  C   UNL A   1      46.065  28.438  33.481  1.00  0.00     0.029 A 
ATOM     64  C   UNL A   1      45.461  27.720  32.461  1.00  0.00     0.049 A 
ATOM     65  H   UNL A   1      43.637  28.093  31.472  1.00  0.00     0.167 HD
ATOM     66  C   UNL A   1      45.308  25.914  30.774  1.00  0.00     0.074 A 
ATOM     67  C   UNL A   1      45.837  24.766  30.070  1.00  0.00     0.031 C 
ATOM     68  C   UNL A   1      45.941  26.536  31.798  1.00  0.00     0.034 A 
BRANCH  55  69
ATOM     69  C   UNL A   1      42.985  31.513  33.947  1.00  0.00     0.023 A 
ATOM     70  C   UNL A   1      43.500  32.763  33.547  1.00  0.00     0.012 A 
ATOM     71  C   UNL A   1      42.392  31.384  35.219  1.00  0.00     0.148 A 
ATOM     72  C   UNL A   1      43.448  33.861  34.404  1.00  0.00     0.002 A 
ATOM     73  C   UNL A   1      42.302  32.495  36.050  1.00  0.00     0.091 A 
ATOM     74  F   UNL A   1      41.921  30.185  35.585  1.00  0.00    -0.205 F 
ATOM     75  C   UNL A   1      42.840  33.730  35.649  1.00  0.00     0.022 A 
BRANCH  73  76
ATOM     76  S   UNL A   1      41.467  32.457  37.640  1.00  0.00     0.127 S 
ATOM     77  O   UNL A   1      42.280  31.489  38.377  1.00  0.00    -0.237 OA
ATOM     78  O   UNL A   1      41.610  33.841  38.092  1.00  0.00    -0.237 OA
ATOM     79  O   UNL A   1      40.099  32.039  37.370  1.00  0.00    -0.744 OA
ENDBRANCH  73  76
ENDBRANCH  55  69
BRANCH  56  80
ATOM     80  C   UNL A   1      42.766  24.070  27.270  1.00  0.00     0.023 A 
ATOM     81  C   UNL A   1      43.250  24.336  25.972  1.00  0.00     0.012 A 
ATOM     82  C   UNL A   1      42.279  22.783  27.568  1.00  0.00     0.148 A 
ATOM     83  C   UNL A   1      43.194  23.359  24.978  1.00  0.00     0.002 A 
ATOM     84  C   UNL A   1      42.282  21.796  26.587  1.00  0.00     0.091 A 
ATOM     85  F   UNL A   1      41.814  22.548  28.802  1.00  0.00    -0.205 F 
ATOM     86  C   UNL A   1      42.717  22.088  25.286  1.00  0.00     0.022 A 
BRANCH  84  87
ATOM     87  S   UNL A   1      41.808  20.099  26.935  1.00  0.00     0.127 S 
ATOM     88  O   UNL A   1      42.899  19.654  27.797  1.00  0.00    -0.237 OA
ATOM     89  O   UNL A   1      40.522  20.274  27.609  1.00  0.00    -0.237 OA
ATOM     90  O   UNL A   1      41.717  19.446  25.636  1.00  0.00    -0.744 OA
ENDBRANCH  84  87
ENDBRANCH  56  80
BRANCH  68  91
ATOM     91  C   UNL A   1      47.247  25.953  32.272  1.00  0.00     0.023 A 
ATOM     92  C   UNL A   1      48.463  26.388  31.708  1.00  0.00     0.012 A 
ATOM     93  C   UNL A   1      47.269  25.023  33.331  1.00  0.00     0.148 A 
ATOM     94  C   UNL A   1      49.677  25.877  32.164  1.00  0.00     0.002 A 
ATOM     95  C   UNL A   1      48.485  24.560  33.816  1.00  0.00     0.091 A 
ATOM     96  F   UNL A   1      46.100  24.610  33.843  1.00  0.00    -0.205 F 
ATOM     97  C   UNL A   1      49.689  24.974  33.224  1.00  0.00     0.022 A 
BRANCH  95  98
ATOM     98  S   UNL A   1      48.603  23.475  35.243  1.00  0.00     0.127 S 
ATOM     99  O   UNL A   1      47.932  24.266  36.273  1.00  0.00    -0.237 OA
ATOM    100  O   UNL A   1      47.858  22.298  34.797  1.00  0.00    -0.237 OA
ATOM    101  O   UNL A   1      50.025  23.247  35.461  1.00  0.00    -0.744 OA
ENDBRANCH  95  98
ENDBRANCH  68  91
ENDBRANCH  42  43
ENDBRANCH  34  37
ENDBRANCH  32  33
ENDBRANCH  31  32
ENDBRANCH   1  31
TORSDOF 19
ENDMDL
MODEL 2
REMARK VINA RESULT:     -12.2      5.343     10.477
REMARK SMILES CC(C)c1cc(N2CCC(C(=O)NCCCCCCNC(=O)c3ccc(-c4c5nc(c(-c6cccc(S(=O)(=O)[O-])c6F)c6ccc([nH]6)c(-c6cccc(S(=O)(=O)[O-])c6F)c6nc(c(-c7cccc(S(=O)(=O)[O-])c7F)c7ccc4[nH]7)C=C6)C=C5)cc3)CC2)nc(-c2ccc(F)cc2)n1
REMARK SMILES IDX 17 1 16 2 15 3 14 4 13 5 11 6 12 7 10 9 7 10 8 11 87 12 9 13
REMARK SMILES IDX 86 14 6 15 4 16 5 17 97 18 89 19 88 20 2 21 1 22 3 23 90 24
REMARK SMILES IDX 91 25 96 26 92 27 95 28 93 29 94 30 18 31 19 32 20 33 21 34
REMARK SMILES IDX 22 36 23 37 24 38 85 39 25 40 84 41 26 42 27 43 28 44 78 45
REMARK SMILES IDX 29 46 83 47 77 48 79 49 30 50 82 51 76 52 75 53 31 55 63 56
REMARK SMILES IDX 43 57 62 58 44 59 47 60 61 61 80 62 45 63 46 64 60 66 81 67
REMARK SMILES IDX 48 68 32 69 33 70 41 71 34 72 36 73 42 74 35 75 37 76 38 77
REMARK SMILES IDX 39 78 40 79 64 80 65 81 73 82 66 83 68 84 74 85 67 86 69 87
REMARK SMILES IDX 70 88 71 89 72 90 49 91 50 92 58 93 51 94 53 95 59 96 52 97
REMARK SMILES IDX 54 98 55 99 56 100 57 101
REMARK H PARENT 13 8 20 35 79 54 47 65
REMARK Flexibility Score: inf
ROOT
ATOM      1  C   UNL A   1      35.445  23.034  23.757  1.00  0.00     0.002 C 
ENDROOT
BRANCH   1   2
ATOM      2  C   UNL A   1      35.098  24.171  24.724  1.00  0.00     0.002 C 
BRANCH   2   3
ATOM      3  C   UNL A   1      34.985  23.756  26.194  1.00  0.00     0.021 C 
BRANCH   3   4
ATOM      4  C   UNL A   1      33.556  23.486  26.659  1.00  0.00     0.116 C 
BRANCH   4   5
ATOM      5  N   UNL A   1      33.068  22.203  26.165  1.00  0.00    -0.356 N 
ATOM      6  C   UNL A   1      31.954  21.901  25.443  1.00  0.00     0.223 C 
ATOM      7  O   UNL A   1      31.741  20.717  25.167  1.00  0.00    -0.275 OA
ATOM      8  H   UNL A   1      33.635  21.431  26.392  1.00  0.00     0.163 HD
BRANCH   6   9
ATOM      9  C   UNL A   1      30.995  22.986  24.973  1.00  0.00     0.082 C 
ATOM     10  N   UNL A   1      30.823  25.790  24.915  1.00  0.00    -0.356 N 
ATOM     11  C   UNL A   1      29.890  25.135  25.814  1.00  0.00     0.119 C 
ATOM     12  C   UNL A   1      31.013  25.174  23.619  1.00  0.00     0.119 C 
ATOM     13  C   UNL A   1      30.439  23.768  26.177  1.00  0.00     0.035 C 
ATOM     14  C   UNL A   1      31.639  23.801  23.832  1.00  0.00     0.035 C 
BRANCH  10  15
ATOM     15  C   UNL A   1      30.955  27.152  25.080  1.00  0.00     0.132 A 
ATOM     16  C   UNL A   1      31.934  29.054  26.090  1.00  0.00     0.049 A 
ATOM     17  C   UNL A   1      31.777  27.682  26.058  1.00  0.00     0.071 A 
ATOM     18  N   UNL A   1      31.296  29.853  25.211  1.00  0.00    -0.233 NA
ATOM     19  C   UNL A   1      30.477  29.259  24.327  1.00  0.00     0.161 A 
ATOM     20  N   UNL A   1      30.298  27.933  24.210  1.00  0.00    -0.211 NA
BRANCH  16  21
ATOM     21  C   UNL A   1      32.853  29.759  27.070  1.00  0.00     0.032 C 
ATOM     22  C   UNL A   1      34.337  29.399  26.944  1.00  0.00     0.014 C 
ATOM     23  C   UNL A   1      32.668  31.274  26.946  1.00  0.00     0.014 C 
ENDBRANCH  16  21
BRANCH  19  24
ATOM     24  C   UNL A   1      29.717  30.126  23.423  1.00  0.00     0.019 A 
ATOM     25  C   UNL A   1      29.225  31.372  23.852  1.00  0.00     0.015 A 
ATOM     26  C   UNL A   1      29.443  29.721  22.101  1.00  0.00     0.015 A 
ATOM     27  C   UNL A   1      28.498  32.193  22.985  1.00  0.00     0.040 A 
ATOM     28  C   UNL A   1      28.699  30.533  21.240  1.00  0.00     0.040 A 
ATOM     29  C   UNL A   1      28.243  31.765  21.688  1.00  0.00     0.123 A 
ATOM     30  F   UNL A   1      27.554  32.555  20.853  1.00  0.00    -0.207 F 
ENDBRANCH  19  24
ENDBRANCH  10  15
ENDBRANCH   6   9
ENDBRANCH   4   5
ENDBRANCH   3   4
ENDBRANCH   2   3
ENDBRANCH   1   2
BRANCH   1  31
ATOM     31  C   UNL A   1      36.079  21.803  24.409  1.00  0.00     0.021 C 
BRANCH  31  32
ATOM     32  C   UNL A   1      37.603  21.771  24.354  1.00  0.00     0.116 C 
BRANCH  32  33
ATOM     33  N   UNL A   1      38.157  20.725  25.200  1.00  0.00    -0.352 N 
ATOM     34  C   UNL A   1      39.168  20.806  26.121  1.00  0.00     0.251 C 
ATOM     35  H   UNL A   1      37.750  19.835  25.094  1.00  0.00     0.163 HD
ATOM     36  O   UNL A   1      39.647  19.779  26.601  1.00  0.00    -0.269 OA
BRANCH  34  37
ATOM     37  C   UNL A   1      39.692  22.128  26.522  1.00  0.00     0.039 A 
ATOM     38  C   UNL A   1      40.853  22.191  27.296  1.00  0.00     0.014 A 
ATOM     39  C   UNL A   1      39.038  23.303  26.137  1.00  0.00     0.014 A 
ATOM     40  C   UNL A   1      41.386  23.435  27.641  1.00  0.00     0.010 A 
ATOM     41  C   UNL A   1      39.615  24.539  26.412  1.00  0.00     0.010 A 
ATOM     42  C   UNL A   1      40.788  24.618  27.178  1.00  0.00    -0.014 A 
BRANCH  42  43
ATOM     43  C   UNL A   1      41.370  25.950  27.493  1.00  0.00     0.031 A 
ATOM     44  C   UNL A   1      42.773  26.280  27.060  1.00  0.00     0.074 A 
ATOM     45  C   UNL A   1      40.659  26.833  28.224  1.00  0.00     0.049 A 
ATOM     46  N   UNL A   1      43.474  27.361  27.290  1.00  0.00    -0.248 NA
ATOM     47  C   UNL A   1      43.493  25.258  26.281  1.00  0.00     0.031 C 
ATOM     48  C   UNL A   1      39.312  26.605  28.754  1.00  0.00     0.029 A 
ATOM     49  N   UNL A   1      40.979  28.091  28.668  1.00  0.00    -0.354 N 
ATOM     50  C   UNL A   1      44.719  27.137  26.713  1.00  0.00     0.074 A 
ATOM     51  C   UNL A   1      44.693  25.805  26.153  1.00  0.00     0.031 C 
ATOM     52  C   UNL A   1      38.924  27.686  29.450  1.00  0.00     0.029 A 
ATOM     53  C   UNL A   1      40.003  28.668  29.446  1.00  0.00     0.049 A 
ATOM     54  H   UNL A   1      41.830  28.538  28.450  1.00  0.00     0.167 HD
ATOM     55  C   UNL A   1      45.778  27.977  26.628  1.00  0.00     0.034 A 
ATOM     56  C   UNL A   1      39.986  29.849  30.095  1.00  0.00     0.034 A 
ATOM     57  C   UNL A   1      45.791  29.313  27.160  1.00  0.00     0.049 A 
ATOM     58  C   UNL A   1      41.177  30.764  29.975  1.00  0.00     0.074 A 
ATOM     59  C   UNL A   1      46.793  30.263  27.075  1.00  0.00     0.029 A 
ATOM     60  N   UNL A   1      44.754  29.889  27.876  1.00  0.00    -0.354 N 
ATOM     61  N   UNL A   1      42.290  30.589  29.304  1.00  0.00    -0.248 NA
ATOM     62  C   UNL A   1      41.094  32.057  30.668  1.00  0.00     0.031 C 
ATOM     63  C   UNL A   1      46.372  31.405  27.761  1.00  0.00     0.029 A 
ATOM     64  C   UNL A   1      45.091  31.180  28.240  1.00  0.00     0.049 A 
ATOM     65  H   UNL A   1      43.902  29.445  28.094  1.00  0.00     0.167 HD
ATOM     66  C   UNL A   1      43.015  31.765  29.456  1.00  0.00     0.074 A 
ATOM     67  C   UNL A   1      42.207  32.653  30.263  1.00  0.00     0.031 C 
ATOM     68  C   UNL A   1      44.247  32.078  28.984  1.00  0.00     0.034 A 
BRANCH  55  69
ATOM     69  C   UNL A   1      46.996  27.504  25.878  1.00  0.00     0.023 A 
ATOM     70  C   UNL A   1      47.925  26.667  26.527  1.00  0.00     0.012 A 
ATOM     71  C   UNL A   1      47.177  27.811  24.515  1.00  0.00     0.148 A 
ATOM     72  C   UNL A   1      49.029  26.162  25.842  1.00  0.00     0.002 A 
ATOM     73  C   UNL A   1      48.255  27.267  23.826  1.00  0.00     0.091 A 
ATOM     74  F   UNL A   1      46.290  28.620  23.919  1.00  0.00    -0.205 F 
ATOM     75  C   UNL A   1      49.188  26.453  24.490  1.00  0.00     0.022 A 
BRANCH  73  76
ATOM     76  S   UNL A   1      48.509  27.511  22.064  1.00  0.00     0.127 S 
ATOM     77  O   UNL A   1      49.745  28.293  22.049  1.00  0.00    -0.237 OA
ATOM     78  O   UNL A   1      48.652  26.136  21.584  1.00  0.00    -0.237 OA
ATOM     79  O   UNL A   1      47.329  28.210  21.577  1.00  0.00    -0.744 OA
ENDBRANCH  73  76
ENDBRANCH  55  69
BRANCH  56  80
ATOM     80  C   UNL A   1      38.790  30.266  30.885  1.00  0.00     0.023 A 
ATOM     81  C   UNL A   1      38.646  29.819  32.214  1.00  0.00     0.012 A 
ATOM     82  C   UNL A   1      37.786  31.078  30.324  1.00  0.00     0.148 A 
ATOM     83  C   UNL A   1      37.500  30.124  32.948  1.00  0.00     0.002 A 
ATOM     84  C   UNL A   1      36.674  31.428  31.082  1.00  0.00     0.091 A 
ATOM     85  F   UNL A   1      37.932  31.487  29.056  1.00  0.00    -0.205 F 
ATOM     86  C   UNL A   1      36.517  30.934  32.385  1.00  0.00     0.022 A 
BRANCH  84  87
ATOM     87  S   UNL A   1      35.426  32.572  30.480  1.00  0.00     0.127 S 
ATOM     88  O   UNL A   1      34.968  31.903  29.265  1.00  0.00    -0.237 OA
ATOM     89  O   UNL A   1      34.463  32.578  31.581  1.00  0.00    -0.237 OA
ATOM     90  O   UNL A   1      36.119  33.839  30.287  1.00  0.00    -0.744 OA
ENDBRANCH  84  87
ENDBRANCH  56  80
BRANCH  68  91
ATOM     91  C   UNL A   1      44.775  33.460  29.265  1.00  0.00     0.023 A 
ATOM     92  C   UNL A   1      45.604  33.687  30.381  1.00  0.00     0.012 A 
ATOM     93  C   UNL A   1      44.505  34.520  28.376  1.00  0.00     0.148 A 
ATOM     94  C   UNL A   1      46.124  34.957  30.630  1.00  0.00     0.002 A 
ATOM     95  C   UNL A   1      45.071  35.768  28.601  1.00  0.00     0.091 A 
ATOM     96  F   UNL A   1      43.701  34.286  27.328  1.00  0.00    -0.205 F 
ATOM     97  C   UNL A   1      45.868  35.993  29.735  1.00  0.00     0.022 A 
BRANCH  95  98
ATOM     98  S   UNL A   1      44.881  37.133  27.449  1.00  0.00     0.127 S 
ATOM     99  O   UNL A   1      46.003  36.912  26.538  1.00  0.00    -0.237 OA
ATOM    100  O   UNL A   1      43.564  36.866  26.870  1.00  0.00    -0.237 OA
ATOM    101  O   UNL A   1      44.957  38.349  28.247  1.00  0.00    -0.744 OA
ENDBRANCH  95  98
ENDBRANCH  68  91
ENDBRANCH  42  43
ENDBRANCH  34  37
ENDBRANCH  32  33
ENDBRANCH  31  32
ENDBRANCH   1  31
TORSDOF 19
ENDMDL
MODEL 3
REMARK VINA RESULT:     -12.2      4.806     10.091
REMARK SMILES CC(C)c1cc(N2CCC(C(=O)NCCCCCCNC(=O)c3ccc(-c4c5nc(c(-c6cccc(S(=O)(=O)[O-])c6F)c6ccc([nH]6)c(-c6cccc(S(=O)(=O)[O-])c6F)c6nc(c(-c7cccc(S(=O)(=O)[O-])c7F)c7ccc4[nH]7)C=C6)C=C5)cc3)CC2)nc(-c2ccc(F)cc2)n1
REMARK SMILES IDX 17 1 16 2 15 3 14 4 13 5 11 6 12 7 10 9 7 10 8 11 87 12 9 13
REMARK SMILES IDX 86 14 6 15 4 16 5 17 97 18 89 19 88 20 2 21 1 22 3 23 90 24
REMARK SMILES IDX 91 25 96 26 92 27 95 28 93 29 94 30 18 31 19 32 20 33 21 34
REMARK SMILES IDX 22 36 23 37 24 38 85 39 25 40 84 41 26 42 27 43 28 44 78 45
REMARK SMILES IDX 29 46 83 47 77 48 79 49 30 50 82 51 76 52 75 53 31 55 63 56
REMARK SMILES IDX 43 57 62 58 44 59 47 60 61 61 80 62 45 63 46 64 60 66 81 67
REMARK SMILES IDX 48 68 32 69 33 70 41 71 34 72 36 73 42 74 35 75 37 76 38 77
REMARK SMILES IDX 39 78 40 79 64 80 65 81 73 82 66 83 68 84 74 85 67 86 69 87
REMARK SMILES IDX 70 88 71 89 72 90 49 91 50 92 58 93 51 94 53 95 59 96 52 97
REMARK SMILES IDX 54 98 55 99 56 100 57 101
REMARK H PARENT 13 8 20 35 79 54 47 65
REMARK Flexibility Score: inf
ROOT
ATOM      1  C   UNL A   1      34.851  24.899  25.582  1.00  0.00     0.002 C 
ENDROOT
BRANCH   1   2
ATOM      2  C   UNL A   1      33.429  24.774  26.138  1.00  0.00     0.002 C 
BRANCH   2   3
ATOM      3  C   UNL A   1      33.152  23.485  26.918  1.00  0.00     0.021 C 
BRANCH   3   4
ATOM      4  C   UNL A   1      32.106  22.578  26.276  1.00  0.00     0.116 C 
BRANCH   4   5
ATOM      5  N   UNL A   1      32.729  21.516  25.494  1.00  0.00    -0.356 N 
ATOM      6  C   UNL A   1      32.786  21.328  24.147  1.00  0.00     0.223 C 
ATOM      7  O   UNL A   1      33.356  20.319  23.722  1.00  0.00    -0.275 OA
ATOM      8  H   UNL A   1      33.179  20.821  26.027  1.00  0.00     0.163 HD
BRANCH   6   9
ATOM      9  C   UNL A   1      32.178  22.335  23.181  1.00  0.00     0.082 C 
ATOM     10  N   UNL A   1      31.572  25.076  23.069  1.00  0.00    -0.356 N 
ATOM     11  C   UNL A   1      30.420  24.194  23.122  1.00  0.00     0.119 C 
ATOM     12  C   UNL A   1      32.662  24.667  22.208  1.00  0.00     0.119 C 
ATOM     13  C   UNL A   1      30.845  22.871  23.733  1.00  0.00     0.035 C 
ATOM     14  C   UNL A   1      33.241  23.370  22.757  1.00  0.00     0.035 C 
BRANCH  10  15
ATOM     15  C   UNL A   1      31.313  26.410  23.303  1.00  0.00     0.132 A 
ATOM     16  C   UNL A   1      30.057  28.388  22.979  1.00  0.00     0.049 A 
ATOM     17  C   UNL A   1      30.322  27.083  22.612  1.00  0.00     0.071 A 
ATOM     18  N   UNL A   1      30.750  28.993  23.964  1.00  0.00    -0.233 NA
ATOM     19  C   UNL A   1      31.730  28.284  24.548  1.00  0.00     0.161 A 
ATOM     20  N   UNL A   1      32.025  27.002  24.273  1.00  0.00    -0.211 NA
BRANCH  16  21
ATOM     21  C   UNL A   1      28.956  29.218  22.346  1.00  0.00     0.032 C 
ATOM     22  C   UNL A   1      27.863  29.692  23.309  1.00  0.00     0.014 C 
ATOM     23  C   UNL A   1      29.572  30.418  21.620  1.00  0.00     0.014 C 
ENDBRANCH  16  21
BRANCH  19  24
ATOM     24  C   UNL A   1      32.541  28.961  25.562  1.00  0.00     0.019 A 
ATOM     25  C   UNL A   1      33.793  28.451  25.952  1.00  0.00     0.015 A 
ATOM     26  C   UNL A   1      32.076  30.135  26.189  1.00  0.00     0.015 A 
ATOM     27  C   UNL A   1      34.561  29.100  26.924  1.00  0.00     0.040 A 
ATOM     28  C   UNL A   1      32.835  30.774  27.173  1.00  0.00     0.040 A 
ATOM     29  C   UNL A   1      34.075  30.256  27.523  1.00  0.00     0.123 A 
ATOM     30  F   UNL A   1      34.814  30.884  28.447  1.00  0.00    -0.207 F 
ENDBRANCH  19  24
ENDBRANCH  10  15
ENDBRANCH   6   9
ENDBRANCH   4   5
ENDBRANCH   3   4
ENDBRANCH   2   3
ENDBRANCH   1   2
BRANCH   1  31
ATOM     31  C   UNL A   1      35.730  23.660  25.769  1.00  0.00     0.021 C 
BRANCH  31  32
ATOM     32  C   UNL A   1      37.093  23.742  25.092  1.00  0.00     0.116 C 
BRANCH  32  33
ATOM     33  N   UNL A   1      38.014  22.735  25.597  1.00  0.00    -0.352 N 
ATOM     34  C   UNL A   1      39.178  22.907  26.300  1.00  0.00     0.251 C 
ATOM     35  H   UNL A   1      37.768  21.802  25.405  1.00  0.00     0.163 HD
ATOM     36  O   UNL A   1      39.939  21.955  26.471  1.00  0.00    -0.269 OA
BRANCH  34  37
ATOM     37  C   UNL A   1      39.523  24.240  26.836  1.00  0.00     0.039 A 
ATOM     38  C   UNL A   1      39.225  24.533  28.167  1.00  0.00     0.014 A 
ATOM     39  C   UNL A   1      40.139  25.198  26.024  1.00  0.00     0.014 A 
ATOM     40  C   UNL A   1      39.589  25.771  28.700  1.00  0.00     0.010 A 
ATOM     41  C   UNL A   1      40.573  26.399  26.578  1.00  0.00     0.010 A 
ATOM     42  C   UNL A   1      40.292  26.703  27.918  1.00  0.00    -0.014 A 
BRANCH  42  43
ATOM     43  C   UNL A   1      40.732  28.007  28.483  1.00  0.00     0.031 A 
ATOM     44  C   UNL A   1      42.197  28.276  28.703  1.00  0.00     0.074 A 
ATOM     45  C   UNL A   1      39.811  28.917  28.857  1.00  0.00     0.049 A 
ATOM     46  N   UNL A   1      42.772  29.324  29.236  1.00  0.00    -0.248 NA
ATOM     47  C   UNL A   1      43.142  27.226  28.286  1.00  0.00     0.031 C 
ATOM     48  C   UNL A   1      38.359  28.747  28.752  1.00  0.00     0.029 A 
ATOM     49  N   UNL A   1      39.957  30.158  29.423  1.00  0.00    -0.354 N 
ATOM     50  C   UNL A   1      44.134  29.047  29.245  1.00  0.00     0.074 A 
ATOM     51  C   UNL A   1      44.301  27.720  28.698  1.00  0.00     0.031 C 
ATOM     52  C   UNL A   1      37.751  29.842  29.238  1.00  0.00     0.029 A 
ATOM     53  C   UNL A   1      38.764  30.776  29.719  1.00  0.00     0.049 A 
ATOM     54  H   UNL A   1      40.835  30.568  29.602  1.00  0.00     0.167 HD
ATOM     55  C   UNL A   1      45.158  29.840  29.642  1.00  0.00     0.034 A 
ATOM     56  C   UNL A   1      38.515  31.954  30.324  1.00  0.00     0.034 A 
ATOM     57  C   UNL A   1      44.992  31.172  30.157  1.00  0.00     0.049 A 
ATOM     58  C   UNL A   1      39.676  32.815  30.748  1.00  0.00     0.074 A 
ATOM     59  C   UNL A   1      45.969  32.076  30.532  1.00  0.00     0.029 A 
ATOM     60  N   UNL A   1      43.771  31.791  30.371  1.00  0.00    -0.354 N 
ATOM     61  N   UNL A   1      40.961  32.594  30.617  1.00  0.00    -0.248 NA
ATOM     62  C   UNL A   1      39.352  34.109  31.367  1.00  0.00     0.031 C 
ATOM     63  C   UNL A   1      45.338  33.234  30.996  1.00  0.00     0.029 A 
ATOM     64  C   UNL A   1      43.968  33.064  30.873  1.00  0.00     0.049 A 
ATOM     65  H   UNL A   1      42.892  31.384  30.191  1.00  0.00     0.167 HD
ATOM     66  C   UNL A   1      41.595  33.736  31.092  1.00  0.00     0.074 A 
ATOM     67  C   UNL A   1      40.553  34.656  31.493  1.00  0.00     0.031 C 
ATOM     68  C   UNL A   1      42.921  33.995  31.202  1.00  0.00     0.034 A 
BRANCH  55  69
ATOM     69  C   UNL A   1      46.561  29.316  29.477  1.00  0.00     0.023 A 
ATOM     70  C   UNL A   1      47.152  28.582  30.526  1.00  0.00     0.012 A 
ATOM     71  C   UNL A   1      47.260  29.471  28.263  1.00  0.00     0.148 A 
ATOM     72  C   UNL A   1      48.424  28.031  30.381  1.00  0.00     0.002 A 
ATOM     73  C   UNL A   1      48.508  28.880  28.109  1.00  0.00     0.091 A 
ATOM     74  F   UNL A   1      46.687  30.184  27.284  1.00  0.00    -0.205 F 
ATOM     75  C   UNL A   1      49.097  28.171  29.170  1.00  0.00     0.022 A 
BRANCH  73  76
ATOM     76  S   UNL A   1      49.426  28.929  26.566  1.00  0.00     0.127 S 
ATOM     77  O   UNL A   1      48.415  28.479  25.608  1.00  0.00    -0.237 OA
ATOM     78  O   UNL A   1      49.774  30.346  26.463  1.00  0.00    -0.237 OA
ATOM     79  O   UNL A   1      50.558  28.031  26.738  1.00  0.00    -0.744 OA
ENDBRANCH  73  76
ENDBRANCH  55  69
BRANCH  56  80
ATOM     80  C   UNL A   1      37.112  32.420  30.533  1.00  0.00     0.023 A 
ATOM     81  C   UNL A   1      36.456  32.127  31.746  1.00  0.00     0.012 A 
ATOM     82  C   UNL A   1      36.417  33.127  29.533  1.00  0.00     0.148 A 
ATOM     83  C   UNL A   1      35.120  32.478  31.935  1.00  0.00     0.002 A 
ATOM     84  C   UNL A   1      35.103  33.527  29.752  1.00  0.00     0.091 A 
ATOM     85  F   UNL A   1      37.051  33.390  28.381  1.00  0.00    -0.205 F 
ATOM     86  C   UNL A   1      34.445  33.183  30.942  1.00  0.00     0.022 A 
BRANCH  84  87
ATOM     87  S   UNL A   1      34.205  34.550  28.582  1.00  0.00     0.127 S 
ATOM     88  O   UNL A   1      32.858  34.538  29.145  1.00  0.00    -0.237 OA
ATOM     89  O   UNL A   1      34.907  35.828  28.692  1.00  0.00    -0.237 OA
ATOM     90  O   UNL A   1      34.360  33.894  27.290  1.00  0.00    -0.744 OA
ENDBRANCH  84  87
ENDBRANCH  56  80
BRANCH  68  91
ATOM     91  C   UNL A   1      43.330  35.352  31.714  1.00  0.00     0.023 A 
ATOM     92  C   UNL A   1      43.495  35.567  33.097  1.00  0.00     0.012 A 
ATOM     93  C   UNL A   1      43.620  36.396  30.812  1.00  0.00     0.148 A 
ATOM     94  C   UNL A   1      43.905  36.810  33.575  1.00  0.00     0.002 A 
ATOM     95  C   UNL A   1      44.080  37.614  31.293  1.00  0.00     0.091 A 
ATOM     96  F   UNL A   1      43.441  36.175  29.501  1.00  0.00    -0.205 F 
ATOM     97  C   UNL A   1      44.208  37.829  32.675  1.00  0.00     0.022 A 
BRANCH  95  98
ATOM     98  S   UNL A   1      44.592  38.948  30.206  1.00  0.00     0.127 S 
ATOM     99  O   UNL A   1      43.330  39.307  29.561  1.00  0.00    -0.237 OA
ATOM    100  O   UNL A   1      45.097  39.942  31.154  1.00  0.00    -0.237 OA
ATOM    101  O   UNL A   1      45.604  38.385  29.323  1.00  0.00    -0.744 OA
ENDBRANCH  95  98
ENDBRANCH  68  91
ENDBRANCH  42  43
ENDBRANCH  34  37
ENDBRANCH  32  33
ENDBRANCH  31  32
ENDBRANCH   1  31
TORSDOF 19
ENDMDL
