MODEL 1
REMARK VINA RESULT:     -11.7      0.000      0.000
REMARK SMILES CC(C)[NH2+]CC[C@H](c1ccccc1)c1cc(C(=O)NCCCCCCNC(=O)c2ccc(-c3c4nc(c(-c5cccc(S(=O)(=O)[O-])c5F)c5ccc([nH]5)c(-c5cccc(S(=O)(=O)[O-])c5F)c5nc(c(-c6cccc(S(=O)(=O)[O-])c6F)c6ccc3[nH]6)C=C5)C=C4)cc2)ccc1O
REMARK SMILES IDX 21 1 20 2 19 3 17 4 18 5 16 7 14 8 15 9 94 10 93 11 92 12
REMARK SMILES IDX 7 13 6 14 5 15 4 16 2 19 1 20 3 21 8 22 9 23 13 24 10 25
REMARK SMILES IDX 12 26 11 27 95 28 22 30 23 31 24 32 25 33 26 34 27 35 28 37
REMARK SMILES IDX 29 38 30 39 91 40 31 41 90 42 32 43 33 44 34 45 84 46 35 47
REMARK SMILES IDX 89 48 83 49 85 50 36 51 88 52 82 53 81 54 37 56 69 57 49 58
REMARK SMILES IDX 68 59 50 60 53 61 67 62 86 63 51 64 52 65 66 67 87 68 54 69
REMARK SMILES IDX 38 70 39 71 47 72 40 73 42 74 48 75 41 76 43 77 44 78 45 79
REMARK SMILES IDX 46 80 70 81 71 82 79 83 72 84 74 85 80 86 73 87 75 88 76 89
REMARK SMILES IDX 77 90 78 91 55 92 56 93 64 94 57 95 59 96 65 97 58 98 60 99
REMARK SMILES IDX 61 100 62 101 63 102
REMARK H PARENT 19 6 4 17 4 18 95 29 26 36 85 55 53 66
REMARK Flexibility Score: inf
ROOT
ATOM      1  C   UNL A   1      34.870  22.926  26.939  1.00  0.00     0.021 C 
ENDROOT
BRANCH   1   2
ATOM      2  C   UNL A   1      33.833  21.830  27.139  1.00  0.00     0.116 C 
BRANCH   2   3
ATOM      3  N   UNL A   1      32.524  22.328  27.505  1.00  0.00    -0.352 N 
ATOM      4  C   UNL A   1      31.573  22.934  26.727  1.00  0.00     0.251 C 
ATOM      5  O   UNL A   1      30.524  23.306  27.251  1.00  0.00    -0.269 OA
ATOM      6  H   UNL A   1      32.282  22.216  28.452  1.00  0.00     0.163 HD
BRANCH   4   7
ATOM      7  C   UNL A   1      31.829  23.237  25.295  1.00  0.00     0.040 A 
ATOM      8  C   UNL A   1      32.416  24.999  23.680  1.00  0.00     0.002 A 
ATOM      9  C   UNL A   1      32.064  24.580  24.977  1.00  0.00     0.022 A 
ATOM     10  C   UNL A   1      32.558  23.993  22.710  1.00  0.00     0.119 A 
ATOM     11  C   UNL A   1      32.269  22.657  23.002  1.00  0.00     0.047 A 
ATOM     12  C   UNL A   1      31.868  22.283  24.283  1.00  0.00     0.017 A 
BRANCH   8  13
ATOM     13  C   UNL A   1      32.694  26.474  23.382  1.00  0.00     0.059 C 
BRANCH  13  14
ATOM     14  C   UNL A   1      33.654  27.070  24.445  1.00  0.00     0.074 C 
BRANCH  14  15
ATOM     15  C   UNL A   1      33.585  28.603  24.584  1.00  0.00     0.261 C 
BRANCH  15  16
ATOM     16  N   UNL A   1      33.803  29.167  25.909  1.00  0.00    -0.344 N 
ATOM     17  H   UNL A   1      34.353  28.496  26.446  1.00  0.00     0.346 HD
ATOM     18  H   UNL A   1      34.268  30.061  25.750  1.00  0.00     0.346 HD
BRANCH  16  19
ATOM     19  C   UNL A   1      32.605  29.485  26.686  1.00  0.00     0.176 C 
ATOM     20  C   UNL A   1      31.754  30.416  25.816  1.00  0.00     0.075 C 
ATOM     21  C   UNL A   1      31.762  28.275  27.074  1.00  0.00     0.075 C 
ENDBRANCH  16  19
ENDBRANCH  15  16
ENDBRANCH  14  15
ENDBRANCH  13  14
BRANCH  13  22
ATOM     22  C   UNL A   1      31.441  27.329  23.139  1.00  0.00    -0.040 A 
ATOM     23  C   UNL A   1      31.491  28.573  22.483  1.00  0.00     0.004 A 
ATOM     24  C   UNL A   1      30.190  26.878  23.594  1.00  0.00     0.004 A 
ATOM     25  C   UNL A   1      30.345  29.357  22.326  1.00  0.00     0.000 A 
ATOM     26  C   UNL A   1      29.037  27.646  23.403  1.00  0.00     0.000 A 
ATOM     27  C   UNL A   1      29.117  28.891  22.782  1.00  0.00     0.000 A 
ENDBRANCH  13  22
ENDBRANCH   8  13
BRANCH  10  28
ATOM     28  O   UNL A   1      32.987  24.215  21.432  1.00  0.00    -0.508 OA
ATOM     29  H   UNL A   1      33.185  23.491  20.872  1.00  0.00     0.293 HD
ENDBRANCH  10  28
ENDBRANCH   4   7
ENDBRANCH   2   3
ENDBRANCH   1   2
BRANCH   1  30
ATOM     30  C   UNL A   1      35.510  23.007  25.553  1.00  0.00     0.002 C 
BRANCH  30  31
ATOM     31  C   UNL A   1      35.502  21.718  24.729  1.00  0.00     0.002 C 
BRANCH  31  32
ATOM     32  C   UNL A   1      36.745  20.834  24.850  1.00  0.00     0.021 C 
BRANCH  32  33
ATOM     33  C   UNL A   1      37.990  21.526  25.386  1.00  0.00     0.116 C 
BRANCH  33  34
ATOM     34  N   UNL A   1      38.924  20.595  25.995  1.00  0.00    -0.352 N 
ATOM     35  C   UNL A   1      40.094  20.854  26.664  1.00  0.00     0.251 C 
ATOM     36  H   UNL A   1      38.683  19.643  25.917  1.00  0.00     0.163 HD
ATOM     37  O   UNL A   1      40.847  19.933  26.961  1.00  0.00    -0.269 OA
BRANCH  35  38
ATOM     38  C   UNL A   1      40.453  22.248  27.006  1.00  0.00     0.039 A 
ATOM     39  C   UNL A   1      41.354  22.475  28.049  1.00  0.00     0.014 A 
ATOM     40  C   UNL A   1      39.906  23.326  26.304  1.00  0.00     0.014 A 
ATOM     41  C   UNL A   1      41.745  23.781  28.354  1.00  0.00     0.010 A 
ATOM     42  C   UNL A   1      40.357  24.618  26.556  1.00  0.00     0.010 A 
ATOM     43  C   UNL A   1      41.272  24.862  27.590  1.00  0.00    -0.014 A 
BRANCH  43  44
ATOM     44  C   UNL A   1      41.727  26.250  27.859  1.00  0.00     0.031 A 
ATOM     45  C   UNL A   1      43.127  26.673  27.500  1.00  0.00     0.074 A 
ATOM     46  C   UNL A   1      40.907  27.108  28.497  1.00  0.00     0.049 A 
ATOM     47  N   UNL A   1      43.719  27.821  27.705  1.00  0.00    -0.248 NA
ATOM     48  C   UNL A   1      43.982  25.667  26.849  1.00  0.00     0.031 C 
ATOM     49  C   UNL A   1      39.553  26.798  28.962  1.00  0.00     0.029 A 
ATOM     50  N   UNL A   1      41.100  28.410  28.888  1.00  0.00    -0.354 N 
ATOM     51  C   UNL A   1      45.020  27.666  27.243  1.00  0.00     0.074 A 
ATOM     52  C   UNL A   1      45.143  26.302  26.779  1.00  0.00     0.031 C 
ATOM     53  C   UNL A   1      39.038  27.878  29.569  1.00  0.00     0.029 A 
ATOM     54  C   UNL A   1      40.033  28.945  29.572  1.00  0.00     0.049 A 
ATOM     55  H   UNL A   1      41.925  28.913  28.698  1.00  0.00     0.167 HD
ATOM     56  C   UNL A   1      46.016  28.582  27.184  1.00  0.00     0.034 A 
ATOM     57  C   UNL A   1      39.878  30.153  30.150  1.00  0.00     0.034 A 
ATOM     58  C   UNL A   1      45.880  29.947  27.616  1.00  0.00     0.049 A 
ATOM     59  C   UNL A   1      40.992  31.159  30.051  1.00  0.00     0.074 A 
ATOM     60  C   UNL A   1      46.802  30.975  27.520  1.00  0.00     0.029 A 
ATOM     61  N   UNL A   1      44.759  30.474  28.239  1.00  0.00    -0.354 N 
ATOM     62  N   UNL A   1      42.162  31.041  29.470  1.00  0.00    -0.248 NA
ATOM     63  C   UNL A   1      40.753  32.477  30.658  1.00  0.00     0.031 C 
ATOM     64  C   UNL A   1      46.252  32.113  28.117  1.00  0.00     0.029 A 
ATOM     65  C   UNL A   1      44.971  31.806  28.550  1.00  0.00     0.049 A 
ATOM     66  H   UNL A   1      43.934  29.973  28.433  1.00  0.00     0.167 HD
ATOM     67  C   UNL A   1      42.783  32.279  29.610  1.00  0.00     0.074 A 
ATOM     68  C   UNL A   1      41.850  33.137  30.310  1.00  0.00     0.031 C 
ATOM     69  C   UNL A   1      44.019  32.664  29.206  1.00  0.00     0.034 A 
BRANCH  56  70
ATOM     70  C   UNL A   1      47.335  28.148  26.596  1.00  0.00     0.023 A 
ATOM     71  C   UNL A   1      48.416  27.848  27.449  1.00  0.00     0.012 A 
ATOM     72  C   UNL A   1      47.486  27.983  25.204  1.00  0.00     0.148 A 
ATOM     73  C   UNL A   1      49.639  27.426  26.927  1.00  0.00     0.002 A 
ATOM     74  C   UNL A   1      48.692  27.516  24.695  1.00  0.00     0.091 A 
ATOM     75  F   UNL A   1      46.454  28.292  24.407  1.00  0.00    -0.205 F 
ATOM     76  C   UNL A   1      49.772  27.251  25.552  1.00  0.00     0.022 A 
BRANCH  74  77
ATOM     77  S   UNL A   1      48.942  27.178  22.949  1.00  0.00     0.127 S 
ATOM     78  O   UNL A   1      48.290  28.331  22.329  1.00  0.00    -0.237 OA
ATOM     79  O   UNL A   1      50.400  27.172  22.843  1.00  0.00    -0.237 OA
ATOM     80  O   UNL A   1      48.307  25.893  22.692  1.00  0.00    -0.744 OA
ENDBRANCH  74  77
ENDBRANCH  56  70
BRANCH  57  81
ATOM     81  C   UNL A   1      38.598  30.495  30.831  1.00  0.00     0.023 A 
ATOM     82  C   UNL A   1      38.404  30.119  32.175  1.00  0.00     0.012 A 
ATOM     83  C   UNL A   1      37.581  31.205  30.164  1.00  0.00     0.148 A 
ATOM     84  C   UNL A   1      37.206  30.410  32.829  1.00  0.00     0.002 A 
ATOM     85  C   UNL A   1      36.414  31.543  30.838  1.00  0.00     0.091 A 
ATOM     86  F   UNL A   1      37.783  31.547  28.883  1.00  0.00    -0.205 F 
ATOM     87  C   UNL A   1      36.216  31.130  32.164  1.00  0.00     0.022 A 
BRANCH  85  88
ATOM     88  S   UNL A   1      35.143  32.578  30.106  1.00  0.00     0.127 S 
ATOM     89  O   UNL A   1      34.664  31.737  29.014  1.00  0.00    -0.237 OA
ATOM     90  O   UNL A   1      34.207  32.736  31.220  1.00  0.00    -0.237 OA
ATOM     91  O   UNL A   1      35.815  33.808  29.708  1.00  0.00    -0.744 OA
ENDBRANCH  85  88
ENDBRANCH  57  81
BRANCH  69  92
ATOM     92  C   UNL A   1      44.428  34.090  29.472  1.00  0.00     0.023 A 
ATOM     93  C   UNL A   1      45.189  34.404  30.614  1.00  0.00     0.012 A 
ATOM     94  C   UNL A   1      44.115  35.108  28.548  1.00  0.00     0.148 A 
ATOM     95  C   UNL A   1      45.601  35.715  30.853  1.00  0.00     0.002 A 
ATOM     96  C   UNL A   1      44.575  36.401  28.765  1.00  0.00     0.091 A 
ATOM     97  F   UNL A   1      43.376  34.793  27.475  1.00  0.00    -0.205 F 
ATOM     98  C   UNL A   1      45.305  36.710  29.924  1.00  0.00     0.022 A 
BRANCH  96  99
ATOM     99  S   UNL A   1      44.328  37.724  27.576  1.00  0.00     0.127 S 
ATOM    100  O   UNL A   1      44.252  38.896  28.447  1.00  0.00    -0.237 OA
ATOM    101  O   UNL A   1      45.544  37.643  26.767  1.00  0.00    -0.237 OA
ATOM    102  O   UNL A   1      43.102  37.400  26.860  1.00  0.00    -0.744 OA
ENDBRANCH  96  99
ENDBRANCH  69  92
ENDBRANCH  43  44
ENDBRANCH  35  38
ENDBRANCH  33  34
ENDBRANCH  32  33
ENDBRANCH  31  32
ENDBRANCH  30  31
ENDBRANCH   1  30
TORSDOF 23
ENDMDL
MODEL 2
REMARK VINA RESULT:     -11.3      1.251      2.076
REMARK SMILES CC(C)[NH2+]CC[C@H](c1ccccc1)c1cc(C(=O)NCCCCCCNC(=O)c2ccc(-c3c4nc(c(-c5cccc(S(=O)(=O)[O-])c5F)c5ccc([nH]5)c(-c5cccc(S(=O)(=O)[O-])c5F)c5nc(c(-c6cccc(S(=O)(=O)[O-])c6F)c6ccc3[nH]6)C=C5)C=C4)cc2)ccc1O
REMARK SMILES IDX 21 1 20 2 19 3 17 4 18 5 16 7 14 8 15 9 94 10 93 11 92 12
REMARK SMILES IDX 7 13 6 14 5 15 4 16 2 19 1 20 3 21 8 22 9 23 13 24 10 25
REMARK SMILES IDX 12 26 11 27 95 28 22 30 23 31 24 32 25 33 26 34 27 35 28 37
REMARK SMILES IDX 29 38 30 39 91 40 31 41 90 42 32 43 33 44 34 45 84 46 35 47
REMARK SMILES IDX 89 48 83 49 85 50 36 51 88 52 82 53 81 54 37 56 69 57 49 58
REMARK SMILES IDX 68 59 50 60 53 61 67 62 86 63 51 64 52 65 66 67 87 68 54 69
REMARK SMILES IDX 38 70 39 71 47 72 40 73 42 74 48 75 41 76 43 77 44 78 45 79
REMARK SMILES IDX 46 80 70 81 71 82 79 83 72 84 74 85 80 86 73 87 75 88 76 89
REMARK SMILES IDX 77 90 78 91 55 92 56 93 64 94 57 95 59 96 65 97 58 98 60 99
REMARK SMILES IDX 61 100 62 101 63 102
REMARK H PARENT 19 6 4 17 4 18 95 29 26 36 85 55 53 66
REMARK Flexibility Score: inf
ROOT
ATOM      1  C   UNL A   1      33.726  23.541  26.650  1.00  0.00     0.021 C 
ENDROOT
BRANCH   1   2
ATOM      2  C   UNL A   1      32.909  22.263  26.780  1.00  0.00     0.116 C 
BRANCH   2   3
ATOM      3  N   UNL A   1      31.582  22.475  27.321  1.00  0.00    -0.352 N 
ATOM      4  C   UNL A   1      30.527  23.174  26.796  1.00  0.00     0.251 C 
ATOM      5  O   UNL A   1      29.483  23.248  27.442  1.00  0.00    -0.269 OA
ATOM      6  H   UNL A   1      31.414  22.056  28.195  1.00  0.00     0.163 HD
BRANCH   4   7
ATOM      7  C   UNL A   1      30.659  23.923  25.519  1.00  0.00     0.040 A 
ATOM      8  C   UNL A   1      30.765  26.156  24.493  1.00  0.00     0.002 A 
ATOM      9  C   UNL A   1      30.562  25.316  25.604  1.00  0.00     0.022 A 
ATOM     10  C   UNL A   1      31.108  25.530  23.283  1.00  0.00     0.119 A 
ATOM     11  C   UNL A   1      31.151  24.137  23.174  1.00  0.00     0.047 A 
ATOM     12  C   UNL A   1      30.889  23.331  24.281  1.00  0.00     0.017 A 
BRANCH   8  13
ATOM     13  C   UNL A   1      30.679  27.678  24.635  1.00  0.00     0.059 C 
BRANCH  13  14
ATOM     14  C   UNL A   1      30.430  28.338  23.253  1.00  0.00     0.074 C 
BRANCH  14  15
ATOM     15  C   UNL A   1      28.950  28.397  22.828  1.00  0.00     0.261 C 
BRANCH  15  16
ATOM     16  N   UNL A   1      28.236  29.647  23.052  1.00  0.00    -0.344 N 
ATOM     17  H   UNL A   1      27.462  29.686  22.388  1.00  0.00     0.346 HD
ATOM     18  H   UNL A   1      27.952  29.625  24.031  1.00  0.00     0.346 HD
BRANCH  16  19
ATOM     19  C   UNL A   1      29.015  30.877  22.901  1.00  0.00     0.176 C 
ATOM     20  C   UNL A   1      28.185  31.812  22.014  1.00  0.00     0.075 C 
ATOM     21  C   UNL A   1      29.325  31.595  24.210  1.00  0.00     0.075 C 
ENDBRANCH  16  19
ENDBRANCH  15  16
ENDBRANCH  14  15
ENDBRANCH  13  14
BRANCH  13  22
ATOM     22  C   UNL A   1      31.833  28.317  25.421  1.00  0.00    -0.040 A 
ATOM     23  C   UNL A   1      31.627  29.322  26.384  1.00  0.00     0.004 A 
ATOM     24  C   UNL A   1      33.156  27.909  25.174  1.00  0.00     0.004 A 
ATOM     25  C   UNL A   1      32.699  29.927  27.043  1.00  0.00     0.000 A 
ATOM     26  C   UNL A   1      34.226  28.488  25.862  1.00  0.00     0.000 A 
ATOM     27  C   UNL A   1      33.999  29.506  26.786  1.00  0.00     0.000 A 
ENDBRANCH  13  22
ENDBRANCH   8  13
BRANCH  10  28
ATOM     28  O   UNL A   1      31.432  26.200  22.137  1.00  0.00    -0.508 OA
ATOM     29  H   UNL A   1      32.216  25.982  21.673  1.00  0.00     0.293 HD
ENDBRANCH  10  28
ENDBRANCH   4   7
ENDBRANCH   2   3
ENDBRANCH   1   2
BRANCH   1  30
ATOM     30  C   UNL A   1      34.392  23.782  25.296  1.00  0.00     0.002 C 
BRANCH  30  31
ATOM     31  C   UNL A   1      34.425  22.591  24.336  1.00  0.00     0.002 C 
BRANCH  31  32
ATOM     32  C   UNL A   1      35.486  21.527  24.621  1.00  0.00     0.021 C 
BRANCH  32  33
ATOM     33  C   UNL A   1      36.598  21.948  25.571  1.00  0.00     0.116 C 
BRANCH  33  34
ATOM     34  N   UNL A   1      37.616  20.924  25.723  1.00  0.00    -0.352 N 
ATOM     35  C   UNL A   1      38.946  21.063  26.037  1.00  0.00     0.251 C 
ATOM     36  H   UNL A   1      37.310  19.999  25.582  1.00  0.00     0.163 HD
ATOM     37  O   UNL A   1      39.699  20.100  25.952  1.00  0.00    -0.269 OA
BRANCH  35  38
ATOM     38  C   UNL A   1      39.468  22.383  26.456  1.00  0.00     0.039 A 
ATOM     39  C   UNL A   1      40.436  22.434  27.462  1.00  0.00     0.014 A 
ATOM     40  C   UNL A   1      39.008  23.562  25.863  1.00  0.00     0.014 A 
ATOM     41  C   UNL A   1      40.980  23.666  27.836  1.00  0.00     0.010 A 
ATOM     42  C   UNL A   1      39.607  24.777  26.180  1.00  0.00     0.010 A 
ATOM     43  C   UNL A   1      40.591  24.845  27.178  1.00  0.00    -0.014 A 
BRANCH  43  44
ATOM     44  C   UNL A   1      41.205  26.154  27.519  1.00  0.00     0.031 A 
ATOM     45  C   UNL A   1      42.626  26.453  27.120  1.00  0.00     0.074 A 
ATOM     46  C   UNL A   1      40.511  27.044  28.255  1.00  0.00     0.049 A 
ATOM     47  N   UNL A   1      43.347  27.513  27.374  1.00  0.00    -0.248 NA
ATOM     48  C   UNL A   1      43.338  25.413  26.359  1.00  0.00     0.031 C 
ATOM     49  C   UNL A   1      39.152  26.845  28.765  1.00  0.00     0.029 A 
ATOM     50  N   UNL A   1      40.861  28.285  28.725  1.00  0.00    -0.354 N 
ATOM     51  C   UNL A   1      44.603  27.257  26.837  1.00  0.00     0.074 A 
ATOM     52  C   UNL A   1      44.557  25.926  26.274  1.00  0.00     0.031 C 
ATOM     53  C   UNL A   1      38.784  27.924  29.471  1.00  0.00     0.029 A 
ATOM     54  C   UNL A   1      39.888  28.877  29.497  1.00  0.00     0.049 A 
ATOM     55  H   UNL A   1      41.727  28.712  28.529  1.00  0.00     0.167 HD
ATOM     56  C   UNL A   1      45.689  28.065  26.792  1.00  0.00     0.034 A 
ATOM     57  C   UNL A   1      39.891  30.049  30.164  1.00  0.00     0.034 A 
ATOM     58  C   UNL A   1      45.721  29.401  27.323  1.00  0.00     0.049 A 
ATOM     59  C   UNL A   1      41.102  30.936  30.080  1.00  0.00     0.074 A 
ATOM     60  C   UNL A   1      46.744  30.330  27.252  1.00  0.00     0.029 A 
ATOM     61  N   UNL A   1      44.692  29.995  28.037  1.00  0.00    -0.354 N 
ATOM     62  N   UNL A   1      42.226  30.740  29.434  1.00  0.00    -0.248 NA
ATOM     63  C   UNL A   1      41.034  32.223  30.787  1.00  0.00     0.031 C 
ATOM     64  C   UNL A   1      46.347  31.472  27.954  1.00  0.00     0.029 A 
ATOM     65  C   UNL A   1      45.060  31.271  28.428  1.00  0.00     0.049 A 
ATOM     66  H   UNL A   1      43.826  29.571  28.237  1.00  0.00     0.167 HD
ATOM     67  C   UNL A   1      42.983  31.891  29.627  1.00  0.00     0.074 A 
ATOM     68  C   UNL A   1      42.179  32.788  30.431  1.00  0.00     0.031 C 
ATOM     69  C   UNL A   1      44.235  32.173  29.189  1.00  0.00     0.034 A 
BRANCH  56  70
ATOM     70  C   UNL A   1      46.927  27.539  26.109  1.00  0.00     0.023 A 
ATOM     71  C   UNL A   1      47.797  26.677  26.806  1.00  0.00     0.012 A 
ATOM     72  C   UNL A   1      47.198  27.853  24.762  1.00  0.00     0.148 A 
ATOM     73  C   UNL A   1      48.937  26.163  26.188  1.00  0.00     0.002 A 
ATOM     74  C   UNL A   1      48.309  27.299  24.138  1.00  0.00     0.091 A 
ATOM     75  F   UNL A   1      46.370  28.690  24.121  1.00  0.00    -0.205 F 
ATOM     76  C   UNL A   1      49.186  26.467  24.852  1.00  0.00     0.022 A 
BRANCH  74  77
ATOM     77  S   UNL A   1      48.676  27.560  22.399  1.00  0.00     0.127 S 
ATOM     78  O   UNL A   1      48.721  26.186  21.899  1.00  0.00    -0.237 OA
ATOM     79  O   UNL A   1      47.517  28.332  21.954  1.00  0.00    -0.237 OA
ATOM     80  O   UNL A   1      49.941  28.280  22.357  1.00  0.00    -0.744 OA
ENDBRANCH  74  77
ENDBRANCH  56  70
BRANCH  57  81
ATOM     81  C   UNL A   1      38.685  30.473  30.931  1.00  0.00     0.023 A 
ATOM     82  C   UNL A   1      38.588  30.159  32.301  1.00  0.00     0.012 A 
ATOM     83  C   UNL A   1      37.646  31.198  30.318  1.00  0.00     0.148 A 
ATOM     84  C   UNL A   1      37.460  30.527  33.037  1.00  0.00     0.002 A 
ATOM     85  C   UNL A   1      36.552  31.612  31.069  1.00  0.00     0.091 A 
ATOM     86  F   UNL A   1      37.754  31.479  29.011  1.00  0.00    -0.205 F 
ATOM     87  C   UNL A   1      36.448  31.261  32.423  1.00  0.00     0.022 A 
BRANCH  85  88
ATOM     88  S   UNL A   1      35.266  32.671  30.398  1.00  0.00     0.127 S 
ATOM     89  O   UNL A   1      34.781  31.876  29.274  1.00  0.00    -0.237 OA
ATOM     90  O   UNL A   1      34.342  32.772  31.528  1.00  0.00    -0.237 OA
ATOM     91  O   UNL A   1      35.927  33.922  30.048  1.00  0.00    -0.744 OA
ENDBRANCH  85  88
ENDBRANCH  57  81
BRANCH  69  92
ATOM     92  C   UNL A   1      44.807  33.525  29.532  1.00  0.00     0.023 A 
ATOM     93  C   UNL A   1      45.545  33.698  30.720  1.00  0.00     0.012 A 
ATOM     94  C   UNL A   1      44.673  34.606  28.638  1.00  0.00     0.148 A 
ATOM     95  C   UNL A   1      46.106  34.935  31.031  1.00  0.00     0.002 A 
ATOM     96  C   UNL A   1      45.281  35.821  28.929  1.00  0.00     0.091 A 
ATOM     97  F   UNL A   1      43.954  34.427  27.520  1.00  0.00    -0.205 F 
ATOM     98  C   UNL A   1      45.986  35.992  30.131  1.00  0.00     0.022 A 
BRANCH  96  99
ATOM     99  S   UNL A   1      45.264  37.206  27.786  1.00  0.00     0.127 S 
ATOM    100  O   UNL A   1      45.866  38.266  28.594  1.00  0.00    -0.237 OA
ATOM    101  O   UNL A   1      46.107  36.717  26.695  1.00  0.00    -0.237 OA
ATOM    102  O   UNL A   1      43.868  37.415  27.426  1.00  0.00    -0.744 OA
ENDBRANCH  96  99
ENDBRANCH  69  92
ENDBRANCH  43  44
ENDBRANCH  35  38
ENDBRANCH  33  34
ENDBRANCH  32  33
ENDBRANCH  31  32
ENDBRANCH  30  31
ENDBRANCH   1  30
TORSDOF 23
ENDMDL
MODEL 3
REMARK VINA RESULT:     -11.2      2.650      3.571
REMARK SMILES CC(C)[NH2+]CC[C@H](c1ccccc1)c1cc(C(=O)NCCCCCCNC(=O)c2ccc(-c3c4nc(c(-c5cccc(S(=O)(=O)[O-])c5F)c5ccc([nH]5)c(-c5cccc(S(=O)(=O)[O-])c5F)c5nc(c(-c6cccc(S(=O)(=O)[O-])c6F)c6ccc3[nH]6)C=C5)C=C4)cc2)ccc1O
REMARK SMILES IDX 21 1 20 2 19 3 17 4 18 5 16 7 14 8 15 9 94 10 93 11 92 12
REMARK SMILES IDX 7 13 6 14 5 15 4 16 2 19 1 20 3 21 8 22 9 23 13 24 10 25
REMARK SMILES IDX 12 26 11 27 95 28 22 30 23 31 24 32 25 33 26 34 27 35 28 37
REMARK SMILES IDX 29 38 30 39 91 40 31 41 90 42 32 43 33 44 34 45 84 46 35 47
REMARK SMILES IDX 89 48 83 49 85 50 36 51 88 52 82 53 81 54 37 56 69 57 49 58
REMARK SMILES IDX 68 59 50 60 53 61 67 62 86 63 51 64 52 65 66 67 87 68 54 69
REMARK SMILES IDX 38 70 39 71 47 72 40 73 42 74 48 75 41 76 43 77 44 78 45 79
REMARK SMILES IDX 46 80 70 81 71 82 79 83 72 84 74 85 80 86 73 87 75 88 76 89
REMARK SMILES IDX 77 90 78 91 55 92 56 93 64 94 57 95 59 96 65 97 58 98 60 99
REMARK SMILES IDX 61 100 62 101 63 102
REMARK H PARENT 19 6 4 17 4 18 95 29 26 36 85 55 53 66
REMARK Flexibility Score: inf
ROOT
ATOM      1  C   UNL A   1      33.614  21.422  25.548  1.00  0.00     0.021 C 
ENDROOT
BRANCH   1   2
ATOM      2  C   UNL A   1      32.140  21.441  25.168  1.00  0.00     0.116 C 
BRANCH   2   3
ATOM      3  N   UNL A   1      31.295  22.086  26.151  1.00  0.00    -0.352 N 
ATOM      4  C   UNL A   1      30.696  23.318  26.113  1.00  0.00     0.251 C 
ATOM      5  O   UNL A   1      30.029  23.685  27.080  1.00  0.00    -0.269 OA
ATOM      6  H   UNL A   1      31.127  21.563  26.968  1.00  0.00     0.163 HD
BRANCH   4   7
ATOM      7  C   UNL A   1      30.922  24.248  24.977  1.00  0.00     0.040 A 
ATOM      8  C   UNL A   1      31.125  26.609  24.314  1.00  0.00     0.002 A 
ATOM      9  C   UNL A   1      30.838  25.615  25.268  1.00  0.00     0.022 A 
ATOM     10  C   UNL A   1      31.539  26.166  23.047  1.00  0.00     0.119 A 
ATOM     11  C   UNL A   1      31.571  24.806  22.728  1.00  0.00     0.047 A 
ATOM     12  C   UNL A   1      31.226  23.847  23.680  1.00  0.00     0.017 A 
BRANCH   8  13
ATOM     13  C   UNL A   1      31.050  28.093  24.681  1.00  0.00     0.059 C 
BRANCH  13  14
ATOM     14  C   UNL A   1      30.883  28.960  23.405  1.00  0.00     0.074 C 
BRANCH  14  15
ATOM     15  C   UNL A   1      29.597  29.807  23.370  1.00  0.00     0.261 C 
BRANCH  15  16
ATOM     16  N   UNL A   1      29.404  30.688  22.226  1.00  0.00    -0.344 N 
ATOM     17  H   UNL A   1      30.088  31.442  22.296  1.00  0.00     0.346 HD
ATOM     18  H   UNL A   1      29.513  30.093  21.404  1.00  0.00     0.346 HD
BRANCH  16  19
ATOM     19  C   UNL A   1      28.081  31.299  22.090  1.00  0.00     0.176 C 
ATOM     20  C   UNL A   1      27.599  31.615  23.510  1.00  0.00     0.075 C 
ATOM     21  C   UNL A   1      28.059  32.585  21.271  1.00  0.00     0.075 C 
ENDBRANCH  16  19
ENDBRANCH  15  16
ENDBRANCH  14  15
ENDBRANCH  13  14
BRANCH  13  22
ATOM     22  C   UNL A   1      32.168  28.582  25.614  1.00  0.00    -0.040 A 
ATOM     23  C   UNL A   1      31.989  29.647  26.516  1.00  0.00     0.004 A 
ATOM     24  C   UNL A   1      33.432  27.968  25.570  1.00  0.00     0.004 A 
ATOM     25  C   UNL A   1      33.040  30.110  27.311  1.00  0.00     0.000 A 
ATOM     26  C   UNL A   1      34.473  28.407  26.394  1.00  0.00     0.000 A 
ATOM     27  C   UNL A   1      34.280  29.486  27.253  1.00  0.00     0.000 A 
ENDBRANCH  13  22
ENDBRANCH   8  13
BRANCH  10  28
ATOM     28  O   UNL A   1      31.947  26.995  22.040  1.00  0.00    -0.508 OA
ATOM     29  H   UNL A   1      32.075  26.654  21.176  1.00  0.00     0.293 HD
ENDBRANCH  10  28
ENDBRANCH   4   7
ENDBRANCH   2   3
ENDBRANCH   1   2
BRANCH   1  30
ATOM     30  C   UNL A   1      34.609  21.646  24.409  1.00  0.00     0.002 C 
BRANCH  30  31
ATOM     31  C   UNL A   1      35.061  23.089  24.179  1.00  0.00     0.002 C 
BRANCH  31  32
ATOM     32  C   UNL A   1      36.543  23.377  24.426  1.00  0.00     0.021 C 
BRANCH  32  33
ATOM     33  C   UNL A   1      37.008  23.223  25.867  1.00  0.00     0.116 C 
BRANCH  33  34
ATOM     34  N   UNL A   1      38.169  22.358  25.985  1.00  0.00    -0.352 N 
ATOM     35  C   UNL A   1      39.453  22.676  26.352  1.00  0.00     0.251 C 
ATOM     36  H   UNL A   1      38.013  21.409  25.773  1.00  0.00     0.163 HD
ATOM     37  O   UNL A   1      40.348  21.848  26.229  1.00  0.00    -0.269 OA
BRANCH  35  38
ATOM     38  C   UNL A   1      39.756  24.028  26.875  1.00  0.00     0.039 A 
ATOM     39  C   UNL A   1      39.808  24.218  28.257  1.00  0.00     0.014 A 
ATOM     40  C   UNL A   1      39.986  25.100  26.009  1.00  0.00     0.014 A 
ATOM     41  C   UNL A   1      40.143  25.473  28.771  1.00  0.00     0.010 A 
ATOM     42  C   UNL A   1      40.396  26.328  26.520  1.00  0.00     0.010 A 
ATOM     43  C   UNL A   1      40.468  26.532  27.906  1.00  0.00    -0.014 A 
BRANCH  43  44
ATOM     44  C   UNL A   1      40.887  27.855  28.435  1.00  0.00     0.031 A 
ATOM     45  C   UNL A   1      42.348  28.170  28.620  1.00  0.00     0.074 A 
ATOM     46  C   UNL A   1      39.953  28.745  28.821  1.00  0.00     0.049 A 
ATOM     47  N   UNL A   1      42.903  29.245  29.115  1.00  0.00    -0.248 NA
ATOM     48  C   UNL A   1      43.311  27.130  28.220  1.00  0.00     0.031 C 
ATOM     49  C   UNL A   1      38.505  28.533  28.760  1.00  0.00     0.029 A 
ATOM     50  N   UNL A   1      40.080  29.999  29.366  1.00  0.00    -0.354 N 
ATOM     51  C   UNL A   1      44.271  29.001  29.120  1.00  0.00     0.074 A 
ATOM     52  C   UNL A   1      44.461  27.661  28.611  1.00  0.00     0.031 C 
ATOM     53  C   UNL A   1      37.880  29.617  29.243  1.00  0.00     0.029 A 
ATOM     54  C   UNL A   1      38.877  30.587  29.683  1.00  0.00     0.049 A 
ATOM     55  H   UNL A   1      40.950  30.436  29.517  1.00  0.00     0.167 HD
ATOM     56  C   UNL A   1      45.281  29.824  29.488  1.00  0.00     0.034 A 
ATOM     57  C   UNL A   1      38.607  31.769  30.273  1.00  0.00     0.034 A 
ATOM     58  C   UNL A   1      45.090  31.169  29.963  1.00  0.00     0.049 A 
ATOM     59  C   UNL A   1      39.747  32.673  30.654  1.00  0.00     0.074 A 
ATOM     60  C   UNL A   1      46.051  32.113  30.281  1.00  0.00     0.029 A 
ATOM     61  N   UNL A   1      43.858  31.757  30.203  1.00  0.00    -0.354 N 
ATOM     62  N   UNL A   1      41.036  32.485  30.505  1.00  0.00    -0.248 NA
ATOM     63  C   UNL A   1      39.395  33.970  31.252  1.00  0.00     0.031 C 
ATOM     64  C   UNL A   1      45.401  33.259  30.748  1.00  0.00     0.029 A 
ATOM     65  C   UNL A   1      44.033  33.044  30.682  1.00  0.00     0.049 A 
ATOM     66  H   UNL A   1      42.987  31.323  30.056  1.00  0.00     0.167 HD
ATOM     67  C   UNL A   1      41.647  33.650  30.957  1.00  0.00     0.074 A 
ATOM     68  C   UNL A   1      40.584  34.547  31.363  1.00  0.00     0.031 C 
ATOM     69  C   UNL A   1      42.968  33.945  31.040  1.00  0.00     0.034 A 
BRANCH  56  70
ATOM     70  C   UNL A   1      46.692  29.308  29.357  1.00  0.00     0.023 A 
ATOM     71  C   UNL A   1      47.282  28.607  30.428  1.00  0.00     0.012 A 
ATOM     72  C   UNL A   1      47.410  29.466  28.155  1.00  0.00     0.148 A 
ATOM     73  C   UNL A   1      48.578  28.104  30.321  1.00  0.00     0.002 A 
ATOM     74  C   UNL A   1      48.683  28.920  28.038  1.00  0.00     0.091 A 
ATOM     75  F   UNL A   1      46.840  30.151  27.154  1.00  0.00    -0.205 F 
ATOM     76  C   UNL A   1      49.274  28.252  29.123  1.00  0.00     0.022 A 
BRANCH  74  77
ATOM     77  S   UNL A   1      49.630  28.982  26.513  1.00  0.00     0.127 S 
ATOM     78  O   UNL A   1      48.704  28.361  25.566  1.00  0.00    -0.237 OA
ATOM     79  O   UNL A   1      49.818  30.420  26.328  1.00  0.00    -0.237 OA
ATOM     80  O   UNL A   1      50.853  28.235  26.767  1.00  0.00    -0.744 OA
ENDBRANCH  74  77
ENDBRANCH  56  70
BRANCH  57  81
ATOM     81  C   UNL A   1      37.194  32.185  30.497  1.00  0.00     0.023 A 
ATOM     82  C   UNL A   1      36.588  31.943  31.745  1.00  0.00     0.012 A 
ATOM     83  C   UNL A   1      36.455  32.834  29.489  1.00  0.00     0.148 A 
ATOM     84  C   UNL A   1      35.259  32.305  31.973  1.00  0.00     0.002 A 
ATOM     85  C   UNL A   1      35.151  33.245  29.742  1.00  0.00     0.091 A 
ATOM     86  F   UNL A   1      37.048  33.048  28.306  1.00  0.00    -0.205 F 
ATOM     87  C   UNL A   1      34.545  32.964  30.975  1.00  0.00     0.022 A 
BRANCH  85  88
ATOM     88  S   UNL A   1      34.201  34.213  28.565  1.00  0.00     0.127 S 
ATOM     89  O   UNL A   1      34.164  33.325  27.407  1.00  0.00    -0.237 OA
ATOM     90  O   UNL A   1      32.925  34.367  29.266  1.00  0.00    -0.237 OA
ATOM     91  O   UNL A   1      34.941  35.455  28.387  1.00  0.00    -0.744 OA
ENDBRANCH  85  88
ENDBRANCH  57  81
BRANCH  69  92
ATOM     92  C   UNL A   1      43.348  35.311  31.554  1.00  0.00     0.023 A 
ATOM     93  C   UNL A   1      43.665  36.342  30.648  1.00  0.00     0.012 A 
ATOM     94  C   UNL A   1      43.320  35.587  32.935  1.00  0.00     0.148 A 
ATOM     95  C   UNL A   1      43.986  37.617  31.111  1.00  0.00     0.002 A 
ATOM     96  C   UNL A   1      43.588  36.874  33.386  1.00  0.00     0.091 A 
ATOM     97  F   UNL A   1      43.032  34.589  33.783  1.00  0.00    -0.205 F 
ATOM     98  C   UNL A   1      43.935  37.887  32.477  1.00  0.00     0.022 A 
BRANCH  96  99
ATOM     99  S   UNL A   1      43.451  37.339  35.115  1.00  0.00     0.127 S 
ATOM    100  O   UNL A   1      43.774  38.764  35.067  1.00  0.00    -0.237 OA
ATOM    101  O   UNL A   1      42.048  37.041  35.405  1.00  0.00    -0.237 OA
ATOM    102  O   UNL A   1      44.407  36.508  35.834  1.00  0.00    -0.744 OA
ENDBRANCH  96  99
ENDBRANCH  69  92
ENDBRANCH  43  44
ENDBRANCH  35  38
ENDBRANCH  33  34
ENDBRANCH  32  33
ENDBRANCH  31  32
ENDBRANCH  30  31
ENDBRANCH   1  30
TORSDOF 23
ENDMDL
