MODEL 1
REMARK VINA RESULT:     -11.3      0.000      0.000
REMARK SMILES Cc1c(CC(=O)NCCCCCCNC(=O)c2ccc(-c3c4nc(c(-c5cccc(S(=O)(=O)[O-])c5F)c5ccc([nH]5)c(-c5cccc(S(=O)(=O)[O-])c5F)c5nc(c(-c6cccc(S(=O)(=O)[O-])c6F)c6ccc3[nH]6)C=C5)C=C4)cc2)cc(-c2ccc(S(C)(=O)=O)cc2)n1-c1ccccc1
REMARK SMILES IDX 10 1 9 2 8 3 7 4 5 5 6 6 4 8 3 9 1 10 2 11 92 12 80 13 81 14
REMARK SMILES IDX 93 15 94 16 98 17 95 18 97 19 96 20 82 21 83 22 91 23 84 24
REMARK SMILES IDX 90 25 85 26 86 27 87 28 88 29 89 30 11 31 12 32 13 33 14 34
REMARK SMILES IDX 15 35 16 37 17 38 18 39 79 40 19 41 78 42 20 43 21 44 22 45
REMARK SMILES IDX 72 46 23 47 77 48 71 49 73 50 24 51 76 52 70 53 69 54 25 56
REMARK SMILES IDX 57 57 37 58 56 59 38 60 41 61 55 62 74 63 39 64 40 65 54 67
REMARK SMILES IDX 75 68 42 69 26 70 27 71 35 72 28 73 30 74 36 75 29 76 31 77
REMARK SMILES IDX 32 78 33 79 34 80 58 81 59 82 67 83 60 84 62 85 68 86 61 87
REMARK SMILES IDX 63 88 64 89 65 90 66 91 43 92 44 93 52 94 45 95 47 96 53 97
REMARK SMILES IDX 46 98 48 99 49 100 50 101 51 102
REMARK H PARENT 7 7 14 36 73 55 41 66
REMARK Flexibility Score: inf
ROOT
ATOM      1  C   UNL A   1      34.419  33.712  30.672  1.00  0.00     0.002 C 
ENDROOT
BRANCH   1   2
ATOM      2  C   UNL A   1      35.666  33.286  29.864  1.00  0.00     0.021 C 
BRANCH   2   3
ATOM      3  C   UNL A   1      36.341  31.944  30.223  1.00  0.00     0.116 C 
BRANCH   3   4
ATOM      4  N   UNL A   1      36.704  31.109  29.074  1.00  0.00    -0.356 N 
ATOM      5  C   UNL A   1      35.944  30.647  28.028  1.00  0.00     0.224 C 
ATOM      6  O   UNL A   1      36.514  30.058  27.104  1.00  0.00    -0.275 OA
ATOM      7  H   UNL A   1      37.649  30.835  29.047  1.00  0.00     0.163 HD
BRANCH   5   8
ATOM      8  C   UNL A   1      34.444  30.887  27.972  1.00  0.00     0.137 C 
BRANCH   8   9
ATOM      9  C   UNL A   1      33.746  29.887  27.118  1.00  0.00    -0.017 A 
ATOM     10  C   UNL A   1      31.596  31.153  26.367  1.00  0.00     0.065 C 
ATOM     11  C   UNL A   1      32.573  30.029  26.383  1.00  0.00     0.024 A 
ATOM     12  N   UNL A   1      32.367  28.861  25.659  1.00  0.00    -0.314 N 
ATOM     13  C   UNL A   1      34.182  28.560  26.944  1.00  0.00     0.033 A 
ATOM     14  C   UNL A   1      33.341  27.955  26.041  1.00  0.00     0.053 A 
BRANCH  12  15
ATOM     15  C   UNL A   1      31.354  28.631  24.685  1.00  0.00     0.046 A 
ATOM     16  C   UNL A   1      30.431  27.589  24.857  1.00  0.00     0.026 A 
ATOM     17  C   UNL A   1      31.367  29.370  23.498  1.00  0.00     0.026 A 
ATOM     18  C   UNL A   1      29.518  27.296  23.842  1.00  0.00     0.002 A 
ATOM     19  C   UNL A   1      30.458  29.061  22.483  1.00  0.00     0.002 A 
ATOM     20  C   UNL A   1      29.533  28.030  22.658  1.00  0.00     0.000 A 
ENDBRANCH  12  15
BRANCH  14  21
ATOM     21  C   UNL A   1      33.467  26.618  25.519  1.00  0.00    -0.001 A 
ATOM     22  C   UNL A   1      33.059  25.512  26.277  1.00  0.00     0.011 A 
ATOM     23  C   UNL A   1      34.027  26.472  24.246  1.00  0.00     0.011 A 
ATOM     24  C   UNL A   1      33.263  24.243  25.774  1.00  0.00     0.021 A 
ATOM     25  C   UNL A   1      34.237  25.214  23.742  1.00  0.00     0.021 A 
ATOM     26  C   UNL A   1      33.865  24.124  24.520  1.00  0.00     0.067 A 
BRANCH  26  27
ATOM     27  S   UNL A   1      33.942  22.576  23.710  1.00  0.00     0.175 S 
ATOM     28  C   UNL A   1      32.374  21.824  24.141  1.00  0.00     0.163 C 
ATOM     29  O   UNL A   1      34.070  23.041  22.319  1.00  0.00    -0.224 OA
ATOM     30  O   UNL A   1      34.984  21.808  24.293  1.00  0.00    -0.224 OA
ENDBRANCH  26  27
ENDBRANCH  14  21
ENDBRANCH   8   9
ENDBRANCH   5   8
ENDBRANCH   3   4
ENDBRANCH   2   3
ENDBRANCH   1   2
BRANCH   1  31
ATOM     31  C   UNL A   1      33.864  35.160  30.547  1.00  0.00     0.002 C 
BRANCH  31  32
ATOM     32  C   UNL A   1      33.171  35.951  31.727  1.00  0.00     0.021 C 
BRANCH  32  33
ATOM     33  C   UNL A   1      33.933  36.592  32.994  1.00  0.00     0.116 C 
BRANCH  33  34
ATOM     34  N   UNL A   1      34.450  35.576  34.007  1.00  0.00    -0.352 N 
ATOM     35  C   UNL A   1      35.476  34.628  34.275  1.00  0.00     0.251 C 
ATOM     36  H   UNL A   1      33.833  35.575  34.773  1.00  0.00     0.163 HD
ATOM     37  O   UNL A   1      35.246  33.976  35.311  1.00  0.00    -0.269 OA
BRANCH  35  38
ATOM     38  C   UNL A   1      36.824  34.258  33.587  1.00  0.00     0.039 A 
ATOM     39  C   UNL A   1      37.880  33.490  34.188  1.00  0.00     0.014 A 
ATOM     40  C   UNL A   1      37.312  34.894  32.488  1.00  0.00     0.014 A 
ATOM     41  C   UNL A   1      39.249  33.149  33.562  1.00  0.00     0.010 A 
ATOM     42  C   UNL A   1      38.712  34.649  32.009  1.00  0.00     0.010 A 
ATOM     43  C   UNL A   1      39.744  33.649  32.327  1.00  0.00    -0.014 A 
BRANCH  43  44
ATOM     44  C   UNL A   1      40.408  32.495  31.075  1.00  0.00     0.031 A 
ATOM     45  C   UNL A   1      41.492  33.404  30.590  1.00  0.00     0.074 A 
ATOM     46  C   UNL A   1      40.603  31.112  30.541  1.00  0.00     0.049 A 
ATOM     47  N   UNL A   1      42.090  34.055  31.562  1.00  0.00    -0.248 NA
ATOM     48  C   UNL A   1      42.403  33.135  29.511  1.00  0.00     0.031 C 
ATOM     49  C   UNL A   1      39.938  29.834  30.910  1.00  0.00     0.029 A 
ATOM     50  N   UNL A   1      41.628  30.464  29.538  1.00  0.00    -0.354 N 
ATOM     51  C   UNL A   1      43.099  33.179  31.751  1.00  0.00     0.074 A 
ATOM     52  C   UNL A   1      43.489  33.057  30.297  1.00  0.00     0.031 C 
ATOM     53  C   UNL A   1      40.486  28.724  30.314  1.00  0.00     0.029 A 
ATOM     54  C   UNL A   1      41.623  29.000  29.386  1.00  0.00     0.049 A 
ATOM     55  H   UNL A   1      42.256  31.023  29.026  1.00  0.00     0.167 HD
ATOM     56  C   UNL A   1      43.194  32.234  32.779  1.00  0.00     0.034 A 
ATOM     57  C   UNL A   1      42.261  27.908  28.679  1.00  0.00     0.034 A 
ATOM     58  C   UNL A   1      44.295  31.394  32.590  1.00  0.00     0.049 A 
ATOM     59  C   UNL A   1      43.344  27.780  29.749  1.00  0.00     0.074 A 
ATOM     60  C   UNL A   1      45.350  31.477  31.750  1.00  0.00     0.029 A 
ATOM     61  N   UNL A   1      44.405  30.214  33.267  1.00  0.00    -0.354 N 
ATOM     62  N   UNL A   1      43.436  26.927  30.731  1.00  0.00    -0.248 NA
ATOM     63  C   UNL A   1      44.594  28.508  29.444  1.00  0.00     0.031 C 
ATOM     64  C   UNL A   1      45.740  30.171  31.534  1.00  0.00     0.029 A 
ATOM     65  C   UNL A   1      45.017  29.356  32.405  1.00  0.00     0.049 A 
ATOM     66  H   UNL A   1      44.105  30.023  34.185  1.00  0.00     0.167 HD
ATOM     67  C   UNL A   1      44.654  27.291  31.287  1.00  0.00     0.074 A 
ATOM     68  C   UNL A   1      45.439  27.796  30.187  1.00  0.00     0.031 C 
ATOM     69  C   UNL A   1      44.604  27.980  32.463  1.00  0.00     0.034 A 
BRANCH  56  70
ATOM     70  C   UNL A   1      42.320  31.821  34.027  1.00  0.00     0.023 A 
ATOM     71  C   UNL A   1      41.475  30.670  34.124  1.00  0.00     0.012 A 
ATOM     72  C   UNL A   1      42.449  32.535  35.236  1.00  0.00     0.148 A 
ATOM     73  C   UNL A   1      40.603  30.430  35.214  1.00  0.00     0.002 A 
ATOM     74  C   UNL A   1      41.679  32.217  36.373  1.00  0.00     0.091 A 
ATOM     75  F   UNL A   1      43.348  33.529  35.278  1.00  0.00    -0.205 F 
ATOM     76  C   UNL A   1      40.697  31.222  36.343  1.00  0.00     0.022 A 
BRANCH  74  77
ATOM     77  S   UNL A   1      41.993  33.038  37.936  1.00  0.00     0.127 S 
ATOM     78  O   UNL A   1      41.632  34.420  37.629  1.00  0.00    -0.237 OA
ATOM     79  O   UNL A   1      41.095  32.366  38.873  1.00  0.00    -0.237 OA
ATOM     80  O   UNL A   1      43.410  32.793  38.192  1.00  0.00    -0.744 OA
ENDBRANCH  74  77
ENDBRANCH  56  70
BRANCH  57  81
ATOM     81  C   UNL A   1      43.169  26.892  27.608  1.00  0.00     0.023 A 
ATOM     82  C   UNL A   1      43.708  27.569  26.472  1.00  0.00     0.012 A 
ATOM     83  C   UNL A   1      43.224  25.437  27.422  1.00  0.00     0.148 A 
ATOM     84  C   UNL A   1      44.223  26.909  25.306  1.00  0.00     0.002 A 
ATOM     85  C   UNL A   1      43.631  24.792  26.205  1.00  0.00     0.091 A 
ATOM     86  F   UNL A   1      42.917  24.620  28.439  1.00  0.00    -0.205 F 
ATOM     87  C   UNL A   1      44.154  25.530  25.152  1.00  0.00     0.022 A 
BRANCH  85  88
ATOM     88  S   UNL A   1      43.372  22.999  25.886  1.00  0.00     0.127 S 
ATOM     89  O   UNL A   1      44.496  22.352  26.573  1.00  0.00    -0.237 OA
ATOM     90  O   UNL A   1      42.076  22.749  26.511  1.00  0.00    -0.237 OA
ATOM     91  O   UNL A   1      43.425  22.876  24.434  1.00  0.00    -0.744 OA
ENDBRANCH  85  88
ENDBRANCH  57  81
BRANCH  69  92
ATOM     92  C   UNL A   1      43.681  27.363  33.462  1.00  0.00     0.023 A 
ATOM     93  C   UNL A   1      42.328  27.452  33.116  1.00  0.00     0.012 A 
ATOM     94  C   UNL A   1      44.043  26.910  34.752  1.00  0.00     0.148 A 
ATOM     95  C   UNL A   1      41.343  27.150  34.044  1.00  0.00     0.002 A 
ATOM     96  C   UNL A   1      43.052  26.622  35.688  1.00  0.00     0.091 A 
ATOM     97  F   UNL A   1      45.341  26.786  35.049  1.00  0.00    -0.205 F 
ATOM     98  C   UNL A   1      41.702  26.752  35.329  1.00  0.00     0.022 A 
BRANCH  96  99
ATOM     99  S   UNL A   1      43.386  26.244  37.420  1.00  0.00     0.127 S 
ATOM    100  O   UNL A   1      44.187  27.396  37.845  1.00  0.00    -0.237 OA
ATOM    101  O   UNL A   1      42.051  26.192  38.005  1.00  0.00    -0.237 OA
ATOM    102  O   UNL A   1      44.118  24.983  37.435  1.00  0.00    -0.744 OA
ENDBRANCH  96  99
ENDBRANCH  69  92
ENDBRANCH  43  44
ENDBRANCH  35  38
ENDBRANCH  33  34
ENDBRANCH  32  33
ENDBRANCH  31  32
ENDBRANCH   1  31
TORSDOF 20
ENDMDL
MODEL 2
REMARK VINA RESULT:     -10.9      3.101      4.958
REMARK SMILES Cc1c(CC(=O)NCCCCCCNC(=O)c2ccc(-c3c4nc(c(-c5cccc(S(=O)(=O)[O-])c5F)c5ccc([nH]5)c(-c5cccc(S(=O)(=O)[O-])c5F)c5nc(c(-c6cccc(S(=O)(=O)[O-])c6F)c6ccc3[nH]6)C=C5)C=C4)cc2)cc(-c2ccc(S(C)(=O)=O)cc2)n1-c1ccccc1
REMARK SMILES IDX 10 1 9 2 8 3 7 4 5 5 6 6 4 8 3 9 1 10 2 11 92 12 80 13 81 14
REMARK SMILES IDX 93 15 94 16 98 17 95 18 97 19 96 20 82 21 83 22 91 23 84 24
REMARK SMILES IDX 90 25 85 26 86 27 87 28 88 29 89 30 11 31 12 32 13 33 14 34
REMARK SMILES IDX 15 35 16 37 17 38 18 39 79 40 19 41 78 42 20 43 21 44 22 45
REMARK SMILES IDX 72 46 23 47 77 48 71 49 73 50 24 51 76 52 70 53 69 54 25 56
REMARK SMILES IDX 57 57 37 58 56 59 38 60 41 61 55 62 74 63 39 64 40 65 54 67
REMARK SMILES IDX 75 68 42 69 26 70 27 71 35 72 28 73 30 74 36 75 29 76 31 77
REMARK SMILES IDX 32 78 33 79 34 80 58 81 59 82 67 83 60 84 62 85 68 86 61 87
REMARK SMILES IDX 63 88 64 89 65 90 66 91 43 92 44 93 52 94 45 95 47 96 53 97
REMARK SMILES IDX 46 98 48 99 49 100 50 101 51 102
REMARK H PARENT 7 7 14 36 73 55 41 66
REMARK Flexibility Score: inf
ROOT
ATOM      1  C   UNL A   1      33.199  28.835  26.667  1.00  0.00     0.002 C 
ENDROOT
BRANCH   1   2
ATOM      2  C   UNL A   1      32.582  29.712  25.554  1.00  0.00     0.021 C 
BRANCH   2   3
ATOM      3  C   UNL A   1      31.155  29.376  25.070  1.00  0.00     0.116 C 
BRANCH   3   4
ATOM      4  N   UNL A   1      31.065  28.923  23.679  1.00  0.00    -0.356 N 
ATOM      5  C   UNL A   1      30.652  27.723  23.154  1.00  0.00     0.224 C 
ATOM      6  O   UNL A   1      30.546  27.626  21.927  1.00  0.00    -0.275 OA
ATOM      7  H   UNL A   1      31.348  29.587  23.011  1.00  0.00     0.163 HD
BRANCH   5   8
ATOM      8  C   UNL A   1      30.285  26.551  24.050  1.00  0.00     0.137 C 
BRANCH   8   9
ATOM      9  C   UNL A   1      31.320  25.480  24.026  1.00  0.00    -0.017 A 
ATOM     10  C   UNL A   1      33.546  26.818  23.819  1.00  0.00     0.065 C 
ATOM     11  C   UNL A   1      32.706  25.601  23.999  1.00  0.00     0.024 A 
ATOM     12  N   UNL A   1      33.258  24.330  24.093  1.00  0.00    -0.314 N 
ATOM     13  C   UNL A   1      31.027  24.103  23.996  1.00  0.00     0.033 A 
ATOM     14  C   UNL A   1      32.217  23.419  24.053  1.00  0.00     0.053 A 
BRANCH  12  15
ATOM     15  C   UNL A   1      34.639  24.009  24.225  1.00  0.00     0.046 A 
ATOM     16  C   UNL A   1      35.332  23.412  23.161  1.00  0.00     0.026 A 
ATOM     17  C   UNL A   1      35.264  24.177  25.465  1.00  0.00     0.026 A 
ATOM     18  C   UNL A   1      36.651  22.993  23.340  1.00  0.00     0.002 A 
ATOM     19  C   UNL A   1      36.581  23.743  25.637  1.00  0.00     0.002 A 
ATOM     20  C   UNL A   1      37.273  23.157  24.577  1.00  0.00     0.000 A 
ENDBRANCH  12  15
BRANCH  14  21
ATOM     21  C   UNL A   1      32.377  21.987  24.120  1.00  0.00    -0.001 A 
ATOM     22  C   UNL A   1      32.673  21.357  25.336  1.00  0.00     0.011 A 
ATOM     23  C   UNL A   1      32.247  21.267  22.929  1.00  0.00     0.011 A 
ATOM     24  C   UNL A   1      32.891  19.994  25.348  1.00  0.00     0.021 A 
ATOM     25  C   UNL A   1      32.468  19.914  22.933  1.00  0.00     0.021 A 
ATOM     26  C   UNL A   1      32.799  19.305  24.138  1.00  0.00     0.067 A 
BRANCH  26  27
ATOM     27  S   UNL A   1      32.825  17.557  24.102  1.00  0.00     0.175 S 
ATOM     28  C   UNL A   1      34.514  17.176  24.565  1.00  0.00     0.163 C 
ATOM     29  O   UNL A   1      31.802  17.282  25.124  1.00  0.00    -0.224 OA
ATOM     30  O   UNL A   1      32.618  17.125  22.766  1.00  0.00    -0.224 OA
ENDBRANCH  26  27
ENDBRANCH  14  21
ENDBRANCH   8   9
ENDBRANCH   5   8
ENDBRANCH   3   4
ENDBRANCH   2   3
ENDBRANCH   1   2
BRANCH   1  31
ATOM     31  C   UNL A   1      34.013  29.493  27.819  1.00  0.00     0.002 C 
BRANCH  31  32
ATOM     32  C   UNL A   1      34.913  30.782  27.648  1.00  0.00     0.021 C 
BRANCH  32  33
ATOM     33  C   UNL A   1      34.417  32.299  27.866  1.00  0.00     0.116 C 
BRANCH  33  34
ATOM     34  N   UNL A   1      34.283  32.722  29.326  1.00  0.00    -0.352 N 
ATOM     35  C   UNL A   1      35.005  33.046  30.507  1.00  0.00     0.251 C 
ATOM     36  H   UNL A   1      33.324  32.800  29.529  1.00  0.00     0.163 HD
ATOM     37  O   UNL A   1      34.249  33.201  31.485  1.00  0.00    -0.269 OA
BRANCH  35  38
ATOM     38  C   UNL A   1      36.510  33.282  30.834  1.00  0.00     0.039 A 
ATOM     39  C   UNL A   1      37.240  32.643  31.895  1.00  0.00     0.014 A 
ATOM     40  C   UNL A   1      37.220  34.356  30.395  1.00  0.00     0.014 A 
ATOM     41  C   UNL A   1      38.713  32.890  32.285  1.00  0.00     0.010 A 
ATOM     42  C   UNL A   1      38.593  34.646  30.925  1.00  0.00     0.010 A 
ATOM     43  C   UNL A   1      39.561  33.889  31.734  1.00  0.00    -0.014 A 
BRANCH  43  44
ATOM     44  C   UNL A   1      41.218  33.438  31.110  1.00  0.00     0.031 A 
ATOM     45  C   UNL A   1      41.911  34.660  31.622  1.00  0.00     0.074 A 
ATOM     46  C   UNL A   1      42.214  32.419  30.655  1.00  0.00     0.049 A 
ATOM     47  N   UNL A   1      41.512  35.012  32.823  1.00  0.00    -0.248 NA
ATOM     48  C   UNL A   1      43.294  34.997  31.418  1.00  0.00     0.031 C 
ATOM     49  C   UNL A   1      42.031  30.989  30.289  1.00  0.00     0.029 A 
ATOM     50  N   UNL A   1      43.783  32.407  30.527  1.00  0.00    -0.354 N 
ATOM     51  C   UNL A   1      42.464  34.351  33.514  1.00  0.00     0.074 A 
ATOM     52  C   UNL A   1      43.637  34.855  32.707  1.00  0.00     0.031 C 
ATOM     53  C   UNL A   1      43.206  30.313  30.068  1.00  0.00     0.029 A 
ATOM     54  C   UNL A   1      44.445  31.134  30.203  1.00  0.00     0.049 A 
ATOM     55  H   UNL A   1      44.306  33.230  30.662  1.00  0.00     0.167 HD
ATOM     56  C   UNL A   1      42.305  33.133  34.186  1.00  0.00     0.034 A 
ATOM     57  C   UNL A   1      45.742  30.533  29.964  1.00  0.00     0.034 A 
ATOM     58  C   UNL A   1      43.528  32.662  34.671  1.00  0.00     0.049 A 
ATOM     59  C   UNL A   1      45.937  30.240  31.451  1.00  0.00     0.074 A 
ATOM     60  C   UNL A   1      44.734  33.260  34.787  1.00  0.00     0.029 A 
ATOM     61  N   UNL A   1      43.677  31.364  35.064  1.00  0.00    -0.354 N 
ATOM     62  N   UNL A   1      45.766  29.122  32.100  1.00  0.00    -0.248 NA
ATOM     63  C   UNL A   1      46.715  31.265  32.179  1.00  0.00     0.031 C 
ATOM     64  C   UNL A   1      45.653  32.234  34.705  1.00  0.00     0.029 A 
ATOM     65  C   UNL A   1      44.953  31.026  34.729  1.00  0.00     0.049 A 
ATOM     66  H   UNL A   1      43.004  30.792  35.498  1.00  0.00     0.167 HD
ATOM     67  C   UNL A   1      46.163  29.492  33.378  1.00  0.00     0.074 A 
ATOM     68  C   UNL A   1      47.163  30.515  33.184  1.00  0.00     0.031 C 
ATOM     69  C   UNL A   1      45.169  29.674  34.294  1.00  0.00     0.034 A 
BRANCH  56  70
ATOM     70  C   UNL A   1      41.119  32.121  34.439  1.00  0.00     0.023 A 
ATOM     71  C   UNL A   1      40.938  30.853  33.801  1.00  0.00     0.012 A 
ATOM     72  C   UNL A   1      40.199  32.372  35.478  1.00  0.00     0.148 A 
ATOM     73  C   UNL A   1      39.780  30.056  33.962  1.00  0.00     0.002 A 
ATOM     74  C   UNL A   1      39.114  31.509  35.734  1.00  0.00     0.091 A 
ATOM     75  F   UNL A   1      40.398  33.460  36.236  1.00  0.00    -0.205 F 
ATOM     76  C   UNL A   1      38.852  30.397  34.927  1.00  0.00     0.022 A 
BRANCH  74  77
ATOM     77  S   UNL A   1      38.068  31.772  37.165  1.00  0.00     0.127 S 
ATOM     78  O   UNL A   1      37.130  32.779  36.674  1.00  0.00    -0.237 OA
ATOM     79  O   UNL A   1      37.478  30.459  37.417  1.00  0.00    -0.237 OA
ATOM     80  O   UNL A   1      38.990  32.218  38.207  1.00  0.00    -0.744 OA
ENDBRANCH  74  77
ENDBRANCH  56  70
BRANCH  57  81
ATOM     81  C   UNL A   1      47.412  30.189  29.656  1.00  0.00     0.023 A 
ATOM     82  C   UNL A   1      48.162  31.305  29.174  1.00  0.00     0.012 A 
ATOM     83  C   UNL A   1      48.151  28.937  29.451  1.00  0.00     0.148 A 
ATOM     84  C   UNL A   1      49.459  31.206  28.565  1.00  0.00     0.002 A 
ATOM     85  C   UNL A   1      49.393  28.838  28.735  1.00  0.00     0.091 A 
ATOM     86  F   UNL A   1      47.692  27.794  29.981  1.00  0.00    -0.205 F 
ATOM     87  C   UNL A   1      50.059  29.980  28.311  1.00  0.00     0.022 A 
BRANCH  85  88
ATOM     88  S   UNL A   1      50.118  27.233  28.206  1.00  0.00     0.127 S 
ATOM     89  O   UNL A   1      50.522  26.596  29.464  1.00  0.00    -0.237 OA
ATOM     90  O   UNL A   1      48.991  26.577  27.548  1.00  0.00    -0.237 OA
ATOM     91  O   UNL A   1      51.240  27.605  27.351  1.00  0.00    -0.744 OA
ENDBRANCH  85  88
ENDBRANCH  57  81
BRANCH  69  92
ATOM     92  C   UNL A   1      44.176  28.560  34.305  1.00  0.00     0.023 A 
ATOM     93  C   UNL A   1      43.530  28.362  33.080  1.00  0.00     0.012 A 
ATOM     94  C   UNL A   1      43.719  27.870  35.453  1.00  0.00     0.148 A 
ATOM     95  C   UNL A   1      42.417  27.539  32.994  1.00  0.00     0.002 A 
ATOM     96  C   UNL A   1      42.592  27.057  35.369  1.00  0.00     0.091 A 
ATOM     97  F   UNL A   1      44.378  28.034  36.605  1.00  0.00    -0.205 F 
ATOM     98  C   UNL A   1      41.939  26.901  34.136  1.00  0.00     0.022 A 
BRANCH  96  99
ATOM     99  S   UNL A   1      41.791  26.298  36.797  1.00  0.00     0.127 S 
ATOM    100  O   UNL A   1      40.925  27.377  37.282  1.00  0.00    -0.237 OA
ATOM    101  O   UNL A   1      41.075  25.172  36.209  1.00  0.00    -0.237 OA
ATOM    102  O   UNL A   1      42.856  25.939  37.726  1.00  0.00    -0.744 OA
ENDBRANCH  96  99
ENDBRANCH  69  92
ENDBRANCH  43  44
ENDBRANCH  35  38
ENDBRANCH  33  34
ENDBRANCH  32  33
ENDBRANCH  31  32
ENDBRANCH   1  31
TORSDOF 20
ENDMDL
MODEL 3
REMARK VINA RESULT:     -10.5      5.139     11.270
REMARK SMILES Cc1c(CC(=O)NCCCCCCNC(=O)c2ccc(-c3c4nc(c(-c5cccc(S(=O)(=O)[O-])c5F)c5ccc([nH]5)c(-c5cccc(S(=O)(=O)[O-])c5F)c5nc(c(-c6cccc(S(=O)(=O)[O-])c6F)c6ccc3[nH]6)C=C5)C=C4)cc2)cc(-c2ccc(S(C)(=O)=O)cc2)n1-c1ccccc1
REMARK SMILES IDX 10 1 9 2 8 3 7 4 5 5 6 6 4 8 3 9 1 10 2 11 92 12 80 13 81 14
REMARK SMILES IDX 93 15 94 16 98 17 95 18 97 19 96 20 82 21 83 22 91 23 84 24
REMARK SMILES IDX 90 25 85 26 86 27 87 28 88 29 89 30 11 31 12 32 13 33 14 34
REMARK SMILES IDX 15 35 16 37 17 38 18 39 79 40 19 41 78 42 20 43 21 44 22 45
REMARK SMILES IDX 72 46 23 47 77 48 71 49 73 50 24 51 76 52 70 53 69 54 25 56
REMARK SMILES IDX 57 57 37 58 56 59 38 60 41 61 55 62 74 63 39 64 40 65 54 67
REMARK SMILES IDX 75 68 42 69 26 70 27 71 35 72 28 73 30 74 36 75 29 76 31 77
REMARK SMILES IDX 32 78 33 79 34 80 58 81 59 82 67 83 60 84 62 85 68 86 61 87
REMARK SMILES IDX 63 88 64 89 65 90 66 91 43 92 44 93 52 94 45 95 47 96 53 97
REMARK SMILES IDX 46 98 48 99 49 100 50 101 51 102
REMARK H PARENT 7 7 14 36 73 55 41 66
REMARK Flexibility Score: inf
ROOT
ATOM      1  C   UNL A   1      45.454  22.068  24.360  1.00  0.00     0.002 C 
ENDROOT
BRANCH   1   2
ATOM      2  C   UNL A   1      45.715  20.625  24.849  1.00  0.00     0.021 C 
BRANCH   2   3
ATOM      3  C   UNL A   1      44.612  19.569  24.621  1.00  0.00     0.116 C 
BRANCH   3   4
ATOM      4  N   UNL A   1      44.254  18.784  25.806  1.00  0.00    -0.356 N 
ATOM      5  C   UNL A   1      43.063  18.675  26.479  1.00  0.00     0.224 C 
ATOM      6  O   UNL A   1      42.977  17.841  27.387  1.00  0.00    -0.275 OA
ATOM      7  H   UNL A   1      44.989  18.247  26.181  1.00  0.00     0.163 HD
BRANCH   5   8
ATOM      8  C   UNL A   1      41.857  19.519  26.099  1.00  0.00     0.137 C 
BRANCH   8   9
ATOM      9  C   UNL A   1      41.973  20.919  26.592  1.00  0.00    -0.017 A 
ATOM     10  C   UNL A   1      39.864  22.074  25.589  1.00  0.00     0.065 C 
ATOM     11  C   UNL A   1      41.088  21.981  26.431  1.00  0.00     0.024 A 
ATOM     12  N   UNL A   1      41.569  23.064  27.157  1.00  0.00    -0.314 N 
ATOM     13  C   UNL A   1      43.078  21.411  27.313  1.00  0.00     0.033 A 
ATOM     14  C   UNL A   1      42.809  22.712  27.661  1.00  0.00     0.053 A 
BRANCH  12  15
ATOM     15  C   UNL A   1      40.910  24.310  27.365  1.00  0.00     0.046 A 
ATOM     16  C   UNL A   1      41.245  25.427  26.587  1.00  0.00     0.026 A 
ATOM     17  C   UNL A   1      40.018  24.440  28.435  1.00  0.00     0.026 A 
ATOM     18  C   UNL A   1      40.680  26.670  26.877  1.00  0.00     0.002 A 
ATOM     19  C   UNL A   1      39.469  25.690  28.726  1.00  0.00     0.002 A 
ATOM     20  C   UNL A   1      39.795  26.801  27.946  1.00  0.00     0.000 A 
ENDBRANCH  12  15
BRANCH  14  21
ATOM     21  C   UNL A   1      43.639  23.570  28.469  1.00  0.00    -0.001 A 
ATOM     22  C   UNL A   1      44.698  24.287  27.896  1.00  0.00     0.011 A 
ATOM     23  C   UNL A   1      43.358  23.638  29.837  1.00  0.00     0.011 A 
ATOM     24  C   UNL A   1      45.515  25.041  28.712  1.00  0.00     0.021 A 
ATOM     25  C   UNL A   1      44.170  24.381  30.655  1.00  0.00     0.021 A 
ATOM     26  C   UNL A   1      45.241  25.057  30.081  1.00  0.00     0.067 A 
BRANCH  26  27
ATOM     27  S   UNL A   1      46.074  26.165  31.147  1.00  0.00     0.175 S 
ATOM     28  C   UNL A   1      46.974  27.213  30.005  1.00  0.00     0.163 C 
ATOM     29  O   UNL A   1      44.910  26.784  31.804  1.00  0.00    -0.224 OA
ATOM     30  O   UNL A   1      47.012  25.435  31.921  1.00  0.00    -0.224 OA
ENDBRANCH  26  27
ENDBRANCH  14  21
ENDBRANCH   8   9
ENDBRANCH   5   8
ENDBRANCH   3   4
ENDBRANCH   2   3
ENDBRANCH   1   2
BRANCH   1  31
ATOM     31  C   UNL A   1      46.626  23.087  24.269  1.00  0.00     0.002 C 
BRANCH  31  32
ATOM     32  C   UNL A   1      46.623  24.509  24.961  1.00  0.00     0.021 C 
BRANCH  32  33
ATOM     33  C   UNL A   1      45.369  25.520  25.008  1.00  0.00     0.116 C 
BRANCH  33  34
ATOM     34  N   UNL A   1      45.743  26.994  25.128  1.00  0.00    -0.352 N 
ATOM     35  C   UNL A   1      45.462  28.206  25.815  1.00  0.00     0.251 C 
ATOM     36  H   UNL A   1      46.455  27.177  24.474  1.00  0.00     0.163 HD
ATOM     37  O   UNL A   1      46.077  29.171  25.323  1.00  0.00    -0.269 OA
BRANCH  35  38
ATOM     38  C   UNL A   1      44.595  28.580  27.054  1.00  0.00     0.039 A 
ATOM     39  C   UNL A   1      44.764  29.757  27.861  1.00  0.00     0.014 A 
ATOM     40  C   UNL A   1      43.814  27.693  27.727  1.00  0.00     0.014 A 
ATOM     41  C   UNL A   1      43.963  30.136  29.126  1.00  0.00     0.010 A 
ATOM     42  C   UNL A   1      43.183  28.054  29.039  1.00  0.00     0.010 A 
ATOM     43  C   UNL A   1      43.003  29.315  29.776  1.00  0.00    -0.014 A 
BRANCH  43  44
ATOM     44  C   UNL A   1      41.352  29.985  30.180  1.00  0.00     0.031 A 
ATOM     45  C   UNL A   1      40.868  28.770  30.907  1.00  0.00     0.074 A 
ATOM     46  C   UNL A   1      40.424  31.136  30.404  1.00  0.00     0.049 A 
ATOM     47  N   UNL A   1      41.787  28.231  31.674  1.00  0.00    -0.248 NA
ATOM     48  C   UNL A   1      39.555  28.583  31.462  1.00  0.00     0.031 C 
ATOM     49  C   UNL A   1      40.588  32.581  30.090  1.00  0.00     0.029 A 
ATOM     50  N   UNL A   1      39.047  31.300  31.148  1.00  0.00    -0.354 N 
ATOM     51  C   UNL A   1      41.452  28.874  32.812  1.00  0.00     0.074 A 
ATOM     52  C   UNL A   1      39.972  28.583  32.739  1.00  0.00     0.031 C 
ATOM     53  C   UNL A   1      39.585  33.379  30.584  1.00  0.00     0.029 A 
ATOM     54  C   UNL A   1      38.503  32.657  31.316  1.00  0.00     0.049 A 
ATOM     55  H   UNL A   1      38.562  30.515  31.491  1.00  0.00     0.167 HD
ATOM     56  C   UNL A   1      42.115  29.976  33.366  1.00  0.00     0.034 A 
ATOM     57  C   UNL A   1      37.379  33.393  31.857  1.00  0.00     0.034 A 
ATOM     58  C   UNL A   1      41.417  30.482  34.466  1.00  0.00     0.049 A 
ATOM     59  C   UNL A   1      38.045  33.505  33.228  1.00  0.00     0.074 A 
ATOM     60  C   UNL A   1      40.385  29.980  35.178  1.00  0.00     0.029 A 
ATOM     61  N   UNL A   1      41.686  31.725  34.960  1.00  0.00    -0.354 N 
ATOM     62  N   UNL A   1      38.692  34.509  33.751  1.00  0.00    -0.248 NA
ATOM     63  C   UNL A   1      37.633  32.464  34.194  1.00  0.00     0.031 C 
ATOM     64  C   UNL A   1      39.720  31.084  35.673  1.00  0.00     0.029 A 
ATOM     65  C   UNL A   1      40.491  32.213  35.392  1.00  0.00     0.049 A 
ATOM     66  H   UNL A   1      42.561  32.176  34.995  1.00  0.00     0.167 HD
ATOM     67  C   UNL A   1      38.983  34.009  35.013  1.00  0.00     0.074 A 
ATOM     68  C   UNL A   1      37.899  33.111  35.327  1.00  0.00     0.031 C 
ATOM     69  C   UNL A   1      40.274  33.624  35.231  1.00  0.00     0.034 A 
BRANCH  56  70
ATOM     70  C   UNL A   1      43.386  30.839  33.001  1.00  0.00     0.023 A 
ATOM     71  C   UNL A   1      43.397  32.039  32.221  1.00  0.00     0.012 A 
ATOM     72  C   UNL A   1      44.632  30.528  33.583  1.00  0.00     0.148 A 
ATOM     73  C   UNL A   1      44.584  32.689  31.805  1.00  0.00     0.002 A 
ATOM     74  C   UNL A   1      45.798  31.257  33.277  1.00  0.00     0.091 A 
ATOM     75  F   UNL A   1      44.672  29.514  34.461  1.00  0.00    -0.205 F 
ATOM     76  C   UNL A   1      45.797  32.283  32.327  1.00  0.00     0.022 A 
BRANCH  74  77
ATOM     77  S   UNL A   1      47.323  30.936  34.164  1.00  0.00     0.127 S 
ATOM     78  O   UNL A   1      47.011  31.446  35.497  1.00  0.00    -0.237 OA
ATOM     79  O   UNL A   1      47.478  29.485  34.085  1.00  0.00    -0.237 OA
ATOM     80  O   UNL A   1      48.335  31.682  33.420  1.00  0.00    -0.744 OA
ENDBRANCH  74  77
ENDBRANCH  56  70
BRANCH  57  81
ATOM     81  C   UNL A   1      35.868  33.917  32.526  1.00  0.00     0.023 A 
ATOM     82  C   UNL A   1      34.946  32.860  32.792  1.00  0.00     0.012 A 
ATOM     83  C   UNL A   1      35.193  35.220  32.562  1.00  0.00     0.148 A 
ATOM     84  C   UNL A   1      33.546  33.053  33.050  1.00  0.00     0.002 A 
ATOM     85  C   UNL A   1      33.773  35.392  32.704  1.00  0.00     0.091 A 
ATOM     86  F   UNL A   1      35.912  36.350  32.500  1.00  0.00    -0.205 F 
ATOM     87  C   UNL A   1      32.951  34.306  32.972  1.00  0.00     0.022 A 
BRANCH  85  88
ATOM     88  S   UNL A   1      32.924  36.997  32.411  1.00  0.00     0.127 S 
ATOM     89  O   UNL A   1      32.930  37.138  30.951  1.00  0.00    -0.237 OA
ATOM     90  O   UNL A   1      31.597  36.762  32.975  1.00  0.00    -0.237 OA
ATOM     91  O   UNL A   1      33.755  37.979  33.098  1.00  0.00    -0.744 OA
ENDBRANCH  85  88
ENDBRANCH  57  81
BRANCH  69  92
ATOM     92  C   UNL A   1      41.270  34.637  34.773  1.00  0.00     0.023 A 
ATOM     93  C   UNL A   1      41.470  34.652  33.388  1.00  0.00     0.012 A 
ATOM     94  C   UNL A   1      42.126  35.392  35.610  1.00  0.00     0.148 A 
ATOM     95  C   UNL A   1      42.530  35.356  32.837  1.00  0.00     0.002 A 
ATOM     96  C   UNL A   1      43.199  36.086  35.056  1.00  0.00     0.091 A 
ATOM     97  F   UNL A   1      41.890  35.405  36.925  1.00  0.00    -0.205 F 
ATOM     98  C   UNL A   1      43.401  36.058  33.667  1.00  0.00     0.022 A 
BRANCH  96  99
ATOM     99  S   UNL A   1      44.476  36.906  36.032  1.00  0.00     0.127 S 
ATOM    100  O   UNL A   1      45.458  37.284  35.012  1.00  0.00    -0.237 OA
ATOM    101  O   UNL A   1      43.761  38.031  36.624  1.00  0.00    -0.237 OA
ATOM    102  O   UNL A   1      44.969  35.916  36.983  1.00  0.00    -0.744 OA
ENDBRANCH  96  99
ENDBRANCH  69  92
ENDBRANCH  43  44
ENDBRANCH  35  38
ENDBRANCH  33  34
ENDBRANCH  32  33
ENDBRANCH  31  32
ENDBRANCH   1  31
TORSDOF 20
ENDMDL
