MODEL 1
REMARK VINA RESULT:     -11.9      0.000      0.000
REMARK SMILES Cc1cc(C[NH+]2C[C@@H](C)[C@H](C)C2)oc1C(=O)NCCCCCCNC(=O)c1ccc(-c2c3nc(c(-c4cccc(S(=O)(=O)[O-])c4F)c4ccc([nH]4)c(-c4cccc(S(=O)(=O)[O-])c4F)c4nc(c(-c5cccc(S(=O)(=O)[O-])c5F)c5ccc2[nH]5)C=C4)C=C3)cc1
REMARK SMILES IDX 21 1 20 2 19 3 18 4 17 5 15 6 16 7 14 9 1 10 2 11 3 12 4 13
REMARK SMILES IDX 13 14 5 15 6 16 7 17 12 18 8 20 10 21 9 22 11 23 22 24 23 25
REMARK SMILES IDX 24 26 25 27 26 29 27 30 28 31 89 32 29 33 88 34 30 35 31 36
REMARK SMILES IDX 32 37 82 38 33 39 87 40 81 41 83 42 34 43 86 44 80 45 79 46
REMARK SMILES IDX 35 48 67 49 47 50 66 51 48 52 51 53 65 54 84 55 49 56 50 57
REMARK SMILES IDX 64 59 85 60 52 61 36 62 37 63 45 64 38 65 40 66 46 67 39 68
REMARK SMILES IDX 41 69 42 70 43 71 44 72 68 73 69 74 77 75 70 76 72 77 78 78
REMARK SMILES IDX 71 79 73 80 74 81 75 82 76 83 53 84 54 85 62 86 55 87 57 88
REMARK SMILES IDX 63 89 56 90 58 91 59 92 60 93 61 94
REMARK H PARENT 17 8 6 19 24 28 83 47 51 58
REMARK Flexibility Score: inf
ROOT
ATOM      1  C   UNL A   1      31.784  30.511  25.881  1.00  0.00     0.002 C 
ENDROOT
BRANCH   1   2
ATOM      2  C   UNL A   1      32.792  29.588  26.575  1.00  0.00     0.002 C 
BRANCH   2   3
ATOM      3  C   UNL A   1      32.234  28.550  27.553  1.00  0.00     0.021 C 
BRANCH   3   4
ATOM      4  C   UNL A   1      31.426  27.409  26.946  1.00  0.00     0.116 C 
BRANCH   4   5
ATOM      5  N   UNL A   1      32.196  26.518  26.116  1.00  0.00    -0.349 N 
ATOM      6  C   UNL A   1      32.287  26.466  24.742  1.00  0.00     0.287 C 
ATOM      7  O   UNL A   1      32.946  25.523  24.294  1.00  0.00    -0.266 OA
ATOM      8  H   UNL A   1      32.733  25.850  26.599  1.00  0.00     0.163 HD
BRANCH   6   9
ATOM      9  C   UNL A   1      31.621  27.435  23.879  1.00  0.00     0.194 A 
ATOM     10  C   UNL A   1      33.341  28.862  22.501  1.00  0.00     0.049 C 
ATOM     11  C   UNL A   1      32.001  28.408  22.952  1.00  0.00     0.001 A 
ATOM     12  C   UNL A   1      30.794  28.941  22.415  1.00  0.00     0.056 A 
ATOM     13  C   UNL A   1      29.752  28.324  23.059  1.00  0.00     0.159 A 
ATOM     14  O   UNL A   1      30.242  27.391  23.918  1.00  0.00    -0.450 OA
BRANCH  13  15
ATOM     15  C   UNL A   1      28.268  28.482  22.996  1.00  0.00     0.338 C 
BRANCH  15  16
ATOM     16  N   UNL A   1      27.802  29.835  22.676  1.00  0.00    -0.328 N 
ATOM     17  C   UNL A   1      28.391  30.887  23.507  1.00  0.00     0.266 C 
ATOM     18  C   UNL A   1      27.904  30.228  21.267  1.00  0.00     0.266 C 
ATOM     19  H   UNL A   1      26.809  29.755  22.897  1.00  0.00     0.348 HD
ATOM     20  C   UNL A   1      28.167  32.148  22.678  1.00  0.00     0.049 C 
ATOM     21  C   UNL A   1      28.484  31.646  21.269  1.00  0.00     0.049 C 
ATOM     22  C   UNL A   1      29.047  33.303  23.133  1.00  0.00     0.014 C 
ATOM     23  C   UNL A   1      27.927  32.513  20.151  1.00  0.00     0.014 C 
ENDBRANCH  15  16
ENDBRANCH  13  15
ENDBRANCH   6   9
ENDBRANCH   4   5
ENDBRANCH   3   4
ENDBRANCH   2   3
ENDBRANCH   1   2
BRANCH   1  24
ATOM     24  C   UNL A   1      31.524  31.874  26.526  1.00  0.00     0.021 C 
BRANCH  24  25
ATOM     25  C   UNL A   1      32.681  32.496  27.302  1.00  0.00     0.116 C 
BRANCH  25  26
ATOM     26  N   UNL A   1      32.473  33.898  27.617  1.00  0.00    -0.352 N 
ATOM     27  C   UNL A   1      33.124  34.698  28.523  1.00  0.00     0.251 C 
ATOM     28  H   UNL A   1      31.758  34.340  27.106  1.00  0.00     0.163 HD
ATOM     29  O   UNL A   1      32.722  35.843  28.718  1.00  0.00    -0.269 OA
BRANCH  27  30
ATOM     30  C   UNL A   1      34.285  34.186  29.289  1.00  0.00     0.039 A 
ATOM     31  C   UNL A   1      34.045  33.377  30.405  1.00  0.00     0.014 A 
ATOM     32  C   UNL A   1      35.597  34.507  28.932  1.00  0.00     0.014 A 
ATOM     33  C   UNL A   1      35.119  32.843  31.124  1.00  0.00     0.010 A 
ATOM     34  C   UNL A   1      36.666  33.920  29.609  1.00  0.00     0.010 A 
ATOM     35  C   UNL A   1      36.439  33.084  30.713  1.00  0.00    -0.014 A 
BRANCH  35  36
ATOM     36  C   UNL A   1      37.592  32.460  31.416  1.00  0.00     0.031 A 
ATOM     37  C   UNL A   1      38.341  31.315  30.787  1.00  0.00     0.074 A 
ATOM     38  C   UNL A   1      37.911  32.866  32.661  1.00  0.00     0.049 A 
ATOM     39  N   UNL A   1      39.327  30.607  31.275  1.00  0.00    -0.248 NA
ATOM     40  C   UNL A   1      37.909  30.892  29.445  1.00  0.00     0.031 C 
ATOM     41  C   UNL A   1      37.215  33.912  33.413  1.00  0.00     0.029 A 
ATOM     42  N   UNL A   1      38.883  32.427  33.527  1.00  0.00    -0.354 N 
ATOM     43  C   UNL A   1      39.609  29.637  30.321  1.00  0.00     0.074 A 
ATOM     44  C   UNL A   1      38.671  29.827  29.237  1.00  0.00     0.031 C 
ATOM     45  C   UNL A   1      37.780  34.033  34.625  1.00  0.00     0.029 A 
ATOM     46  C   UNL A   1      38.859  33.059  34.750  1.00  0.00     0.049 A 
ATOM     47  H   UNL A   1      39.535  31.728  33.294  1.00  0.00     0.167 HD
ATOM     48  C   UNL A   1      40.578  28.691  30.333  1.00  0.00     0.034 A 
ATOM     49  C   UNL A   1      39.614  32.869  35.851  1.00  0.00     0.034 A 
ATOM     50  C   UNL A   1      41.542  28.535  31.388  1.00  0.00     0.049 A 
ATOM     51  C   UNL A   1      40.715  31.844  35.816  1.00  0.00     0.074 A 
ATOM     52  C   UNL A   1      42.618  27.666  31.449  1.00  0.00     0.029 A 
ATOM     53  N   UNL A   1      41.548  29.258  32.570  1.00  0.00    -0.354 N 
ATOM     54  N   UNL A   1      41.068  31.046  34.839  1.00  0.00    -0.248 NA
ATOM     55  C   UNL A   1      41.547  31.720  37.021  1.00  0.00     0.031 C 
ATOM     56  C   UNL A   1      43.264  27.854  32.676  1.00  0.00     0.029 A 
ATOM     57  C   UNL A   1      42.603  28.854  33.370  1.00  0.00     0.049 A 
ATOM     58  H   UNL A   1      40.896  29.958  32.806  1.00  0.00     0.167 HD
ATOM     59  C   UNL A   1      42.184  30.353  35.296  1.00  0.00     0.074 A 
ATOM     60  C   UNL A   1      42.460  30.841  36.631  1.00  0.00     0.031 C 
ATOM     61  C   UNL A   1      42.905  29.389  34.672  1.00  0.00     0.034 A 
BRANCH  48  62
ATOM     62  C   UNL A   1      40.686  27.781  29.135  1.00  0.00     0.023 A 
ATOM     63  C   UNL A   1      39.837  26.660  29.040  1.00  0.00     0.012 A 
ATOM     64  C   UNL A   1      41.569  28.071  28.078  1.00  0.00     0.148 A 
ATOM     65  C   UNL A   1      39.888  25.822  27.926  1.00  0.00     0.002 A 
ATOM     66  C   UNL A   1      41.585  27.255  26.952  1.00  0.00     0.091 A 
ATOM     67  F   UNL A   1      42.383  29.131  28.195  1.00  0.00    -0.205 F 
ATOM     68  C   UNL A   1      40.753  26.127  26.879  1.00  0.00     0.022 A 
BRANCH  66  69
ATOM     69  S   UNL A   1      42.607  27.605  25.515  1.00  0.00     0.127 S 
ATOM     70  O   UNL A   1      42.330  26.445  24.669  1.00  0.00    -0.237 OA
ATOM     71  O   UNL A   1      42.039  28.863  25.031  1.00  0.00    -0.237 OA
ATOM     72  O   UNL A   1      43.973  27.706  26.009  1.00  0.00    -0.744 OA
ENDBRANCH  66  69
ENDBRANCH  48  62
BRANCH  49  73
ATOM     73  C   UNL A   1      39.398  33.719  37.056  1.00  0.00     0.023 A 
ATOM     74  C   UNL A   1      39.842  35.056  37.047  1.00  0.00     0.012 A 
ATOM     75  C   UNL A   1      38.736  33.223  38.196  1.00  0.00     0.148 A 
ATOM     76  C   UNL A   1      39.661  35.873  38.162  1.00  0.00     0.002 A 
ATOM     77  C   UNL A   1      38.508  34.060  39.283  1.00  0.00     0.091 A 
ATOM     78  F   UNL A   1      38.333  31.944  38.191  1.00  0.00    -0.205 F 
ATOM     79  C   UNL A   1      38.985  35.380  39.276  1.00  0.00     0.022 A 
BRANCH  77  80
ATOM     80  S   UNL A   1      37.530  33.546  40.699  1.00  0.00     0.127 S 
ATOM     81  O   UNL A   1      38.376  32.511  41.288  1.00  0.00    -0.237 OA
ATOM     82  O   UNL A   1      37.441  34.785  41.474  1.00  0.00    -0.237 OA
ATOM     83  O   UNL A   1      36.258  33.092  40.152  1.00  0.00    -0.744 OA
ENDBRANCH  77  80
ENDBRANCH  49  73
BRANCH  61  84
ATOM     84  C   UNL A   1      44.089  28.816  35.403  1.00  0.00     0.023 A 
ATOM     85  C   UNL A   1      45.362  29.395  35.237  1.00  0.00     0.012 A 
ATOM     86  C   UNL A   1      43.926  27.756  36.317  1.00  0.00     0.148 A 
ATOM     87  C   UNL A   1      46.461  28.909  35.947  1.00  0.00     0.002 A 
ATOM     88  C   UNL A   1      45.014  27.308  37.055  1.00  0.00     0.091 A 
ATOM     89  F   UNL A   1      42.710  27.205  36.448  1.00  0.00    -0.205 F 
ATOM     90  C   UNL A   1      46.284  27.875  36.863  1.00  0.00     0.022 A 
BRANCH  88  91
ATOM     91  S   UNL A   1      44.861  26.046  38.326  1.00  0.00     0.127 S 
ATOM     92  O   UNL A   1      44.105  26.754  39.359  1.00  0.00    -0.237 OA
ATOM     93  O   UNL A   1      44.112  24.997  37.634  1.00  0.00    -0.237 OA
ATOM     94  O   UNL A   1      46.223  25.676  38.688  1.00  0.00    -0.744 OA
ENDBRANCH  88  91
ENDBRANCH  61  84
ENDBRANCH  35  36
ENDBRANCH  27  30
ENDBRANCH  25  26
ENDBRANCH  24  25
ENDBRANCH   1  24
TORSDOF 18
ENDMDL
MODEL 2
REMARK VINA RESULT:     -11.8      2.343      8.166
REMARK SMILES Cc1cc(C[NH+]2C[C@@H](C)[C@H](C)C2)oc1C(=O)NCCCCCCNC(=O)c1ccc(-c2c3nc(c(-c4cccc(S(=O)(=O)[O-])c4F)c4ccc([nH]4)c(-c4cccc(S(=O)(=O)[O-])c4F)c4nc(c(-c5cccc(S(=O)(=O)[O-])c5F)c5ccc2[nH]5)C=C4)C=C3)cc1
REMARK SMILES IDX 21 1 20 2 19 3 18 4 17 5 15 6 16 7 14 9 1 10 2 11 3 12 4 13
REMARK SMILES IDX 13 14 5 15 6 16 7 17 12 18 8 20 10 21 9 22 11 23 22 24 23 25
REMARK SMILES IDX 24 26 25 27 26 29 27 30 28 31 89 32 29 33 88 34 30 35 31 36
REMARK SMILES IDX 32 37 82 38 33 39 87 40 81 41 83 42 34 43 86 44 80 45 79 46
REMARK SMILES IDX 35 48 67 49 47 50 66 51 48 52 51 53 65 54 84 55 49 56 50 57
REMARK SMILES IDX 64 59 85 60 52 61 36 62 37 63 45 64 38 65 40 66 46 67 39 68
REMARK SMILES IDX 41 69 42 70 43 71 44 72 68 73 69 74 77 75 70 76 72 77 78 78
REMARK SMILES IDX 71 79 73 80 74 81 75 82 76 83 53 84 54 85 62 86 55 87 57 88
REMARK SMILES IDX 63 89 56 90 58 91 59 92 60 93 61 94
REMARK H PARENT 17 8 6 19 24 28 83 47 51 58
REMARK Flexibility Score: inf
ROOT
ATOM      1  C   UNL A   1      31.696  28.022  25.776  1.00  0.00     0.002 C 
ENDROOT
BRANCH   1   2
ATOM      2  C   UNL A   1      32.890  27.092  26.016  1.00  0.00     0.002 C 
BRANCH   2   3
ATOM      3  C   UNL A   1      33.801  26.797  24.821  1.00  0.00     0.021 C 
BRANCH   3   4
ATOM      4  C   UNL A   1      33.626  27.687  23.596  1.00  0.00     0.116 C 
BRANCH   4   5
ATOM      5  N   UNL A   1      33.400  26.963  22.370  1.00  0.00    -0.349 N 
ATOM      6  C   UNL A   1      32.250  26.358  21.914  1.00  0.00     0.287 C 
ATOM      7  O   UNL A   1      32.374  25.713  20.869  1.00  0.00    -0.266 OA
ATOM      8  H   UNL A   1      34.179  26.890  21.774  1.00  0.00     0.163 HD
BRANCH   6   9
ATOM      9  C   UNL A   1      30.984  26.443  22.636  1.00  0.00     0.194 A 
ATOM     10  C   UNL A   1      30.618  24.376  24.212  1.00  0.00     0.049 C 
ATOM     11  C   UNL A   1      30.293  25.679  23.578  1.00  0.00     0.001 A 
ATOM     12  C   UNL A   1      29.121  26.418  23.909  1.00  0.00     0.056 A 
ATOM     13  C   UNL A   1      29.119  27.550  23.135  1.00  0.00     0.159 A 
ATOM     14  O   UNL A   1      30.256  27.588  22.389  1.00  0.00    -0.450 OA
BRANCH  13  15
ATOM     15  C   UNL A   1      28.154  28.677  22.967  1.00  0.00     0.338 C 
BRANCH  15  16
ATOM     16  N   UNL A   1      28.744  29.935  22.497  1.00  0.00    -0.328 N 
ATOM     17  C   UNL A   1      28.120  30.478  21.288  1.00  0.00     0.266 C 
ATOM     18  C   UNL A   1      28.853  31.002  23.496  1.00  0.00     0.266 C 
ATOM     19  H   UNL A   1      29.692  29.632  22.273  1.00  0.00     0.348 HD
ATOM     20  C   UNL A   1      28.531  31.947  21.317  1.00  0.00     0.049 C 
ATOM     21  C   UNL A   1      28.370  32.278  22.801  1.00  0.00     0.049 C 
ATOM     22  C   UNL A   1      27.676  32.805  20.397  1.00  0.00     0.014 C 
ATOM     23  C   UNL A   1      29.124  33.519  23.254  1.00  0.00     0.014 C 
ENDBRANCH  15  16
ENDBRANCH  13  15
ENDBRANCH   6   9
ENDBRANCH   4   5
ENDBRANCH   3   4
ENDBRANCH   2   3
ENDBRANCH   1   2
BRANCH   1  24
ATOM     24  C   UNL A   1      31.760  29.419  26.399  1.00  0.00     0.021 C 
BRANCH  24  25
ATOM     25  C   UNL A   1      33.133  30.082  26.451  1.00  0.00     0.116 C 
BRANCH  25  26
ATOM     26  N   UNL A   1      33.080  31.481  26.837  1.00  0.00    -0.352 N 
ATOM     27  C   UNL A   1      33.917  32.196  27.658  1.00  0.00     0.251 C 
ATOM     28  H   UNL A   1      32.333  31.993  26.453  1.00  0.00     0.163 HD
ATOM     29  O   UNL A   1      33.637  33.357  27.945  1.00  0.00    -0.269 OA
BRANCH  27  30
ATOM     30  C   UNL A   1      35.138  31.573  28.222  1.00  0.00     0.039 A 
ATOM     31  C   UNL A   1      36.311  32.333  28.280  1.00  0.00     0.014 A 
ATOM     32  C   UNL A   1      35.143  30.252  28.677  1.00  0.00     0.014 A 
ATOM     33  C   UNL A   1      37.468  31.790  28.845  1.00  0.00     0.010 A 
ATOM     34  C   UNL A   1      36.278  29.735  29.301  1.00  0.00     0.010 A 
ATOM     35  C   UNL A   1      37.454  30.497  29.390  1.00  0.00    -0.014 A 
BRANCH  35  36
ATOM     36  C   UNL A   1      38.651  29.931  30.067  1.00  0.00     0.031 A 
ATOM     37  C   UNL A   1      39.042  30.400  31.444  1.00  0.00     0.074 A 
ATOM     38  C   UNL A   1      39.438  29.057  29.409  1.00  0.00     0.049 A 
ATOM     39  N   UNL A   1      40.083  30.069  32.163  1.00  0.00    -0.248 NA
ATOM     40  C   UNL A   1      38.162  31.391  32.086  1.00  0.00     0.031 C 
ATOM     41  C   UNL A   1      39.213  28.581  28.042  1.00  0.00     0.029 A 
ATOM     42  N   UNL A   1      40.604  28.437  29.787  1.00  0.00    -0.354 N 
ATOM     43  C   UNL A   1      40.005  30.833  33.322  1.00  0.00     0.074 A 
ATOM     44  C   UNL A   1      38.830  31.667  33.198  1.00  0.00     0.031 C 
ATOM     45  C   UNL A   1      40.206  27.747  27.697  1.00  0.00     0.029 A 
ATOM     46  C   UNL A   1      41.152  27.647  28.803  1.00  0.00     0.049 A 
ATOM     47  H   UNL A   1      41.006  28.547  30.678  1.00  0.00     0.167 HD
ATOM     48  C   UNL A   1      40.821  30.822  34.403  1.00  0.00     0.034 A 
ATOM     49  C   UNL A   1      42.295  26.930  28.789  1.00  0.00     0.034 A 
ATOM     50  C   UNL A   1      41.961  29.957  34.546  1.00  0.00     0.049 A 
ATOM     51  C   UNL A   1      43.155  26.898  30.023  1.00  0.00     0.074 A 
ATOM     52  C   UNL A   1      42.795  29.807  35.641  1.00  0.00     0.029 A 
ATOM     53  N   UNL A   1      42.432  29.097  33.566  1.00  0.00    -0.354 N 
ATOM     54  N   UNL A   1      42.975  27.506  31.169  1.00  0.00    -0.248 NA
ATOM     55  C   UNL A   1      44.357  26.053  29.974  1.00  0.00     0.031 C 
ATOM     56  C   UNL A   1      43.780  28.868  35.315  1.00  0.00     0.029 A 
ATOM     57  C   UNL A   1      43.547  28.419  34.026  1.00  0.00     0.049 A 
ATOM     58  H   UNL A   1      42.031  28.985  32.673  1.00  0.00     0.167 HD
ATOM     59  C   UNL A   1      44.017  27.087  31.991  1.00  0.00     0.074 A 
ATOM     60  C   UNL A   1      44.813  26.159  31.215  1.00  0.00     0.031 C 
ATOM     61  C   UNL A   1      44.297  27.451  33.266  1.00  0.00     0.034 A 
BRANCH  48  62
ATOM     62  C   UNL A   1      40.478  31.736  35.551  1.00  0.00     0.023 A 
ATOM     63  C   UNL A   1      41.246  32.900  35.763  1.00  0.00     0.012 A 
ATOM     64  C   UNL A   1      39.362  31.487  36.372  1.00  0.00     0.148 A 
ATOM     65  C   UNL A   1      40.928  33.783  36.794  1.00  0.00     0.002 A 
ATOM     66  C   UNL A   1      39.026  32.394  37.371  1.00  0.00     0.091 A 
ATOM     67  F   UNL A   1      38.655  30.365  36.169  1.00  0.00    -0.205 F 
ATOM     68  C   UNL A   1      39.813  33.536  37.589  1.00  0.00     0.022 A 
BRANCH  66  69
ATOM     69  S   UNL A   1      37.564  32.207  38.400  1.00  0.00     0.127 S 
ATOM     70  O   UNL A   1      38.070  32.620  39.708  1.00  0.00    -0.237 OA
ATOM     71  O   UNL A   1      36.630  33.147  37.782  1.00  0.00    -0.237 OA
ATOM     72  O   UNL A   1      37.176  30.807  38.294  1.00  0.00    -0.744 OA
ENDBRANCH  66  69
ENDBRANCH  48  62
BRANCH  49  73
ATOM     73  C   UNL A   1      42.652  26.126  27.586  1.00  0.00     0.023 A 
ATOM     74  C   UNL A   1      43.479  26.693  26.596  1.00  0.00     0.012 A 
ATOM     75  C   UNL A   1      42.204  24.800  27.428  1.00  0.00     0.148 A 
ATOM     76  C   UNL A   1      43.825  25.968  25.457  1.00  0.00     0.002 A 
ATOM     77  C   UNL A   1      42.599  24.063  26.317  1.00  0.00     0.091 A 
ATOM     78  F   UNL A   1      41.407  24.282  28.373  1.00  0.00    -0.205 F 
ATOM     79  C   UNL A   1      43.394  24.650  25.321  1.00  0.00     0.022 A 
BRANCH  77  80
ATOM     80  S   UNL A   1      42.201  22.322  26.132  1.00  0.00     0.127 S 
ATOM     81  O   UNL A   1      42.861  21.995  24.871  1.00  0.00    -0.237 OA
ATOM     82  O   UNL A   1      42.821  21.739  27.323  1.00  0.00    -0.237 OA
ATOM     83  O   UNL A   1      40.745  22.252  26.124  1.00  0.00    -0.744 OA
ENDBRANCH  77  80
ENDBRANCH  49  73
BRANCH  61  84
ATOM     84  C   UNL A   1      45.493  26.821  33.928  1.00  0.00     0.023 A 
ATOM     85  C   UNL A   1      46.748  27.454  33.857  1.00  0.00     0.012 A 
ATOM     86  C   UNL A   1      45.355  25.642  34.688  1.00  0.00     0.148 A 
ATOM     87  C   UNL A   1      47.856  26.910  34.508  1.00  0.00     0.002 A 
ATOM     88  C   UNL A   1      46.451  25.131  35.372  1.00  0.00     0.091 A 
ATOM     89  F   UNL A   1      44.156  25.043  34.728  1.00  0.00    -0.205 F 
ATOM     90  C   UNL A   1      47.704  25.757  35.274  1.00  0.00     0.022 A 
BRANCH  88  91
ATOM     91  S   UNL A   1      46.327  23.705  36.459  1.00  0.00     0.127 S 
ATOM     92  O   UNL A   1      45.193  24.073  37.306  1.00  0.00    -0.237 OA
ATOM     93  O   UNL A   1      46.057  22.618  35.517  1.00  0.00    -0.237 OA
ATOM     94  O   UNL A   1      47.612  23.608  37.139  1.00  0.00    -0.744 OA
ENDBRANCH  88  91
ENDBRANCH  61  84
ENDBRANCH  35  36
ENDBRANCH  27  30
ENDBRANCH  25  26
ENDBRANCH  24  25
ENDBRANCH   1  24
TORSDOF 18
ENDMDL
MODEL 3
REMARK VINA RESULT:     -11.3      5.332      8.561
REMARK SMILES Cc1cc(C[NH+]2C[C@@H](C)[C@H](C)C2)oc1C(=O)NCCCCCCNC(=O)c1ccc(-c2c3nc(c(-c4cccc(S(=O)(=O)[O-])c4F)c4ccc([nH]4)c(-c4cccc(S(=O)(=O)[O-])c4F)c4nc(c(-c5cccc(S(=O)(=O)[O-])c5F)c5ccc2[nH]5)C=C4)C=C3)cc1
REMARK SMILES IDX 21 1 20 2 19 3 18 4 17 5 15 6 16 7 14 9 1 10 2 11 3 12 4 13
REMARK SMILES IDX 13 14 5 15 6 16 7 17 12 18 8 20 10 21 9 22 11 23 22 24 23 25
REMARK SMILES IDX 24 26 25 27 26 29 27 30 28 31 89 32 29 33 88 34 30 35 31 36
REMARK SMILES IDX 32 37 82 38 33 39 87 40 81 41 83 42 34 43 86 44 80 45 79 46
REMARK SMILES IDX 35 48 67 49 47 50 66 51 48 52 51 53 65 54 84 55 49 56 50 57
REMARK SMILES IDX 64 59 85 60 52 61 36 62 37 63 45 64 38 65 40 66 46 67 39 68
REMARK SMILES IDX 41 69 42 70 43 71 44 72 68 73 69 74 77 75 70 76 72 77 78 78
REMARK SMILES IDX 71 79 73 80 74 81 75 82 76 83 53 84 54 85 62 86 55 87 57 88
REMARK SMILES IDX 63 89 56 90 58 91 59 92 60 93 61 94
REMARK H PARENT 17 8 6 19 24 28 83 47 51 58
REMARK Flexibility Score: inf
ROOT
ATOM      1  C   UNL A   1      35.518  21.917  24.225  1.00  0.00     0.002 C 
ENDROOT
BRANCH   1   2
ATOM      2  C   UNL A   1      34.538  22.743  23.386  1.00  0.00     0.002 C 
BRANCH   2   3
ATOM      3  C   UNL A   1      33.059  22.692  23.782  1.00  0.00     0.021 C 
BRANCH   3   4
ATOM      4  C   UNL A   1      32.067  23.277  22.783  1.00  0.00     0.116 C 
BRANCH   4   5
ATOM      5  N   UNL A   1      32.669  24.116  21.778  1.00  0.00    -0.349 N 
ATOM      6  C   UNL A   1      32.687  25.490  21.686  1.00  0.00     0.287 C 
ATOM      7  O   UNL A   1      33.189  25.942  20.653  1.00  0.00    -0.266 OA
ATOM      8  H   UNL A   1      33.132  23.639  21.053  1.00  0.00     0.163 HD
BRANCH   6   9
ATOM      9  C   UNL A   1      32.119  26.349  22.721  1.00  0.00     0.194 A 
ATOM     10  C   UNL A   1      33.517  26.259  24.941  1.00  0.00     0.049 C 
ATOM     11  C   UNL A   1      32.424  26.701  24.037  1.00  0.00     0.001 A 
ATOM     12  C   UNL A   1      31.458  27.672  24.425  1.00  0.00     0.056 A 
ATOM     13  C   UNL A   1      30.592  27.831  23.373  1.00  0.00     0.159 A 
ATOM     14  O   UNL A   1      31.004  27.062  22.330  1.00  0.00    -0.450 OA
BRANCH  13  15
ATOM     15  C   UNL A   1      29.352  28.640  23.177  1.00  0.00     0.338 C 
BRANCH  15  16
ATOM     16  N   UNL A   1      29.570  29.986  22.636  1.00  0.00    -0.328 N 
ATOM     17  C   UNL A   1      28.793  30.283  21.430  1.00  0.00     0.266 C 
ATOM     18  C   UNL A   1      29.409  31.090  23.588  1.00  0.00     0.266 C 
ATOM     19  H   UNL A   1      30.558  29.939  22.391  1.00  0.00     0.348 HD
ATOM     20  C   UNL A   1      28.792  31.808  21.386  1.00  0.00     0.049 C 
ATOM     21  C   UNL A   1      28.583  32.154  22.860  1.00  0.00     0.049 C 
ATOM     22  C   UNL A   1      27.715  32.360  20.464  1.00  0.00     0.014 C 
ATOM     23  C   UNL A   1      28.984  33.572  23.237  1.00  0.00     0.014 C 
ENDBRANCH  15  16
ENDBRANCH  13  15
ENDBRANCH   6   9
ENDBRANCH   4   5
ENDBRANCH   3   4
ENDBRANCH   2   3
ENDBRANCH   1   2
BRANCH   1  24
ATOM     24  C   UNL A   1      35.783  22.387  25.658  1.00  0.00     0.021 C 
BRANCH  24  25
ATOM     25  C   UNL A   1      37.061  23.186  25.890  1.00  0.00     0.116 C 
BRANCH  25  26
ATOM     26  N   UNL A   1      38.221  22.351  26.149  1.00  0.00    -0.352 N 
ATOM     27  C   UNL A   1      39.470  22.702  26.598  1.00  0.00     0.251 C 
ATOM     28  H   UNL A   1      38.092  21.391  25.976  1.00  0.00     0.163 HD
ATOM     29  O   UNL A   1      40.355  21.851  26.651  1.00  0.00    -0.269 OA
BRANCH  27  30
ATOM     30  C   UNL A   1      39.770  24.099  26.990  1.00  0.00     0.039 A 
ATOM     31  C   UNL A   1      39.631  24.460  28.335  1.00  0.00     0.014 A 
ATOM     32  C   UNL A   1      40.166  25.055  26.051  1.00  0.00     0.014 A 
ATOM     33  C   UNL A   1      39.947  25.759  28.745  1.00  0.00     0.010 A 
ATOM     34  C   UNL A   1      40.544  26.330  26.472  1.00  0.00     0.010 A 
ATOM     35  C   UNL A   1      40.436  26.697  27.823  1.00  0.00    -0.014 A 
BRANCH  35  36
ATOM     36  C   UNL A   1      40.853  28.058  28.254  1.00  0.00     0.031 A 
ATOM     37  C   UNL A   1      42.310  28.436  28.288  1.00  0.00     0.074 A 
ATOM     38  C   UNL A   1      39.924  28.929  28.698  1.00  0.00     0.049 A 
ATOM     39  N   UNL A   1      42.865  29.549  28.693  1.00  0.00    -0.248 NA
ATOM     40  C   UNL A   1      43.273  27.420  27.832  1.00  0.00     0.031 C 
ATOM     41  C   UNL A   1      38.488  28.659  28.789  1.00  0.00     0.029 A 
ATOM     42  N   UNL A   1      40.053  30.206  29.187  1.00  0.00    -0.354 N 
ATOM     43  C   UNL A   1      44.236  29.357  28.576  1.00  0.00     0.074 A 
ATOM     44  C   UNL A   1      44.433  28.009  28.090  1.00  0.00     0.031 C 
ATOM     45  C   UNL A   1      37.870  29.735  29.302  1.00  0.00     0.029 A 
ATOM     46  C   UNL A   1      38.863  30.760  29.602  1.00  0.00     0.049 A 
ATOM     47  H   UNL A   1      40.914  30.680  29.235  1.00  0.00     0.167 HD
ATOM     48  C   UNL A   1      45.240  30.231  28.824  1.00  0.00     0.034 A 
ATOM     49  C   UNL A   1      38.603  31.955  30.169  1.00  0.00     0.034 A 
ATOM     50  C   UNL A   1      45.041  31.587  29.260  1.00  0.00     0.049 A 
ATOM     51  C   UNL A   1      39.733  32.925  30.387  1.00  0.00     0.074 A 
ATOM     52  C   UNL A   1      45.990  32.577  29.451  1.00  0.00     0.029 A 
ATOM     53  N   UNL A   1      43.813  32.146  29.578  1.00  0.00    -0.354 N 
ATOM     54  N   UNL A   1      41.007  32.780  30.118  1.00  0.00    -0.248 NA
ATOM     55  C   UNL A   1      39.384  34.237  30.951  1.00  0.00     0.031 C 
ATOM     56  C   UNL A   1      45.336  33.730  29.900  1.00  0.00     0.029 A 
ATOM     57  C   UNL A   1      43.978  33.464  29.969  1.00  0.00     0.049 A 
ATOM     58  H   UNL A   1      42.950  31.674  29.532  1.00  0.00     0.167 HD
ATOM     59  C   UNL A   1      41.606  33.993  30.443  1.00  0.00     0.074 A 
ATOM     60  C   UNL A   1      40.550  34.867  30.912  1.00  0.00     0.031 C 
ATOM     61  C   UNL A   1      42.913  34.344  30.375  1.00  0.00     0.034 A 
BRANCH  48  62
ATOM     62  C   UNL A   1      46.653  29.768  28.574  1.00  0.00     0.023 A 
ATOM     63  C   UNL A   1      47.223  29.947  27.297  1.00  0.00     0.012 A 
ATOM     64  C   UNL A   1      47.436  29.225  29.610  1.00  0.00     0.148 A 
ATOM     65  C   UNL A   1      48.540  29.563  27.046  1.00  0.00     0.002 A 
ATOM     66  C   UNL A   1      48.761  28.883  29.364  1.00  0.00     0.091 A 
ATOM     67  F   UNL A   1      46.870  29.044  30.813  1.00  0.00    -0.205 F 
ATOM     68  C   UNL A   1      49.311  29.042  28.082  1.00  0.00     0.022 A 
BRANCH  66  69
ATOM     69  S   UNL A   1      49.861  28.278  30.650  1.00  0.00     0.127 S 
ATOM     70  O   UNL A   1      51.123  28.153  29.922  1.00  0.00    -0.237 OA
ATOM     71  O   UNL A   1      49.825  29.367  31.626  1.00  0.00    -0.237 OA
ATOM     72  O   UNL A   1      49.282  27.026  31.116  1.00  0.00    -0.744 OA
ENDBRANCH  66  69
ENDBRANCH  48  62
BRANCH  49  73
ATOM     73  C   UNL A   1      37.200  32.328  30.505  1.00  0.00     0.023 A 
ATOM     74  C   UNL A   1      36.731  32.142  31.820  1.00  0.00     0.012 A 
ATOM     75  C   UNL A   1      36.338  32.889  29.543  1.00  0.00     0.148 A 
ATOM     76  C   UNL A   1      35.421  32.475  32.163  1.00  0.00     0.002 A 
ATOM     77  C   UNL A   1      35.050  33.271  29.905  1.00  0.00     0.091 A 
ATOM     78  F   UNL A   1      36.797  33.046  28.293  1.00  0.00    -0.205 F 
ATOM     79  C   UNL A   1      34.584  33.049  31.209  1.00  0.00     0.022 A 
BRANCH  77  80
ATOM     80  S   UNL A   1      33.956  34.139  28.775  1.00  0.00     0.127 S 
ATOM     81  O   UNL A   1      32.867  34.541  29.662  1.00  0.00    -0.237 OA
ATOM     82  O   UNL A   1      34.807  35.234  28.307  1.00  0.00    -0.237 OA
ATOM     83  O   UNL A   1      33.611  33.170  27.743  1.00  0.00    -0.744 OA
ENDBRANCH  77  80
ENDBRANCH  49  73
BRANCH  61  84
ATOM     84  C   UNL A   1      43.284  35.746  30.780  1.00  0.00     0.023 A 
ATOM     85  C   UNL A   1      43.644  36.019  32.113  1.00  0.00     0.012 A 
ATOM     86  C   UNL A   1      43.353  36.776  29.820  1.00  0.00     0.148 A 
ATOM     87  C   UNL A   1      44.039  37.301  32.493  1.00  0.00     0.002 A 
ATOM     88  C   UNL A   1      43.793  38.039  30.196  1.00  0.00     0.091 A 
ATOM     89  F   UNL A   1      42.988  36.501  28.559  1.00  0.00    -0.205 F 
ATOM     90  C   UNL A   1      44.125  38.306  31.533  1.00  0.00     0.022 A 
BRANCH  88  91
ATOM     91  S   UNL A   1      44.025  39.368  29.009  1.00  0.00     0.127 S 
ATOM     92  O   UNL A   1      44.544  40.440  29.859  1.00  0.00    -0.237 OA
ATOM     93  O   UNL A   1      45.005  38.795  28.087  1.00  0.00    -0.237 OA
ATOM     94  O   UNL A   1      42.715  39.613  28.421  1.00  0.00    -0.744 OA
ENDBRANCH  88  91
ENDBRANCH  61  84
ENDBRANCH  35  36
ENDBRANCH  27  30
ENDBRANCH  25  26
ENDBRANCH  24  25
ENDBRANCH   1  24
TORSDOF 18
ENDMDL
