MODEL 1
REMARK VINA RESULT:     -12.4      0.000      0.000
REMARK SMILES O=C(NCCCCCCNC(=O)[C@H]1[C@@H](C(=O)NNC(=O)c2ccccc2Cl)[C@H]2C=C[C@@H]1C2)c1ccc(-c2c3nc(c(-c4cccc(S(=O)(=O)[O-])c4F)c4ccc([nH]4)c(-c4cccc(S(=O)(=O)[O-])c4F)c4nc(c(-c5cccc(S(=O)(=O)[O-])c5F)c5ccc2[nH]5)C=C4)C=C3)cc1
REMARK SMILES IDX 6 1 5 2 4 3 3 4 1 5 2 6 33 8 34 9 95 10 35 11 94 12 36 13
REMARK SMILES IDX 37 14 38 15 88 16 39 17 93 18 87 19 89 20 40 21 92 22 86 23
REMARK SMILES IDX 85 24 41 26 73 27 53 28 72 29 54 30 57 31 71 32 90 33 55 34
REMARK SMILES IDX 56 35 70 37 91 38 58 39 42 40 43 41 51 42 44 43 46 44 52 45
REMARK SMILES IDX 45 46 47 47 48 48 49 49 50 50 74 51 75 52 83 53 76 54 78 55
REMARK SMILES IDX 84 56 77 57 79 58 80 59 81 60 82 61 59 62 60 63 68 64 61 65
REMARK SMILES IDX 63 66 69 67 62 68 64 69 65 70 66 71 67 72 7 73 8 74 9 75
REMARK SMILES IDX 10 76 11 77 12 79 13 80 14 81 31 82 28 83 30 84 32 85 29 86
REMARK SMILES IDX 15 87 16 88 17 89 18 91 19 92 20 94 21 95 22 96 26 97 23 98
REMARK SMILES IDX 25 99 27 100 24 101
REMARK H PARENT 3 7 89 25 57 36 10 78 17 90 18 93
REMARK Flexibility Score: inf
ROOT
ATOM      1  C   UNL A   1      36.504  22.971  23.252  1.00  0.00     0.002 C 
ENDROOT
BRANCH   1   2
ATOM      2  C   UNL A   1      36.908  21.786  24.129  1.00  0.00     0.021 C 
BRANCH   2   3
ATOM      3  C   UNL A   1      37.533  22.186  25.459  1.00  0.00     0.116 C 
BRANCH   3   4
ATOM      4  N   UNL A   1      38.404  21.146  25.982  1.00  0.00    -0.352 N 
ATOM      5  O   UNL A   1      40.354  20.285  26.717  1.00  0.00    -0.269 OA
ATOM      6  C   UNL A   1      39.657  21.277  26.526  1.00  0.00     0.251 C 
ATOM      7  H   UNL A   1      38.048  20.228  25.941  1.00  0.00     0.163 HD
BRANCH   6   8
ATOM      8  C   UNL A   1      40.157  22.627  26.858  1.00  0.00     0.039 A 
ATOM      9  C   UNL A   1      41.102  22.789  27.877  1.00  0.00     0.014 A 
ATOM     10  C   UNL A   1      39.677  23.735  26.158  1.00  0.00     0.014 A 
ATOM     11  C   UNL A   1      41.469  24.066  28.280  1.00  0.00     0.010 A 
ATOM     12  C   UNL A   1      40.120  25.015  26.505  1.00  0.00     0.010 A 
ATOM     13  C   UNL A   1      41.005  25.191  27.579  1.00  0.00    -0.014 A 
BRANCH  13  14
ATOM     14  C   UNL A   1      41.561  26.526  27.916  1.00  0.00     0.031 A 
ATOM     15  C   UNL A   1      42.972  26.906  27.562  1.00  0.00     0.074 A 
ATOM     16  C   UNL A   1      40.762  27.397  28.563  1.00  0.00     0.049 A 
ATOM     17  N   UNL A   1      43.590  28.038  27.778  1.00  0.00    -0.248 NA
ATOM     18  C   UNL A   1      43.798  25.891  26.889  1.00  0.00     0.031 C 
ATOM     19  C   UNL A   1      39.390  27.114  29.000  1.00  0.00     0.029 A 
ATOM     20  N   UNL A   1      40.978  28.687  28.973  1.00  0.00    -0.354 N 
ATOM     21  C   UNL A   1      44.886  27.865  27.309  1.00  0.00     0.074 A 
ATOM     22  C   UNL A   1      44.968  26.515  26.792  1.00  0.00     0.031 C 
ATOM     23  C   UNL A   1      38.883  28.201  29.596  1.00  0.00     0.029 A 
ATOM     24  C   UNL A   1      39.907  29.236  29.640  1.00  0.00     0.049 A 
ATOM     25  H   UNL A   1      41.817  29.174  28.804  1.00  0.00     0.167 HD
ATOM     26  C   UNL A   1      45.908  28.755  27.304  1.00  0.00     0.034 A 
ATOM     27  C   UNL A   1      39.771  30.428  30.248  1.00  0.00     0.034 A 
ATOM     28  C   UNL A   1      45.804  30.106  27.792  1.00  0.00     0.049 A 
ATOM     29  C   UNL A   1      40.918  31.394  30.206  1.00  0.00     0.074 A 
ATOM     30  C   UNL A   1      46.760  31.105  27.756  1.00  0.00     0.029 A 
ATOM     31  N   UNL A   1      44.690  30.642  28.418  1.00  0.00    -0.354 N 
ATOM     32  N   UNL A   1      42.085  31.261  29.624  1.00  0.00    -0.248 NA
ATOM     33  C   UNL A   1      40.722  32.684  30.878  1.00  0.00     0.031 C 
ATOM     34  C   UNL A   1      46.236  32.237  28.389  1.00  0.00     0.029 A 
ATOM     35  C   UNL A   1      44.941  31.952  28.790  1.00  0.00     0.049 A 
ATOM     36  H   UNL A   1      43.845  30.162  28.576  1.00  0.00     0.167 HD
ATOM     37  C   UNL A   1      42.753  32.459  29.839  1.00  0.00     0.074 A 
ATOM     38  C   UNL A   1      41.847  33.317  30.575  1.00  0.00     0.031 C 
ATOM     39  C   UNL A   1      44.012  32.810  29.480  1.00  0.00     0.034 A 
BRANCH  26  40
ATOM     40  C   UNL A   1      47.230  28.323  26.725  1.00  0.00     0.023 A 
ATOM     41  C   UNL A   1      48.299  28.006  27.587  1.00  0.00     0.012 A 
ATOM     42  C   UNL A   1      47.377  28.119  25.339  1.00  0.00     0.148 A 
ATOM     43  C   UNL A   1      49.497  27.507  27.077  1.00  0.00     0.002 A 
ATOM     44  C   UNL A   1      48.560  27.583  24.841  1.00  0.00     0.091 A 
ATOM     45  F   UNL A   1      46.353  28.441  24.535  1.00  0.00    -0.205 F 
ATOM     46  C   UNL A   1      49.623  27.284  25.708  1.00  0.00     0.022 A 
BRANCH  44  47
ATOM     47  S   UNL A   1      48.794  27.183  23.106  1.00  0.00     0.127 S 
ATOM     48  O   UNL A   1      48.109  28.298  22.452  1.00  0.00    -0.237 OA
ATOM     49  O   UNL A   1      50.251  27.206  22.980  1.00  0.00    -0.237 OA
ATOM     50  O   UNL A   1      48.183  25.876  22.906  1.00  0.00    -0.744 OA
ENDBRANCH  44  47
ENDBRANCH  26  40
BRANCH  27  51
ATOM     51  C   UNL A   1      38.493  30.775  30.930  1.00  0.00     0.023 A 
ATOM     52  C   UNL A   1      38.314  30.444  32.286  1.00  0.00     0.012 A 
ATOM     53  C   UNL A   1      37.466  31.456  30.247  1.00  0.00     0.148 A 
ATOM     54  C   UNL A   1      37.119  30.751  32.940  1.00  0.00     0.002 A 
ATOM     55  C   UNL A   1      36.306  31.815  30.921  1.00  0.00     0.091 A 
ATOM     56  F   UNL A   1      37.648  31.750  28.952  1.00  0.00    -0.205 F 
ATOM     57  C   UNL A   1      36.121  31.446  32.261  1.00  0.00     0.022 A 
BRANCH  55  58
ATOM     58  S   UNL A   1      35.042  32.838  30.159  1.00  0.00     0.127 S 
ATOM     59  O   UNL A   1      34.568  31.974  29.081  1.00  0.00    -0.237 OA
ATOM     60  O   UNL A   1      34.096  33.026  31.260  1.00  0.00    -0.237 OA
ATOM     61  O   UNL A   1      35.726  34.056  29.749  1.00  0.00    -0.744 OA
ENDBRANCH  55  58
ENDBRANCH  27  51
BRANCH  39  62
ATOM     62  C   UNL A   1      44.475  34.194  29.851  1.00  0.00     0.023 A 
ATOM     63  C   UNL A   1      45.204  34.392  31.040  1.00  0.00     0.012 A 
ATOM     64  C   UNL A   1      44.232  35.286  28.996  1.00  0.00     0.148 A 
ATOM     65  C   UNL A   1      45.652  35.665  31.391  1.00  0.00     0.002 A 
ATOM     66  C   UNL A   1      44.727  36.540  29.326  1.00  0.00     0.091 A 
ATOM     67  F   UNL A   1      43.519  35.079  27.879  1.00  0.00    -0.205 F 
ATOM     68  C   UNL A   1      45.425  36.735  30.530  1.00  0.00     0.022 A 
BRANCH  66  69
ATOM     69  S   UNL A   1      44.565  37.957  28.233  1.00  0.00     0.127 S 
ATOM     70  O   UNL A   1      43.120  38.182  28.250  1.00  0.00    -0.237 OA
ATOM     71  O   UNL A   1      45.348  38.978  28.930  1.00  0.00    -0.237 OA
ATOM     72  O   UNL A   1      45.118  37.541  26.952  1.00  0.00    -0.744 OA
ENDBRANCH  66  69
ENDBRANCH  39  62
ENDBRANCH  13  14
ENDBRANCH   6   8
ENDBRANCH   3   4
ENDBRANCH   2   3
ENDBRANCH   1   2
BRANCH   1  73
ATOM     73  C   UNL A   1      35.072  23.469  23.476  1.00  0.00     0.002 C 
BRANCH  73  74
ATOM     74  C   UNL A   1      34.044  22.944  22.463  1.00  0.00     0.021 C 
BRANCH  74  75
ATOM     75  C   UNL A   1      33.048  24.008  21.997  1.00  0.00     0.116 C 
BRANCH  75  76
ATOM     76  N   UNL A   1      33.663  25.322  22.056  1.00  0.00    -0.356 N 
ATOM     77  C   UNL A   1      33.066  26.543  22.208  1.00  0.00     0.224 C 
ATOM     78  H   UNL A   1      34.643  25.336  21.976  1.00  0.00     0.163 HD
ATOM     79  O   UNL A   1      33.689  27.539  21.850  1.00  0.00    -0.275 OA
BRANCH  77  80
ATOM     80  C   UNL A   1      31.647  26.572  22.760  1.00  0.00     0.098 C 
ATOM     81  C   UNL A   1      31.427  26.526  24.325  1.00  0.00     0.100 C 
ATOM     82  C   UNL A   1      30.926  27.890  22.355  1.00  0.00     0.025 C 
ATOM     83  C   UNL A   1      30.654  27.845  24.569  1.00  0.00     0.025 C 
ATOM     84  C   UNL A   1      31.678  29.069  22.924  1.00  0.00    -0.027 C 
ATOM     85  C   UNL A   1      29.751  27.881  23.325  1.00  0.00     0.017 C 
ATOM     86  C   UNL A   1      31.524  29.033  24.254  1.00  0.00    -0.027 C 
BRANCH  81  87
ATOM     87  C   UNL A   1      32.639  26.099  25.156  1.00  0.00     0.242 C 
ATOM     88  O   UNL A   1      33.778  26.227  24.687  1.00  0.00    -0.273 OA
ATOM     89  N   UNL A   1      32.538  25.396  26.325  1.00  0.00    -0.267 N 
ATOM     90  H   UNL A   1      33.366  25.261  26.839  1.00  0.00     0.191 HD
BRANCH  89  91
ATOM     91  N   UNL A   1      31.379  24.855  26.850  1.00  0.00    -0.263 N 
ATOM     92  C   UNL A   1      31.067  23.516  26.902  1.00  0.00     0.271 C 
ATOM     93  H   UNL A   1      30.718  25.485  27.221  1.00  0.00     0.191 HD
ATOM     94  O   UNL A   1      29.972  23.151  27.329  1.00  0.00    -0.267 OA
BRANCH  92  95
ATOM     95  C   UNL A   1      31.964  22.511  26.304  1.00  0.00     0.060 A 
ATOM     96  C   UNL A   1      31.500  21.907  25.122  1.00  0.00     0.015 A 
ATOM     97  C   UNL A   1      33.175  22.106  26.864  1.00  0.00     0.053 A 
ATOM     98  C   UNL A   1      32.266  20.936  24.480  1.00  0.00     0.001 A 
ATOM     99  C   UNL A   1      33.945  21.138  26.207  1.00  0.00     0.021 A 
ATOM    100  Cl  UNL A   1      33.752  22.702  28.375  1.00  0.00    -0.083 Cl
ATOM    101  C   UNL A   1      33.493  20.559  25.017  1.00  0.00     0.002 A 
ENDBRANCH  92  95
ENDBRANCH  89  91
ENDBRANCH  81  87
ENDBRANCH  77  80
ENDBRANCH  75  76
ENDBRANCH  74  75
ENDBRANCH  73  74
ENDBRANCH   1  73
TORSDOF 19
ENDMDL
MODEL 2
REMARK VINA RESULT:     -12.2      1.900      8.058
REMARK SMILES O=C(NCCCCCCNC(=O)[C@H]1[C@@H](C(=O)NNC(=O)c2ccccc2Cl)[C@H]2C=C[C@@H]1C2)c1ccc(-c2c3nc(c(-c4cccc(S(=O)(=O)[O-])c4F)c4ccc([nH]4)c(-c4cccc(S(=O)(=O)[O-])c4F)c4nc(c(-c5cccc(S(=O)(=O)[O-])c5F)c5ccc2[nH]5)C=C4)C=C3)cc1
REMARK SMILES IDX 6 1 5 2 4 3 3 4 1 5 2 6 33 8 34 9 95 10 35 11 94 12 36 13
REMARK SMILES IDX 37 14 38 15 88 16 39 17 93 18 87 19 89 20 40 21 92 22 86 23
REMARK SMILES IDX 85 24 41 26 73 27 53 28 72 29 54 30 57 31 71 32 90 33 55 34
REMARK SMILES IDX 56 35 70 37 91 38 58 39 42 40 43 41 51 42 44 43 46 44 52 45
REMARK SMILES IDX 45 46 47 47 48 48 49 49 50 50 74 51 75 52 83 53 76 54 78 55
REMARK SMILES IDX 84 56 77 57 79 58 80 59 81 60 82 61 59 62 60 63 68 64 61 65
REMARK SMILES IDX 63 66 69 67 62 68 64 69 65 70 66 71 67 72 7 73 8 74 9 75
REMARK SMILES IDX 10 76 11 77 12 79 13 80 14 81 31 82 28 83 30 84 32 85 29 86
REMARK SMILES IDX 15 87 16 88 17 89 18 91 19 92 20 94 21 95 22 96 26 97 23 98
REMARK SMILES IDX 25 99 27 100 24 101
REMARK H PARENT 3 7 89 25 57 36 10 78 17 90 18 93
REMARK Flexibility Score: inf
ROOT
ATOM      1  C   UNL A   1      36.921  20.247  24.651  1.00  0.00     0.002 C 
ENDROOT
BRANCH   1   2
ATOM      2  C   UNL A   1      38.086  19.362  25.094  1.00  0.00     0.021 C 
BRANCH   2   3
ATOM      3  C   UNL A   1      39.231  20.126  25.745  1.00  0.00     0.116 C 
BRANCH   3   4
ATOM      4  N   UNL A   1      40.332  19.247  26.104  1.00  0.00    -0.352 N 
ATOM      5  O   UNL A   1      42.490  18.719  26.488  1.00  0.00    -0.269 OA
ATOM      6  C   UNL A   1      41.623  19.585  26.425  1.00  0.00     0.251 C 
ATOM      7  H   UNL A   1      40.124  18.284  26.120  1.00  0.00     0.163 HD
BRANCH   6   8
ATOM      8  C   UNL A   1      41.952  21.004  26.675  1.00  0.00     0.039 A 
ATOM      9  C   UNL A   1      42.207  21.441  27.978  1.00  0.00     0.014 A 
ATOM     10  C   UNL A   1      41.998  21.901  25.606  1.00  0.00     0.014 A 
ATOM     11  C   UNL A   1      42.382  22.796  28.228  1.00  0.00     0.010 A 
ATOM     12  C   UNL A   1      42.266  23.252  25.852  1.00  0.00     0.010 A 
ATOM     13  C   UNL A   1      42.443  23.711  27.166  1.00  0.00    -0.014 A 
BRANCH  13  14
ATOM     14  C   UNL A   1      42.816  25.120  27.452  1.00  0.00     0.031 A 
ATOM     15  C   UNL A   1      41.853  26.078  28.094  1.00  0.00     0.074 A 
ATOM     16  C   UNL A   1      44.055  25.525  27.109  1.00  0.00     0.049 A 
ATOM     17  N   UNL A   1      42.042  27.330  28.418  1.00  0.00    -0.248 NA
ATOM     18  C   UNL A   1      40.505  25.575  28.408  1.00  0.00     0.031 C 
ATOM     19  C   UNL A   1      45.055  24.691  26.433  1.00  0.00     0.029 A 
ATOM     20  N   UNL A   1      44.686  26.731  27.269  1.00  0.00    -0.354 N 
ATOM     21  C   UNL A   1      40.833  27.782  28.933  1.00  0.00     0.074 A 
ATOM     22  C   UNL A   1      39.913  26.665  28.883  1.00  0.00     0.031 C 
ATOM     23  C   UNL A   1      46.177  25.401  26.256  1.00  0.00     0.029 A 
ATOM     24  C   UNL A   1      45.960  26.756  26.747  1.00  0.00     0.049 A 
ATOM     25  H   UNL A   1      44.270  27.504  27.715  1.00  0.00     0.167 HD
ATOM     26  C   UNL A   1      40.527  29.012  29.412  1.00  0.00     0.034 A 
ATOM     27  C   UNL A   1      46.845  27.763  26.646  1.00  0.00     0.034 A 
ATOM     28  C   UNL A   1      41.462  30.105  29.486  1.00  0.00     0.049 A 
ATOM     29  C   UNL A   1      46.477  29.106  27.203  1.00  0.00     0.074 A 
ATOM     30  C   UNL A   1      41.267  31.364  30.028  1.00  0.00     0.029 A 
ATOM     31  N   UNL A   1      42.756  30.080  28.992  1.00  0.00    -0.354 N 
ATOM     32  N   UNL A   1      45.379  29.468  27.823  1.00  0.00    -0.248 NA
ATOM     33  C   UNL A   1      47.477  30.173  27.075  1.00  0.00     0.031 C 
ATOM     34  C   UNL A   1      42.433  32.110  29.833  1.00  0.00     0.029 A 
ATOM     35  C   UNL A   1      43.366  31.306  29.200  1.00  0.00     0.049 A 
ATOM     36  H   UNL A   1      43.180  29.305  28.558  1.00  0.00     0.167 HD
ATOM     37  C   UNL A   1      45.566  30.797  28.178  1.00  0.00     0.074 A 
ATOM     38  C   UNL A   1      46.896  31.165  27.736  1.00  0.00     0.031 C 
ATOM     39  C   UNL A   1      44.707  31.643  28.796  1.00  0.00     0.034 A 
BRANCH  26  40
ATOM     40  C   UNL A   1      39.133  29.252  29.929  1.00  0.00     0.023 A 
ATOM     41  C   UNL A   1      38.800  28.867  31.243  1.00  0.00     0.012 A 
ATOM     42  C   UNL A   1      38.191  29.962  29.157  1.00  0.00     0.148 A 
ATOM     43  C   UNL A   1      37.547  29.172  31.776  1.00  0.00     0.002 A 
ATOM     44  C   UNL A   1      36.959  30.297  29.709  1.00  0.00     0.091 A 
ATOM     45  F   UNL A   1      38.522  30.304  27.904  1.00  0.00    -0.205 F 
ATOM     46  C   UNL A   1      36.633  29.896  31.015  1.00  0.00     0.022 A 
BRANCH  44  47
ATOM     47  S   UNL A   1      35.743  31.296  28.842  1.00  0.00     0.127 S 
ATOM     48  O   UNL A   1      34.889  31.739  29.944  1.00  0.00    -0.237 OA
ATOM     49  O   UNL A   1      36.572  32.346  28.254  1.00  0.00    -0.237 OA
ATOM     50  O   UNL A   1      35.104  30.410  27.880  1.00  0.00    -0.744 OA
ENDBRANCH  44  47
ENDBRANCH  26  40
BRANCH  27  51
ATOM     51  C   UNL A   1      48.170  27.529  26.007  1.00  0.00     0.023 A 
ATOM     52  C   UNL A   1      49.273  27.163  26.801  1.00  0.00     0.012 A 
ATOM     53  C   UNL A   1      48.335  27.643  24.612  1.00  0.00     0.148 A 
ATOM     54  C   UNL A   1      50.525  26.950  26.222  1.00  0.00     0.002 A 
ATOM     55  C   UNL A   1      49.568  27.367  24.036  1.00  0.00     0.091 A 
ATOM     56  F   UNL A   1      47.278  28.008  23.873  1.00  0.00    -0.205 F 
ATOM     57  C   UNL A   1      50.669  27.041  24.840  1.00  0.00     0.022 A 
BRANCH  55  58
ATOM     58  S   UNL A   1      49.796  27.319  22.255  1.00  0.00     0.127 S 
ATOM     59  O   UNL A   1      48.813  26.316  21.855  1.00  0.00    -0.237 OA
ATOM     60  O   UNL A   1      49.468  28.692  21.868  1.00  0.00    -0.237 OA
ATOM     61  O   UNL A   1      51.193  26.962  22.054  1.00  0.00    -0.744 OA
ENDBRANCH  55  58
ENDBRANCH  27  51
BRANCH  39  62
ATOM     62  C   UNL A   1      45.189  33.045  29.059  1.00  0.00     0.023 A 
ATOM     63  C   UNL A   1      45.875  33.337  30.254  1.00  0.00     0.012 A 
ATOM     64  C   UNL A   1      45.007  34.059  28.099  1.00  0.00     0.148 A 
ATOM     65  C   UNL A   1      46.341  34.626  30.506  1.00  0.00     0.002 A 
ATOM     66  C   UNL A   1      45.519  35.328  28.334  1.00  0.00     0.091 A 
ATOM     67  F   UNL A   1      44.333  33.765  26.977  1.00  0.00    -0.205 F 
ATOM     68  C   UNL A   1      46.174  35.617  29.543  1.00  0.00     0.022 A 
BRANCH  66  69
ATOM     69  S   UNL A   1      45.434  36.642  27.111  1.00  0.00     0.127 S 
ATOM     70  O   UNL A   1      46.206  36.073  26.008  1.00  0.00    -0.237 OA
ATOM     71  O   UNL A   1      43.995  36.740  26.862  1.00  0.00    -0.237 OA
ATOM     72  O   UNL A   1      46.019  37.816  27.743  1.00  0.00    -0.744 OA
ENDBRANCH  66  69
ENDBRANCH  39  62
ENDBRANCH  13  14
ENDBRANCH   6   8
ENDBRANCH   3   4
ENDBRANCH   2   3
ENDBRANCH   1   2
BRANCH   1  73
ATOM     73  C   UNL A   1      36.355  21.152  25.752  1.00  0.00     0.002 C 
BRANCH  73  74
ATOM     74  C   UNL A   1      37.171  22.425  26.020  1.00  0.00     0.021 C 
BRANCH  74  75
ATOM     75  C   UNL A   1      36.461  23.708  25.585  1.00  0.00     0.116 C 
BRANCH  75  76
ATOM     76  N   UNL A   1      36.240  23.691  24.151  1.00  0.00    -0.356 N 
ATOM     77  C   UNL A   1      35.073  23.501  23.464  1.00  0.00     0.224 C 
ATOM     78  H   UNL A   1      37.040  23.835  23.596  1.00  0.00     0.163 HD
ATOM     79  O   UNL A   1      35.144  23.137  22.293  1.00  0.00    -0.275 OA
BRANCH  77  80
ATOM     80  C   UNL A   1      33.767  23.703  24.221  1.00  0.00     0.098 C 
ATOM     81  C   UNL A   1      32.565  24.438  23.504  1.00  0.00     0.100 C 
ATOM     82  C   UNL A   1      33.142  22.333  24.613  1.00  0.00     0.025 C 
ATOM     83  C   UNL A   1      31.460  23.356  23.562  1.00  0.00     0.025 C 
ATOM     84  C   UNL A   1      32.844  21.541  23.362  1.00  0.00    -0.027 C 
ATOM     85  C   UNL A   1      31.718  22.759  24.955  1.00  0.00     0.017 C 
ATOM     86  C   UNL A   1      31.844  22.164  22.727  1.00  0.00    -0.027 C 
BRANCH  81  87
ATOM     87  C   UNL A   1      32.920  25.206  22.228  1.00  0.00     0.242 C 
ATOM     88  O   UNL A   1      32.996  24.601  21.151  1.00  0.00    -0.273 OA
ATOM     89  N   UNL A   1      33.356  26.503  22.230  1.00  0.00    -0.267 N 
ATOM     90  H   UNL A   1      33.457  26.942  21.355  1.00  0.00     0.191 HD
BRANCH  89  91
ATOM     91  N   UNL A   1      33.669  27.254  23.347  1.00  0.00    -0.263 N 
ATOM     92  C   UNL A   1      32.810  28.094  24.019  1.00  0.00     0.271 C 
ATOM     93  H   UNL A   1      34.589  27.182  23.693  1.00  0.00     0.191 HD
ATOM     94  O   UNL A   1      33.217  28.771  24.963  1.00  0.00    -0.267 OA
BRANCH  92  95
ATOM     95  C   UNL A   1      31.439  28.319  23.527  1.00  0.00     0.060 A 
ATOM     96  C   UNL A   1      31.293  29.346  22.578  1.00  0.00     0.015 A 
ATOM     97  C   UNL A   1      30.317  27.627  23.983  1.00  0.00     0.053 A 
ATOM     98  C   UNL A   1      30.038  29.648  22.055  1.00  0.00     0.001 A 
ATOM     99  C   UNL A   1      29.060  27.928  23.444  1.00  0.00     0.021 A 
ATOM    100  Cl  UNL A   1      30.392  26.445  25.236  1.00  0.00    -0.083 Cl
ATOM    101  C   UNL A   1      28.923  28.932  22.480  1.00  0.00     0.002 A 
ENDBRANCH  92  95
ENDBRANCH  89  91
ENDBRANCH  81  87
ENDBRANCH  77  80
ENDBRANCH  75  76
ENDBRANCH  74  75
ENDBRANCH  73  74
ENDBRANCH   1  73
TORSDOF 19
ENDMDL
MODEL 3
REMARK VINA RESULT:     -12.2      4.915      7.955
REMARK SMILES O=C(NCCCCCCNC(=O)[C@H]1[C@@H](C(=O)NNC(=O)c2ccccc2Cl)[C@H]2C=C[C@@H]1C2)c1ccc(-c2c3nc(c(-c4cccc(S(=O)(=O)[O-])c4F)c4ccc([nH]4)c(-c4cccc(S(=O)(=O)[O-])c4F)c4nc(c(-c5cccc(S(=O)(=O)[O-])c5F)c5ccc2[nH]5)C=C4)C=C3)cc1
REMARK SMILES IDX 6 1 5 2 4 3 3 4 1 5 2 6 33 8 34 9 95 10 35 11 94 12 36 13
REMARK SMILES IDX 37 14 38 15 88 16 39 17 93 18 87 19 89 20 40 21 92 22 86 23
REMARK SMILES IDX 85 24 41 26 73 27 53 28 72 29 54 30 57 31 71 32 90 33 55 34
REMARK SMILES IDX 56 35 70 37 91 38 58 39 42 40 43 41 51 42 44 43 46 44 52 45
REMARK SMILES IDX 45 46 47 47 48 48 49 49 50 50 74 51 75 52 83 53 76 54 78 55
REMARK SMILES IDX 84 56 77 57 79 58 80 59 81 60 82 61 59 62 60 63 68 64 61 65
REMARK SMILES IDX 63 66 69 67 62 68 64 69 65 70 66 71 67 72 7 73 8 74 9 75
REMARK SMILES IDX 10 76 11 77 12 79 13 80 14 81 31 82 28 83 30 84 32 85 29 86
REMARK SMILES IDX 15 87 16 88 17 89 18 91 19 92 20 94 21 95 22 96 26 97 23 98
REMARK SMILES IDX 25 99 27 100 24 101
REMARK H PARENT 3 7 89 25 57 36 10 78 17 90 18 93
REMARK Flexibility Score: inf
ROOT
ATOM      1  C   UNL A   1      31.657  28.008  27.526  1.00  0.00     0.002 C 
ENDROOT
BRANCH   1   2
ATOM      2  C   UNL A   1      31.517  29.448  27.034  1.00  0.00     0.021 C 
BRANCH   2   3
ATOM      3  C   UNL A   1      32.842  30.117  26.693  1.00  0.00     0.116 C 
BRANCH   3   4
ATOM      4  N   UNL A   1      32.766  31.563  26.820  1.00  0.00    -0.352 N 
ATOM      5  O   UNL A   1      33.224  33.564  27.753  1.00  0.00    -0.269 OA
ATOM      6  C   UNL A   1      33.552  32.395  27.577  1.00  0.00     0.251 C 
ATOM      7  H   UNL A   1      32.059  32.003  26.295  1.00  0.00     0.163 HD
BRANCH   6   8
ATOM      8  C   UNL A   1      34.785  31.856  28.190  1.00  0.00     0.039 A 
ATOM      9  C   UNL A   1      35.937  32.646  28.248  1.00  0.00     0.014 A 
ATOM     10  C   UNL A   1      34.793  30.556  28.699  1.00  0.00     0.014 A 
ATOM     11  C   UNL A   1      37.129  32.094  28.698  1.00  0.00     0.010 A 
ATOM     12  C   UNL A   1      35.973  30.034  29.238  1.00  0.00     0.010 A 
ATOM     13  C   UNL A   1      37.154  30.793  29.225  1.00  0.00    -0.014 A 
BRANCH  13  14
ATOM     14  C   UNL A   1      38.399  30.302  29.868  1.00  0.00     0.031 A 
ATOM     15  C   UNL A   1      39.298  29.305  29.191  1.00  0.00     0.074 A 
ATOM     16  C   UNL A   1      38.702  30.772  31.094  1.00  0.00     0.049 A 
ATOM     17  N   UNL A   1      40.423  28.798  29.622  1.00  0.00    -0.248 NA
ATOM     18  C   UNL A   1      38.884  28.808  27.869  1.00  0.00     0.031 C 
ATOM     19  C   UNL A   1      37.874  31.705  31.865  1.00  0.00     0.029 A 
ATOM     20  N   UNL A   1      39.776  30.533  31.912  1.00  0.00    -0.354 N 
ATOM     21  C   UNL A   1      40.834  27.892  28.651  1.00  0.00     0.074 A 
ATOM     22  C   UNL A   1      39.836  27.921  27.603  1.00  0.00     0.031 C 
ATOM     23  C   UNL A   1      38.477  31.974  33.030  1.00  0.00     0.029 A 
ATOM     24  C   UNL A   1      39.702  31.190  33.119  1.00  0.00     0.049 A 
ATOM     25  H   UNL A   1      40.528  29.950  31.659  1.00  0.00     0.167 HD
ATOM     26  C   UNL A   1      41.946  27.118  28.637  1.00  0.00     0.034 A 
ATOM     27  C   UNL A   1      40.511  31.145  34.192  1.00  0.00     0.034 A 
ATOM     28  C   UNL A   1      42.947  27.123  29.672  1.00  0.00     0.049 A 
ATOM     29  C   UNL A   1      41.743  30.289  34.131  1.00  0.00     0.074 A 
ATOM     30  C   UNL A   1      44.146  26.432  29.707  1.00  0.00     0.029 A 
ATOM     31  N   UNL A   1      42.862  27.835  30.857  1.00  0.00    -0.354 N 
ATOM     32  N   UNL A   1      42.188  29.556  33.139  1.00  0.00    -0.248 NA
ATOM     33  C   UNL A   1      42.599  30.275  35.323  1.00  0.00     0.031 C 
ATOM     34  C   UNL A   1      44.772  26.703  30.928  1.00  0.00     0.029 A 
ATOM     35  C   UNL A   1      43.978  27.587  31.639  1.00  0.00     0.049 A 
ATOM     36  H   UNL A   1      42.118  28.430  31.107  1.00  0.00     0.167 HD
ATOM     37  C   UNL A   1      43.387  29.013  33.580  1.00  0.00     0.074 A 
ATOM     38  C   UNL A   1      43.616  29.530  34.914  1.00  0.00     0.031 C 
ATOM     39  C   UNL A   1      44.214  28.147  32.946  1.00  0.00     0.034 A 
BRANCH  26  40
ATOM     40  C   UNL A   1      42.173  26.215  27.453  1.00  0.00     0.023 A 
ATOM     41  C   UNL A   1      42.902  26.687  26.344  1.00  0.00     0.012 A 
ATOM     42  C   UNL A   1      41.767  24.865  27.488  1.00  0.00     0.148 A 
ATOM     43  C   UNL A   1      43.212  25.837  25.283  1.00  0.00     0.002 A 
ATOM     44  C   UNL A   1      42.113  24.013  26.445  1.00  0.00     0.091 A 
ATOM     45  F   UNL A   1      41.060  24.440  28.545  1.00  0.00    -0.205 F 
ATOM     46  C   UNL A   1      42.828  24.499  25.339  1.00  0.00     0.022 A 
BRANCH  44  47
ATOM     47  S   UNL A   1      41.738  22.256  26.458  1.00  0.00     0.127 S 
ATOM     48  O   UNL A   1      40.278  22.266  26.359  1.00  0.00    -0.237 OA
ATOM     49  O   UNL A   1      42.427  21.787  25.256  1.00  0.00    -0.237 OA
ATOM     50  O   UNL A   1      42.271  21.738  27.710  1.00  0.00    -0.744 OA
ENDBRANCH  44  47
ENDBRANCH  26  40
BRANCH  27  51
ATOM     51  C   UNL A   1      40.189  31.948  35.403  1.00  0.00     0.023 A 
ATOM     52  C   UNL A   1      40.875  33.153  35.644  1.00  0.00     0.012 A 
ATOM     53  C   UNL A   1      39.187  31.536  36.304  1.00  0.00     0.148 A 
ATOM     54  C   UNL A   1      40.594  33.915  36.779  1.00  0.00     0.002 A 
ATOM     55  C   UNL A   1      38.869  32.331  37.398  1.00  0.00     0.091 A 
ATOM     56  F   UNL A   1      38.555  30.377  36.069  1.00  0.00    -0.205 F 
ATOM     57  C   UNL A   1      39.585  33.510  37.649  1.00  0.00     0.022 A 
BRANCH  55  58
ATOM     58  S   UNL A   1      37.486  31.952  38.478  1.00  0.00     0.127 S 
ATOM     59  O   UNL A   1      36.477  32.903  38.017  1.00  0.00    -0.237 OA
ATOM     60  O   UNL A   1      37.212  30.553  38.146  1.00  0.00    -0.237 OA
ATOM     61  O   UNL A   1      37.985  32.155  39.831  1.00  0.00    -0.744 OA
ENDBRANCH  55  58
ENDBRANCH  27  51
BRANCH  39  62
ATOM     62  C   UNL A   1      45.462  27.725  33.675  1.00  0.00     0.023 A 
ATOM     63  C   UNL A   1      46.639  28.489  33.548  1.00  0.00     0.012 A 
ATOM     64  C   UNL A   1      45.453  26.603  34.527  1.00  0.00     0.148 A 
ATOM     65  C   UNL A   1      47.799  28.120  34.228  1.00  0.00     0.002 A 
ATOM     66  C   UNL A   1      46.596  26.273  35.242  1.00  0.00     0.091 A 
ATOM     67  F   UNL A   1      44.327  25.879  34.618  1.00  0.00    -0.205 F 
ATOM     68  C   UNL A   1      47.774  27.022  35.083  1.00  0.00     0.022 A 
BRANCH  66  69
ATOM     69  S   UNL A   1      46.630  24.932  36.436  1.00  0.00     0.127 S 
ATOM     70  O   UNL A   1      45.441  25.217  37.238  1.00  0.00    -0.237 OA
ATOM     71  O   UNL A   1      46.519  23.751  35.580  1.00  0.00    -0.237 OA
ATOM     72  O   UNL A   1      47.900  25.052  37.138  1.00  0.00    -0.744 OA
ENDBRANCH  66  69
ENDBRANCH  39  62
ENDBRANCH  13  14
ENDBRANCH   6   8
ENDBRANCH   3   4
ENDBRANCH   2   3
ENDBRANCH   1   2
BRANCH   1  73
ATOM     73  C   UNL A   1      31.653  26.952  26.414  1.00  0.00     0.002 C 
BRANCH  73  74
ATOM     74  C   UNL A   1      30.280  26.329  26.124  1.00  0.00     0.021 C 
BRANCH  74  75
ATOM     75  C   UNL A   1      30.304  24.801  26.063  1.00  0.00     0.116 C 
BRANCH  75  76
ATOM     76  N   UNL A   1      31.316  24.285  26.967  1.00  0.00    -0.356 N 
ATOM     77  C   UNL A   1      32.043  23.130  26.872  1.00  0.00     0.224 C 
ATOM     78  H   UNL A   1      31.504  24.842  27.756  1.00  0.00     0.163 HD
ATOM     79  O   UNL A   1      32.549  22.680  27.897  1.00  0.00    -0.275 OA
BRANCH  77  80
ATOM     80  C   UNL A   1      32.125  22.457  25.509  1.00  0.00     0.098 C 
ATOM     81  C   UNL A   1      33.191  22.967  24.459  1.00  0.00     0.100 C 
ATOM     82  C   UNL A   1      32.492  20.952  25.660  1.00  0.00     0.025 C 
ATOM     83  C   UNL A   1      34.022  21.685  24.211  1.00  0.00     0.025 C 
ATOM     84  C   UNL A   1      33.840  20.830  26.329  1.00  0.00    -0.027 C 
ATOM     85  C   UNL A   1      32.916  20.618  24.234  1.00  0.00     0.017 C 
ATOM     86  C   UNL A   1      34.756  21.282  25.463  1.00  0.00    -0.027 C 
BRANCH  81  87
ATOM     87  C   UNL A   1      33.821  24.330  24.758  1.00  0.00     0.242 C 
ATOM     88  O   UNL A   1      33.833  24.757  25.920  1.00  0.00    -0.273 OA
ATOM     89  N   UNL A   1      34.207  25.209  23.783  1.00  0.00    -0.267 N 
ATOM     90  H   UNL A   1      34.697  26.011  24.073  1.00  0.00     0.191 HD
BRANCH  89  91
ATOM     91  N   UNL A   1      33.970  25.075  22.428  1.00  0.00    -0.263 N 
ATOM     92  C   UNL A   1      33.123  25.858  21.678  1.00  0.00     0.271 C 
ATOM     93  H   UNL A   1      34.450  24.354  21.958  1.00  0.00     0.191 HD
ATOM     94  O   UNL A   1      32.934  25.603  20.489  1.00  0.00    -0.267 OA
BRANCH  92  95
ATOM     95  C   UNL A   1      32.309  26.909  22.314  1.00  0.00     0.060 A 
ATOM     96  C   UNL A   1      30.933  26.639  22.411  1.00  0.00     0.015 A 
ATOM     97  C   UNL A   1      32.811  28.133  22.753  1.00  0.00     0.053 A 
ATOM     98  C   UNL A   1      30.071  27.570  22.987  1.00  0.00     0.001 A 
ATOM     99  C   UNL A   1      31.941  29.060  23.342  1.00  0.00     0.021 A 
ATOM    100  Cl  UNL A   1      34.460  28.594  22.554  1.00  0.00    -0.083 Cl
ATOM    101  C   UNL A   1      30.577  28.777  23.462  1.00  0.00     0.002 A 
ENDBRANCH  92  95
ENDBRANCH  89  91
ENDBRANCH  81  87
ENDBRANCH  77  80
ENDBRANCH  75  76
ENDBRANCH  74  75
ENDBRANCH  73  74
ENDBRANCH   1  73
TORSDOF 19
ENDMDL
