MODEL 1
REMARK VINA RESULT:     -11.2      0.000      0.000
REMARK SMILES C[C@]12CCC(=O)N1[C@H](C(=O)N1CCC[C@@H]1C(=O)NCCCCCCNC(=O)c1ccc(-c3c4nc(c(-c5cccc(S(=O)(=O)[O-])c5F)c5ccc([nH]5)c(-c5cccc(S(=O)(=O)[O-])c5F)c5nc(c(-c6cccc(S(=O)(=O)[O-])c6F)c6ccc3[nH]6)C=C5)C=C4)cc1)CS2
REMARK SMILES IDX 22 1 21 2 20 3 19 4 18 5 16 6 17 7 15 9 11 10 12 11 13 12
REMARK SMILES IDX 14 13 9 14 10 15 8 16 1 17 2 18 3 19 7 20 92 21 4 22 5 23
REMARK SMILES IDX 91 24 6 25 23 26 24 27 25 28 26 29 27 31 28 32 29 33 90 34
REMARK SMILES IDX 30 35 89 36 31 37 32 38 33 39 83 40 34 41 88 42 82 43 84 44
REMARK SMILES IDX 35 45 87 46 81 47 80 48 36 50 68 51 48 52 67 53 49 54 52 55
REMARK SMILES IDX 66 56 85 57 50 58 51 59 65 61 86 62 53 63 37 64 38 65 46 66
REMARK SMILES IDX 39 67 41 68 47 69 40 70 42 71 43 72 44 73 45 74 69 75 70 76
REMARK SMILES IDX 78 77 71 78 73 79 79 80 72 81 74 82 75 83 76 84 77 85 54 86
REMARK SMILES IDX 55 87 63 88 56 89 58 90 64 91 57 92 59 93 60 94 61 95 62 96
REMARK H PARENT 18 8 25 30 84 49 52 60
REMARK Flexibility Score: inf
ROOT
ATOM      1  C   UNL A   1      38.022  21.495  24.974  1.00  0.00     0.002 C 
ENDROOT
BRANCH   1   2
ATOM      2  C   UNL A   1      38.602  22.420  26.050  1.00  0.00     0.002 C 
BRANCH   2   3
ATOM      3  C   UNL A   1      37.803  23.701  26.322  1.00  0.00     0.021 C 
BRANCH   3   4
ATOM      4  C   UNL A   1      36.433  23.755  25.651  1.00  0.00     0.116 C 
BRANCH   4   5
ATOM      5  N   UNL A   1      35.384  23.231  26.509  1.00  0.00    -0.354 N 
ATOM      6  C   UNL A   1      34.417  22.307  26.223  1.00  0.00     0.242 C 
ATOM      7  O   UNL A   1      33.596  22.022  27.097  1.00  0.00    -0.273 OA
ATOM      8  H   UNL A   1      35.367  23.591  27.425  1.00  0.00     0.163 HD
BRANCH   6   9
ATOM      9  C   UNL A   1      34.418  21.640  24.831  1.00  0.00     0.174 C 
ATOM     10  N   UNL A   1      33.110  21.695  24.168  1.00  0.00    -0.329 N 
ATOM     11  C   UNL A   1      32.479  20.388  24.132  1.00  0.00     0.120 C 
ATOM     12  C   UNL A   1      33.296  19.525  25.070  1.00  0.00     0.024 C 
ATOM     13  C   UNL A   1      34.689  20.133  24.966  1.00  0.00     0.037 C 
BRANCH  10  14
ATOM     14  C   UNL A   1      32.481  22.766  23.573  1.00  0.00     0.246 C 
ATOM     15  O   UNL A   1      32.706  23.018  22.384  1.00  0.00    -0.272 OA
BRANCH  14  16
ATOM     16  C   UNL A   1      31.414  23.570  24.356  1.00  0.00     0.186 C 
ATOM     17  C   UNL A   1      33.857  25.722  24.139  1.00  0.00     0.047 C 
ATOM     18  C   UNL A   1      32.385  25.818  24.535  1.00  0.00     0.087 C 
ATOM     19  C   UNL A   1      32.165  26.968  25.516  1.00  0.00     0.049 C 
ATOM     20  N   UNL A   1      31.893  24.649  25.229  1.00  0.00    -0.315 N 
ATOM     21  S   UNL A   1      31.314  25.915  23.045  1.00  0.00    -0.131 SA
ATOM     22  C   UNL A   1      31.017  26.510  26.396  1.00  0.00     0.103 C 
ATOM     23  C   UNL A   1      31.097  25.006  26.322  1.00  0.00     0.224 C 
ATOM     24  C   UNL A   1      30.485  24.301  23.371  1.00  0.00     0.107 C 
ATOM     25  O   UNL A   1      30.434  24.239  27.002  1.00  0.00    -0.275 OA
ENDBRANCH  14  16
ENDBRANCH  10  14
ENDBRANCH   6   9
ENDBRANCH   4   5
ENDBRANCH   3   4
ENDBRANCH   2   3
ENDBRANCH   1   2
BRANCH   1  26
ATOM     26  C   UNL A   1      38.563  20.063  24.970  1.00  0.00     0.021 C 
BRANCH  26  27
ATOM     27  C   UNL A   1      39.219  19.606  26.272  1.00  0.00     0.116 C 
BRANCH  27  28
ATOM     28  N   UNL A   1      40.456  18.875  26.048  1.00  0.00    -0.352 N 
ATOM     29  C   UNL A   1      41.746  19.343  25.978  1.00  0.00     0.251 C 
ATOM     30  H   UNL A   1      40.354  17.903  25.927  1.00  0.00     0.163 HD
ATOM     31  O   UNL A   1      42.652  18.590  25.631  1.00  0.00    -0.269 OA
BRANCH  29  32
ATOM     32  C   UNL A   1      42.046  20.758  26.298  1.00  0.00     0.039 A 
ATOM     33  C   UNL A   1      42.310  21.107  27.626  1.00  0.00     0.014 A 
ATOM     34  C   UNL A   1      42.051  21.740  25.303  1.00  0.00     0.014 A 
ATOM     35  C   UNL A   1      42.638  22.428  27.947  1.00  0.00     0.010 A 
ATOM     36  C   UNL A   1      42.435  23.043  25.614  1.00  0.00     0.010 A 
ATOM     37  C   UNL A   1      42.732  23.401  26.939  1.00  0.00    -0.014 A 
BRANCH  37  38
ATOM     38  C   UNL A   1      43.157  24.792  27.245  1.00  0.00     0.031 A 
ATOM     39  C   UNL A   1      42.199  25.757  27.888  1.00  0.00     0.074 A 
ATOM     40  C   UNL A   1      44.377  25.215  26.856  1.00  0.00     0.049 A 
ATOM     41  N   UNL A   1      42.366  27.024  28.163  1.00  0.00    -0.248 NA
ATOM     42  C   UNL A   1      40.868  25.236  28.245  1.00  0.00     0.031 C 
ATOM     43  C   UNL A   1      45.369  24.400  26.151  1.00  0.00     0.029 A 
ATOM     44  N   UNL A   1      44.977  26.444  26.969  1.00  0.00    -0.354 N 
ATOM     45  C   UNL A   1      41.157  27.463  28.690  1.00  0.00     0.074 A 
ATOM     46  C   UNL A   1      40.255  26.332  28.672  1.00  0.00     0.031 C 
ATOM     47  C   UNL A   1      46.450  25.152  25.891  1.00  0.00     0.029 A 
ATOM     48  C   UNL A   1      46.223  26.505  26.389  1.00  0.00     0.049 A 
ATOM     49  H   UNL A   1      44.555  27.210  27.422  1.00  0.00     0.167 HD
ATOM     50  C   UNL A   1      40.836  28.686  29.173  1.00  0.00     0.034 A 
ATOM     51  C   UNL A   1      47.085  27.535  26.270  1.00  0.00     0.034 A 
ATOM     52  C   UNL A   1      41.751  29.793  29.245  1.00  0.00     0.049 A 
ATOM     53  C   UNL A   1      46.726  28.866  26.872  1.00  0.00     0.074 A 
ATOM     54  C   UNL A   1      41.546  31.043  29.802  1.00  0.00     0.029 A 
ATOM     55  N   UNL A   1      43.045  29.785  28.747  1.00  0.00    -0.354 N 
ATOM     56  N   UNL A   1      45.637  29.213  27.515  1.00  0.00    -0.248 NA
ATOM     57  C   UNL A   1      47.728  29.937  26.768  1.00  0.00     0.031 C 
ATOM     58  C   UNL A   1      42.717  31.793  29.637  1.00  0.00     0.029 A 
ATOM     59  C   UNL A   1      43.650  31.006  28.984  1.00  0.00     0.049 A 
ATOM     60  H   UNL A   1      43.470  29.021  28.294  1.00  0.00     0.167 HD
ATOM     61  C   UNL A   1      45.835  30.528  27.919  1.00  0.00     0.074 A 
ATOM     62  C   UNL A   1      47.158  30.909  27.469  1.00  0.00     0.031 C 
ATOM     63  C   UNL A   1      44.991  31.352  28.586  1.00  0.00     0.034 A 
BRANCH  50  64
ATOM     64  C   UNL A   1      39.452  28.875  29.734  1.00  0.00     0.023 A 
ATOM     65  C   UNL A   1      39.176  28.438  31.046  1.00  0.00     0.012 A 
ATOM     66  C   UNL A   1      38.449  29.537  29.001  1.00  0.00     0.148 A 
ATOM     67  C   UNL A   1      37.916  28.633  31.610  1.00  0.00     0.002 A 
ATOM     68  C   UNL A   1      37.206  29.761  29.584  1.00  0.00     0.091 A 
ATOM     69  F   UNL A   1      38.722  29.925  27.746  1.00  0.00    -0.205 F 
ATOM     70  C   UNL A   1      36.936  29.302  30.883  1.00  0.00     0.022 A 
BRANCH  68  71
ATOM     71  S   UNL A   1      35.901  30.675  28.754  1.00  0.00     0.127 S 
ATOM     72  O   UNL A   1      35.174  31.245  29.887  1.00  0.00    -0.237 OA
ATOM     73  O   UNL A   1      36.656  31.647  27.963  1.00  0.00    -0.237 OA
ATOM     74  O   UNL A   1      35.167  29.695  27.965  1.00  0.00    -0.744 OA
ENDBRANCH  68  71
ENDBRANCH  50  64
BRANCH  51  75
ATOM     75  C   UNL A   1      48.408  27.322  25.621  1.00  0.00     0.023 A 
ATOM     76  C   UNL A   1      49.493  26.877  26.401  1.00  0.00     0.012 A 
ATOM     77  C   UNL A   1      48.592  27.519  24.238  1.00  0.00     0.148 A 
ATOM     78  C   UNL A   1      50.744  26.662  25.822  1.00  0.00     0.002 A 
ATOM     79  C   UNL A   1      49.828  27.251  23.659  1.00  0.00     0.091 A 
ATOM     80  F   UNL A   1      47.554  27.959  23.514  1.00  0.00    -0.205 F 
ATOM     81  C   UNL A   1      50.910  26.837  24.451  1.00  0.00     0.022 A 
BRANCH  79  82
ATOM     82  S   UNL A   1      50.079  27.323  21.881  1.00  0.00     0.127 S 
ATOM     83  O   UNL A   1      49.048  26.411  21.394  1.00  0.00    -0.237 OA
ATOM     84  O   UNL A   1      49.837  28.738  21.591  1.00  0.00    -0.237 OA
ATOM     85  O   UNL A   1      51.458  26.904  21.671  1.00  0.00    -0.744 OA
ENDBRANCH  79  82
ENDBRANCH  51  75
BRANCH  63  86
ATOM     86  C   UNL A   1      45.472  32.744  28.897  1.00  0.00     0.023 A 
ATOM     87  C   UNL A   1      46.206  32.977  30.077  1.00  0.00     0.012 A 
ATOM     88  C   UNL A   1      45.271  33.800  27.987  1.00  0.00     0.148 A 
ATOM     89  C   UNL A   1      46.711  34.245  30.359  1.00  0.00     0.002 A 
ATOM     90  C   UNL A   1      45.812  35.052  28.255  1.00  0.00     0.091 A 
ATOM     91  F   UNL A   1      44.551  33.563  26.880  1.00  0.00    -0.205 F 
ATOM     92  C   UNL A   1      46.525  35.278  29.444  1.00  0.00     0.022 A 
BRANCH  90  93
ATOM     93  S   UNL A   1      45.696  36.413  27.088  1.00  0.00     0.127 S 
ATOM     94  O   UNL A   1      46.309  35.835  25.893  1.00  0.00    -0.237 OA
ATOM     95  O   UNL A   1      44.252  36.623  26.991  1.00  0.00    -0.237 OA
ATOM     96  O   UNL A   1      46.424  37.519  27.696  1.00  0.00    -0.744 OA
ENDBRANCH  90  93
ENDBRANCH  63  86
ENDBRANCH  37  38
ENDBRANCH  29  32
ENDBRANCH  27  28
ENDBRANCH  26  27
ENDBRANCH   1  26
TORSDOF 18
ENDMDL
MODEL 2
REMARK VINA RESULT:     -11.0      6.346     11.519
REMARK SMILES C[C@]12CCC(=O)N1[C@H](C(=O)N1CCC[C@@H]1C(=O)NCCCCCCNC(=O)c1ccc(-c3c4nc(c(-c5cccc(S(=O)(=O)[O-])c5F)c5ccc([nH]5)c(-c5cccc(S(=O)(=O)[O-])c5F)c5nc(c(-c6cccc(S(=O)(=O)[O-])c6F)c6ccc3[nH]6)C=C5)C=C4)cc1)CS2
REMARK SMILES IDX 22 1 21 2 20 3 19 4 18 5 16 6 17 7 15 9 11 10 12 11 13 12
REMARK SMILES IDX 14 13 9 14 10 15 8 16 1 17 2 18 3 19 7 20 92 21 4 22 5 23
REMARK SMILES IDX 91 24 6 25 23 26 24 27 25 28 26 29 27 31 28 32 29 33 90 34
REMARK SMILES IDX 30 35 89 36 31 37 32 38 33 39 83 40 34 41 88 42 82 43 84 44
REMARK SMILES IDX 35 45 87 46 81 47 80 48 36 50 68 51 48 52 67 53 49 54 52 55
REMARK SMILES IDX 66 56 85 57 50 58 51 59 65 61 86 62 53 63 37 64 38 65 46 66
REMARK SMILES IDX 39 67 41 68 47 69 40 70 42 71 43 72 44 73 45 74 69 75 70 76
REMARK SMILES IDX 78 77 71 78 73 79 79 80 72 81 74 82 75 83 76 84 77 85 54 86
REMARK SMILES IDX 55 87 63 88 56 89 58 90 64 91 57 92 59 93 60 94 61 95 62 96
REMARK H PARENT 18 8 25 30 84 49 52 60
REMARK Flexibility Score: inf
ROOT
ATOM      1  C   UNL A   1      32.610  30.789  27.233  1.00  0.00     0.002 C 
ENDROOT
BRANCH   1   2
ATOM      2  C   UNL A   1      34.131  30.769  27.418  1.00  0.00     0.002 C 
BRANCH   2   3
ATOM      3  C   UNL A   1      34.783  29.382  27.388  1.00  0.00     0.021 C 
BRANCH   3   4
ATOM      4  C   UNL A   1      34.152  28.399  26.405  1.00  0.00     0.116 C 
BRANCH   4   5
ATOM      5  N   UNL A   1      34.358  28.800  25.024  1.00  0.00    -0.354 N 
ATOM      6  C   UNL A   1      33.622  28.485  23.914  1.00  0.00     0.242 C 
ATOM      7  O   UNL A   1      33.994  28.912  22.819  1.00  0.00    -0.273 OA
ATOM      8  H   UNL A   1      35.138  29.380  24.863  1.00  0.00     0.163 HD
BRANCH   6   9
ATOM      9  C   UNL A   1      32.343  27.641  24.090  1.00  0.00     0.174 C 
ATOM     10  N   UNL A   1      31.996  26.871  22.889  1.00  0.00    -0.329 N 
ATOM     11  C   UNL A   1      30.824  27.418  22.230  1.00  0.00     0.120 C 
ATOM     12  C   UNL A   1      30.592  28.765  22.881  1.00  0.00     0.024 C 
ATOM     13  C   UNL A   1      31.126  28.557  24.293  1.00  0.00     0.037 C 
BRANCH  10  14
ATOM     14  C   UNL A   1      32.588  25.735  22.383  1.00  0.00     0.246 C 
ATOM     15  O   UNL A   1      33.613  25.840  21.699  1.00  0.00    -0.272 OA
BRANCH  14  16
ATOM     16  C   UNL A   1      32.043  24.339  22.768  1.00  0.00     0.186 C 
ATOM     17  C   UNL A   1      34.778  24.507  24.539  1.00  0.00     0.047 C 
ATOM     18  C   UNL A   1      33.564  23.580  24.540  1.00  0.00     0.087 C 
ATOM     19  C   UNL A   1      33.944  22.194  25.057  1.00  0.00     0.049 C 
ATOM     20  N   UNL A   1      33.016  23.339  23.224  1.00  0.00    -0.315 N 
ATOM     21  S   UNL A   1      32.163  24.341  25.454  1.00  0.00    -0.131 SA
ATOM     22  C   UNL A   1      33.030  21.240  24.312  1.00  0.00     0.103 C 
ATOM     23  C   UNL A   1      32.697  21.989  23.046  1.00  0.00     0.224 C 
ATOM     24  C   UNL A   1      31.083  24.466  23.965  1.00  0.00     0.107 C 
ATOM     25  O   UNL A   1      32.091  21.518  22.097  1.00  0.00    -0.275 OA
ENDBRANCH  14  16
ENDBRANCH  10  14
ENDBRANCH   6   9
ENDBRANCH   4   5
ENDBRANCH   3   4
ENDBRANCH   2   3
ENDBRANCH   1   2
BRANCH   1  26
ATOM     26  C   UNL A   1      31.945  32.162  27.362  1.00  0.00     0.021 C 
BRANCH  26  27
ATOM     27  C   UNL A   1      32.828  33.355  27.002  1.00  0.00     0.116 C 
BRANCH  27  28
ATOM     28  N   UNL A   1      32.512  34.540  27.784  1.00  0.00    -0.352 N 
ATOM     29  C   UNL A   1      33.044  34.965  28.978  1.00  0.00     0.251 C 
ATOM     30  H   UNL A   1      31.815  35.122  27.403  1.00  0.00     0.163 HD
ATOM     31  O   UNL A   1      32.543  35.920  29.565  1.00  0.00    -0.269 OA
BRANCH  29  32
ATOM     32  C   UNL A   1      34.205  34.262  29.571  1.00  0.00     0.039 A 
ATOM     33  C   UNL A   1      35.490  34.591  29.127  1.00  0.00     0.014 A 
ATOM     34  C   UNL A   1      34.034  33.274  30.545  1.00  0.00     0.014 A 
ATOM     35  C   UNL A   1      36.605  33.973  29.702  1.00  0.00     0.010 A 
ATOM     36  C   UNL A   1      35.147  32.702  31.158  1.00  0.00     0.010 A 
ATOM     37  C   UNL A   1      36.444  33.044  30.743  1.00  0.00    -0.014 A 
BRANCH  37  38
ATOM     38  C   UNL A   1      37.616  32.434  31.423  1.00  0.00     0.031 A 
ATOM     39  C   UNL A   1      38.359  31.293  30.784  1.00  0.00     0.074 A 
ATOM     40  C   UNL A   1      37.954  32.847  32.661  1.00  0.00     0.049 A 
ATOM     41  N   UNL A   1      39.355  30.591  31.257  1.00  0.00    -0.248 NA
ATOM     42  C   UNL A   1      37.905  30.867  29.449  1.00  0.00     0.031 C 
ATOM     43  C   UNL A   1      37.263  33.889  33.423  1.00  0.00     0.029 A 
ATOM     44  N   UNL A   1      38.943  32.416  33.511  1.00  0.00    -0.354 N 
ATOM     45  C   UNL A   1      39.625  29.620  30.300  1.00  0.00     0.074 A 
ATOM     46  C   UNL A   1      38.671  29.807  29.229  1.00  0.00     0.031 C 
ATOM     47  C   UNL A   1      37.846  34.013  34.626  1.00  0.00     0.029 A 
ATOM     48  C   UNL A   1      38.936  33.047  34.732  1.00  0.00     0.049 A 
ATOM     49  H   UNL A   1      39.596  31.719  33.268  1.00  0.00     0.167 HD
ATOM     50  C   UNL A   1      40.599  28.679  30.297  1.00  0.00     0.034 A 
ATOM     51  C   UNL A   1      39.716  32.869  35.816  1.00  0.00     0.034 A 
ATOM     52  C   UNL A   1      41.585  28.531  31.334  1.00  0.00     0.049 A 
ATOM     53  C   UNL A   1      40.830  31.859  35.761  1.00  0.00     0.074 A 
ATOM     54  C   UNL A   1      42.665  27.668  31.376  1.00  0.00     0.029 A 
ATOM     55  N   UNL A   1      41.613  29.266  32.509  1.00  0.00    -0.354 N 
ATOM     56  N   UNL A   1      41.171  31.062  34.776  1.00  0.00    -0.248 NA
ATOM     57  C   UNL A   1      41.690  31.749  36.948  1.00  0.00     0.031 C 
ATOM     58  C   UNL A   1      43.346  27.878  32.581  1.00  0.00     0.029 A 
ATOM     59  C   UNL A   1      42.692  28.876  33.283  1.00  0.00     0.049 A 
ATOM     60  H   UNL A   1      40.963  29.962  32.755  1.00  0.00     0.167 HD
ATOM     61  C   UNL A   1      42.302  30.381  35.212  1.00  0.00     0.074 A 
ATOM     62  C   UNL A   1      42.603  30.875  36.540  1.00  0.00     0.031 C 
ATOM     63  C   UNL A   1      43.017  29.420  34.577  1.00  0.00     0.034 A 
BRANCH  50  64
ATOM     64  C   UNL A   1      40.694  27.776  29.097  1.00  0.00     0.023 A 
ATOM     65  C   UNL A   1      39.833  26.664  29.001  1.00  0.00     0.012 A 
ATOM     66  C   UNL A   1      41.580  28.056  28.038  1.00  0.00     0.148 A 
ATOM     67  C   UNL A   1      39.869  25.830  27.885  1.00  0.00     0.002 A 
ATOM     68  C   UNL A   1      41.584  27.241  26.911  1.00  0.00     0.091 A 
ATOM     69  F   UNL A   1      42.408  29.105  28.157  1.00  0.00    -0.205 F 
ATOM     70  C   UNL A   1      40.736  26.125  26.836  1.00  0.00     0.022 A 
BRANCH  68  71
ATOM     71  S   UNL A   1      42.616  27.579  25.479  1.00  0.00     0.127 S 
ATOM     72  O   UNL A   1      42.078  28.860  25.024  1.00  0.00    -0.237 OA
ATOM     73  O   UNL A   1      43.953  27.654  26.070  1.00  0.00    -0.237 OA
ATOM     74  O   UNL A   1      42.418  26.457  24.572  1.00  0.00    -0.744 OA
ENDBRANCH  68  71
ENDBRANCH  50  64
BRANCH  51  75
ATOM     75  C   UNL A   1      39.522  33.726  37.019  1.00  0.00     0.023 A 
ATOM     76  C   UNL A   1      39.956  35.065  36.987  1.00  0.00     0.012 A 
ATOM     77  C   UNL A   1      38.881  33.239  38.175  1.00  0.00     0.148 A 
ATOM     78  C   UNL A   1      39.783  35.896  38.094  1.00  0.00     0.002 A 
ATOM     79  C   UNL A   1      38.663  34.089  39.255  1.00  0.00     0.091 A 
ATOM     80  F   UNL A   1      38.489  31.958  38.196  1.00  0.00    -0.205 F 
ATOM     81  C   UNL A   1      39.127  35.413  39.223  1.00  0.00     0.022 A 
BRANCH  79  82
ATOM     82  S   UNL A   1      37.707  33.577  40.688  1.00  0.00     0.127 S 
ATOM     83  O   UNL A   1      38.538  32.512  41.241  1.00  0.00    -0.237 OA
ATOM     84  O   UNL A   1      37.665  34.803  41.486  1.00  0.00    -0.237 OA
ATOM     85  O   UNL A   1      36.412  33.171  40.159  1.00  0.00    -0.744 OA
ENDBRANCH  79  82
ENDBRANCH  51  75
BRANCH  63  86
ATOM     86  C   UNL A   1      44.211  28.849  35.293  1.00  0.00     0.023 A 
ATOM     87  C   UNL A   1      45.480  29.429  35.097  1.00  0.00     0.012 A 
ATOM     88  C   UNL A   1      44.066  27.796  36.217  1.00  0.00     0.148 A 
ATOM     89  C   UNL A   1      46.592  28.954  35.791  1.00  0.00     0.002 A 
ATOM     90  C   UNL A   1      45.171  27.355  36.937  1.00  0.00     0.091 A 
ATOM     91  F   UNL A   1      42.854  27.243  36.373  1.00  0.00    -0.205 F 
ATOM     92  C   UNL A   1      46.435  27.927  36.719  1.00  0.00     0.022 A 
BRANCH  90  93
ATOM     93  S   UNL A   1      45.039  26.098  38.215  1.00  0.00     0.127 S 
ATOM     94  O   UNL A   1      43.868  26.553  38.960  1.00  0.00    -0.237 OA
ATOM     95  O   UNL A   1      44.830  24.877  37.436  1.00  0.00    -0.237 OA
ATOM     96  O   UNL A   1      46.303  26.138  38.940  1.00  0.00    -0.744 OA
ENDBRANCH  90  93
ENDBRANCH  63  86
ENDBRANCH  37  38
ENDBRANCH  29  32
ENDBRANCH  27  28
ENDBRANCH  26  27
ENDBRANCH   1  26
TORSDOF 18
ENDMDL
MODEL 3
REMARK VINA RESULT:     -10.9      6.409     11.273
REMARK SMILES C[C@]12CCC(=O)N1[C@H](C(=O)N1CCC[C@@H]1C(=O)NCCCCCCNC(=O)c1ccc(-c3c4nc(c(-c5cccc(S(=O)(=O)[O-])c5F)c5ccc([nH]5)c(-c5cccc(S(=O)(=O)[O-])c5F)c5nc(c(-c6cccc(S(=O)(=O)[O-])c6F)c6ccc3[nH]6)C=C5)C=C4)cc1)CS2
REMARK SMILES IDX 22 1 21 2 20 3 19 4 18 5 16 6 17 7 15 9 11 10 12 11 13 12
REMARK SMILES IDX 14 13 9 14 10 15 8 16 1 17 2 18 3 19 7 20 92 21 4 22 5 23
REMARK SMILES IDX 91 24 6 25 23 26 24 27 25 28 26 29 27 31 28 32 29 33 90 34
REMARK SMILES IDX 30 35 89 36 31 37 32 38 33 39 83 40 34 41 88 42 82 43 84 44
REMARK SMILES IDX 35 45 87 46 81 47 80 48 36 50 68 51 48 52 67 53 49 54 52 55
REMARK SMILES IDX 66 56 85 57 50 58 51 59 65 61 86 62 53 63 37 64 38 65 46 66
REMARK SMILES IDX 39 67 41 68 47 69 40 70 42 71 43 72 44 73 45 74 69 75 70 76
REMARK SMILES IDX 78 77 71 78 73 79 79 80 72 81 74 82 75 83 76 84 77 85 54 86
REMARK SMILES IDX 55 87 63 88 56 89 58 90 64 91 57 92 59 93 60 94 61 95 62 96
REMARK H PARENT 18 8 25 30 84 49 52 60
REMARK Flexibility Score: inf
ROOT
ATOM      1  C   UNL A   1      31.684  31.017  26.277  1.00  0.00     0.002 C 
ENDROOT
BRANCH   1   2
ATOM      2  C   UNL A   1      32.084  29.903  27.251  1.00  0.00     0.002 C 
BRANCH   2   3
ATOM      3  C   UNL A   1      33.584  29.595  27.324  1.00  0.00     0.021 C 
BRANCH   3   4
ATOM      4  C   UNL A   1      34.053  28.472  26.403  1.00  0.00     0.116 C 
BRANCH   4   5
ATOM      5  N   UNL A   1      34.251  28.931  25.039  1.00  0.00    -0.354 N 
ATOM      6  C   UNL A   1      33.607  28.544  23.896  1.00  0.00     0.242 C 
ATOM      7  O   UNL A   1      33.956  29.044  22.824  1.00  0.00    -0.273 OA
ATOM      8  H   UNL A   1      34.948  29.617  24.921  1.00  0.00     0.163 HD
BRANCH   6   9
ATOM      9  C   UNL A   1      32.453  27.526  24.005  1.00  0.00     0.174 C 
ATOM     10  N   UNL A   1      32.363  26.636  22.841  1.00  0.00    -0.329 N 
ATOM     11  C   UNL A   1      31.208  26.952  22.020  1.00  0.00     0.120 C 
ATOM     12  C   UNL A   1      30.709  28.288  22.532  1.00  0.00     0.024 C 
ATOM     13  C   UNL A   1      31.101  28.256  24.004  1.00  0.00     0.037 C 
BRANCH  10  14
ATOM     14  C   UNL A   1      33.169  25.575  22.492  1.00  0.00     0.246 C 
ATOM     15  O   UNL A   1      33.525  25.445  21.316  1.00  0.00    -0.272 OA
BRANCH  14  16
ATOM     16  C   UNL A   1      33.717  24.627  23.586  1.00  0.00     0.186 C 
ATOM     17  C   UNL A   1      30.567  23.783  23.479  1.00  0.00     0.047 C 
ATOM     18  C   UNL A   1      31.815  23.164  24.107  1.00  0.00     0.087 C 
ATOM     19  C   UNL A   1      31.446  22.340  25.338  1.00  0.00     0.049 C 
ATOM     20  N   UNL A   1      32.765  24.139  24.592  1.00  0.00    -0.315 N 
ATOM     21  S   UNL A   1      32.773  22.218  22.856  1.00  0.00    -0.131 SA
ATOM     22  C   UNL A   1      32.644  22.468  26.261  1.00  0.00     0.103 C 
ATOM     23  C   UNL A   1      33.268  23.776  25.846  1.00  0.00     0.224 C 
ATOM     24  C   UNL A   1      34.240  23.331  22.940  1.00  0.00     0.107 C 
ATOM     25  O   UNL A   1      34.185  24.328  26.433  1.00  0.00    -0.275 OA
ENDBRANCH  14  16
ENDBRANCH  10  14
ENDBRANCH   6   9
ENDBRANCH   4   5
ENDBRANCH   3   4
ENDBRANCH   2   3
ENDBRANCH   1   2
BRANCH   1  26
ATOM     26  C   UNL A   1      31.555  32.415  26.887  1.00  0.00     0.021 C 
BRANCH  26  27
ATOM     27  C   UNL A   1      32.874  33.104  27.232  1.00  0.00     0.116 C 
BRANCH  27  28
ATOM     28  N   UNL A   1      32.679  34.373  27.916  1.00  0.00    -0.352 N 
ATOM     29  C   UNL A   1      33.303  34.864  29.037  1.00  0.00     0.251 C 
ATOM     30  H   UNL A   1      32.001  34.966  27.517  1.00  0.00     0.163 HD
ATOM     31  O   UNL A   1      32.898  35.901  29.557  1.00  0.00    -0.269 OA
BRANCH  29  32
ATOM     32  C   UNL A   1      34.447  34.138  29.635  1.00  0.00     0.039 A 
ATOM     33  C   UNL A   1      35.732  34.385  29.143  1.00  0.00     0.014 A 
ATOM     34  C   UNL A   1      34.258  33.208  30.660  1.00  0.00     0.014 A 
ATOM     35  C   UNL A   1      36.834  33.745  29.719  1.00  0.00     0.010 A 
ATOM     36  C   UNL A   1      35.361  32.615  31.273  1.00  0.00     0.010 A 
ATOM     37  C   UNL A   1      36.660  32.877  30.809  1.00  0.00    -0.014 A 
BRANCH  37  38
ATOM     38  C   UNL A   1      37.822  32.247  31.488  1.00  0.00     0.031 A 
ATOM     39  C   UNL A   1      38.558  31.107  30.839  1.00  0.00     0.074 A 
ATOM     40  C   UNL A   1      38.156  32.640  32.734  1.00  0.00     0.049 A 
ATOM     41  N   UNL A   1      39.545  30.389  31.310  1.00  0.00    -0.248 NA
ATOM     42  C   UNL A   1      38.109  30.703  29.496  1.00  0.00     0.031 C 
ATOM     43  C   UNL A   1      37.470  33.679  33.505  1.00  0.00     0.029 A 
ATOM     44  N   UNL A   1      39.135  32.189  33.584  1.00  0.00    -0.354 N 
ATOM     45  C   UNL A   1      39.812  29.429  30.342  1.00  0.00     0.074 A 
ATOM     46  C   UNL A   1      38.866  29.638  29.267  1.00  0.00     0.031 C 
ATOM     47  C   UNL A   1      38.045  33.781  34.714  1.00  0.00     0.029 A 
ATOM     48  C   UNL A   1      39.125  32.804  34.814  1.00  0.00     0.049 A 
ATOM     49  H   UNL A   1      39.783  31.489  33.337  1.00  0.00     0.167 HD
ATOM     50  C   UNL A   1      40.777  28.478  30.333  1.00  0.00     0.034 A 
ATOM     51  C   UNL A   1      39.898  32.605  35.900  1.00  0.00     0.034 A 
ATOM     52  C   UNL A   1      41.755  28.308  31.374  1.00  0.00     0.049 A 
ATOM     53  C   UNL A   1      41.002  31.585  35.839  1.00  0.00     0.074 A 
ATOM     54  C   UNL A   1      42.827  27.434  31.412  1.00  0.00     0.029 A 
ATOM     55  N   UNL A   1      41.782  29.027  32.559  1.00  0.00    -0.354 N 
ATOM     56  N   UNL A   1      41.342  30.798  34.847  1.00  0.00    -0.248 NA
ATOM     57  C   UNL A   1      41.853  31.451  37.030  1.00  0.00     0.031 C 
ATOM     58  C   UNL A   1      43.502  27.622  32.624  1.00  0.00     0.029 A 
ATOM     59  C   UNL A   1      42.852  28.617  33.335  1.00  0.00     0.049 A 
ATOM     60  H   UNL A   1      41.137  29.726  32.810  1.00  0.00     0.167 HD
ATOM     61  C   UNL A   1      42.464  30.101  35.280  1.00  0.00     0.074 A 
ATOM     62  C   UNL A   1      42.760  30.574  36.617  1.00  0.00     0.031 C 
ATOM     63  C   UNL A   1      43.173  29.141  34.638  1.00  0.00     0.034 A 
BRANCH  50  64
ATOM     64  C   UNL A   1      40.872  27.590  29.122  1.00  0.00     0.023 A 
ATOM     65  C   UNL A   1      40.040  26.455  29.033  1.00  0.00     0.012 A 
ATOM     66  C   UNL A   1      41.726  27.906  28.047  1.00  0.00     0.148 A 
ATOM     67  C   UNL A   1      40.076  25.634  27.907  1.00  0.00     0.002 A 
ATOM     68  C   UNL A   1      41.729  27.103  26.912  1.00  0.00     0.091 A 
ATOM     69  F   UNL A   1      42.527  28.976  28.159  1.00  0.00    -0.205 F 
ATOM     70  C   UNL A   1      40.912  25.963  26.844  1.00  0.00     0.022 A 
BRANCH  68  71
ATOM     71  S   UNL A   1      42.719  27.484  25.462  1.00  0.00     0.127 S 
ATOM     72  O   UNL A   1      42.417  26.348  24.592  1.00  0.00    -0.237 OA
ATOM     73  O   UNL A   1      42.149  28.758  25.021  1.00  0.00    -0.237 OA
ATOM     74  O   UNL A   1      44.096  27.568  25.930  1.00  0.00    -0.744 OA
ENDBRANCH  68  71
ENDBRANCH  50  64
BRANCH  51  75
ATOM     75  C   UNL A   1      39.703  33.447  37.113  1.00  0.00     0.023 A 
ATOM     76  C   UNL A   1      38.640  33.155  37.990  1.00  0.00     0.012 A 
ATOM     77  C   UNL A   1      40.578  34.506  37.424  1.00  0.00     0.148 A 
ATOM     78  C   UNL A   1      38.434  33.920  39.138  1.00  0.00     0.002 A 
ATOM     79  C   UNL A   1      40.398  35.232  38.598  1.00  0.00     0.091 A 
ATOM     80  F   UNL A   1      41.573  34.783  36.570  1.00  0.00    -0.205 F 
ATOM     81  C   UNL A   1      39.318  34.950  39.449  1.00  0.00     0.022 A 
BRANCH  79  82
ATOM     82  S   UNL A   1      41.573  36.481  39.131  1.00  0.00     0.127 S 
ATOM     83  O   UNL A   1      42.678  35.665  39.626  1.00  0.00    -0.237 OA
ATOM     84  O   UNL A   1      41.847  37.200  37.886  1.00  0.00    -0.237 OA
ATOM     85  O   UNL A   1      40.865  37.274  40.128  1.00  0.00    -0.744 OA
ENDBRANCH  79  82
ENDBRANCH  51  75
BRANCH  63  86
ATOM     86  C   UNL A   1      44.358  28.549  35.354  1.00  0.00     0.023 A 
ATOM     87  C   UNL A   1      45.642  29.080  35.126  1.00  0.00     0.012 A 
ATOM     88  C   UNL A   1      44.190  27.527  36.308  1.00  0.00     0.148 A 
ATOM     89  C   UNL A   1      46.747  28.587  35.819  1.00  0.00     0.002 A 
ATOM     90  C   UNL A   1      45.289  27.068  37.026  1.00  0.00     0.091 A 
ATOM     91  F   UNL A   1      42.963  27.019  36.495  1.00  0.00    -0.205 F 
ATOM     92  C   UNL A   1      46.569  27.591  36.776  1.00  0.00     0.022 A 
BRANCH  90  93
ATOM     93  S   UNL A   1      45.133  25.852  38.339  1.00  0.00     0.127 S 
ATOM     94  O   UNL A   1      46.467  25.885  38.935  1.00  0.00    -0.237 OA
ATOM     95  O   UNL A   1      44.077  26.423  39.174  1.00  0.00    -0.237 OA
ATOM     96  O   UNL A   1      44.768  24.604  37.680  1.00  0.00    -0.744 OA
ENDBRANCH  90  93
ENDBRANCH  63  86
ENDBRANCH  37  38
ENDBRANCH  29  32
ENDBRANCH  27  28
ENDBRANCH  26  27
ENDBRANCH   1  26
TORSDOF 18
ENDMDL
