MODEL 1
REMARK VINA RESULT:     -12.6      0.000      0.000
REMARK SMILES COc1cccc(-c2nn(-c3cc4c(cc3C(N)=O)OCO4)cc2C(=O)NCCCCCCNC(=O)c2ccc(-c3c4nc(c(-c5cccc(S(=O)(=O)[O-])c5F)c5ccc([nH]5)c(-c5cccc(S(=O)(=O)[O-])c5F)c5nc(c(-c6cccc(S(=O)(=O)[O-])c6F)c6ccc3[nH]6)C=C5)C=C4)cc2)c1
REMARK SMILES IDX 31 1 30 2 29 3 28 4 27 5 25 6 26 7 24 9 8 10 9 11 10 12
REMARK SMILES IDX 23 13 7 14 3 15 4 16 100 17 5 18 6 19 2 20 1 21 11 22 12 23
REMARK SMILES IDX 16 24 13 25 15 26 14 27 22 28 20 29 21 30 17 31 18 32 19 33
REMARK SMILES IDX 32 36 33 37 34 38 35 39 36 41 37 42 38 43 99 44 39 45 98 46
REMARK SMILES IDX 40 47 41 48 42 49 92 50 43 51 97 52 91 53 93 54 44 55 96 56
REMARK SMILES IDX 90 57 89 58 45 60 77 61 57 62 76 63 58 64 61 65 75 66 94 67
REMARK SMILES IDX 59 68 60 69 74 71 95 72 62 73 46 74 47 75 55 76 48 77 50 78
REMARK SMILES IDX 56 79 49 80 51 81 52 82 53 83 54 84 78 85 79 86 87 87 80 88
REMARK SMILES IDX 82 89 88 90 81 91 83 92 84 93 85 94 86 95 63 96 64 97 72 98
REMARK SMILES IDX 65 99 67 100 73 101 66 102 68 103 69 104 70 105 71 106
REMARK H PARENT 27 8 18 34 18 35 34 40 93 59 61 70
REMARK Flexibility Score: inf
ROOT
ATOM      1  C   UNL A   1      37.688  23.287  25.403  1.00  0.00     0.002 C 
ENDROOT
BRANCH   1   2
ATOM      2  C   UNL A   1      36.742  22.998  24.224  1.00  0.00     0.002 C 
BRANCH   2   3
ATOM      3  C   UNL A   1      35.247  23.042  24.566  1.00  0.00     0.021 C 
BRANCH   3   4
ATOM      4  C   UNL A   1      34.902  24.148  25.557  1.00  0.00     0.116 C 
BRANCH   4   5
ATOM      5  N   UNL A   1      34.048  23.639  26.607  1.00  0.00    -0.352 N 
ATOM      6  C   UNL A   1      32.691  23.507  26.729  1.00  0.00     0.255 C 
ATOM      7  O   UNL A   1      32.309  22.980  27.774  1.00  0.00    -0.269 OA
ATOM      8  H   UNL A   1      34.545  23.322  27.396  1.00  0.00     0.163 HD
BRANCH   6   9
ATOM      9  C   UNL A   1      31.775  23.876  25.659  1.00  0.00     0.086 A 
ATOM     10  C   UNL A   1      31.480  23.137  24.460  1.00  0.00     0.106 A 
ATOM     11  N   UNL A   1      30.752  23.867  23.586  1.00  0.00    -0.167 NA
ATOM     12  N   UNL A   1      30.659  25.071  24.195  1.00  0.00    -0.239 N 
ATOM     13  C   UNL A   1      30.960  24.978  25.529  1.00  0.00     0.129 A 
BRANCH  10  14
ATOM     14  C   UNL A   1      31.884  21.761  24.170  1.00  0.00     0.007 A 
ATOM     15  C   UNL A   1      32.364  19.498  24.882  1.00  0.00     0.119 A 
ATOM     16  C   UNL A   1      32.490  19.103  23.549  1.00  0.00     0.046 A 
ATOM     17  C   UNL A   1      32.079  20.832  25.197  1.00  0.00     0.056 A 
ATOM     18  C   UNL A   1      32.312  20.026  22.522  1.00  0.00     0.005 A 
ATOM     19  C   UNL A   1      32.018  21.353  22.833  1.00  0.00     0.011 A 
BRANCH  15  20
ATOM     20  O   UNL A   1      32.591  18.522  25.816  1.00  0.00    -0.497 OA
ATOM     21  C   UNL A   1      32.475  17.199  25.303  1.00  0.00     0.278 C 
ENDBRANCH  15  20
ENDBRANCH  10  14
BRANCH  12  22
ATOM     22  C   UNL A   1      30.188  26.244  23.558  1.00  0.00     0.081 A 
ATOM     23  C   UNL A   1      28.849  26.616  23.770  1.00  0.00     0.079 A 
ATOM     24  C   UNL A   1      31.075  27.081  22.814  1.00  0.00     0.069 A 
ATOM     25  C   UNL A   1      28.453  27.848  23.292  1.00  0.00     0.167 A 
ATOM     26  C   UNL A   1      30.647  28.366  22.443  1.00  0.00     0.066 A 
ATOM     27  C   UNL A   1      29.335  28.703  22.674  1.00  0.00     0.166 A 
ATOM     28  O   UNL A   1      27.201  28.377  23.360  1.00  0.00    -0.454 OA
ATOM     29  O   UNL A   1      28.752  29.865  22.272  1.00  0.00    -0.454 OA
ATOM     30  C   UNL A   1      27.375  29.587  22.589  1.00  0.00     0.468 C 
BRANCH  24  31
ATOM     31  C   UNL A   1      32.359  26.566  22.219  1.00  0.00     0.251 C 
ATOM     32  N   UNL A   1      32.291  25.578  21.276  1.00  0.00    -0.366 N 
ATOM     33  O   UNL A   1      33.480  26.910  22.591  1.00  0.00    -0.269 OA
ATOM     34  H   UNL A   1      31.414  25.270  20.949  1.00  0.00     0.159 HD
ATOM     35  H   UNL A   1      33.116  25.174  20.924  1.00  0.00     0.159 HD
ENDBRANCH  24  31
ENDBRANCH  12  22
ENDBRANCH   6   9
ENDBRANCH   4   5
ENDBRANCH   3   4
ENDBRANCH   2   3
ENDBRANCH   1   2
BRANCH   1  36
ATOM     36  C   UNL A   1      38.494  22.085  25.924  1.00  0.00     0.021 C 
BRANCH  36  37
ATOM     37  C   UNL A   1      39.652  22.504  26.809  1.00  0.00     0.116 C 
BRANCH  37  38
ATOM     38  N   UNL A   1      40.943  22.312  26.134  1.00  0.00    -0.352 N 
ATOM     39  C   UNL A   1      41.881  23.263  25.781  1.00  0.00     0.251 C 
ATOM     40  H   UNL A   1      41.170  21.383  25.902  1.00  0.00     0.163 HD
ATOM     41  O   UNL A   1      42.735  23.031  24.936  1.00  0.00    -0.269 OA
BRANCH  39  42
ATOM     42  C   UNL A   1      41.848  24.555  26.482  1.00  0.00     0.039 A 
ATOM     43  C   UNL A   1      41.029  25.619  26.088  1.00  0.00     0.014 A 
ATOM     44  C   UNL A   1      42.680  24.665  27.588  1.00  0.00     0.014 A 
ATOM     45  C   UNL A   1      41.041  26.785  26.851  1.00  0.00     0.010 A 
ATOM     46  C   UNL A   1      42.498  25.686  28.464  1.00  0.00     0.010 A 
ATOM     47  C   UNL A   1      41.789  26.798  28.032  1.00  0.00    -0.014 A 
BRANCH  47  48
ATOM     48  C   UNL A   1      41.885  27.941  28.922  1.00  0.00     0.031 A 
ATOM     49  C   UNL A   1      42.896  28.947  28.489  1.00  0.00     0.074 A 
ATOM     50  C   UNL A   1      40.859  28.173  29.777  1.00  0.00     0.049 A 
ATOM     51  N   UNL A   1      43.959  29.336  29.113  1.00  0.00    -0.248 NA
ATOM     52  C   UNL A   1      42.816  29.445  27.101  1.00  0.00     0.031 C 
ATOM     53  C   UNL A   1      39.619  27.385  29.929  1.00  0.00     0.029 A 
ATOM     54  N   UNL A   1      40.596  29.261  30.543  1.00  0.00    -0.354 N 
ATOM     55  C   UNL A   1      44.531  30.311  28.289  1.00  0.00     0.074 A 
ATOM     56  C   UNL A   1      43.966  30.112  26.988  1.00  0.00     0.031 C 
ATOM     57  C   UNL A   1      38.662  28.152  30.495  1.00  0.00     0.029 A 
ATOM     58  C   UNL A   1      39.252  29.420  30.880  1.00  0.00     0.049 A 
ATOM     59  H   UNL A   1      41.296  29.888  30.837  1.00  0.00     0.167 HD
ATOM     60  C   UNL A   1      45.171  31.396  28.808  1.00  0.00     0.034 A 
ATOM     61  C   UNL A   1      38.658  30.546  31.357  1.00  0.00     0.034 A 
ATOM     62  C   UNL A   1      45.424  31.208  30.215  1.00  0.00     0.049 A 
ATOM     63  C   UNL A   1      39.746  31.447  31.804  1.00  0.00     0.074 A 
ATOM     64  C   UNL A   1      46.132  30.291  30.963  1.00  0.00     0.029 A 
ATOM     65  N   UNL A   1      44.542  31.814  31.077  1.00  0.00    -0.354 N 
ATOM     66  N   UNL A   1      40.552  31.164  32.790  1.00  0.00    -0.248 NA
ATOM     67  C   UNL A   1      40.249  32.412  30.837  1.00  0.00     0.031 C 
ATOM     68  C   UNL A   1      45.315  30.054  32.106  1.00  0.00     0.029 A 
ATOM     69  C   UNL A   1      44.207  30.902  32.041  1.00  0.00     0.049 A 
ATOM     70  H   UNL A   1      44.209  32.739  31.013  1.00  0.00     0.167 HD
ATOM     71  C   UNL A   1      41.806  31.544  32.329  1.00  0.00     0.074 A 
ATOM     72  C   UNL A   1      41.546  32.388  31.161  1.00  0.00     0.031 C 
ATOM     73  C   UNL A   1      42.933  30.886  32.728  1.00  0.00     0.034 A 
BRANCH  60  74
ATOM     74  C   UNL A   1      45.228  32.783  28.189  1.00  0.00     0.023 A 
ATOM     75  C   UNL A   1      46.515  33.285  27.884  1.00  0.00     0.012 A 
ATOM     76  C   UNL A   1      44.162  33.711  28.135  1.00  0.00     0.148 A 
ATOM     77  C   UNL A   1      46.739  34.640  27.619  1.00  0.00     0.002 A 
ATOM     78  C   UNL A   1      44.378  35.044  27.798  1.00  0.00     0.091 A 
ATOM     79  F   UNL A   1      42.937  33.360  28.524  1.00  0.00    -0.205 F 
ATOM     80  C   UNL A   1      45.669  35.521  27.575  1.00  0.00     0.022 A 
BRANCH  78  81
ATOM     81  S   UNL A   1      43.022  36.222  27.684  1.00  0.00     0.127 S 
ATOM     82  O   UNL A   1      42.587  36.306  29.075  1.00  0.00    -0.237 OA
ATOM     83  O   UNL A   1      43.702  37.412  27.173  1.00  0.00    -0.237 OA
ATOM     84  O   UNL A   1      42.065  35.638  26.751  1.00  0.00    -0.744 OA
ENDBRANCH  78  81
ENDBRANCH  60  74
BRANCH  61  85
ATOM     85  C   UNL A   1      37.265  31.030  31.172  1.00  0.00     0.023 A 
ATOM     86  C   UNL A   1      36.506  31.469  32.276  1.00  0.00     0.012 A 
ATOM     87  C   UNL A   1      36.768  31.305  29.877  1.00  0.00     0.148 A 
ATOM     88  C   UNL A   1      35.299  32.163  32.096  1.00  0.00     0.002 A 
ATOM     89  C   UNL A   1      35.565  31.986  29.703  1.00  0.00     0.091 A 
ATOM     90  F   UNL A   1      37.521  30.977  28.819  1.00  0.00    -0.205 F 
ATOM     91  C   UNL A   1      34.830  32.426  30.811  1.00  0.00     0.022 A 
BRANCH  89  92
ATOM     92  S   UNL A   1      34.914  32.383  28.073  1.00  0.00     0.127 S 
ATOM     93  O   UNL A   1      33.671  33.077  28.407  1.00  0.00    -0.237 OA
ATOM     94  O   UNL A   1      35.967  33.237  27.528  1.00  0.00    -0.237 OA
ATOM     95  O   UNL A   1      34.729  31.106  27.397  1.00  0.00    -0.744 OA
ENDBRANCH  89  92
ENDBRANCH  61  85
BRANCH  73  96
ATOM     96  C   UNL A   1      42.815  29.875  33.842  1.00  0.00     0.023 A 
ATOM     97  C   UNL A   1      42.386  28.547  33.630  1.00  0.00     0.012 A 
ATOM     98  C   UNL A   1      43.393  30.213  35.075  1.00  0.00     0.148 A 
ATOM     99  C   UNL A   1      42.532  27.579  34.629  1.00  0.00     0.002 A 
ATOM    100  C   UNL A   1      43.590  29.237  36.041  1.00  0.00     0.091 A 
ATOM    101  F   UNL A   1      43.795  31.479  35.255  1.00  0.00    -0.205 F 
ATOM    102  C   UNL A   1      43.153  27.920  35.828  1.00  0.00     0.022 A 
BRANCH 100 103
ATOM    103  S   UNL A   1      44.528  29.581  37.529  1.00  0.00     0.127 S 
ATOM    104  O   UNL A   1      43.723  30.624  38.161  1.00  0.00    -0.237 OA
ATOM    105  O   UNL A   1      44.509  28.290  38.216  1.00  0.00    -0.237 OA
ATOM    106  O   UNL A   1      45.852  29.998  37.082  1.00  0.00    -0.744 OA
ENDBRANCH 100 103
ENDBRANCH  73  96
ENDBRANCH  47  48
ENDBRANCH  39  42
ENDBRANCH  37  38
ENDBRANCH  36  37
ENDBRANCH   1  36
TORSDOF 20
ENDMDL
MODEL 2
REMARK VINA RESULT:     -12.3      3.112      8.822
REMARK SMILES COc1cccc(-c2nn(-c3cc4c(cc3C(N)=O)OCO4)cc2C(=O)NCCCCCCNC(=O)c2ccc(-c3c4nc(c(-c5cccc(S(=O)(=O)[O-])c5F)c5ccc([nH]5)c(-c5cccc(S(=O)(=O)[O-])c5F)c5nc(c(-c6cccc(S(=O)(=O)[O-])c6F)c6ccc3[nH]6)C=C5)C=C4)cc2)c1
REMARK SMILES IDX 31 1 30 2 29 3 28 4 27 5 25 6 26 7 24 9 8 10 9 11 10 12
REMARK SMILES IDX 23 13 7 14 3 15 4 16 100 17 5 18 6 19 2 20 1 21 11 22 12 23
REMARK SMILES IDX 16 24 13 25 15 26 14 27 22 28 20 29 21 30 17 31 18 32 19 33
REMARK SMILES IDX 32 36 33 37 34 38 35 39 36 41 37 42 38 43 99 44 39 45 98 46
REMARK SMILES IDX 40 47 41 48 42 49 92 50 43 51 97 52 91 53 93 54 44 55 96 56
REMARK SMILES IDX 90 57 89 58 45 60 77 61 57 62 76 63 58 64 61 65 75 66 94 67
REMARK SMILES IDX 59 68 60 69 74 71 95 72 62 73 46 74 47 75 55 76 48 77 50 78
REMARK SMILES IDX 56 79 49 80 51 81 52 82 53 83 54 84 78 85 79 86 87 87 80 88
REMARK SMILES IDX 82 89 88 90 81 91 83 92 84 93 85 94 86 95 63 96 64 97 72 98
REMARK SMILES IDX 65 99 67 100 73 101 66 102 68 103 69 104 70 105 71 106
REMARK H PARENT 27 8 18 34 18 35 34 40 93 59 61 70
REMARK Flexibility Score: inf
ROOT
ATOM      1  C   UNL A   1      34.054  30.170  27.069  1.00  0.00     0.002 C 
ENDROOT
BRANCH   1   2
ATOM      2  C   UNL A   1      33.189  29.550  25.958  1.00  0.00     0.002 C 
BRANCH   2   3
ATOM      3  C   UNL A   1      31.853  28.961  26.429  1.00  0.00     0.021 C 
BRANCH   3   4
ATOM      4  C   UNL A   1      32.012  27.593  27.085  1.00  0.00     0.116 C 
BRANCH   4   5
ATOM      5  N   UNL A   1      30.825  26.792  26.878  1.00  0.00    -0.352 N 
ATOM      6  C   UNL A   1      30.609  25.571  26.300  1.00  0.00     0.255 C 
ATOM      7  O   UNL A   1      29.444  25.173  26.340  1.00  0.00    -0.269 OA
ATOM      8  H   UNL A   1      30.004  27.213  27.223  1.00  0.00     0.163 HD
BRANCH   6   9
ATOM      9  C   UNL A   1      31.694  24.761  25.764  1.00  0.00     0.086 A 
ATOM     10  C   UNL A   1      32.464  25.001  24.573  1.00  0.00     0.106 A 
ATOM     11  N   UNL A   1      33.242  23.942  24.256  1.00  0.00    -0.167 NA
ATOM     12  N   UNL A   1      32.908  23.024  25.192  1.00  0.00    -0.239 N 
ATOM     13  C   UNL A   1      32.266  23.608  26.254  1.00  0.00     0.129 A 
BRANCH  10  14
ATOM     14  C   UNL A   1      32.453  26.220  23.765  1.00  0.00     0.007 A 
ATOM     15  C   UNL A   1      31.267  27.954  22.562  1.00  0.00     0.119 A 
ATOM     16  C   UNL A   1      32.465  28.645  22.371  1.00  0.00     0.046 A 
ATOM     17  C   UNL A   1      31.259  26.732  23.243  1.00  0.00     0.056 A 
ATOM     18  C   UNL A   1      33.659  28.133  22.875  1.00  0.00     0.005 A 
ATOM     19  C   UNL A   1      33.653  26.920  23.562  1.00  0.00     0.011 A 
BRANCH  15  20
ATOM     20  O   UNL A   1      30.156  28.525  22.000  1.00  0.00    -0.497 OA
ATOM     21  C   UNL A   1      29.430  29.365  22.891  1.00  0.00     0.278 C 
ENDBRANCH  15  20
ENDBRANCH  10  14
BRANCH  12  22
ATOM     22  C   UNL A   1      33.287  21.662  25.134  1.00  0.00     0.081 A 
ATOM     23  C   UNL A   1      32.298  20.717  24.809  1.00  0.00     0.079 A 
ATOM     24  C   UNL A   1      34.653  21.273  25.293  1.00  0.00     0.069 A 
ATOM     25  C   UNL A   1      32.714  19.421  24.581  1.00  0.00     0.167 A 
ATOM     26  C   UNL A   1      35.032  19.966  24.949  1.00  0.00     0.066 A 
ATOM     27  C   UNL A   1      34.043  19.069  24.624  1.00  0.00     0.166 A 
ATOM     28  O   UNL A   1      31.919  18.355  24.293  1.00  0.00    -0.454 OA
ATOM     29  O   UNL A   1      34.249  17.747  24.377  1.00  0.00    -0.454 OA
ATOM     30  C   UNL A   1      32.887  17.282  24.305  1.00  0.00     0.468 C 
BRANCH  24  31
ATOM     31  C   UNL A   1      35.655  22.130  26.021  1.00  0.00     0.251 C 
ATOM     32  N   UNL A   1      36.986  21.873  25.839  1.00  0.00    -0.366 N 
ATOM     33  O   UNL A   1      35.357  22.993  26.845  1.00  0.00    -0.269 OA
ATOM     34  H   UNL A   1      37.270  21.189  25.190  1.00  0.00     0.159 HD
ATOM     35  H   UNL A   1      37.659  22.369  26.357  1.00  0.00     0.159 HD
ENDBRANCH  24  31
ENDBRANCH  12  22
ENDBRANCH   6   9
ENDBRANCH   4   5
ENDBRANCH   3   4
ENDBRANCH   2   3
ENDBRANCH   1   2
BRANCH   1  36
ATOM     36  C   UNL A   1      33.671  31.596  27.499  1.00  0.00     0.021 C 
BRANCH  36  37
ATOM     37  C   UNL A   1      34.826  32.338  28.143  1.00  0.00     0.116 C 
BRANCH  37  38
ATOM     38  N   UNL A   1      34.480  32.806  29.492  1.00  0.00    -0.352 N 
ATOM     39  C   UNL A   1      34.925  32.331  30.711  1.00  0.00     0.251 C 
ATOM     40  H   UNL A   1      33.847  33.559  29.534  1.00  0.00     0.163 HD
ATOM     41  O   UNL A   1      34.317  32.567  31.746  1.00  0.00    -0.269 OA
BRANCH  39  42
ATOM     42  C   UNL A   1      36.179  31.563  30.733  1.00  0.00     0.039 A 
ATOM     43  C   UNL A   1      36.223  30.167  30.660  1.00  0.00     0.014 A 
ATOM     44  C   UNL A   1      37.345  32.312  30.819  1.00  0.00     0.014 A 
ATOM     45  C   UNL A   1      37.468  29.541  30.642  1.00  0.00     0.010 A 
ATOM     46  C   UNL A   1      38.538  31.727  30.542  1.00  0.00     0.010 A 
ATOM     47  C   UNL A   1      38.612  30.342  30.591  1.00  0.00    -0.014 A 
BRANCH  47  48
ATOM     48  C   UNL A   1      39.968  29.822  30.562  1.00  0.00     0.031 A 
ATOM     49  C   UNL A   1      40.635  29.831  31.895  1.00  0.00     0.074 A 
ATOM     50  C   UNL A   1      40.341  29.068  29.499  1.00  0.00     0.049 A 
ATOM     51  N   UNL A   1      41.700  30.469  32.256  1.00  0.00    -0.248 NA
ATOM     52  C   UNL A   1      39.921  29.200  33.023  1.00  0.00     0.031 C 
ATOM     53  C   UNL A   1      39.523  28.699  28.326  1.00  0.00     0.029 A 
ATOM     54  N   UNL A   1      41.445  28.299  29.325  1.00  0.00    -0.354 N 
ATOM     55  C   UNL A   1      41.911  30.105  33.589  1.00  0.00     0.074 A 
ATOM     56  C   UNL A   1      40.660  29.589  34.062  1.00  0.00     0.031 C 
ATOM     57  C   UNL A   1      40.038  27.593  27.745  1.00  0.00     0.029 A 
ATOM     58  C   UNL A   1      41.289  27.266  28.400  1.00  0.00     0.049 A 
ATOM     59  H   UNL A   1      42.286  28.456  29.812  1.00  0.00     0.167 HD
ATOM     60  C   UNL A   1      43.166  29.958  34.098  1.00  0.00     0.034 A 
ATOM     61  C   UNL A   1      42.090  26.178  28.251  1.00  0.00     0.034 A 
ATOM     62  C   UNL A   1      44.144  30.516  33.199  1.00  0.00     0.049 A 
ATOM     63  C   UNL A   1      43.347  26.467  28.980  1.00  0.00     0.074 A 
ATOM     64  C   UNL A   1      44.381  31.770  32.673  1.00  0.00     0.029 A 
ATOM     65  N   UNL A   1      44.799  29.625  32.384  1.00  0.00    -0.354 N 
ATOM     66  N   UNL A   1      44.171  27.420  28.640  1.00  0.00    -0.248 NA
ATOM     67  C   UNL A   1      43.425  26.035  30.368  1.00  0.00     0.031 C 
ATOM     68  C   UNL A   1      44.752  31.527  31.319  1.00  0.00     0.029 A 
ATOM     69  C   UNL A   1      44.814  30.146  31.119  1.00  0.00     0.049 A 
ATOM     70  H   UNL A   1      45.190  28.763  32.661  1.00  0.00     0.167 HD
ATOM     71  C   UNL A   1      44.529  28.012  29.845  1.00  0.00     0.074 A 
ATOM     72  C   UNL A   1      44.114  27.061  30.877  1.00  0.00     0.031 C 
ATOM     73  C   UNL A   1      44.827  29.342  29.915  1.00  0.00     0.034 A 
BRANCH  60  74
ATOM     74  C   UNL A   1      43.582  28.983  35.187  1.00  0.00     0.023 A 
ATOM     75  C   UNL A   1      44.384  29.506  36.229  1.00  0.00     0.012 A 
ATOM     76  C   UNL A   1      43.473  27.574  35.124  1.00  0.00     0.148 A 
ATOM     77  C   UNL A   1      45.095  28.679  37.104  1.00  0.00     0.002 A 
ATOM     78  C   UNL A   1      44.123  26.755  36.042  1.00  0.00     0.091 A 
ATOM     79  F   UNL A   1      42.843  26.987  34.107  1.00  0.00    -0.205 F 
ATOM     80  C   UNL A   1      44.964  27.300  37.012  1.00  0.00     0.022 A 
BRANCH  78  81
ATOM     81  S   UNL A   1      43.956  24.963  35.996  1.00  0.00     0.127 S 
ATOM     82  O   UNL A   1      44.931  24.551  37.001  1.00  0.00    -0.237 OA
ATOM     83  O   UNL A   1      42.555  24.784  36.379  1.00  0.00    -0.237 OA
ATOM     84  O   UNL A   1      44.251  24.572  34.623  1.00  0.00    -0.744 OA
ENDBRANCH  78  81
ENDBRANCH  60  74
BRANCH  61  85
ATOM     85  C   UNL A   1      41.743  24.804  27.803  1.00  0.00     0.023 A 
ATOM     86  C   UNL A   1      40.421  24.326  27.917  1.00  0.00     0.012 A 
ATOM     87  C   UNL A   1      42.653  24.051  27.026  1.00  0.00     0.148 A 
ATOM     88  C   UNL A   1      40.019  23.144  27.274  1.00  0.00     0.002 A 
ATOM     89  C   UNL A   1      42.252  22.875  26.397  1.00  0.00     0.091 A 
ATOM     90  F   UNL A   1      43.885  24.539  26.833  1.00  0.00    -0.205 F 
ATOM     91  C   UNL A   1      40.932  22.421  26.510  1.00  0.00     0.022 A 
BRANCH  89  92
ATOM     92  S   UNL A   1      43.371  21.904  25.374  1.00  0.00     0.127 S 
ATOM     93  O   UNL A   1      44.615  21.974  26.140  1.00  0.00    -0.237 OA
ATOM     94  O   UNL A   1      42.721  20.596  25.374  1.00  0.00    -0.237 OA
ATOM     95  O   UNL A   1      43.418  22.581  24.084  1.00  0.00    -0.744 OA
ENDBRANCH  89  92
ENDBRANCH  61  85
BRANCH  73  96
ATOM     96  C   UNL A   1      44.966  30.114  28.626  1.00  0.00     0.023 A 
ATOM     97  C   UNL A   1      43.859  30.620  27.912  1.00  0.00     0.012 A 
ATOM     98  C   UNL A   1      46.254  30.548  28.278  1.00  0.00     0.148 A 
ATOM     99  C   UNL A   1      44.036  31.538  26.872  1.00  0.00     0.002 A 
ATOM    100  C   UNL A   1      46.421  31.502  27.285  1.00  0.00     0.091 A 
ATOM    101  F   UNL A   1      47.292  30.056  28.970  1.00  0.00    -0.205 F 
ATOM    102  C   UNL A   1      45.317  31.995  26.572  1.00  0.00     0.022 A 
BRANCH 100 103
ATOM    103  S   UNL A   1      48.022  32.245  26.973  1.00  0.00     0.127 S 
ATOM    104  O   UNL A   1      47.697  33.258  25.972  1.00  0.00    -0.237 OA
ATOM    105  O   UNL A   1      48.384  32.774  28.289  1.00  0.00    -0.237 OA
ATOM    106  O   UNL A   1      48.884  31.163  26.511  1.00  0.00    -0.744 OA
ENDBRANCH 100 103
ENDBRANCH  73  96
ENDBRANCH  47  48
ENDBRANCH  39  42
ENDBRANCH  37  38
ENDBRANCH  36  37
ENDBRANCH   1  36
TORSDOF 20
ENDMDL
MODEL 3
REMARK VINA RESULT:     -12.2      2.294      4.920
REMARK SMILES COc1cccc(-c2nn(-c3cc4c(cc3C(N)=O)OCO4)cc2C(=O)NCCCCCCNC(=O)c2ccc(-c3c4nc(c(-c5cccc(S(=O)(=O)[O-])c5F)c5ccc([nH]5)c(-c5cccc(S(=O)(=O)[O-])c5F)c5nc(c(-c6cccc(S(=O)(=O)[O-])c6F)c6ccc3[nH]6)C=C5)C=C4)cc2)c1
REMARK SMILES IDX 31 1 30 2 29 3 28 4 27 5 25 6 26 7 24 9 8 10 9 11 10 12
REMARK SMILES IDX 23 13 7 14 3 15 4 16 100 17 5 18 6 19 2 20 1 21 11 22 12 23
REMARK SMILES IDX 16 24 13 25 15 26 14 27 22 28 20 29 21 30 17 31 18 32 19 33
REMARK SMILES IDX 32 36 33 37 34 38 35 39 36 41 37 42 38 43 99 44 39 45 98 46
REMARK SMILES IDX 40 47 41 48 42 49 92 50 43 51 97 52 91 53 93 54 44 55 96 56
REMARK SMILES IDX 90 57 89 58 45 60 77 61 57 62 76 63 58 64 61 65 75 66 94 67
REMARK SMILES IDX 59 68 60 69 74 71 95 72 62 73 46 74 47 75 55 76 48 77 50 78
REMARK SMILES IDX 56 79 49 80 51 81 52 82 53 83 54 84 78 85 79 86 87 87 80 88
REMARK SMILES IDX 82 89 88 90 81 91 83 92 84 93 85 94 86 95 63 96 64 97 72 98
REMARK SMILES IDX 65 99 67 100 73 101 66 102 68 103 69 104 70 105 71 106
REMARK H PARENT 27 8 18 34 18 35 34 40 93 59 61 70
REMARK Flexibility Score: inf
ROOT
ATOM      1  C   UNL A   1      35.199  23.668  23.575  1.00  0.00     0.002 C 
ENDROOT
BRANCH   1   2
ATOM      2  C   UNL A   1      34.745  25.133  23.457  1.00  0.00     0.002 C 
BRANCH   2   3
ATOM      3  C   UNL A   1      33.582  25.376  22.487  1.00  0.00     0.021 C 
BRANCH   3   4
ATOM      4  C   UNL A   1      33.150  26.838  22.439  1.00  0.00     0.116 C 
BRANCH   4   5
ATOM      5  N   UNL A   1      31.723  26.951  22.642  1.00  0.00    -0.352 N 
ATOM      6  C   UNL A   1      30.839  26.300  23.459  1.00  0.00     0.255 C 
ATOM      7  O   UNL A   1      29.675  26.697  23.391  1.00  0.00    -0.269 OA
ATOM      8  H   UNL A   1      31.300  27.637  22.075  1.00  0.00     0.163 HD
BRANCH   6   9
ATOM      9  C   UNL A   1      31.263  25.279  24.407  1.00  0.00     0.086 A 
ATOM     10  C   UNL A   1      32.008  25.465  25.624  1.00  0.00     0.106 A 
ATOM     11  N   UNL A   1      32.415  24.287  26.148  1.00  0.00    -0.167 NA
ATOM     12  N   UNL A   1      31.997  23.383  25.233  1.00  0.00    -0.239 N 
ATOM     13  C   UNL A   1      31.048  23.919  24.402  1.00  0.00     0.129 A 
BRANCH  10  14
ATOM     14  C   UNL A   1      32.314  26.743  26.266  1.00  0.00     0.007 A 
ATOM     15  C   UNL A   1      33.786  28.628  26.639  1.00  0.00     0.119 A 
ATOM     16  C   UNL A   1      32.787  29.266  27.376  1.00  0.00     0.046 A 
ATOM     17  C   UNL A   1      33.560  27.357  26.098  1.00  0.00     0.056 A 
ATOM     18  C   UNL A   1      31.549  28.653  27.559  1.00  0.00     0.005 A 
ATOM     19  C   UNL A   1      31.318  27.392  27.013  1.00  0.00     0.011 A 
BRANCH  15  20
ATOM     20  O   UNL A   1      34.976  29.300  26.545  1.00  0.00    -0.497 OA
ATOM     21  C   UNL A   1      35.727  29.307  27.755  1.00  0.00     0.278 C 
ENDBRANCH  15  20
ENDBRANCH  10  14
BRANCH  12  22
ATOM     22  C   UNL A   1      32.399  22.026  25.222  1.00  0.00     0.081 A 
ATOM     23  C   UNL A   1      32.013  21.234  24.127  1.00  0.00     0.079 A 
ATOM     24  C   UNL A   1      33.261  21.508  26.237  1.00  0.00     0.069 A 
ATOM     25  C   UNL A   1      32.557  19.968  24.040  1.00  0.00     0.167 A 
ATOM     26  C   UNL A   1      33.865  20.255  26.044  1.00  0.00     0.066 A 
ATOM     27  C   UNL A   1      33.474  19.510  24.956  1.00  0.00     0.166 A 
ATOM     28  O   UNL A   1      32.288  19.036  23.086  1.00  0.00    -0.454 OA
ATOM     29  O   UNL A   1      33.888  18.240  24.701  1.00  0.00    -0.454 OA
ATOM     30  C   UNL A   1      33.027  17.904  23.596  1.00  0.00     0.468 C 
BRANCH  24  31
ATOM     31  C   UNL A   1      33.375  22.143  27.599  1.00  0.00     0.251 C 
ATOM     32  N   UNL A   1      34.593  22.623  27.994  1.00  0.00    -0.366 N 
ATOM     33  O   UNL A   1      32.463  22.177  28.423  1.00  0.00    -0.269 OA
ATOM     34  H   UNL A   1      35.352  22.614  27.367  1.00  0.00     0.159 HD
ATOM     35  H   UNL A   1      34.711  22.976  28.905  1.00  0.00     0.159 HD
ENDBRANCH  24  31
ENDBRANCH  12  22
ENDBRANCH   6   9
ENDBRANCH   4   5
ENDBRANCH   3   4
ENDBRANCH   2   3
ENDBRANCH   1   2
BRANCH   1  36
ATOM     36  C   UNL A   1      35.902  23.289  24.890  1.00  0.00     0.021 C 
BRANCH  36  37
ATOM     37  C   UNL A   1      37.411  23.396  24.791  1.00  0.00     0.116 C 
BRANCH  37  38
ATOM     38  N   UNL A   1      38.075  22.259  25.444  1.00  0.00    -0.352 N 
ATOM     39  C   UNL A   1      39.208  22.260  26.235  1.00  0.00     0.251 C 
ATOM     40  H   UNL A   1      37.656  21.379  25.300  1.00  0.00     0.163 HD
ATOM     41  O   UNL A   1      39.847  21.234  26.431  1.00  0.00    -0.269 OA
BRANCH  39  42
ATOM     42  C   UNL A   1      39.604  23.526  26.868  1.00  0.00     0.039 A 
ATOM     43  C   UNL A   1      38.745  24.624  26.986  1.00  0.00     0.014 A 
ATOM     44  C   UNL A   1      40.900  23.574  27.365  1.00  0.00     0.014 A 
ATOM     45  C   UNL A   1      39.208  25.762  27.646  1.00  0.00     0.010 A 
ATOM     46  C   UNL A   1      41.252  24.568  28.220  1.00  0.00     0.010 A 
ATOM     47  C   UNL A   1      40.468  25.712  28.249  1.00  0.00    -0.014 A 
BRANCH  47  48
ATOM     48  C   UNL A   1      41.067  26.821  28.971  1.00  0.00     0.031 A 
ATOM     49  C   UNL A   1      42.378  27.254  28.410  1.00  0.00     0.074 A 
ATOM     50  C   UNL A   1      40.270  27.563  29.778  1.00  0.00     0.049 A 
ATOM     51  N   UNL A   1      43.538  27.249  28.981  1.00  0.00    -0.248 NA
ATOM     52  C   UNL A   1      42.439  27.556  26.966  1.00  0.00     0.031 C 
ATOM     53  C   UNL A   1      38.826  27.383  30.029  1.00  0.00     0.029 A 
ATOM     54  N   UNL A   1      40.515  28.753  30.382  1.00  0.00    -0.354 N 
ATOM     55  C   UNL A   1      44.415  27.785  28.034  1.00  0.00     0.074 A 
ATOM     56  C   UNL A   1      43.753  27.668  26.769  1.00  0.00     0.031 C 
ATOM     57  C   UNL A   1      38.296  28.544  30.475  1.00  0.00     0.029 A 
ATOM     58  C   UNL A   1      39.371  29.494  30.683  1.00  0.00     0.049 A 
ATOM     59  H   UNL A   1      41.424  29.069  30.591  1.00  0.00     0.167 HD
ATOM     60  C   UNL A   1      45.469  28.568  28.401  1.00  0.00     0.034 A 
ATOM     61  C   UNL A   1      39.314  30.816  30.993  1.00  0.00     0.034 A 
ATOM     62  C   UNL A   1      45.693  28.479  29.822  1.00  0.00     0.049 A 
ATOM     63  C   UNL A   1      40.697  31.240  31.318  1.00  0.00     0.074 A 
ATOM     64  C   UNL A   1      46.001  27.458  30.697  1.00  0.00     0.029 A 
ATOM     65  N   UNL A   1      45.180  29.501  30.584  1.00  0.00    -0.354 N 
ATOM     66  N   UNL A   1      41.366  30.781  32.340  1.00  0.00    -0.248 NA
ATOM     67  C   UNL A   1      41.501  31.776  30.230  1.00  0.00     0.031 C 
ATOM     68  C   UNL A   1      45.217  27.729  31.855  1.00  0.00     0.029 A 
ATOM     69  C   UNL A   1      44.551  28.943  31.664  1.00  0.00     0.049 A 
ATOM     70  H   UNL A   1      45.251  30.464  30.388  1.00  0.00     0.167 HD
ATOM     71  C   UNL A   1      42.640  30.548  31.840  1.00  0.00     0.074 A 
ATOM     72  C   UNL A   1      42.689  31.264  30.564  1.00  0.00     0.031 C 
ATOM     73  C   UNL A   1      43.418  29.542  32.337  1.00  0.00     0.034 A 
BRANCH  60  74
ATOM     74  C   UNL A   1      46.056  29.715  27.594  1.00  0.00     0.023 A 
ATOM     75  C   UNL A   1      47.466  29.823  27.588  1.00  0.00     0.012 A 
ATOM     76  C   UNL A   1      45.338  30.819  27.079  1.00  0.00     0.148 A 
ATOM     77  C   UNL A   1      48.119  30.987  27.168  1.00  0.00     0.002 A 
ATOM     78  C   UNL A   1      45.992  31.947  26.593  1.00  0.00     0.091 A 
ATOM     79  F   UNL A   1      44.008  30.860  27.157  1.00  0.00    -0.205 F 
ATOM     80  C   UNL A   1      47.381  32.051  26.669  1.00  0.00     0.022 A 
BRANCH  78  81
ATOM     81  S   UNL A   1      45.089  33.339  25.896  1.00  0.00     0.127 S 
ATOM     82  O   UNL A   1      44.344  33.817  27.057  1.00  0.00    -0.237 OA
ATOM     83  O   UNL A   1      46.177  34.210  25.454  1.00  0.00    -0.237 OA
ATOM     84  O   UNL A   1      44.289  32.788  24.808  1.00  0.00    -0.744 OA
ENDBRANCH  78  81
ENDBRANCH  60  74
BRANCH  61  85
ATOM     85  C   UNL A   1      38.234  31.802  30.731  1.00  0.00     0.023 A 
ATOM     86  C   UNL A   1      37.648  31.900  29.452  1.00  0.00     0.012 A 
ATOM     87  C   UNL A   1      37.598  32.472  31.802  1.00  0.00     0.148 A 
ATOM     88  C   UNL A   1      36.467  32.632  29.249  1.00  0.00     0.002 A 
ATOM     89  C   UNL A   1      36.432  33.205  31.595  1.00  0.00     0.091 A 
ATOM     90  F   UNL A   1      38.090  32.313  33.037  1.00  0.00    -0.205 F 
ATOM     91  C   UNL A   1      35.857  33.281  30.320  1.00  0.00     0.022 A 
BRANCH  89  92
ATOM     92  S   UNL A   1      35.575  34.045  32.936  1.00  0.00     0.127 S 
ATOM     93  O   UNL A   1      34.464  34.682  32.230  1.00  0.00    -0.237 OA
ATOM     94  O   UNL A   1      35.196  32.928  33.797  1.00  0.00    -0.237 OA
ATOM     95  O   UNL A   1      36.542  34.975  33.504  1.00  0.00    -0.744 OA
ENDBRANCH  89  92
ENDBRANCH  61  85
BRANCH  73  96
ATOM     96  C   UNL A   1      42.954  28.824  33.580  1.00  0.00     0.023 A 
ATOM     97  C   UNL A   1      42.051  27.740  33.547  1.00  0.00     0.012 A 
ATOM     98  C   UNL A   1      43.645  29.096  34.769  1.00  0.00     0.148 A 
ATOM     99  C   UNL A   1      41.845  26.945  34.680  1.00  0.00     0.002 A 
ATOM    100  C   UNL A   1      43.482  28.271  35.873  1.00  0.00     0.091 A 
ATOM    101  F   UNL A   1      44.500  30.130  34.779  1.00  0.00    -0.205 F 
ATOM    102  C   UNL A   1      42.576  27.199  35.837  1.00  0.00     0.022 A 
BRANCH 100 103
ATOM    103  S   UNL A   1      44.516  28.450  37.326  1.00  0.00     0.127 S 
ATOM    104  O   UNL A   1      44.075  29.738  37.855  1.00  0.00    -0.237 OA
ATOM    105  O   UNL A   1      44.129  27.290  38.130  1.00  0.00    -0.237 OA
ATOM    106  O   UNL A   1      45.893  28.409  36.847  1.00  0.00    -0.744 OA
ENDBRANCH 100 103
ENDBRANCH  73  96
ENDBRANCH  47  48
ENDBRANCH  39  42
ENDBRANCH  37  38
ENDBRANCH  36  37
ENDBRANCH   1  36
TORSDOF 20
ENDMDL
