MODEL 1
REMARK VINA RESULT:     -10.6      0.000      0.000
REMARK SMILES CCOc1cc(OCC)cc(-c2ccc([C@@H](C)C(=O)NCCCCCCNC(=O)c3ccc(-c4c5nc(c(-c6cccc(S(=O)(=O)[O-])c6F)c6ccc([nH]6)c(-c6cccc(S(=O)(=O)[O-])c6F)c6nc(c(-c7cccc(S(=O)(=O)[O-])c7F)c7ccc4[nH]7)C=C6)C=C5)cc3)cc2F)c1
REMARK SMILES IDX 23 1 22 2 21 3 20 4 18 5 19 6 16 8 17 9 15 10 12 11 13 12
REMARK SMILES IDX 94 13 14 14 93 15 95 16 11 17 4 18 5 19 96 20 6 21 10 22
REMARK SMILES IDX 3 23 2 24 1 25 7 26 8 27 9 28 24 29 25 30 26 31 27 32 28 33
REMARK SMILES IDX 29 35 30 36 31 37 92 38 32 39 91 40 33 41 34 42 35 43 85 44
REMARK SMILES IDX 36 45 90 46 84 47 86 48 37 49 89 50 83 51 82 52 38 54 70 55
REMARK SMILES IDX 50 56 69 57 51 58 54 59 68 60 87 61 52 62 53 63 67 65 88 66
REMARK SMILES IDX 55 67 39 68 40 69 48 70 41 71 43 72 49 73 42 74 44 75 45 76
REMARK SMILES IDX 46 77 47 78 71 79 72 80 80 81 73 82 75 83 81 84 74 85 76 86
REMARK SMILES IDX 77 87 78 88 79 89 56 90 57 91 65 92 58 93 60 94 66 95 59 96
REMARK SMILES IDX 61 97 62 98 63 99 64 100
REMARK H PARENT 20 7 27 34 86 53 54 64
REMARK Flexibility Score: inf
ROOT
ATOM      1  C   UNL A   1      37.063  22.988  25.193  1.00  0.00     0.002 C 
ENDROOT
BRANCH   1   2
ATOM      2  C   UNL A   1      36.238  24.269  25.050  1.00  0.00     0.021 C 
BRANCH   2   3
ATOM      3  C   UNL A   1      34.725  24.026  25.037  1.00  0.00     0.116 C 
BRANCH   3   4
ATOM      4  N   UNL A   1      34.033  25.017  24.240  1.00  0.00    -0.356 N 
ATOM      5  C   UNL A   1      33.168  26.013  24.574  1.00  0.00     0.227 C 
ATOM      6  O   UNL A   1      32.668  26.643  23.633  1.00  0.00    -0.274 OA
ATOM      7  H   UNL A   1      34.224  24.960  23.275  1.00  0.00     0.163 HD
BRANCH   5   8
ATOM      8  C   UNL A   1      32.800  26.383  26.020  1.00  0.00     0.105 C 
ATOM      9  C   UNL A   1      31.407  25.930  26.454  1.00  0.00     0.023 C 
BRANCH   8  10
ATOM     10  C   UNL A   1      33.161  27.811  26.387  1.00  0.00    -0.033 A 
ATOM     11  C   UNL A   1      33.766  30.468  27.230  1.00  0.00     0.018 A 
ATOM     12  C   UNL A   1      34.765  29.493  27.086  1.00  0.00     0.012 A 
ATOM     13  C   UNL A   1      32.458  30.082  26.919  1.00  0.00     0.131 A 
ATOM     14  C   UNL A   1      34.476  28.212  26.623  1.00  0.00     0.005 A 
ATOM     15  C   UNL A   1      32.152  28.776  26.527  1.00  0.00     0.044 A 
ATOM     16  F   UNL A   1      31.448  30.964  26.986  1.00  0.00    -0.206 F 
BRANCH  11  17
ATOM     17  C   UNL A   1      34.133  31.818  27.695  1.00  0.00    -0.008 A 
ATOM     18  C   UNL A   1      33.547  34.051  28.461  1.00  0.00     0.123 A 
ATOM     19  C   UNL A   1      34.886  34.315  28.759  1.00  0.00     0.092 A 
ATOM     20  C   UNL A   1      33.182  32.819  27.917  1.00  0.00     0.055 A 
ATOM     21  C   UNL A   1      35.863  33.348  28.515  1.00  0.00     0.123 A 
ATOM     22  C   UNL A   1      35.477  32.124  27.974  1.00  0.00     0.055 A 
BRANCH  18  23
ATOM     23  O   UNL A   1      32.639  35.068  28.583  1.00  0.00    -0.494 OA
BRANCH  23  24
ATOM     24  C   UNL A   1      33.064  36.151  29.421  1.00  0.00     0.226 C 
ATOM     25  C   UNL A   1      32.839  35.886  30.904  1.00  0.00     0.049 C 
ENDBRANCH  23  24
ENDBRANCH  18  23
BRANCH  21  26
ATOM     26  O   UNL A   1      37.147  33.675  28.857  1.00  0.00    -0.494 OA
BRANCH  26  27
ATOM     27  C   UNL A   1      37.404  34.088  30.207  1.00  0.00     0.226 C 
ATOM     28  C   UNL A   1      37.104  32.985  31.214  1.00  0.00     0.049 C 
ENDBRANCH  26  27
ENDBRANCH  21  26
ENDBRANCH  11  17
ENDBRANCH   8  10
ENDBRANCH   5   8
ENDBRANCH   3   4
ENDBRANCH   2   3
ENDBRANCH   1   2
BRANCH   1  29
ATOM     29  C   UNL A   1      38.238  23.086  26.175  1.00  0.00     0.002 C 
BRANCH  29  30
ATOM     30  C   UNL A   1      38.904  21.752  26.530  1.00  0.00     0.021 C 
BRANCH  30  31
ATOM     31  C   UNL A   1      39.199  20.858  25.329  1.00  0.00     0.116 C 
BRANCH  31  32
ATOM     32  N   UNL A   1      40.028  19.719  25.702  1.00  0.00    -0.352 N 
ATOM     33  C   UNL A   1      41.361  19.683  26.028  1.00  0.00     0.251 C 
ATOM     34  H   UNL A   1      39.565  18.850  25.722  1.00  0.00     0.163 HD
ATOM     35  O   UNL A   1      41.960  18.615  26.060  1.00  0.00    -0.269 OA
BRANCH  33  36
ATOM     36  C   UNL A   1      42.068  20.944  26.338  1.00  0.00     0.039 A 
ATOM     37  C   UNL A   1      42.449  21.788  25.291  1.00  0.00     0.014 A 
ATOM     38  C   UNL A   1      42.351  21.287  27.662  1.00  0.00     0.014 A 
ATOM     39  C   UNL A   1      43.056  23.012  25.580  1.00  0.00     0.010 A 
ATOM     40  C   UNL A   1      42.889  22.537  27.951  1.00  0.00     0.010 A 
ATOM     41  C   UNL A   1      43.246  23.413  26.914  1.00  0.00    -0.014 A 
BRANCH  41  42
ATOM     42  C   UNL A   1      43.789  24.752  27.252  1.00  0.00     0.031 A 
ATOM     43  C   UNL A   1      42.878  25.830  27.771  1.00  0.00     0.074 A 
ATOM     44  C   UNL A   1      45.085  25.025  26.997  1.00  0.00     0.049 A 
ATOM     45  N   UNL A   1      43.147  27.083  28.028  1.00  0.00    -0.248 NA
ATOM     46  C   UNL A   1      41.472  25.458  28.008  1.00  0.00     0.031 C 
ATOM     47  C   UNL A   1      46.053  24.082  26.433  1.00  0.00     0.029 A 
ATOM     48  N   UNL A   1      45.803  26.185  27.147  1.00  0.00    -0.354 N 
ATOM     49  C   UNL A   1      41.946  27.657  28.428  1.00  0.00     0.074 A 
ATOM     50  C   UNL A   1      40.937  26.624  28.345  1.00  0.00     0.031 C 
ATOM     51  C   UNL A   1      47.236  24.699  26.286  1.00  0.00     0.029 A 
ATOM     52  C   UNL A   1      47.103  26.091  26.704  1.00  0.00     0.049 A 
ATOM     53  H   UNL A   1      45.425  27.007  27.535  1.00  0.00     0.167 HD
ATOM     54  C   UNL A   1      41.709  28.920  28.852  1.00  0.00     0.034 A 
ATOM     55  C   UNL A   1      48.070  27.024  26.622  1.00  0.00     0.034 A 
ATOM     56  C   UNL A   1      42.722  29.936  28.960  1.00  0.00     0.049 A 
ATOM     57  C   UNL A   1      47.778  28.423  27.095  1.00  0.00     0.074 A 
ATOM     58  C   UNL A   1      42.598  31.224  29.450  1.00  0.00     0.029 A 
ATOM     59  N   UNL A   1      44.041  29.784  28.562  1.00  0.00    -0.354 N 
ATOM     60  N   UNL A   1      46.673  28.906  27.610  1.00  0.00    -0.248 NA
ATOM     61  C   UNL A   1      48.873  29.400  27.002  1.00  0.00     0.031 C 
ATOM     62  C   UNL A   1      43.834  31.862  29.317  1.00  0.00     0.029 A 
ATOM     63  C   UNL A   1      44.737  30.961  28.777  1.00  0.00     0.049 A 
ATOM     64  H   UNL A   1      44.426  28.962  28.182  1.00  0.00     0.167 HD
ATOM     65  C   UNL A   1      46.949  30.229  27.935  1.00  0.00     0.074 A 
ATOM     66  C   UNL A   1      48.333  30.465  27.578  1.00  0.00     0.031 C 
ATOM     67  C   UNL A   1      46.128  31.167  28.465  1.00  0.00     0.034 A 
BRANCH  54  68
ATOM     68  C   UNL A   1      40.306  29.269  29.278  1.00  0.00     0.023 A 
ATOM     69  C   UNL A   1      39.377  29.712  28.314  1.00  0.00     0.012 A 
ATOM     70  C   UNL A   1      39.888  29.093  30.611  1.00  0.00     0.148 A 
ATOM     71  C   UNL A   1      38.063  30.007  28.677  1.00  0.00     0.002 A 
ATOM     72  C   UNL A   1      38.565  29.344  30.955  1.00  0.00     0.091 A 
ATOM     73  F   UNL A   1      40.790  28.687  31.516  1.00  0.00    -0.205 F 
ATOM     74  C   UNL A   1      37.655  29.812  29.993  1.00  0.00     0.022 A 
BRANCH  72  75
ATOM     75  S   UNL A   1      37.916  29.048  32.604  1.00  0.00     0.127 S 
ATOM     76  O   UNL A   1      38.768  29.917  33.415  1.00  0.00    -0.237 OA
ATOM     77  O   UNL A   1      36.531  29.500  32.474  1.00  0.00    -0.237 OA
ATOM     78  O   UNL A   1      38.071  27.620  32.849  1.00  0.00    -0.744 OA
ENDBRANCH  72  75
ENDBRANCH  54  68
BRANCH  55  79
ATOM     79  C   UNL A   1      49.422  26.662  26.108  1.00  0.00     0.023 A 
ATOM     80  C   UNL A   1      50.271  25.859  26.895  1.00  0.00     0.012 A 
ATOM     81  C   UNL A   1      49.868  27.099  24.845  1.00  0.00     0.148 A 
ATOM     82  C   UNL A   1      51.552  25.530  26.452  1.00  0.00     0.002 A 
ATOM     83  C   UNL A   1      51.124  26.719  24.385  1.00  0.00     0.091 A 
ATOM     84  F   UNL A   1      49.051  27.871  24.115  1.00  0.00    -0.205 F 
ATOM     85  C   UNL A   1      51.975  25.952  25.195  1.00  0.00     0.022 A 
BRANCH  83  86
ATOM     86  S   UNL A   1      51.698  27.108  22.728  1.00  0.00     0.127 S 
ATOM     87  O   UNL A   1      52.941  26.344  22.655  1.00  0.00    -0.237 OA
ATOM     88  O   UNL A   1      50.606  26.591  21.901  1.00  0.00    -0.237 OA
ATOM     89  O   UNL A   1      51.843  28.557  22.690  1.00  0.00    -0.744 OA
ENDBRANCH  83  86
ENDBRANCH  55  79
BRANCH  67  90
ATOM     90  C   UNL A   1      46.704  32.534  28.732  1.00  0.00     0.023 A 
ATOM     91  C   UNL A   1      47.306  32.811  29.975  1.00  0.00     0.012 A 
ATOM     92  C   UNL A   1      46.728  33.511  27.717  1.00  0.00     0.148 A 
ATOM     93  C   UNL A   1      47.900  34.049  30.214  1.00  0.00     0.002 A 
ATOM     94  C   UNL A   1      47.367  34.724  27.945  1.00  0.00     0.091 A 
ATOM     95  F   UNL A   1      46.136  33.231  26.547  1.00  0.00    -0.205 F 
ATOM     96  C   UNL A   1      47.943  34.999  29.196  1.00  0.00     0.022 A 
BRANCH  94  97
ATOM     97  S   UNL A   1      47.559  35.971  26.667  1.00  0.00     0.127 S 
ATOM     98  O   UNL A   1      48.228  37.046  27.398  1.00  0.00    -0.237 OA
ATOM     99  O   UNL A   1      48.401  35.283  25.689  1.00  0.00    -0.237 OA
ATOM    100  O   UNL A   1      46.214  36.283  26.201  1.00  0.00    -0.744 OA
ENDBRANCH  94  97
ENDBRANCH  67  90
ENDBRANCH  41  42
ENDBRANCH  33  36
ENDBRANCH  31  32
ENDBRANCH  30  31
ENDBRANCH  29  30
ENDBRANCH   1  29
TORSDOF 22
ENDMDL
MODEL 2
REMARK VINA RESULT:     -10.2      4.185     11.067
REMARK SMILES CCOc1cc(OCC)cc(-c2ccc([C@@H](C)C(=O)NCCCCCCNC(=O)c3ccc(-c4c5nc(c(-c6cccc(S(=O)(=O)[O-])c6F)c6ccc([nH]6)c(-c6cccc(S(=O)(=O)[O-])c6F)c6nc(c(-c7cccc(S(=O)(=O)[O-])c7F)c7ccc4[nH]7)C=C6)C=C5)cc3)cc2F)c1
REMARK SMILES IDX 23 1 22 2 21 3 20 4 18 5 19 6 16 8 17 9 15 10 12 11 13 12
REMARK SMILES IDX 94 13 14 14 93 15 95 16 11 17 4 18 5 19 96 20 6 21 10 22
REMARK SMILES IDX 3 23 2 24 1 25 7 26 8 27 9 28 24 29 25 30 26 31 27 32 28 33
REMARK SMILES IDX 29 35 30 36 31 37 92 38 32 39 91 40 33 41 34 42 35 43 85 44
REMARK SMILES IDX 36 45 90 46 84 47 86 48 37 49 89 50 83 51 82 52 38 54 70 55
REMARK SMILES IDX 50 56 69 57 51 58 54 59 68 60 87 61 52 62 53 63 67 65 88 66
REMARK SMILES IDX 55 67 39 68 40 69 48 70 41 71 43 72 49 73 42 74 44 75 45 76
REMARK SMILES IDX 46 77 47 78 71 79 72 80 80 81 73 82 75 83 81 84 74 85 76 86
REMARK SMILES IDX 77 87 78 88 79 89 56 90 57 91 65 92 58 93 60 94 66 95 59 96
REMARK SMILES IDX 61 97 62 98 63 99 64 100
REMARK H PARENT 20 7 27 34 86 53 54 64
REMARK Flexibility Score: inf
ROOT
ATOM      1  C   UNL A   1      43.267  22.875  24.705  1.00  0.00     0.002 C 
ENDROOT
BRANCH   1   2
ATOM      2  C   UNL A   1      43.003  24.318  25.141  1.00  0.00     0.021 C 
BRANCH   2   3
ATOM      3  C   UNL A   1      44.275  25.097  25.490  1.00  0.00     0.116 C 
BRANCH   3   4
ATOM      4  N   UNL A   1      45.369  24.208  25.822  1.00  0.00    -0.356 N 
ATOM      5  C   UNL A   1      46.419  24.338  26.678  1.00  0.00     0.227 C 
ATOM      6  O   UNL A   1      47.250  23.421  26.668  1.00  0.00    -0.274 OA
ATOM      7  H   UNL A   1      45.350  23.351  25.339  1.00  0.00     0.163 HD
BRANCH   5   8
ATOM      8  C   UNL A   1      46.611  25.530  27.629  1.00  0.00     0.105 C 
ATOM      9  C   UNL A   1      48.010  26.143  27.603  1.00  0.00     0.023 C 
BRANCH   8  10
ATOM     10  C   UNL A   1      46.032  25.295  29.013  1.00  0.00    -0.033 A 
ATOM     11  C   UNL A   1      45.020  24.697  31.612  1.00  0.00     0.018 A 
ATOM     12  C   UNL A   1      46.040  25.641  31.415  1.00  0.00     0.012 A 
ATOM     13  C   UNL A   1      44.505  24.077  30.469  1.00  0.00     0.131 A 
ATOM     14  C   UNL A   1      46.497  25.971  30.142  1.00  0.00     0.005 A 
ATOM     15  C   UNL A   1      45.012  24.349  29.195  1.00  0.00     0.044 A 
ATOM     16  F   UNL A   1      43.497  23.195  30.562  1.00  0.00    -0.206 F 
BRANCH  11  17
ATOM     17  C   UNL A   1      44.555  24.409  32.981  1.00  0.00    -0.008 A 
ATOM     18  C   UNL A   1      43.098  24.840  34.881  1.00  0.00     0.123 A 
ATOM     19  C   UNL A   1      43.577  23.695  35.524  1.00  0.00     0.092 A 
ATOM     20  C   UNL A   1      43.598  25.199  33.629  1.00  0.00     0.055 A 
ATOM     21  C   UNL A   1      44.556  22.907  34.917  1.00  0.00     0.123 A 
ATOM     22  C   UNL A   1      45.042  23.283  33.667  1.00  0.00     0.055 A 
BRANCH  18  23
ATOM     23  O   UNL A   1      42.242  25.661  35.563  1.00  0.00    -0.494 OA
BRANCH  23  24
ATOM     24  C   UNL A   1      42.801  26.928  35.936  1.00  0.00     0.226 C 
ATOM     25  C   UNL A   1      41.749  28.009  36.146  1.00  0.00     0.049 C 
ENDBRANCH  23  24
ENDBRANCH  18  23
BRANCH  21  26
ATOM     26  O   UNL A   1      44.954  21.791  35.602  1.00  0.00    -0.494 OA
BRANCH  26  27
ATOM     27  C   UNL A   1      45.732  20.808  34.902  1.00  0.00     0.226 C 
ATOM     28  C   UNL A   1      45.335  19.386  35.276  1.00  0.00     0.049 C 
ENDBRANCH  26  27
ENDBRANCH  21  26
ENDBRANCH  11  17
ENDBRANCH   8  10
ENDBRANCH   5   8
ENDBRANCH   3   4
ENDBRANCH   2   3
ENDBRANCH   1   2
BRANCH   1  29
ATOM     29  C   UNL A   1      42.751  21.804  25.675  1.00  0.00     0.002 C 
BRANCH  29  30
ATOM     30  C   UNL A   1      42.808  22.187  27.158  1.00  0.00     0.021 C 
BRANCH  30  31
ATOM     31  C   UNL A   1      41.488  22.011  27.904  1.00  0.00     0.116 C 
BRANCH  31  32
ATOM     32  N   UNL A   1      40.360  21.940  26.985  1.00  0.00    -0.352 N 
ATOM     33  C   UNL A   1      39.421  22.895  26.686  1.00  0.00     0.251 C 
ATOM     34  H   UNL A   1      40.256  21.083  26.511  1.00  0.00     0.163 HD
ATOM     35  O   UNL A   1      38.393  22.587  26.094  1.00  0.00    -0.269 OA
BRANCH  33  36
ATOM     36  C   UNL A   1      39.658  24.298  27.085  1.00  0.00     0.039 A 
ATOM     37  C   UNL A   1      39.446  24.675  28.415  1.00  0.00     0.014 A 
ATOM     38  C   UNL A   1      40.090  25.236  26.144  1.00  0.00     0.014 A 
ATOM     39  C   UNL A   1      39.734  25.982  28.813  1.00  0.00     0.010 A 
ATOM     40  C   UNL A   1      40.444  26.516  26.559  1.00  0.00     0.010 A 
ATOM     41  C   UNL A   1      40.271  26.902  27.897  1.00  0.00    -0.014 A 
BRANCH  41  42
ATOM     42  C   UNL A   1      40.686  28.264  28.317  1.00  0.00     0.031 A 
ATOM     43  C   UNL A   1      42.145  28.631  28.365  1.00  0.00     0.074 A 
ATOM     44  C   UNL A   1      39.755  29.137  28.751  1.00  0.00     0.049 A 
ATOM     45  N   UNL A   1      42.704  29.731  28.795  1.00  0.00    -0.248 NA
ATOM     46  C   UNL A   1      43.102  27.617  27.890  1.00  0.00     0.031 C 
ATOM     47  C   UNL A   1      38.314  28.875  28.814  1.00  0.00     0.029 A 
ATOM     48  N   UNL A   1      39.881  30.408  29.252  1.00  0.00    -0.354 N 
ATOM     49  C   UNL A   1      44.074  29.535  28.672  1.00  0.00     0.074 A 
ATOM     50  C   UNL A   1      44.264  28.196  28.160  1.00  0.00     0.031 C 
ATOM     51  C   UNL A   1      37.693  29.950  29.323  1.00  0.00     0.029 A 
ATOM     52  C   UNL A   1      38.688  30.961  29.662  1.00  0.00     0.049 A 
ATOM     53  H   UNL A   1      40.742  30.880  29.314  1.00  0.00     0.167 HD
ATOM     54  C   UNL A   1      45.082  30.400  28.935  1.00  0.00     0.034 A 
ATOM     55  C   UNL A   1      38.429  32.139  30.262  1.00  0.00     0.034 A 
ATOM     56  C   UNL A   1      44.885  31.742  29.416  1.00  0.00     0.049 A 
ATOM     57  C   UNL A   1      39.569  33.080  30.548  1.00  0.00     0.074 A 
ATOM     58  C   UNL A   1      45.836  32.721  29.641  1.00  0.00     0.029 A 
ATOM     59  N   UNL A   1      43.658  32.288  29.759  1.00  0.00    -0.354 N 
ATOM     60  N   UNL A   1      40.845  32.933  30.285  1.00  0.00    -0.248 NA
ATOM     61  C   UNL A   1      39.232  34.359  31.187  1.00  0.00     0.031 C 
ATOM     62  C   UNL A   1      45.187  33.850  30.151  1.00  0.00     0.029 A 
ATOM     63  C   UNL A   1      43.829  33.585  30.211  1.00  0.00     0.049 A 
ATOM     64  H   UNL A   1      42.794  31.823  29.690  1.00  0.00     0.167 HD
ATOM     65  C   UNL A   1      41.457  34.113  30.693  1.00  0.00     0.074 A 
ATOM     66  C   UNL A   1      40.407  34.972  31.201  1.00  0.00     0.031 C 
ATOM     67  C   UNL A   1      42.769  34.449  30.665  1.00  0.00     0.034 A 
BRANCH  54  68
ATOM     68  C   UNL A   1      46.491  29.943  28.663  1.00  0.00     0.023 A 
ATOM     69  C   UNL A   1      47.008  30.022  27.353  1.00  0.00     0.012 A 
ATOM     70  C   UNL A   1      47.325  29.501  29.709  1.00  0.00     0.148 A 
ATOM     71  C   UNL A   1      48.320  29.638  27.082  1.00  0.00     0.002 A 
ATOM     72  C   UNL A   1      48.647  29.165  29.439  1.00  0.00     0.091 A 
ATOM     73  F   UNL A   1      46.811  29.416  30.944  1.00  0.00    -0.205 F 
ATOM     74  C   UNL A   1      49.142  29.221  28.125  1.00  0.00     0.022 A 
BRANCH  72  75
ATOM     75  S   UNL A   1      49.811  28.693  30.722  1.00  0.00     0.127 S 
ATOM     76  O   UNL A   1      51.036  28.492  29.948  1.00  0.00    -0.237 OA
ATOM     77  O   UNL A   1      49.819  29.878  31.579  1.00  0.00    -0.237 OA
ATOM     78  O   UNL A   1      49.263  27.495  31.343  1.00  0.00    -0.744 OA
ENDBRANCH  72  75
ENDBRANCH  54  68
BRANCH  55  79
ATOM     79  C   UNL A   1      37.027  32.518  30.600  1.00  0.00     0.023 A 
ATOM     80  C   UNL A   1      36.537  32.275  31.897  1.00  0.00     0.012 A 
ATOM     81  C   UNL A   1      36.182  33.123  29.649  1.00  0.00     0.148 A 
ATOM     82  C   UNL A   1      35.220  32.591  32.232  1.00  0.00     0.002 A 
ATOM     83  C   UNL A   1      34.889  33.489  30.005  1.00  0.00     0.091 A 
ATOM     84  F   UNL A   1      36.663  33.336  28.416  1.00  0.00    -0.205 F 
ATOM     85  C   UNL A   1      34.399  33.206  31.290  1.00  0.00     0.022 A 
BRANCH  83  86
ATOM     86  S   UNL A   1      33.808  34.401  28.898  1.00  0.00     0.127 S 
ATOM     87  O   UNL A   1      33.460  33.381  27.912  1.00  0.00    -0.237 OA
ATOM     88  O   UNL A   1      32.718  34.791  29.794  1.00  0.00    -0.237 OA
ATOM     89  O   UNL A   1      34.603  35.516  28.401  1.00  0.00    -0.744 OA
ENDBRANCH  83  86
ENDBRANCH  55  79
BRANCH  67  90
ATOM     90  C   UNL A   1      43.155  35.818  31.163  1.00  0.00     0.023 A 
ATOM     91  C   UNL A   1      43.309  36.044  32.544  1.00  0.00     0.012 A 
ATOM     92  C   UNL A   1      43.455  36.852  30.254  1.00  0.00     0.148 A 
ATOM     93  C   UNL A   1      43.728  37.286  33.016  1.00  0.00     0.002 A 
ATOM     94  C   UNL A   1      43.922  38.071  30.728  1.00  0.00     0.091 A 
ATOM     95  F   UNL A   1      43.287  36.618  28.944  1.00  0.00    -0.205 F 
ATOM     96  C   UNL A   1      44.047  38.294  32.109  1.00  0.00     0.022 A 
BRANCH  94  97
ATOM     97  S   UNL A   1      44.449  39.396  29.636  1.00  0.00     0.127 S 
ATOM     98  O   UNL A   1      45.477  38.731  28.837  1.00  0.00    -0.237 OA
ATOM     99  O   UNL A   1      43.218  39.705  28.911  1.00  0.00    -0.237 OA
ATOM    100  O   UNL A   1      44.932  40.465  30.501  1.00  0.00    -0.744 OA
ENDBRANCH  94  97
ENDBRANCH  67  90
ENDBRANCH  41  42
ENDBRANCH  33  36
ENDBRANCH  31  32
ENDBRANCH  30  31
ENDBRANCH  29  30
ENDBRANCH   1  29
TORSDOF 22
ENDMDL
MODEL 3
REMARK VINA RESULT:     -10.1      2.093      7.832
REMARK SMILES CCOc1cc(OCC)cc(-c2ccc([C@@H](C)C(=O)NCCCCCCNC(=O)c3ccc(-c4c5nc(c(-c6cccc(S(=O)(=O)[O-])c6F)c6ccc([nH]6)c(-c6cccc(S(=O)(=O)[O-])c6F)c6nc(c(-c7cccc(S(=O)(=O)[O-])c7F)c7ccc4[nH]7)C=C6)C=C5)cc3)cc2F)c1
REMARK SMILES IDX 23 1 22 2 21 3 20 4 18 5 19 6 16 8 17 9 15 10 12 11 13 12
REMARK SMILES IDX 94 13 14 14 93 15 95 16 11 17 4 18 5 19 96 20 6 21 10 22
REMARK SMILES IDX 3 23 2 24 1 25 7 26 8 27 9 28 24 29 25 30 26 31 27 32 28 33
REMARK SMILES IDX 29 35 30 36 31 37 92 38 32 39 91 40 33 41 34 42 35 43 85 44
REMARK SMILES IDX 36 45 90 46 84 47 86 48 37 49 89 50 83 51 82 52 38 54 70 55
REMARK SMILES IDX 50 56 69 57 51 58 54 59 68 60 87 61 52 62 53 63 67 65 88 66
REMARK SMILES IDX 55 67 39 68 40 69 48 70 41 71 43 72 49 73 42 74 44 75 45 76
REMARK SMILES IDX 46 77 47 78 71 79 72 80 80 81 73 82 75 83 81 84 74 85 76 86
REMARK SMILES IDX 77 87 78 88 79 89 56 90 57 91 65 92 58 93 60 94 66 95 59 96
REMARK SMILES IDX 61 97 62 98 63 99 64 100
REMARK H PARENT 20 7 27 34 86 53 54 64
REMARK Flexibility Score: inf
ROOT
ATOM      1  C   UNL A   1      34.045  21.616  24.615  1.00  0.00     0.002 C 
ENDROOT
BRANCH   1   2
ATOM      2  C   UNL A   1      32.898  22.625  24.726  1.00  0.00     0.021 C 
BRANCH   2   3
ATOM      3  C   UNL A   1      31.970  22.634  23.508  1.00  0.00     0.116 C 
BRANCH   3   4
ATOM      4  N   UNL A   1      32.164  23.819  22.699  1.00  0.00    -0.356 N 
ATOM      5  C   UNL A   1      31.767  25.110  22.866  1.00  0.00     0.227 C 
ATOM      6  O   UNL A   1      32.016  25.884  21.933  1.00  0.00    -0.274 OA
ATOM      7  H   UNL A   1      32.678  23.662  21.875  1.00  0.00     0.163 HD
BRANCH   5   8
ATOM      8  C   UNL A   1      31.052  25.635  24.121  1.00  0.00     0.105 C 
ATOM      9  C   UNL A   1      29.570  25.946  23.923  1.00  0.00     0.023 C 
BRANCH   8  10
ATOM     10  C   UNL A   1      31.843  26.696  24.865  1.00  0.00    -0.033 A 
ATOM     11  C   UNL A   1      33.222  28.668  26.397  1.00  0.00     0.018 A 
ATOM     12  C   UNL A   1      33.788  27.412  26.128  1.00  0.00     0.012 A 
ATOM     13  C   UNL A   1      31.956  28.917  25.859  1.00  0.00     0.131 A 
ATOM     14  C   UNL A   1      33.137  26.470  25.336  1.00  0.00     0.005 A 
ATOM     15  C   UNL A   1      31.266  27.947  25.127  1.00  0.00     0.044 A 
ATOM     16  F   UNL A   1      31.360  30.108  26.030  1.00  0.00    -0.206 F 
BRANCH  11  17
ATOM     17  C   UNL A   1      33.971  29.638  27.218  1.00  0.00    -0.008 A 
ATOM     18  C   UNL A   1      35.858  30.242  28.627  1.00  0.00     0.123 A 
ATOM     19  C   UNL A   1      35.456  31.580  28.615  1.00  0.00     0.092 A 
ATOM     20  C   UNL A   1      35.109  29.281  27.948  1.00  0.00     0.055 A 
ATOM     21  C   UNL A   1      34.304  31.960  27.924  1.00  0.00     0.123 A 
ATOM     22  C   UNL A   1      33.572  30.986  27.251  1.00  0.00     0.055 A 
BRANCH  18  23
ATOM     23  O   UNL A   1      36.910  29.885  29.427  1.00  0.00    -0.494 OA
BRANCH  23  24
ATOM     24  C   UNL A   1      36.569  29.671  30.803  1.00  0.00     0.226 C 
ATOM     25  C   UNL A   1      37.494  28.686  31.505  1.00  0.00     0.049 C 
ENDBRANCH  23  24
ENDBRANCH  18  23
BRANCH  21  26
ATOM     26  O   UNL A   1      33.992  33.293  27.941  1.00  0.00    -0.494 OA
BRANCH  26  27
ATOM     27  C   UNL A   1      34.779  34.162  28.769  1.00  0.00     0.226 C 
ATOM     28  C   UNL A   1      34.219  34.274  30.180  1.00  0.00     0.049 C 
ENDBRANCH  26  27
ENDBRANCH  21  26
ENDBRANCH  11  17
ENDBRANCH   8  10
ENDBRANCH   5   8
ENDBRANCH   3   4
ENDBRANCH   2   3
ENDBRANCH   1   2
BRANCH   1  29
ATOM     29  C   UNL A   1      35.443  22.241  24.506  1.00  0.00     0.002 C 
BRANCH  29  30
ATOM     30  C   UNL A   1      35.565  23.664  25.061  1.00  0.00     0.021 C 
BRANCH  30  31
ATOM     31  C   UNL A   1      36.796  23.895  25.934  1.00  0.00     0.116 C 
BRANCH  31  32
ATOM     32  N   UNL A   1      37.496  22.648  26.213  1.00  0.00    -0.352 N 
ATOM     33  C   UNL A   1      38.838  22.425  26.392  1.00  0.00     0.251 C 
ATOM     34  H   UNL A   1      36.923  21.850  26.282  1.00  0.00     0.163 HD
ATOM     35  O   UNL A   1      39.285  21.285  26.357  1.00  0.00    -0.269 OA
BRANCH  33  36
ATOM     36  C   UNL A   1      39.740  23.573  26.625  1.00  0.00     0.039 A 
ATOM     37  C   UNL A   1      39.783  24.609  25.688  1.00  0.00     0.014 A 
ATOM     38  C   UNL A   1      40.542  23.619  27.768  1.00  0.00     0.014 A 
ATOM     39  C   UNL A   1      40.581  25.728  25.936  1.00  0.00     0.010 A 
ATOM     40  C   UNL A   1      41.280  24.765  28.046  1.00  0.00     0.010 A 
ATOM     41  C   UNL A   1      41.307  25.832  27.134  1.00  0.00    -0.014 A 
BRANCH  41  42
ATOM     42  C   UNL A   1      42.079  27.054  27.472  1.00  0.00     0.031 A 
ATOM     43  C   UNL A   1      43.537  27.151  27.117  1.00  0.00     0.074 A 
ATOM     44  C   UNL A   1      41.489  28.033  28.187  1.00  0.00     0.049 A 
ATOM     45  N   UNL A   1      44.396  28.090  27.414  1.00  0.00    -0.248 NA
ATOM     46  C   UNL A   1      44.112  26.032  26.351  1.00  0.00     0.031 C 
ATOM     47  C   UNL A   1      40.098  28.026  28.646  1.00  0.00     0.029 A 
ATOM     48  N   UNL A   1      41.993  29.211  28.681  1.00  0.00    -0.354 N 
ATOM     49  C   UNL A   1      45.616  27.667  26.899  1.00  0.00     0.074 A 
ATOM     50  C   UNL A   1      45.394  26.369  26.302  1.00  0.00     0.031 C 
ATOM     51  C   UNL A   1      39.861  29.142  29.352  1.00  0.00     0.029 A 
ATOM     52  C   UNL A   1      41.089  29.925  29.434  1.00  0.00     0.049 A 
ATOM     53  H   UNL A   1      42.914  29.515  28.513  1.00  0.00     0.167 HD
ATOM     54  C   UNL A   1      46.806  28.312  26.899  1.00  0.00     0.034 A 
ATOM     55  C   UNL A   1      41.238  31.069  30.129  1.00  0.00     0.034 A 
ATOM     56  C   UNL A   1      47.014  29.617  27.468  1.00  0.00     0.049 A 
ATOM     57  C   UNL A   1      42.574  31.763  30.116  1.00  0.00     0.074 A 
ATOM     58  C   UNL A   1      48.163  30.387  27.452  1.00  0.00     0.029 A 
ATOM     59  N   UNL A   1      46.058  30.338  28.166  1.00  0.00    -0.354 N 
ATOM     60  N   UNL A   1      43.677  31.418  29.496  1.00  0.00    -0.248 NA
ATOM     61  C   UNL A   1      42.680  33.018  30.874  1.00  0.00     0.031 C 
ATOM     62  C   UNL A   1      47.911  31.561  28.169  1.00  0.00     0.029 A 
ATOM     63  C   UNL A   1      46.596  31.536  28.602  1.00  0.00     0.049 A 
ATOM     64  H   UNL A   1      45.134  30.041  28.328  1.00  0.00     0.167 HD
ATOM     65  C   UNL A   1      44.595  32.428  29.759  1.00  0.00     0.074 A 
ATOM     66  C   UNL A   1      43.912  33.409  30.577  1.00  0.00     0.031 C 
ATOM     67  C   UNL A   1      45.890  32.528  29.373  1.00  0.00     0.034 A 
BRANCH  54  68
ATOM     68  C   UNL A   1      47.971  27.640  26.220  1.00  0.00     0.023 A 
ATOM     69  C   UNL A   1      48.215  27.884  24.852  1.00  0.00     0.012 A 
ATOM     70  C   UNL A   1      48.862  26.824  26.945  1.00  0.00     0.148 A 
ATOM     71  C   UNL A   1      49.306  27.303  24.209  1.00  0.00     0.002 A 
ATOM     72  C   UNL A   1      49.974  26.286  26.308  1.00  0.00     0.091 A 
ATOM     73  F   UNL A   1      48.604  26.589  28.239  1.00  0.00    -0.205 F 
ATOM     74  C   UNL A   1      50.191  26.514  24.939  1.00  0.00     0.022 A 
BRANCH  72  75
ATOM     75  S   UNL A   1      51.218  25.323  27.174  1.00  0.00     0.127 S 
ATOM     76  O   UNL A   1      51.989  24.770  26.062  1.00  0.00    -0.237 OA
ATOM     77  O   UNL A   1      51.916  26.350  27.948  1.00  0.00    -0.237 OA
ATOM     78  O   UNL A   1      50.489  24.348  27.973  1.00  0.00    -0.744 OA
ENDBRANCH  72  75
ENDBRANCH  54  68
BRANCH  55  79
ATOM     79  C   UNL A   1      40.083  31.657  30.866  1.00  0.00     0.023 A 
ATOM     80  C   UNL A   1      39.165  32.473  30.177  1.00  0.00     0.012 A 
ATOM     81  C   UNL A   1      39.883  31.406  32.237  1.00  0.00     0.148 A 
ATOM     82  C   UNL A   1      38.092  33.062  30.847  1.00  0.00     0.002 A 
ATOM     83  C   UNL A   1      38.779  31.948  32.887  1.00  0.00     0.091 A 
ATOM     84  F   UNL A   1      40.773  30.636  32.879  1.00  0.00    -0.205 F 
ATOM     85  C   UNL A   1      37.894  32.792  32.199  1.00  0.00     0.022 A 
BRANCH  83  86
ATOM     86  S   UNL A   1      38.375  31.549  34.591  1.00  0.00     0.127 S 
ATOM     87  O   UNL A   1      37.081  32.207  34.754  1.00  0.00    -0.237 OA
ATOM     88  O   UNL A   1      38.324  30.087  34.554  1.00  0.00    -0.237 OA
ATOM     89  O   UNL A   1      39.465  32.090  35.392  1.00  0.00    -0.744 OA
ENDBRANCH  83  86
ENDBRANCH  55  79
BRANCH  67  90
ATOM     90  C   UNL A   1      46.656  33.755  29.793  1.00  0.00     0.023 A 
ATOM     91  C   UNL A   1      47.405  33.739  30.986  1.00  0.00     0.012 A 
ATOM     92  C   UNL A   1      46.707  34.889  28.958  1.00  0.00     0.148 A 
ATOM     93  C   UNL A   1      48.171  34.843  31.356  1.00  0.00     0.002 A 
ATOM     94  C   UNL A   1      47.513  35.965  29.308  1.00  0.00     0.091 A 
ATOM     95  F   UNL A   1      45.975  34.887  27.835  1.00  0.00    -0.205 F 
ATOM     96  C   UNL A   1      48.236  35.949  30.512  1.00  0.00     0.022 A 
BRANCH  94  97
ATOM     97  S   UNL A   1      47.738  37.392  28.240  1.00  0.00     0.127 S 
ATOM     98  O   UNL A   1      48.697  38.188  29.005  1.00  0.00    -0.237 OA
ATOM     99  O   UNL A   1      48.281  36.785  27.026  1.00  0.00    -0.237 OA
ATOM    100  O   UNL A   1      46.420  37.992  28.085  1.00  0.00    -0.744 OA
ENDBRANCH  94  97
ENDBRANCH  67  90
ENDBRANCH  41  42
ENDBRANCH  33  36
ENDBRANCH  31  32
ENDBRANCH  30  31
ENDBRANCH  29  30
ENDBRANCH   1  29
TORSDOF 22
ENDMDL
