MODEL 1
REMARK VINA RESULT:     -10.5      0.000      0.000
REMARK SMILES CNc1cc(-c2cncc(SCC(=O)NCCCCCCNC(=O)c3ccc(-c4c5nc(c(-c6cccc(S(=O)(=O)[O-])c6F)c6ccc([nH]6)c(-c6cccc(S(=O)(=O)[O-])c6F)c6nc(c(-c7cccc(S(=O)(=O)[O-])c7F)c7ccc4[nH]7)C=C6)C=C5)cc3)n2)c2cc[nH]c2n1
REMARK SMILES IDX 18 1 17 2 16 3 15 4 13 5 14 6 12 8 11 9 10 10 6 11 7 12
REMARK SMILES IDX 88 13 8 14 9 15 5 16 3 17 4 18 94 19 93 20 89 21 92 22 90 23
REMARK SMILES IDX 91 24 2 26 1 27 19 29 20 30 21 31 22 32 23 33 24 35 25 36
REMARK SMILES IDX 26 37 87 38 27 39 86 40 28 41 29 42 30 43 80 44 31 45 85 46
REMARK SMILES IDX 79 47 81 48 32 49 84 50 78 51 77 52 33 54 65 55 45 56 64 57
REMARK SMILES IDX 46 58 49 59 63 60 82 61 47 62 48 63 62 65 83 66 50 67 34 68
REMARK SMILES IDX 35 69 43 70 36 71 38 72 44 73 37 74 39 75 40 76 41 77 42 78
REMARK SMILES IDX 66 79 67 80 75 81 68 82 70 83 76 84 69 85 71 86 72 87 73 88
REMARK SMILES IDX 74 89 51 90 52 91 60 92 53 93 55 94 61 95 54 96 56 97 57 98
REMARK SMILES IDX 58 99 59 100
REMARK H PARENT 15 7 92 25 2 28 22 34 81 53 49 64
REMARK Flexibility Score: inf
ROOT
ATOM      1  C   UNL A   1      35.297  31.794  28.415  1.00  0.00     0.002 C 
ENDROOT
BRANCH   1   2
ATOM      2  C   UNL A   1      35.917  30.627  27.630  1.00  0.00     0.021 C 
BRANCH   2   3
ATOM      3  C   UNL A   1      35.082  29.346  27.657  1.00  0.00     0.116 C 
BRANCH   3   4
ATOM      4  N   UNL A   1      33.666  29.655  27.599  1.00  0.00    -0.355 N 
ATOM      5  C   UNL A   1      32.745  29.424  26.623  1.00  0.00     0.230 C 
ATOM      6  O   UNL A   1      31.583  29.765  26.868  1.00  0.00    -0.274 OA
ATOM      7  H   UNL A   1      33.312  30.107  28.399  1.00  0.00     0.163 HD
BRANCH   5   8
ATOM      8  C   UNL A   1      33.078  28.635  25.372  1.00  0.00     0.176 C 
BRANCH   8   9
ATOM      9  S   UNL A   1      31.669  27.972  24.439  1.00  0.00    -0.095 SA
BRANCH   9  10
ATOM     10  C   UNL A   1      32.394  26.657  23.494  1.00  0.00     0.116 A 
ATOM     11  C   UNL A   1      33.270  24.537  23.299  1.00  0.00     0.091 A 
ATOM     12  C   UNL A   1      33.529  24.780  21.950  1.00  0.00     0.140 A 
ATOM     13  N   UNL A   1      32.701  25.484  24.090  1.00  0.00    -0.238 NA
ATOM     14  N   UNL A   1      33.237  25.950  21.341  1.00  0.00    -0.260 NA
ATOM     15  C   UNL A   1      32.664  26.877  22.145  1.00  0.00     0.146 A 
BRANCH  11  16
ATOM     16  C   UNL A   1      33.636  23.274  23.925  1.00  0.00     0.016 A 
ATOM     17  C   UNL A   1      33.217  20.929  24.425  1.00  0.00     0.128 A 
ATOM     18  C   UNL A   1      32.863  22.108  23.772  1.00  0.00     0.058 A 
ATOM     19  N   UNL A   1      34.262  20.835  25.266  1.00  0.00    -0.213 NA
ATOM     20  C   UNL A   1      34.993  21.956  25.372  1.00  0.00     0.140 A 
ATOM     21  C   UNL A   1      34.768  23.179  24.754  1.00  0.00     0.028 A 
ATOM     22  N   UNL A   1      36.124  22.063  26.133  1.00  0.00    -0.346 N 
ATOM     23  C   UNL A   1      35.817  24.044  25.181  1.00  0.00     0.030 A 
ATOM     24  C   UNL A   1      36.639  23.327  26.026  1.00  0.00     0.085 A 
ATOM     25  H   UNL A   1      36.511  21.339  26.676  1.00  0.00     0.167 HD
BRANCH  17  26
ATOM     26  N   UNL A   1      32.524  19.751  24.255  1.00  0.00    -0.373 N 
ATOM     27  C   UNL A   1      33.160  18.460  24.291  1.00  0.00     0.141 C 
ATOM     28  H   UNL A   1      31.552  19.794  24.104  1.00  0.00     0.161 HD
ENDBRANCH  17  26
ENDBRANCH  11  16
ENDBRANCH   9  10
ENDBRANCH   8   9
ENDBRANCH   5   8
ENDBRANCH   3   4
ENDBRANCH   2   3
ENDBRANCH   1   2
BRANCH   1  29
ATOM     29  C   UNL A   1      35.814  33.185  28.031  1.00  0.00     0.002 C 
BRANCH  29  30
ATOM     30  C   UNL A   1      34.752  34.287  28.011  1.00  0.00     0.021 C 
BRANCH  30  31
ATOM     31  C   UNL A   1      33.429  33.905  28.666  1.00  0.00     0.116 C 
BRANCH  31  32
ATOM     32  N   UNL A   1      32.989  34.901  29.632  1.00  0.00    -0.352 N 
ATOM     33  C   UNL A   1      33.398  35.092  30.928  1.00  0.00     0.251 C 
ATOM     34  H   UNL A   1      32.301  35.528  29.309  1.00  0.00     0.163 HD
ATOM     35  O   UNL A   1      32.777  35.860  31.661  1.00  0.00    -0.269 OA
BRANCH  33  36
ATOM     36  C   UNL A   1      34.571  34.356  31.447  1.00  0.00     0.039 A 
ATOM     37  C   UNL A   1      34.384  33.094  32.014  1.00  0.00     0.014 A 
ATOM     38  C   UNL A   1      35.852  34.910  31.373  1.00  0.00     0.014 A 
ATOM     39  C   UNL A   1      35.490  32.361  32.451  1.00  0.00     0.010 A 
ATOM     40  C   UNL A   1      36.959  34.148  31.738  1.00  0.00     0.010 A 
ATOM     41  C   UNL A   1      36.791  32.867  32.285  1.00  0.00    -0.014 A 
BRANCH  41  42
ATOM     42  C   UNL A   1      37.984  32.069  32.669  1.00  0.00     0.031 A 
ATOM     43  C   UNL A   1      38.713  32.363  33.955  1.00  0.00     0.074 A 
ATOM     44  C   UNL A   1      38.455  31.126  31.827  1.00  0.00     0.049 A 
ATOM     45  N   UNL A   1      39.803  31.815  34.429  1.00  0.00    -0.248 NA
ATOM     46  C   UNL A   1      38.159  33.426  34.809  1.00  0.00     0.031 C 
ATOM     47  C   UNL A   1      37.878  30.790  30.524  1.00  0.00     0.029 A 
ATOM     48  N   UNL A   1      39.540  30.292  31.932  1.00  0.00    -0.354 N 
ATOM     49  C   UNL A   1      40.077  32.478  35.619  1.00  0.00     0.074 A 
ATOM     50  C   UNL A   1      39.064  33.499  35.775  1.00  0.00     0.031 C 
ATOM     51  C   UNL A   1      38.608  29.817  29.956  1.00  0.00     0.029 A 
ATOM     52  C   UNL A   1      39.725  29.483  30.833  1.00  0.00     0.049 A 
ATOM     53  H   UNL A   1      40.132  30.274  32.719  1.00  0.00     0.167 HD
ATOM     54  C   UNL A   1      41.059  32.238  36.520  1.00  0.00     0.034 A 
ATOM     55  C   UNL A   1      40.691  28.584  30.559  1.00  0.00     0.034 A 
ATOM     56  C   UNL A   1      42.048  31.203  36.377  1.00  0.00     0.049 A 
ATOM     57  C   UNL A   1      41.772  28.341  31.580  1.00  0.00     0.074 A 
ATOM     58  C   UNL A   1      43.050  30.845  37.260  1.00  0.00     0.029 A 
ATOM     59  N   UNL A   1      42.162  30.362  35.281  1.00  0.00    -0.354 N 
ATOM     60  N   UNL A   1      41.932  28.886  32.761  1.00  0.00    -0.248 NA
ATOM     61  C   UNL A   1      42.787  27.331  31.242  1.00  0.00     0.031 C 
ATOM     62  C   UNL A   1      43.787  29.805  36.687  1.00  0.00     0.029 A 
ATOM     63  C   UNL A   1      43.221  29.490  35.463  1.00  0.00     0.049 A 
ATOM     64  H   UNL A   1      41.576  30.383  34.490  1.00  0.00     0.167 HD
ATOM     65  C   UNL A   1      43.034  28.253  33.326  1.00  0.00     0.074 A 
ATOM     66  C   UNL A   1      43.489  27.270  32.365  1.00  0.00     0.031 C 
ATOM     67  C   UNL A   1      43.624  28.475  34.525  1.00  0.00     0.034 A 
BRANCH  54  68
ATOM     68  C   UNL A   1      41.082  33.074  37.774  1.00  0.00     0.023 A 
ATOM     69  C   UNL A   1      40.317  32.671  38.888  1.00  0.00     0.012 A 
ATOM     70  C   UNL A   1      41.911  34.208  37.879  1.00  0.00     0.148 A 
ATOM     71  C   UNL A   1      40.351  33.401  40.075  1.00  0.00     0.002 A 
ATOM     72  C   UNL A   1      41.975  34.903  39.081  1.00  0.00     0.091 A 
ATOM     73  F   UNL A   1      42.619  34.585  36.805  1.00  0.00    -0.205 F 
ATOM     74  C   UNL A   1      41.187  34.509  40.176  1.00  0.00     0.022 A 
BRANCH  72  75
ATOM     75  S   UNL A   1      43.079  36.296  39.343  1.00  0.00     0.127 S 
ATOM     76  O   UNL A   1      42.871  36.574  40.763  1.00  0.00    -0.237 OA
ATOM     77  O   UNL A   1      44.383  35.718  39.019  1.00  0.00    -0.237 OA
ATOM     78  O   UNL A   1      42.631  37.343  38.435  1.00  0.00    -0.744 OA
ENDBRANCH  72  75
ENDBRANCH  54  68
BRANCH  55  79
ATOM     79  C   UNL A   1      40.662  27.804  29.288  1.00  0.00     0.023 A 
ATOM     80  C   UNL A   1      39.726  26.761  29.138  1.00  0.00     0.012 A 
ATOM     81  C   UNL A   1      41.560  28.074  28.239  1.00  0.00     0.148 A 
ATOM     82  C   UNL A   1      39.720  25.970  27.989  1.00  0.00     0.002 A 
ATOM     83  C   UNL A   1      41.509  27.321  27.072  1.00  0.00     0.091 A 
ATOM     84  F   UNL A   1      42.450  29.064  28.402  1.00  0.00    -0.205 F 
ATOM     85  C   UNL A   1      40.605  26.254  26.953  1.00  0.00     0.022 A 
BRANCH  83  86
ATOM     86  S   UNL A   1      42.525  27.696  25.639  1.00  0.00     0.127 S 
ATOM     87  O   UNL A   1      43.852  27.815  26.236  1.00  0.00    -0.237 OA
ATOM     88  O   UNL A   1      42.326  26.509  24.807  1.00  0.00    -0.237 OA
ATOM     89  O   UNL A   1      41.970  28.921  25.076  1.00  0.00    -0.744 OA
ENDBRANCH  83  86
ENDBRANCH  55  79
BRANCH  67  90
ATOM     90  C   UNL A   1      44.793  27.601  34.901  1.00  0.00     0.023 A 
ATOM     91  C   UNL A   1      46.111  28.053  34.689  1.00  0.00     0.012 A 
ATOM     92  C   UNL A   1      44.583  26.357  35.529  1.00  0.00     0.148 A 
ATOM     93  C   UNL A   1      47.200  27.264  35.060  1.00  0.00     0.002 A 
ATOM     94  C   UNL A   1      45.671  25.601  35.946  1.00  0.00     0.091 A 
ATOM     95  F   UNL A   1      43.321  25.938  35.708  1.00  0.00    -0.205 F 
ATOM     96  C   UNL A   1      46.979  26.046  35.699  1.00  0.00     0.022 A 
BRANCH  94  97
ATOM     97  S   UNL A   1      45.487  24.069  36.864  1.00  0.00     0.127 S 
ATOM     98  O   UNL A   1      44.617  23.296  35.981  1.00  0.00    -0.237 OA
ATOM     99  O   UNL A   1      46.867  23.587  36.937  1.00  0.00    -0.237 OA
ATOM    100  O   UNL A   1      44.905  24.436  38.148  1.00  0.00    -0.744 OA
ENDBRANCH  94  97
ENDBRANCH  67  90
ENDBRANCH  41  42
ENDBRANCH  33  36
ENDBRANCH  31  32
ENDBRANCH  30  31
ENDBRANCH  29  30
ENDBRANCH   1  29
TORSDOF 20
ENDMDL
MODEL 2
REMARK VINA RESULT:     -10.2      1.654      2.350
REMARK SMILES CNc1cc(-c2cncc(SCC(=O)NCCCCCCNC(=O)c3ccc(-c4c5nc(c(-c6cccc(S(=O)(=O)[O-])c6F)c6ccc([nH]6)c(-c6cccc(S(=O)(=O)[O-])c6F)c6nc(c(-c7cccc(S(=O)(=O)[O-])c7F)c7ccc4[nH]7)C=C6)C=C5)cc3)n2)c2cc[nH]c2n1
REMARK SMILES IDX 18 1 17 2 16 3 15 4 13 5 14 6 12 8 11 9 10 10 6 11 7 12
REMARK SMILES IDX 88 13 8 14 9 15 5 16 3 17 4 18 94 19 93 20 89 21 92 22 90 23
REMARK SMILES IDX 91 24 2 26 1 27 19 29 20 30 21 31 22 32 23 33 24 35 25 36
REMARK SMILES IDX 26 37 87 38 27 39 86 40 28 41 29 42 30 43 80 44 31 45 85 46
REMARK SMILES IDX 79 47 81 48 32 49 84 50 78 51 77 52 33 54 65 55 45 56 64 57
REMARK SMILES IDX 46 58 49 59 63 60 82 61 47 62 48 63 62 65 83 66 50 67 34 68
REMARK SMILES IDX 35 69 43 70 36 71 38 72 44 73 37 74 39 75 40 76 41 77 42 78
REMARK SMILES IDX 66 79 67 80 75 81 68 82 70 83 76 84 69 85 71 86 72 87 73 88
REMARK SMILES IDX 74 89 51 90 52 91 60 92 53 93 55 94 61 95 54 96 56 97 57 98
REMARK SMILES IDX 58 99 59 100
REMARK H PARENT 15 7 92 25 2 28 22 34 81 53 49 64
REMARK Flexibility Score: inf
ROOT
ATOM      1  C   UNL A   1      35.185  34.020  28.840  1.00  0.00     0.002 C 
ENDROOT
BRANCH   1   2
ATOM      2  C   UNL A   1      35.204  32.726  28.010  1.00  0.00     0.021 C 
BRANCH   2   3
ATOM      3  C   UNL A   1      33.861  31.994  27.970  1.00  0.00     0.116 C 
BRANCH   3   4
ATOM      4  N   UNL A   1      34.060  30.557  27.956  1.00  0.00    -0.355 N 
ATOM      5  C   UNL A   1      33.627  29.607  27.082  1.00  0.00     0.230 C 
ATOM      6  O   UNL A   1      33.990  28.447  27.302  1.00  0.00    -0.274 OA
ATOM      7  H   UNL A   1      34.598  30.211  28.705  1.00  0.00     0.163 HD
BRANCH   5   8
ATOM      8  C   UNL A   1      32.888  29.965  25.807  1.00  0.00     0.176 C 
BRANCH   8   9
ATOM      9  S   UNL A   1      31.559  28.835  25.303  1.00  0.00    -0.095 SA
BRANCH   9  10
ATOM     10  C   UNL A   1      32.395  27.669  24.258  1.00  0.00     0.116 A 
ATOM     11  C   UNL A   1      33.528  25.696  23.913  1.00  0.00     0.091 A 
ATOM     12  C   UNL A   1      33.676  26.029  22.566  1.00  0.00     0.140 A 
ATOM     13  N   UNL A   1      32.886  26.524  24.779  1.00  0.00    -0.238 NA
ATOM     14  N   UNL A   1      33.200  27.175  22.032  1.00  0.00    -0.260 NA
ATOM     15  C   UNL A   1      32.557  27.981  22.910  1.00  0.00     0.146 A 
BRANCH  11  16
ATOM     16  C   UNL A   1      34.090  24.467  24.456  1.00  0.00     0.016 A 
ATOM     17  C   UNL A   1      35.773  23.263  25.736  1.00  0.00     0.128 A 
ATOM     18  C   UNL A   1      35.236  24.461  25.273  1.00  0.00     0.058 A 
ATOM     19  N   UNL A   1      35.283  22.055  25.404  1.00  0.00    -0.213 NA
ATOM     20  C   UNL A   1      34.177  22.095  24.644  1.00  0.00     0.140 A 
ATOM     21  C   UNL A   1      33.527  23.216  24.147  1.00  0.00     0.028 A 
ATOM     22  N   UNL A   1      33.490  20.985  24.236  1.00  0.00    -0.346 N 
ATOM     23  C   UNL A   1      32.408  22.736  23.406  1.00  0.00     0.030 A 
ATOM     24  C   UNL A   1      32.409  21.358  23.482  1.00  0.00     0.085 A 
ATOM     25  H   UNL A   1      33.735  20.057  24.451  1.00  0.00     0.167 HD
BRANCH  17  26
ATOM     26  N   UNL A   1      36.857  23.215  26.586  1.00  0.00    -0.373 N 
ATOM     27  C   UNL A   1      38.207  23.449  26.142  1.00  0.00     0.141 C 
ATOM     28  H   UNL A   1      36.701  23.014  27.537  1.00  0.00     0.161 HD
ENDBRANCH  17  26
ENDBRANCH  11  16
ENDBRANCH   9  10
ENDBRANCH   8   9
ENDBRANCH   5   8
ENDBRANCH   3   4
ENDBRANCH   2   3
ENDBRANCH   1   2
BRANCH   1  29
ATOM     29  C   UNL A   1      34.660  35.258  28.105  1.00  0.00     0.002 C 
BRANCH  29  30
ATOM     30  C   UNL A   1      33.630  36.082  28.881  1.00  0.00     0.021 C 
BRANCH  30  31
ATOM     31  C   UNL A   1      32.779  35.277  29.858  1.00  0.00     0.116 C 
BRANCH  31  32
ATOM     32  N   UNL A   1      32.463  36.034  31.060  1.00  0.00    -0.352 N 
ATOM     33  C   UNL A   1      32.991  35.917  32.322  1.00  0.00     0.251 C 
ATOM     34  H   UNL A   1      31.773  36.728  30.954  1.00  0.00     0.163 HD
ATOM     35  O   UNL A   1      32.467  36.508  33.265  1.00  0.00    -0.269 OA
BRANCH  33  36
ATOM     36  C   UNL A   1      34.178  35.065  32.549  1.00  0.00     0.039 A 
ATOM     37  C   UNL A   1      35.439  35.546  32.192  1.00  0.00     0.014 A 
ATOM     38  C   UNL A   1      34.046  33.793  33.114  1.00  0.00     0.014 A 
ATOM     39  C   UNL A   1      36.574  34.778  32.459  1.00  0.00     0.010 A 
ATOM     40  C   UNL A   1      35.184  33.063  33.449  1.00  0.00     0.010 A 
ATOM     41  C   UNL A   1      36.460  33.544  33.121  1.00  0.00    -0.014 A 
BRANCH  41  42
ATOM     42  C   UNL A   1      37.662  32.749  33.486  1.00  0.00     0.031 A 
ATOM     43  C   UNL A   1      38.471  33.113  34.704  1.00  0.00     0.074 A 
ATOM     44  C   UNL A   1      38.067  31.745  32.682  1.00  0.00     0.049 A 
ATOM     45  N   UNL A   1      39.578  32.576  35.148  1.00  0.00    -0.248 NA
ATOM     46  C   UNL A   1      37.985  34.240  35.518  1.00  0.00     0.031 C 
ATOM     47  C   UNL A   1      37.408  31.336  31.439  1.00  0.00     0.029 A 
ATOM     48  N   UNL A   1      39.144  30.899  32.777  1.00  0.00    -0.354 N 
ATOM     49  C   UNL A   1      39.933  33.309  36.274  1.00  0.00     0.074 A 
ATOM     50  C   UNL A   1      38.948  34.358  36.421  1.00  0.00     0.031 C 
ATOM     51  C   UNL A   1      38.087  30.314  30.896  1.00  0.00     0.029 A 
ATOM     52  C   UNL A   1      39.250  30.017  31.726  1.00  0.00     0.049 A 
ATOM     53  H   UNL A   1      39.781  30.920  33.528  1.00  0.00     0.167 HD
ATOM     54  C   UNL A   1      40.964  33.110  37.129  1.00  0.00     0.034 A 
ATOM     55  C   UNL A   1      40.184  29.084  31.456  1.00  0.00     0.034 A 
ATOM     56  C   UNL A   1      41.926  32.049  36.998  1.00  0.00     0.049 A 
ATOM     57  C   UNL A   1      41.320  28.887  32.424  1.00  0.00     0.074 A 
ATOM     58  C   UNL A   1      42.975  31.730  37.842  1.00  0.00     0.029 A 
ATOM     59  N   UNL A   1      41.962  31.137  35.955  1.00  0.00    -0.354 N 
ATOM     60  N   UNL A   1      41.559  29.504  33.555  1.00  0.00    -0.248 NA
ATOM     61  C   UNL A   1      42.297  27.838  32.095  1.00  0.00     0.031 C 
ATOM     62  C   UNL A   1      43.660  30.640  37.296  1.00  0.00     0.029 A 
ATOM     63  C   UNL A   1      43.017  30.257  36.131  1.00  0.00     0.049 A 
ATOM     64  H   UNL A   1      41.330  31.117  35.200  1.00  0.00     0.167 HD
ATOM     65  C   UNL A   1      42.682  28.888  34.095  1.00  0.00     0.074 A 
ATOM     66  C   UNL A   1      43.065  27.836  33.176  1.00  0.00     0.031 C 
ATOM     67  C   UNL A   1      43.347  29.176  35.240  1.00  0.00     0.034 A 
BRANCH  54  68
ATOM     68  C   UNL A   1      41.075  34.025  38.322  1.00  0.00     0.023 A 
ATOM     69  C   UNL A   1      41.927  35.147  38.257  1.00  0.00     0.012 A 
ATOM     70  C   UNL A   1      40.288  33.821  39.472  1.00  0.00     0.148 A 
ATOM     71  C   UNL A   1      42.018  36.033  39.329  1.00  0.00     0.002 A 
ATOM     72  C   UNL A   1      40.349  34.736  40.518  1.00  0.00     0.091 A 
ATOM     73  F   UNL A   1      39.495  32.741  39.522  1.00  0.00    -0.205 F 
ATOM     74  C   UNL A   1      41.223  35.835  40.453  1.00  0.00     0.022 A 
BRANCH  72  75
ATOM     75  S   UNL A   1      39.309  34.618  41.977  1.00  0.00     0.127 S 
ATOM     76  O   UNL A   1      38.328  35.673  41.726  1.00  0.00    -0.237 OA
ATOM     77  O   UNL A   1      38.782  33.257  41.868  1.00  0.00    -0.237 OA
ATOM     78  O   UNL A   1      40.185  34.845  43.118  1.00  0.00    -0.744 OA
ENDBRANCH  72  75
ENDBRANCH  54  68
BRANCH  55  79
ATOM     79  C   UNL A   1      40.066  28.223  30.243  1.00  0.00     0.023 A 
ATOM     80  C   UNL A   1      39.155  27.149  30.242  1.00  0.00     0.012 A 
ATOM     81  C   UNL A   1      40.859  28.448  29.101  1.00  0.00     0.148 A 
ATOM     82  C   UNL A   1      39.071  26.285  29.149  1.00  0.00     0.002 A 
ATOM     83  C   UNL A   1      40.728  27.621  27.992  1.00  0.00     0.091 A 
ATOM     84  F   UNL A   1      41.728  29.469  29.122  1.00  0.00    -0.205 F 
ATOM     85  C   UNL A   1      39.852  26.525  28.022  1.00  0.00     0.022 A 
BRANCH  83  86
ATOM     86  S   UNL A   1      41.601  27.930  26.453  1.00  0.00     0.127 S 
ATOM     87  O   UNL A   1      42.994  27.903  26.888  1.00  0.00    -0.237 OA
ATOM     88  O   UNL A   1      41.186  26.789  25.635  1.00  0.00    -0.237 OA
ATOM     89  O   UNL A   1      41.109  29.217  25.977  1.00  0.00    -0.744 OA
ENDBRANCH  83  86
ENDBRANCH  55  79
BRANCH  67  90
ATOM     90  C   UNL A   1      44.523  28.306  35.604  1.00  0.00     0.023 A 
ATOM     91  C   UNL A   1      45.833  28.721  35.291  1.00  0.00     0.012 A 
ATOM     92  C   UNL A   1      44.331  27.107  36.319  1.00  0.00     0.148 A 
ATOM     93  C   UNL A   1      46.930  27.937  35.649  1.00  0.00     0.002 A 
ATOM     94  C   UNL A   1      45.430  26.359  36.720  1.00  0.00     0.091 A 
ATOM     95  F   UNL A   1      43.075  26.722  36.593  1.00  0.00    -0.205 F 
ATOM     96  C   UNL A   1      46.728  26.764  36.373  1.00  0.00     0.022 A 
BRANCH  94  97
ATOM     97  S   UNL A   1      45.277  24.889  37.739  1.00  0.00     0.127 S 
ATOM     98  O   UNL A   1      44.589  23.969  36.835  1.00  0.00    -0.237 OA
ATOM     99  O   UNL A   1      46.676  24.551  38.006  1.00  0.00    -0.237 OA
ATOM    100  O   UNL A   1      44.517  25.291  38.916  1.00  0.00    -0.744 OA
ENDBRANCH  94  97
ENDBRANCH  67  90
ENDBRANCH  41  42
ENDBRANCH  33  36
ENDBRANCH  31  32
ENDBRANCH  30  31
ENDBRANCH  29  30
ENDBRANCH   1  29
TORSDOF 20
ENDMDL
MODEL 3
REMARK VINA RESULT:     -10.2      3.545      6.167
REMARK SMILES CNc1cc(-c2cncc(SCC(=O)NCCCCCCNC(=O)c3ccc(-c4c5nc(c(-c6cccc(S(=O)(=O)[O-])c6F)c6ccc([nH]6)c(-c6cccc(S(=O)(=O)[O-])c6F)c6nc(c(-c7cccc(S(=O)(=O)[O-])c7F)c7ccc4[nH]7)C=C6)C=C5)cc3)n2)c2cc[nH]c2n1
REMARK SMILES IDX 18 1 17 2 16 3 15 4 13 5 14 6 12 8 11 9 10 10 6 11 7 12
REMARK SMILES IDX 88 13 8 14 9 15 5 16 3 17 4 18 94 19 93 20 89 21 92 22 90 23
REMARK SMILES IDX 91 24 2 26 1 27 19 29 20 30 21 31 22 32 23 33 24 35 25 36
REMARK SMILES IDX 26 37 87 38 27 39 86 40 28 41 29 42 30 43 80 44 31 45 85 46
REMARK SMILES IDX 79 47 81 48 32 49 84 50 78 51 77 52 33 54 65 55 45 56 64 57
REMARK SMILES IDX 46 58 49 59 63 60 82 61 47 62 48 63 62 65 83 66 50 67 34 68
REMARK SMILES IDX 35 69 43 70 36 71 38 72 44 73 37 74 39 75 40 76 41 77 42 78
REMARK SMILES IDX 66 79 67 80 75 81 68 82 70 83 76 84 69 85 71 86 72 87 73 88
REMARK SMILES IDX 74 89 51 90 52 91 60 92 53 93 55 94 61 95 54 96 56 97 57 98
REMARK SMILES IDX 58 99 59 100
REMARK H PARENT 15 7 92 25 2 28 22 34 81 53 49 64
REMARK Flexibility Score: inf
ROOT
ATOM      1  C   UNL A   1      32.076  25.928  26.667  1.00  0.00     0.002 C 
ENDROOT
BRANCH   1   2
ATOM      2  C   UNL A   1      33.284  25.354  25.912  1.00  0.00     0.021 C 
BRANCH   2   3
ATOM      3  C   UNL A   1      33.070  23.934  25.385  1.00  0.00     0.116 C 
BRANCH   3   4
ATOM      4  N   UNL A   1      34.146  23.551  24.490  1.00  0.00    -0.355 N 
ATOM      5  C   UNL A   1      34.230  23.590  23.131  1.00  0.00     0.230 C 
ATOM      6  O   UNL A   1      35.303  23.233  22.634  1.00  0.00    -0.274 OA
ATOM      7  H   UNL A   1      34.949  23.203  24.941  1.00  0.00     0.163 HD
BRANCH   5   8
ATOM      8  C   UNL A   1      33.139  24.204  22.275  1.00  0.00     0.176 C 
BRANCH   8   9
ATOM      9  S   UNL A   1      33.227  26.000  22.024  1.00  0.00    -0.095 SA
BRANCH   9  10
ATOM     10  C   UNL A   1      31.670  26.572  22.653  1.00  0.00     0.116 A 
ATOM     11  C   UNL A   1      30.216  28.250  23.261  1.00  0.00     0.091 A 
ATOM     12  C   UNL A   1      29.292  27.287  23.668  1.00  0.00     0.140 A 
ATOM     13  N   UNL A   1      31.426  27.897  22.752  1.00  0.00    -0.238 NA
ATOM     14  N   UNL A   1      29.524  25.959  23.585  1.00  0.00    -0.260 NA
ATOM     15  C   UNL A   1      30.732  25.629  23.068  1.00  0.00     0.146 A 
BRANCH  11  16
ATOM     16  C   UNL A   1      29.939  29.672  23.403  1.00  0.00     0.016 A 
ATOM     17  C   UNL A   1      30.129  31.784  24.598  1.00  0.00     0.128 A 
ATOM     18  C   UNL A   1      30.452  30.436  24.468  1.00  0.00     0.058 A 
ATOM     19  N   UNL A   1      29.285  32.425  23.770  1.00  0.00    -0.213 NA
ATOM     20  C   UNL A   1      28.832  31.677  22.751  1.00  0.00     0.140 A 
ATOM     21  C   UNL A   1      29.102  30.341  22.491  1.00  0.00     0.028 A 
ATOM     22  N   UNL A   1      28.005  32.146  21.767  1.00  0.00    -0.346 N 
ATOM     23  C   UNL A   1      28.393  30.011  21.300  1.00  0.00     0.030 A 
ATOM     24  C   UNL A   1      27.729  31.144  20.875  1.00  0.00     0.085 A 
ATOM     25  H   UNL A   1      27.659  33.066  21.710  1.00  0.00     0.167 HD
BRANCH  17  26
ATOM     26  N   UNL A   1      30.656  32.581  25.590  1.00  0.00    -0.373 N 
ATOM     27  C   UNL A   1      31.264  32.044  26.780  1.00  0.00     0.141 C 
ATOM     28  H   UNL A   1      30.617  33.559  25.480  1.00  0.00     0.161 HD
ENDBRANCH  17  26
ENDBRANCH  11  16
ENDBRANCH   9  10
ENDBRANCH   8   9
ENDBRANCH   5   8
ENDBRANCH   3   4
ENDBRANCH   2   3
ENDBRANCH   1   2
BRANCH   1  29
ATOM     29  C   UNL A   1      31.773  27.404  26.385  1.00  0.00     0.002 C 
BRANCH  29  30
ATOM     30  C   UNL A   1      32.573  28.401  27.227  1.00  0.00     0.021 C 
BRANCH  30  31
ATOM     31  C   UNL A   1      33.767  29.023  26.509  1.00  0.00     0.116 C 
BRANCH  31  32
ATOM     32  N   UNL A   1      33.889  30.447  26.781  1.00  0.00    -0.352 N 
ATOM     33  C   UNL A   1      34.820  31.106  27.545  1.00  0.00     0.251 C 
ATOM     34  H   UNL A   1      33.209  31.019  26.357  1.00  0.00     0.163 HD
ATOM     35  O   UNL A   1      34.657  32.293  27.824  1.00  0.00    -0.269 OA
BRANCH  33  36
ATOM     36  C   UNL A   1      36.006  30.382  28.050  1.00  0.00     0.039 A 
ATOM     37  C   UNL A   1      37.177  30.384  27.289  1.00  0.00     0.014 A 
ATOM     38  C   UNL A   1      35.964  29.704  29.272  1.00  0.00     0.014 A 
ATOM     39  C   UNL A   1      38.324  29.758  27.783  1.00  0.00     0.010 A 
ATOM     40  C   UNL A   1      37.128  29.148  29.796  1.00  0.00     0.010 A 
ATOM     41  C   UNL A   1      38.320  29.164  29.056  1.00  0.00    -0.014 A 
BRANCH  41  42
ATOM     42  C   UNL A   1      39.551  28.564  29.633  1.00  0.00     0.031 A 
ATOM     43  C   UNL A   1      40.188  29.168  30.858  1.00  0.00     0.074 A 
ATOM     44  C   UNL A   1      40.139  27.520  29.013  1.00  0.00     0.049 A 
ATOM     45  N   UNL A   1      41.292  28.821  31.469  1.00  0.00    -0.248 NA
ATOM     46  C   UNL A   1      39.508  30.325  31.464  1.00  0.00     0.031 C 
ATOM     47  C   UNL A   1      39.657  26.885  27.783  1.00  0.00     0.029 A 
ATOM     48  N   UNL A   1      41.279  26.821  29.319  1.00  0.00    -0.354 N 
ATOM     49  C   UNL A   1      41.451  29.726  32.512  1.00  0.00     0.074 A 
ATOM     50  C   UNL A   1      40.354  30.665  32.426  1.00  0.00     0.031 C 
ATOM     51  C   UNL A   1      40.490  25.888  27.447  1.00  0.00     0.029 A 
ATOM     52  C   UNL A   1      41.584  25.832  28.411  1.00  0.00     0.049 A 
ATOM     53  H   UNL A   1      41.829  27.010  30.114  1.00  0.00     0.167 HD
ATOM     54  C   UNL A   1      42.402  29.755  33.476  1.00  0.00     0.034 A 
ATOM     55  C   UNL A   1      42.631  24.986  28.356  1.00  0.00     0.034 A 
ATOM     56  C   UNL A   1      43.475  28.803  33.577  1.00  0.00     0.049 A 
ATOM     57  C   UNL A   1      43.673  25.043  29.441  1.00  0.00     0.074 A 
ATOM     58  C   UNL A   1      44.457  28.715  34.548  1.00  0.00     0.029 A 
ATOM     59  N   UNL A   1      43.712  27.777  32.676  1.00  0.00    -0.354 N 
ATOM     60  N   UNL A   1      43.729  25.821  30.494  1.00  0.00    -0.248 NA
ATOM     61  C   UNL A   1      44.781  24.080  29.347  1.00  0.00     0.031 C 
ATOM     62  C   UNL A   1      45.302  27.651  34.219  1.00  0.00     0.029 A 
ATOM     63  C   UNL A   1      44.826  27.054  33.064  1.00  0.00     0.049 A 
ATOM     64  H   UNL A   1      43.167  27.591  31.876  1.00  0.00     0.167 HD
ATOM     65  C   UNL A   1      44.847  25.410  31.212  1.00  0.00     0.074 A 
ATOM     66  C   UNL A   1      45.428  24.302  30.483  1.00  0.00     0.031 C 
ATOM     67  C   UNL A   1      45.356  25.914  32.363  1.00  0.00     0.034 A 
BRANCH  54  68
ATOM     68  C   UNL A   1      42.294  30.819  34.538  1.00  0.00     0.023 A 
ATOM     69  C   UNL A   1      41.633  30.525  35.748  1.00  0.00     0.012 A 
ATOM     70  C   UNL A   1      42.907  32.077  34.374  1.00  0.00     0.148 A 
ATOM     71  C   UNL A   1      41.553  31.475  36.764  1.00  0.00     0.002 A 
ATOM     72  C   UNL A   1      42.864  33.002  35.411  1.00  0.00     0.091 A 
ATOM     73  F   UNL A   1      43.518  32.345  33.212  1.00  0.00    -0.205 F 
ATOM     74  C   UNL A   1      42.177  32.708  36.601  1.00  0.00     0.022 A 
BRANCH  72  75
ATOM     75  S   UNL A   1      43.702  34.589  35.336  1.00  0.00     0.127 S 
ATOM     76  O   UNL A   1      44.949  34.232  34.661  1.00  0.00    -0.237 OA
ATOM     77  O   UNL A   1      42.778  35.385  34.528  1.00  0.00    -0.237 OA
ATOM     78  O   UNL A   1      43.849  35.035  36.714  1.00  0.00    -0.744 OA
ENDBRANCH  72  75
ENDBRANCH  54  68
BRANCH  55  79
ATOM     79  C   UNL A   1      42.729  23.972  27.266  1.00  0.00     0.023 A 
ATOM     80  C   UNL A   1      43.381  24.309  26.064  1.00  0.00     0.012 A 
ATOM     81  C   UNL A   1      42.168  22.688  27.404  1.00  0.00     0.148 A 
ATOM     82  C   UNL A   1      43.429  23.406  25.001  1.00  0.00     0.002 A 
ATOM     83  C   UNL A   1      42.272  21.771  26.364  1.00  0.00     0.091 A 
ATOM     84  F   UNL A   1      41.542  22.386  28.551  1.00  0.00    -0.205 F 
ATOM     85  C   UNL A   1      42.882  22.136  25.153  1.00  0.00     0.022 A 
BRANCH  83  86
ATOM     86  S   UNL A   1      41.707  20.073  26.518  1.00  0.00     0.127 S 
ATOM     87  O   UNL A   1      40.257  20.235  26.477  1.00  0.00    -0.237 OA
ATOM     88  O   UNL A   1      42.292  19.450  25.330  1.00  0.00    -0.237 OA
ATOM     89  O   UNL A   1      42.257  19.591  27.778  1.00  0.00    -0.744 OA
ENDBRANCH  83  86
ENDBRANCH  55  79
BRANCH  67  90
ATOM     90  C   UNL A   1      46.570  25.237  32.946  1.00  0.00     0.023 A 
ATOM     91  C   UNL A   1      47.860  25.714  32.641  1.00  0.00     0.012 A 
ATOM     92  C   UNL A   1      46.425  24.167  33.852  1.00  0.00     0.148 A 
ATOM     93  C   UNL A   1      48.989  25.113  33.199  1.00  0.00     0.002 A 
ATOM     94  C   UNL A   1      47.550  23.609  34.446  1.00  0.00     0.091 A 
ATOM     95  F   UNL A   1      45.189  23.717  34.116  1.00  0.00    -0.205 F 
ATOM     96  C   UNL A   1      48.832  24.070  34.109  1.00  0.00     0.022 A 
BRANCH  94  97
ATOM     97  S   UNL A   1      47.443  22.330  35.702  1.00  0.00     0.127 S 
ATOM     98  O   UNL A   1      47.615  21.116  34.906  1.00  0.00    -0.237 OA
ATOM     99  O   UNL A   1      48.576  22.657  36.570  1.00  0.00    -0.237 OA
ATOM    100  O   UNL A   1      46.137  22.487  36.327  1.00  0.00    -0.744 OA
ENDBRANCH  94  97
ENDBRANCH  67  90
ENDBRANCH  41  42
ENDBRANCH  33  36
ENDBRANCH  31  32
ENDBRANCH  30  31
ENDBRANCH  29  30
ENDBRANCH   1  29
TORSDOF 20
ENDMDL
