MODEL 1
REMARK VINA RESULT:     -12.1      0.000      0.000
REMARK SMILES O=C(NCCCCCCNC(=O)c1ccc(-n2cnc3ccccc32)nc1)c1ccc(-c2c3nc(c(-c4cccc(S(=O)(=O)[O-])c4F)c4ccc([nH]4)c(-c4cccc(S(=O)(=O)[O-])c4F)c4nc(c(-c5cccc(S(=O)(=O)[O-])c5F)c5ccc2[nH]5)C=C4)C=C3)cc1
REMARK SMILES IDX 5 1 4 2 3 3 1 4 2 5 28 7 29 8 90 9 30 10 89 11 31 12 32 13
REMARK SMILES IDX 33 14 83 15 34 16 88 17 82 18 84 19 35 20 87 21 81 22 80 23
REMARK SMILES IDX 36 25 68 26 48 27 67 28 49 29 52 30 66 31 85 32 50 33 51 34
REMARK SMILES IDX 65 36 86 37 53 38 37 39 38 40 46 41 39 42 41 43 47 44 40 45
REMARK SMILES IDX 42 46 43 47 44 48 45 49 69 50 70 51 78 52 71 53 73 54 79 55
REMARK SMILES IDX 72 56 74 57 75 58 76 59 77 60 54 61 55 62 63 63 56 64 58 65
REMARK SMILES IDX 64 66 57 67 59 68 60 69 61 70 62 71 6 72 7 73 8 74 9 75
REMARK SMILES IDX 10 76 11 77 12 79 13 80 14 81 27 82 15 83 26 84 16 85 17 86
REMARK SMILES IDX 18 87 25 88 19 89 20 90 24 91 21 92 23 93 22 94
REMARK H PARENT 3 6 84 24 52 35 10 78
REMARK Flexibility Score: inf
ROOT
ATOM      1  C   UNL A   1      38.160  20.116  24.874  1.00  0.00     0.021 C 
ENDROOT
BRANCH   1   2
ATOM      2  C   UNL A   1      39.187  20.233  25.990  1.00  0.00     0.116 C 
BRANCH   2   3
ATOM      3  N   UNL A   1      40.254  19.223  25.923  1.00  0.00    -0.352 N 
ATOM      4  O   UNL A   1      42.415  18.614  25.518  1.00  0.00    -0.269 OA
ATOM      5  C   UNL A   1      41.631  19.438  25.938  1.00  0.00     0.251 C 
ATOM      6  H   UNL A   1      39.960  18.285  25.860  1.00  0.00     0.163 HD
BRANCH   5   7
ATOM      7  C   UNL A   1      42.100  20.713  26.515  1.00  0.00     0.039 A 
ATOM      8  C   UNL A   1      42.596  21.771  25.749  1.00  0.00     0.014 A 
ATOM      9  C   UNL A   1      41.891  20.855  27.876  1.00  0.00     0.014 A 
ATOM     10  C   UNL A   1      42.776  23.009  26.370  1.00  0.00     0.010 A 
ATOM     11  C   UNL A   1      41.790  22.113  28.387  1.00  0.00     0.010 A 
ATOM     12  C   UNL A   1      42.341  23.180  27.693  1.00  0.00    -0.014 A 
BRANCH  12  13
ATOM     13  C   UNL A   1      42.390  24.463  28.385  1.00  0.00     0.031 A 
ATOM     14  C   UNL A   1      41.221  25.355  28.165  1.00  0.00     0.074 A 
ATOM     15  C   UNL A   1      43.334  24.740  29.316  1.00  0.00     0.049 A 
ATOM     16  N   UNL A   1      41.207  26.463  27.501  1.00  0.00    -0.248 NA
ATOM     17  C   UNL A   1      39.892  24.913  28.615  1.00  0.00     0.031 C 
ATOM     18  C   UNL A   1      44.394  23.864  29.847  1.00  0.00     0.029 A 
ATOM     19  N   UNL A   1      43.453  25.837  30.106  1.00  0.00    -0.354 N 
ATOM     20  C   UNL A   1      39.925  26.979  27.655  1.00  0.00     0.074 A 
ATOM     21  C   UNL A   1      39.116  25.908  28.177  1.00  0.00     0.031 C 
ATOM     22  C   UNL A   1      44.831  24.340  31.031  1.00  0.00     0.029 A 
ATOM     23  C   UNL A   1      44.255  25.651  31.231  1.00  0.00     0.049 A 
ATOM     24  H   UNL A   1      43.011  26.694  29.902  1.00  0.00     0.167 HD
ATOM     25  C   UNL A   1      39.682  28.317  27.577  1.00  0.00     0.034 A 
ATOM     26  C   UNL A   1      44.410  26.513  32.261  1.00  0.00     0.034 A 
ATOM     27  C   UNL A   1      40.812  29.039  27.057  1.00  0.00     0.049 A 
ATOM     28  C   UNL A   1      44.057  27.849  31.726  1.00  0.00     0.074 A 
ATOM     29  C   UNL A   1      41.536  28.999  25.883  1.00  0.00     0.029 A 
ATOM     30  N   UNL A   1      41.611  29.676  27.978  1.00  0.00    -0.354 N 
ATOM     31  N   UNL A   1      44.736  28.449  30.787  1.00  0.00    -0.248 NA
ATOM     32  C   UNL A   1      42.701  28.329  31.927  1.00  0.00     0.031 C 
ATOM     33  C   UNL A   1      42.892  29.168  26.287  1.00  0.00     0.029 A 
ATOM     34  C   UNL A   1      42.911  29.373  27.670  1.00  0.00     0.049 A 
ATOM     35  H   UNL A   1      41.305  30.245  28.720  1.00  0.00     0.167 HD
ATOM     36  C   UNL A   1      43.766  29.043  29.991  1.00  0.00     0.074 A 
ATOM     37  C   UNL A   1      42.552  29.036  30.804  1.00  0.00     0.031 C 
ATOM     38  C   UNL A   1      43.962  29.215  28.651  1.00  0.00     0.034 A 
BRANCH  25  39
ATOM     39  C   UNL A   1      38.567  29.025  28.295  1.00  0.00     0.023 A 
ATOM     40  C   UNL A   1      37.693  29.833  27.539  1.00  0.00     0.012 A 
ATOM     41  C   UNL A   1      38.500  29.135  29.701  1.00  0.00     0.148 A 
ATOM     42  C   UNL A   1      36.798  30.715  28.155  1.00  0.00     0.002 A 
ATOM     43  C   UNL A   1      37.557  29.953  30.311  1.00  0.00     0.091 A 
ATOM     44  F   UNL A   1      39.440  28.553  30.456  1.00  0.00    -0.205 F 
ATOM     45  C   UNL A   1      36.718  30.763  29.543  1.00  0.00     0.022 A 
BRANCH  43  46
ATOM     46  S   UNL A   1      37.391  30.017  32.097  1.00  0.00     0.127 S 
ATOM     47  O   UNL A   1      36.196  30.840  32.250  1.00  0.00    -0.237 OA
ATOM     48  O   UNL A   1      37.221  28.604  32.433  1.00  0.00    -0.237 OA
ATOM     49  O   UNL A   1      38.639  30.597  32.577  1.00  0.00    -0.744 OA
ENDBRANCH  43  46
ENDBRANCH  25  39
BRANCH  26  50
ATOM     50  C   UNL A   1      44.605  26.258  33.709  1.00  0.00     0.023 A 
ATOM     51  C   UNL A   1      45.894  26.424  34.258  1.00  0.00     0.012 A 
ATOM     52  C   UNL A   1      43.513  26.159  34.601  1.00  0.00     0.148 A 
ATOM     53  C   UNL A   1      46.080  26.566  35.638  1.00  0.00     0.002 A 
ATOM     54  C   UNL A   1      43.706  26.291  35.975  1.00  0.00     0.091 A 
ATOM     55  F   UNL A   1      42.274  26.037  34.104  1.00  0.00    -0.205 F 
ATOM     56  C   UNL A   1      44.986  26.516  36.495  1.00  0.00     0.022 A 
BRANCH  54  57
ATOM     57  S   UNL A   1      42.330  26.247  37.135  1.00  0.00     0.127 S 
ATOM     58  O   UNL A   1      43.010  26.408  38.422  1.00  0.00    -0.237 OA
ATOM     59  O   UNL A   1      41.538  27.398  36.711  1.00  0.00    -0.237 OA
ATOM     60  O   UNL A   1      41.701  24.944  36.953  1.00  0.00    -0.744 OA
ENDBRANCH  54  57
ENDBRANCH  26  50
BRANCH  38  61
ATOM     61  C   UNL A   1      45.342  28.968  28.093  1.00  0.00     0.023 A 
ATOM     62  C   UNL A   1      46.382  29.916  28.212  1.00  0.00     0.012 A 
ATOM     63  C   UNL A   1      45.650  27.672  27.651  1.00  0.00     0.148 A 
ATOM     64  C   UNL A   1      47.701  29.574  27.899  1.00  0.00     0.002 A 
ATOM     65  C   UNL A   1      46.967  27.325  27.378  1.00  0.00     0.091 A 
ATOM     66  F   UNL A   1      44.649  26.785  27.559  1.00  0.00    -0.205 F 
ATOM     67  C   UNL A   1      47.996  28.273  27.496  1.00  0.00     0.022 A 
BRANCH  65  68
ATOM     68  S   UNL A   1      47.435  25.642  26.972  1.00  0.00     0.127 S 
ATOM     69  O   UNL A   1      48.841  25.796  26.604  1.00  0.00    -0.237 OA
ATOM     70  O   UNL A   1      47.207  24.943  28.237  1.00  0.00    -0.237 OA
ATOM     71  O   UNL A   1      46.554  25.224  25.889  1.00  0.00    -0.744 OA
ENDBRANCH  65  68
ENDBRANCH  38  61
ENDBRANCH  12  13
ENDBRANCH   5   7
ENDBRANCH   2   3
ENDBRANCH   1   2
BRANCH   1  72
ATOM     72  C   UNL A   1      37.221  21.321  24.730  1.00  0.00     0.002 C 
BRANCH  72  73
ATOM     73  C   UNL A   1      35.710  21.045  24.672  1.00  0.00     0.002 C 
BRANCH  73  74
ATOM     74  C   UNL A   1      34.892  21.386  25.921  1.00  0.00     0.021 C 
BRANCH  74  75
ATOM     75  C   UNL A   1      33.381  21.405  25.731  1.00  0.00     0.116 C 
BRANCH  75  76
ATOM     76  N   UNL A   1      32.983  21.034  24.381  1.00  0.00    -0.352 N 
ATOM     77  C   UNL A   1      32.315  21.795  23.456  1.00  0.00     0.252 C 
ATOM     78  H   UNL A   1      33.225  20.123  24.096  1.00  0.00     0.163 HD
ATOM     79  O   UNL A   1      31.951  21.319  22.386  1.00  0.00    -0.269 OA
BRANCH  77  80
ATOM     80  C   UNL A   1      32.091  23.217  23.736  1.00  0.00     0.058 A 
ATOM     81  C   UNL A   1      31.018  23.623  24.529  1.00  0.00     0.019 A 
ATOM     82  C   UNL A   1      32.950  24.174  23.222  1.00  0.00     0.127 A 
ATOM     83  C   UNL A   1      30.837  24.978  24.769  1.00  0.00     0.048 A 
ATOM     84  N   UNL A   1      32.789  25.503  23.441  1.00  0.00    -0.238 NA
ATOM     85  C   UNL A   1      31.747  25.881  24.221  1.00  0.00     0.138 A 
BRANCH  85  86
ATOM     86  N   UNL A   1      31.610  27.256  24.520  1.00  0.00    -0.283 N 
ATOM     87  C   UNL A   1      30.826  28.153  23.836  1.00  0.00     0.206 A 
ATOM     88  C   UNL A   1      32.284  27.968  25.502  1.00  0.00     0.074 A 
ATOM     89  N   UNL A   1      30.868  29.356  24.372  1.00  0.00    -0.236 NA
ATOM     90  C   UNL A   1      31.777  29.261  25.390  1.00  0.00     0.089 A 
ATOM     91  C   UNL A   1      33.319  27.644  26.396  1.00  0.00     0.029 A 
ATOM     92  C   UNL A   1      32.257  30.262  26.249  1.00  0.00     0.030 A 
ATOM     93  C   UNL A   1      33.803  28.662  27.221  1.00  0.00     0.002 A 
ATOM     94  C   UNL A   1      33.273  29.949  27.161  1.00  0.00     0.002 A 
ENDBRANCH  85  86
ENDBRANCH  77  80
ENDBRANCH  75  76
ENDBRANCH  74  75
ENDBRANCH  73  74
ENDBRANCH  72  73
ENDBRANCH   1  72
TORSDOF 17
ENDMDL
MODEL 2
REMARK VINA RESULT:     -11.7      3.957      9.798
REMARK SMILES O=C(NCCCCCCNC(=O)c1ccc(-n2cnc3ccccc32)nc1)c1ccc(-c2c3nc(c(-c4cccc(S(=O)(=O)[O-])c4F)c4ccc([nH]4)c(-c4cccc(S(=O)(=O)[O-])c4F)c4nc(c(-c5cccc(S(=O)(=O)[O-])c5F)c5ccc2[nH]5)C=C4)C=C3)cc1
REMARK SMILES IDX 5 1 4 2 3 3 1 4 2 5 28 7 29 8 90 9 30 10 89 11 31 12 32 13
REMARK SMILES IDX 33 14 83 15 34 16 88 17 82 18 84 19 35 20 87 21 81 22 80 23
REMARK SMILES IDX 36 25 68 26 48 27 67 28 49 29 52 30 66 31 85 32 50 33 51 34
REMARK SMILES IDX 65 36 86 37 53 38 37 39 38 40 46 41 39 42 41 43 47 44 40 45
REMARK SMILES IDX 42 46 43 47 44 48 45 49 69 50 70 51 78 52 71 53 73 54 79 55
REMARK SMILES IDX 72 56 74 57 75 58 76 59 77 60 54 61 55 62 63 63 56 64 58 65
REMARK SMILES IDX 64 66 57 67 59 68 60 69 61 70 62 71 6 72 7 73 8 74 9 75
REMARK SMILES IDX 10 76 11 77 12 79 13 80 14 81 27 82 15 83 26 84 16 85 17 86
REMARK SMILES IDX 18 87 25 88 19 89 20 90 24 91 21 92 23 93 22 94
REMARK H PARENT 3 6 84 24 52 35 10 78
REMARK Flexibility Score: inf
ROOT
ATOM      1  C   UNL A   1      31.552  31.599  26.587  1.00  0.00     0.021 C 
ENDROOT
BRANCH   1   2
ATOM      2  C   UNL A   1      32.677  32.316  27.316  1.00  0.00     0.116 C 
BRANCH   2   3
ATOM      3  N   UNL A   1      32.402  33.735  27.584  1.00  0.00    -0.352 N 
ATOM      4  O   UNL A   1      32.454  35.565  28.946  1.00  0.00    -0.269 OA
ATOM      5  C   UNL A   1      32.984  34.545  28.558  1.00  0.00     0.251 C 
ATOM      6  H   UNL A   1      31.728  34.163  27.008  1.00  0.00     0.163 HD
BRANCH   5   7
ATOM      7  C   UNL A   1      34.295  34.119  29.084  1.00  0.00     0.039 A 
ATOM      8  C   UNL A   1      34.449  33.338  30.232  1.00  0.00     0.014 A 
ATOM      9  C   UNL A   1      35.379  34.431  28.283  1.00  0.00     0.014 A 
ATOM     10  C   UNL A   1      35.707  32.790  30.495  1.00  0.00     0.010 A 
ATOM     11  C   UNL A   1      36.501  33.666  28.386  1.00  0.00     0.010 A 
ATOM     12  C   UNL A   1      36.729  32.938  29.545  1.00  0.00    -0.014 A 
BRANCH  12  13
ATOM     13  C   UNL A   1      38.038  32.311  29.684  1.00  0.00     0.031 A 
ATOM     14  C   UNL A   1      38.138  30.915  29.180  1.00  0.00     0.074 A 
ATOM     15  C   UNL A   1      39.133  33.014  30.061  1.00  0.00     0.049 A 
ATOM     16  N   UNL A   1      38.284  29.846  29.890  1.00  0.00    -0.248 NA
ATOM     17  C   UNL A   1      37.921  30.657  27.749  1.00  0.00     0.031 C 
ATOM     18  C   UNL A   1      39.259  34.458  30.326  1.00  0.00     0.029 A 
ATOM     19  N   UNL A   1      40.423  32.599  30.141  1.00  0.00    -0.354 N 
ATOM     20  C   UNL A   1      38.422  28.805  28.978  1.00  0.00     0.074 A 
ATOM     21  C   UNL A   1      38.002  29.324  27.702  1.00  0.00     0.031 C 
ATOM     22  C   UNL A   1      40.553  34.828  30.244  1.00  0.00     0.029 A 
ATOM     23  C   UNL A   1      41.359  33.632  30.145  1.00  0.00     0.049 A 
ATOM     24  H   UNL A   1      40.678  31.649  30.192  1.00  0.00     0.167 HD
ATOM     25  C   UNL A   1      39.106  27.669  29.292  1.00  0.00     0.034 A 
ATOM     26  C   UNL A   1      42.702  33.503  30.052  1.00  0.00     0.034 A 
ATOM     27  C   UNL A   1      39.391  27.585  30.699  1.00  0.00     0.049 A 
ATOM     28  C   UNL A   1      43.008  32.127  30.508  1.00  0.00     0.074 A 
ATOM     29  C   UNL A   1      38.626  27.563  31.848  1.00  0.00     0.029 A 
ATOM     30  N   UNL A   1      40.660  27.941  31.091  1.00  0.00    -0.354 N 
ATOM     31  N   UNL A   1      42.796  31.710  31.726  1.00  0.00    -0.248 NA
ATOM     32  C   UNL A   1      43.144  31.089  29.501  1.00  0.00     0.031 C 
ATOM     33  C   UNL A   1      39.344  28.371  32.776  1.00  0.00     0.029 A 
ATOM     34  C   UNL A   1      40.535  28.778  32.168  1.00  0.00     0.049 A 
ATOM     35  H   UNL A   1      41.503  27.649  30.675  1.00  0.00     0.167 HD
ATOM     36  C   UNL A   1      42.319  30.416  31.565  1.00  0.00     0.074 A 
ATOM     37  C   UNL A   1      42.667  30.051  30.194  1.00  0.00     0.031 C 
ATOM     38  C   UNL A   1      41.433  29.876  32.453  1.00  0.00     0.034 A 
BRANCH  25  39
ATOM     39  C   UNL A   1      39.831  26.807  28.296  1.00  0.00     0.023 A 
ATOM     40  C   UNL A   1      39.626  25.412  28.348  1.00  0.00     0.012 A 
ATOM     41  C   UNL A   1      40.889  27.278  27.489  1.00  0.00     0.148 A 
ATOM     42  C   UNL A   1      40.444  24.528  27.635  1.00  0.00     0.002 A 
ATOM     43  C   UNL A   1      41.648  26.404  26.723  1.00  0.00     0.091 A 
ATOM     44  F   UNL A   1      41.256  28.563  27.566  1.00  0.00    -0.205 F 
ATOM     45  C   UNL A   1      41.446  25.025  26.808  1.00  0.00     0.022 A 
BRANCH  43  46
ATOM     46  S   UNL A   1      42.924  27.004  25.611  1.00  0.00     0.127 S 
ATOM     47  O   UNL A   1      43.910  27.525  26.553  1.00  0.00    -0.237 OA
ATOM     48  O   UNL A   1      43.316  25.779  24.915  1.00  0.00    -0.237 OA
ATOM     49  O   UNL A   1      42.262  27.986  24.762  1.00  0.00    -0.744 OA
ENDBRANCH  43  46
ENDBRANCH  25  39
BRANCH  26  50
ATOM     50  C   UNL A   1      43.709  34.368  29.390  1.00  0.00     0.023 A 
ATOM     51  C   UNL A   1      44.480  35.241  30.187  1.00  0.00     0.012 A 
ATOM     52  C   UNL A   1      44.134  34.134  28.063  1.00  0.00     0.148 A 
ATOM     53  C   UNL A   1      45.672  35.797  29.707  1.00  0.00     0.002 A 
ATOM     54  C   UNL A   1      45.316  34.699  27.587  1.00  0.00     0.091 A 
ATOM     55  F   UNL A   1      43.439  33.282  27.296  1.00  0.00    -0.205 F 
ATOM     56  C   UNL A   1      46.097  35.514  28.413  1.00  0.00     0.022 A 
BRANCH  54  57
ATOM     57  S   UNL A   1      45.928  34.363  25.928  1.00  0.00     0.127 S 
ATOM     58  O   UNL A   1      44.711  34.481  25.122  1.00  0.00    -0.237 OA
ATOM     59  O   UNL A   1      46.897  35.439  25.739  1.00  0.00    -0.237 OA
ATOM     60  O   UNL A   1      46.482  33.015  25.977  1.00  0.00    -0.744 OA
ENDBRANCH  54  57
ENDBRANCH  26  50
BRANCH  38  61
ATOM     61  C   UNL A   1      41.168  30.619  33.739  1.00  0.00     0.023 A 
ATOM     62  C   UNL A   1      42.047  30.551  34.841  1.00  0.00     0.012 A 
ATOM     63  C   UNL A   1      40.140  31.576  33.745  1.00  0.00     0.148 A 
ATOM     64  C   UNL A   1      41.903  31.423  35.925  1.00  0.00     0.002 A 
ATOM     65  C   UNL A   1      40.025  32.466  34.804  1.00  0.00     0.091 A 
ATOM     66  F   UNL A   1      39.326  31.630  32.680  1.00  0.00    -0.205 F 
ATOM     67  C   UNL A   1      40.901  32.391  35.900  1.00  0.00     0.022 A 
BRANCH  65  68
ATOM     68  S   UNL A   1      38.838  33.810  34.784  1.00  0.00     0.127 S 
ATOM     69  O   UNL A   1      39.395  34.695  33.764  1.00  0.00    -0.237 OA
ATOM     70  O   UNL A   1      37.603  33.127  34.394  1.00  0.00    -0.237 OA
ATOM     71  O   UNL A   1      38.819  34.357  36.135  1.00  0.00    -0.744 OA
ENDBRANCH  65  68
ENDBRANCH  38  61
ENDBRANCH  12  13
ENDBRANCH   5   7
ENDBRANCH   2   3
ENDBRANCH   1   2
BRANCH   1  72
ATOM     72  C   UNL A   1      31.888  30.178  26.115  1.00  0.00     0.002 C 
BRANCH  72  73
ATOM     73  C   UNL A   1      31.127  29.632  24.896  1.00  0.00     0.002 C 
BRANCH  73  74
ATOM     74  C   UNL A   1      31.876  28.647  23.994  1.00  0.00     0.021 C 
BRANCH  74  75
ATOM     75  C   UNL A   1      31.994  27.226  24.531  1.00  0.00     0.116 C 
BRANCH  75  76
ATOM     76  N   UNL A   1      30.866  26.851  25.371  1.00  0.00    -0.352 N 
ATOM     77  C   UNL A   1      30.542  25.607  25.848  1.00  0.00     0.252 C 
ATOM     78  H   UNL A   1      30.260  27.583  25.629  1.00  0.00     0.163 HD
ATOM     79  O   UNL A   1      29.499  25.415  26.464  1.00  0.00    -0.269 OA
BRANCH  77  80
ATOM     80  C   UNL A   1      31.494  24.507  25.665  1.00  0.00     0.058 A 
ATOM     81  C   UNL A   1      32.572  24.350  26.536  1.00  0.00     0.019 A 
ATOM     82  C   UNL A   1      31.328  23.603  24.629  1.00  0.00     0.127 A 
ATOM     83  C   UNL A   1      33.454  23.298  26.328  1.00  0.00     0.048 A 
ATOM     84  N   UNL A   1      32.179  22.572  24.406  1.00  0.00    -0.238 NA
ATOM     85  C   UNL A   1      33.217  22.427  25.266  1.00  0.00     0.138 A 
BRANCH  85  86
ATOM     86  N   UNL A   1      34.069  21.313  25.092  1.00  0.00    -0.283 N 
ATOM     87  C   UNL A   1      35.440  21.327  25.190  1.00  0.00     0.206 A 
ATOM     88  C   UNL A   1      33.699  20.027  24.725  1.00  0.00     0.074 A 
ATOM     89  N   UNL A   1      35.960  20.128  25.018  1.00  0.00    -0.236 NA
ATOM     90  C   UNL A   1      34.898  19.320  24.714  1.00  0.00     0.089 A 
ATOM     91  C   UNL A   1      32.482  19.445  24.330  1.00  0.00     0.029 A 
ATOM     92  C   UNL A   1      34.889  17.959  24.371  1.00  0.00     0.030 A 
ATOM     93  C   UNL A   1      32.498  18.097  23.964  1.00  0.00     0.002 A 
ATOM     94  C   UNL A   1      33.680  17.358  23.996  1.00  0.00     0.002 A 
ENDBRANCH  85  86
ENDBRANCH  77  80
ENDBRANCH  75  76
ENDBRANCH  74  75
ENDBRANCH  73  74
ENDBRANCH  72  73
ENDBRANCH   1  72
TORSDOF 17
ENDMDL
MODEL 3
REMARK VINA RESULT:     -11.6      2.915      8.067
REMARK SMILES O=C(NCCCCCCNC(=O)c1ccc(-n2cnc3ccccc32)nc1)c1ccc(-c2c3nc(c(-c4cccc(S(=O)(=O)[O-])c4F)c4ccc([nH]4)c(-c4cccc(S(=O)(=O)[O-])c4F)c4nc(c(-c5cccc(S(=O)(=O)[O-])c5F)c5ccc2[nH]5)C=C4)C=C3)cc1
REMARK SMILES IDX 5 1 4 2 3 3 1 4 2 5 28 7 29 8 90 9 30 10 89 11 31 12 32 13
REMARK SMILES IDX 33 14 83 15 34 16 88 17 82 18 84 19 35 20 87 21 81 22 80 23
REMARK SMILES IDX 36 25 68 26 48 27 67 28 49 29 52 30 66 31 85 32 50 33 51 34
REMARK SMILES IDX 65 36 86 37 53 38 37 39 38 40 46 41 39 42 41 43 47 44 40 45
REMARK SMILES IDX 42 46 43 47 44 48 45 49 69 50 70 51 78 52 71 53 73 54 79 55
REMARK SMILES IDX 72 56 74 57 75 58 76 59 77 60 54 61 55 62 63 63 56 64 58 65
REMARK SMILES IDX 64 66 57 67 59 68 60 69 61 70 62 71 6 72 7 73 8 74 9 75
REMARK SMILES IDX 10 76 11 77 12 79 13 80 14 81 27 82 15 83 26 84 16 85 17 86
REMARK SMILES IDX 18 87 25 88 19 89 20 90 24 91 21 92 23 93 22 94
REMARK H PARENT 3 6 84 24 52 35 10 78
REMARK Flexibility Score: inf
ROOT
ATOM      1  C   UNL A   1      33.676  30.600  27.636  1.00  0.00     0.021 C 
ENDROOT
BRANCH   1   2
ATOM      2  C   UNL A   1      34.431  31.891  27.912  1.00  0.00     0.116 C 
BRANCH   2   3
ATOM      3  N   UNL A   1      34.412  32.300  29.325  1.00  0.00    -0.352 N 
ATOM      4  O   UNL A   1      34.952  31.966  31.516  1.00  0.00    -0.269 OA
ATOM      5  C   UNL A   1      35.258  31.871  30.346  1.00  0.00     0.251 C 
ATOM      6  H   UNL A   1      33.720  32.953  29.578  1.00  0.00     0.163 HD
BRANCH   5   7
ATOM      7  C   UNL A   1      36.563  31.313  29.941  1.00  0.00     0.039 A 
ATOM      8  C   UNL A   1      37.690  32.096  29.685  1.00  0.00     0.014 A 
ATOM      9  C   UNL A   1      36.643  29.931  29.961  1.00  0.00     0.014 A 
ATOM     10  C   UNL A   1      38.924  31.455  29.554  1.00  0.00     0.010 A 
ATOM     11  C   UNL A   1      37.867  29.357  30.124  1.00  0.00     0.010 A 
ATOM     12  C   UNL A   1      39.008  30.076  29.804  1.00  0.00    -0.014 A 
BRANCH  12  13
ATOM     13  C   UNL A   1      40.270  29.344  29.797  1.00  0.00     0.031 A 
ATOM     14  C   UNL A   1      40.863  29.074  31.134  1.00  0.00     0.074 A 
ATOM     15  C   UNL A   1      40.763  28.778  28.669  1.00  0.00     0.049 A 
ATOM     16  N   UNL A   1      41.935  29.602  31.625  1.00  0.00    -0.248 NA
ATOM     17  C   UNL A   1      40.124  28.229  32.083  1.00  0.00     0.031 C 
ATOM     18  C   UNL A   1      40.162  28.718  27.325  1.00  0.00     0.029 A 
ATOM     19  N   UNL A   1      41.861  27.993  28.522  1.00  0.00    -0.354 N 
ATOM     20  C   UNL A   1      42.137  28.973  32.849  1.00  0.00     0.074 A 
ATOM     21  C   UNL A   1      40.907  28.291  33.164  1.00  0.00     0.031 C 
ATOM     22  C   UNL A   1      40.731  27.724  26.613  1.00  0.00     0.029 A 
ATOM     23  C   UNL A   1      41.871  27.234  27.354  1.00  0.00     0.049 A 
ATOM     24  H   UNL A   1      42.589  27.962  29.185  1.00  0.00     0.167 HD
ATOM     25  C   UNL A   1      43.380  28.855  33.392  1.00  0.00     0.034 A 
ATOM     26  C   UNL A   1      42.750  26.256  27.036  1.00  0.00     0.034 A 
ATOM     27  C   UNL A   1      44.345  29.674  32.709  1.00  0.00     0.049 A 
ATOM     28  C   UNL A   1      43.964  26.526  27.841  1.00  0.00     0.074 A 
ATOM     29  C   UNL A   1      44.472  31.025  32.459  1.00  0.00     0.029 A 
ATOM     30  N   UNL A   1      45.154  29.039  31.796  1.00  0.00    -0.354 N 
ATOM     31  N   UNL A   1      44.703  27.591  27.689  1.00  0.00    -0.248 NA
ATOM     32  C   UNL A   1      44.114  25.831  29.107  1.00  0.00     0.031 C 
ATOM     33  C   UNL A   1      44.955  31.103  31.120  1.00  0.00     0.029 A 
ATOM     34  C   UNL A   1      45.163  29.800  30.657  1.00  0.00     0.049 A 
ATOM     35  H   UNL A   1      45.638  28.193  31.935  1.00  0.00     0.167 HD
ATOM     36  C   UNL A   1      45.051  27.953  28.984  1.00  0.00     0.074 A 
ATOM     37  C   UNL A   1      44.762  26.773  29.797  1.00  0.00     0.031 C 
ATOM     38  C   UNL A   1      45.258  29.259  29.319  1.00  0.00     0.034 A 
BRANCH  25  39
ATOM     39  C   UNL A   1      43.810  27.741  34.306  1.00  0.00     0.023 A 
ATOM     40  C   UNL A   1      44.449  28.081  35.517  1.00  0.00     0.012 A 
ATOM     41  C   UNL A   1      43.845  26.386  33.911  1.00  0.00     0.148 A 
ATOM     42  C   UNL A   1      45.100  27.115  36.294  1.00  0.00     0.002 A 
ATOM     43  C   UNL A   1      44.423  25.419  34.723  1.00  0.00     0.091 A 
ATOM     44  F   UNL A   1      43.440  26.045  32.681  1.00  0.00    -0.205 F 
ATOM     45  C   UNL A   1      45.072  25.780  35.905  1.00  0.00     0.022 A 
BRANCH  43  46
ATOM     46  S   UNL A   1      44.376  23.679  34.281  1.00  0.00     0.127 S 
ATOM     47  O   UNL A   1      42.942  23.409  34.313  1.00  0.00    -0.237 OA
ATOM     48  O   UNL A   1      44.977  23.692  32.948  1.00  0.00    -0.237 OA
ATOM     49  O   UNL A   1      45.183  23.006  35.291  1.00  0.00    -0.744 OA
ENDBRANCH  43  46
ENDBRANCH  25  39
BRANCH  26  50
ATOM     50  C   UNL A   1      42.553  24.989  26.289  1.00  0.00     0.023 A 
ATOM     51  C   UNL A   1      43.496  24.631  25.304  1.00  0.00     0.012 A 
ATOM     52  C   UNL A   1      41.648  23.997  26.731  1.00  0.00     0.148 A 
ATOM     53  C   UNL A   1      43.588  23.316  24.833  1.00  0.00     0.002 A 
ATOM     54  C   UNL A   1      41.737  22.692  26.251  1.00  0.00     0.091 A 
ATOM     55  F   UNL A   1      40.764  24.301  27.692  1.00  0.00    -0.205 F 
ATOM     56  C   UNL A   1      42.720  22.344  25.317  1.00  0.00     0.022 A 
BRANCH  54  57
ATOM     57  S   UNL A   1      40.652  21.385  26.846  1.00  0.00     0.127 S 
ATOM     58  O   UNL A   1      39.331  21.880  26.455  1.00  0.00    -0.237 OA
ATOM     59  O   UNL A   1      41.125  20.230  26.088  1.00  0.00    -0.237 OA
ATOM     60  O   UNL A   1      40.862  21.323  28.288  1.00  0.00    -0.744 OA
ENDBRANCH  54  57
ENDBRANCH  26  50
BRANCH  38  61
ATOM     61  C   UNL A   1      45.340  30.278  28.209  1.00  0.00     0.023 A 
ATOM     62  C   UNL A   1      44.186  30.836  27.616  1.00  0.00     0.012 A 
ATOM     63  C   UNL A   1      46.593  30.843  27.926  1.00  0.00     0.148 A 
ATOM     64  C   UNL A   1      44.284  31.938  26.760  1.00  0.00     0.002 A 
ATOM     65  C   UNL A   1      46.682  31.962  27.108  1.00  0.00     0.091 A 
ATOM     66  F   UNL A   1      47.672  30.304  28.512  1.00  0.00    -0.205 F 
ATOM     67  C   UNL A   1      45.532  32.511  26.519  1.00  0.00     0.022 A 
BRANCH  65  68
ATOM     68  S   UNL A   1      48.235  32.821  26.849  1.00  0.00     0.127 S 
ATOM     69  O   UNL A   1      48.501  33.378  28.173  1.00  0.00    -0.237 OA
ATOM     70  O   UNL A   1      49.129  31.732  26.452  1.00  0.00    -0.237 OA
ATOM     71  O   UNL A   1      47.986  33.804  25.802  1.00  0.00    -0.744 OA
ENDBRANCH  65  68
ENDBRANCH  38  61
ENDBRANCH  12  13
ENDBRANCH   5   7
ENDBRANCH   2   3
ENDBRANCH   1   2
BRANCH   1  72
ATOM     72  C   UNL A   1      34.549  29.423  27.181  1.00  0.00     0.002 C 
BRANCH  72  73
ATOM     73  C   UNL A   1      34.076  28.613  25.964  1.00  0.00     0.002 C 
BRANCH  73  74
ATOM     74  C   UNL A   1      32.875  29.160  25.187  1.00  0.00     0.021 C 
BRANCH  74  75
ATOM     75  C   UNL A   1      33.049  29.235  23.676  1.00  0.00     0.116 C 
BRANCH  75  76
ATOM     76  N   UNL A   1      31.779  29.221  22.966  1.00  0.00    -0.352 N 
ATOM     77  C   UNL A   1      31.065  28.135  22.528  1.00  0.00     0.252 C 
ATOM     78  H   UNL A   1      31.382  30.102  22.778  1.00  0.00     0.163 HD
ATOM     79  O   UNL A   1      30.054  28.272  21.848  1.00  0.00    -0.269 OA
BRANCH  77  80
ATOM     80  C   UNL A   1      31.494  26.793  22.936  1.00  0.00     0.058 A 
ATOM     81  C   UNL A   1      31.025  26.229  24.122  1.00  0.00     0.019 A 
ATOM     82  C   UNL A   1      32.363  26.065  22.140  1.00  0.00     0.127 A 
ATOM     83  C   UNL A   1      31.457  24.957  24.476  1.00  0.00     0.048 A 
ATOM     84  N   UNL A   1      32.800  24.824  22.469  1.00  0.00    -0.238 NA
ATOM     85  C   UNL A   1      32.329  24.285  23.620  1.00  0.00     0.138 A 
BRANCH  85  86
ATOM     86  N   UNL A   1      32.715  22.963  23.938  1.00  0.00    -0.283 N 
ATOM     87  C   UNL A   1      31.878  21.875  24.001  1.00  0.00     0.206 A 
ATOM     88  C   UNL A   1      33.979  22.529  24.310  1.00  0.00     0.074 A 
ATOM     89  N   UNL A   1      32.531  20.765  24.281  1.00  0.00    -0.236 NA
ATOM     90  C   UNL A   1      33.826  21.157  24.491  1.00  0.00     0.089 A 
ATOM     91  C   UNL A   1      35.189  23.190  24.582  1.00  0.00     0.029 A 
ATOM     92  C   UNL A   1      34.932  20.389  24.885  1.00  0.00     0.030 A 
ATOM     93  C   UNL A   1      36.271  22.412  25.002  1.00  0.00     0.002 A 
ATOM     94  C   UNL A   1      36.151  21.030  25.139  1.00  0.00     0.002 A 
ENDBRANCH  85  86
ENDBRANCH  77  80
ENDBRANCH  75  76
ENDBRANCH  74  75
ENDBRANCH  73  74
ENDBRANCH  72  73
ENDBRANCH   1  72
TORSDOF 17
ENDMDL
