MODEL 1
REMARK VINA RESULT:     -12.9      0.000      0.000
REMARK SMILES O=C(N[C@]1(C(=O)NCCCCCCNC(=O)c2ccc(-c3c4nc(c(-c5cccc(S(=O)(=O)[O-])c5F)c5ccc([nH]5)c(-c5cccc(S(=O)(=O)[O-])c5F)c5nc(c(-c6cccc(S(=O)(=O)[O-])c6F)c6ccc3[nH]6)C=C5)C=C4)cc2)CC[C@H](c2ccccc2)CC1)OCC1c2ccccc2-c2ccccc21
REMARK SMILES IDX 10 1 9 2 8 3 7 4 5 5 6 6 4 8 80 9 90 10 81 11 89 12 82 13
REMARK SMILES IDX 3 14 1 15 2 16 91 18 92 19 93 20 94 21 105 22 95 23 99 24
REMARK SMILES IDX 100 25 104 26 96 27 98 28 101 29 103 30 97 31 102 32 83 33
REMARK SMILES IDX 84 34 88 35 85 36 87 37 86 38 11 39 12 40 13 41 14 42 15 43
REMARK SMILES IDX 16 45 17 46 18 47 79 48 19 49 78 50 20 51 21 52 22 53 72 54
REMARK SMILES IDX 23 55 77 56 71 57 73 58 24 59 76 60 70 61 69 62 25 64 57 65
REMARK SMILES IDX 37 66 56 67 38 68 41 69 55 70 74 71 39 72 40 73 54 75 75 76
REMARK SMILES IDX 42 77 26 78 27 79 35 80 28 81 30 82 36 83 29 84 31 85 32 86
REMARK SMILES IDX 33 87 34 88 58 89 59 90 67 91 60 92 62 93 68 94 61 95 63 96
REMARK SMILES IDX 64 97 65 98 66 99 43 100 44 101 52 102 45 103 47 104 53 105
REMARK SMILES IDX 46 106 48 107 49 108 50 109 51 110
REMARK H PARENT 7 7 3 17 14 44 73 63 41 74
REMARK Flexibility Score: inf
ROOT
ATOM      1  C   UNL A   1      29.414  30.194  24.044  1.00  0.00     0.002 C 
ENDROOT
BRANCH   1   2
ATOM      2  C   UNL A   1      29.483  30.367  22.530  1.00  0.00     0.021 C 
BRANCH   2   3
ATOM      3  C   UNL A   1      30.408  29.387  21.825  1.00  0.00     0.116 C 
BRANCH   3   4
ATOM      4  N   UNL A   1      31.789  29.537  22.186  1.00  0.00    -0.354 N 
ATOM      5  C   UNL A   1      32.751  28.663  22.554  1.00  0.00     0.245 C 
ATOM      6  O   UNL A   1      33.840  29.231  22.764  1.00  0.00    -0.272 OA
ATOM      7  H   UNL A   1      32.099  30.472  22.161  1.00  0.00     0.163 HD
BRANCH   5   8
ATOM      8  C   UNL A   1      32.605  27.097  22.818  1.00  0.00     0.122 C 
ATOM      9  C   UNL A   1      31.334  26.389  23.264  1.00  0.00     0.039 C 
ATOM     10  C   UNL A   1      33.704  26.630  23.804  1.00  0.00     0.039 C 
ATOM     11  C   UNL A   1      30.823  26.653  24.651  1.00  0.00     0.011 C 
ATOM     12  C   UNL A   1      33.324  26.670  25.299  1.00  0.00     0.011 C 
ATOM     13  C   UNL A   1      31.867  26.278  25.697  1.00  0.00     0.019 C 
BRANCH   8  14
ATOM     14  N   UNL A   1      32.917  26.573  21.441  1.00  0.00    -0.307 N 
ATOM     15  O   UNL A   1      32.939  25.211  19.653  1.00  0.00    -0.225 OA
ATOM     16  C   UNL A   1      32.760  25.334  20.867  1.00  0.00     0.408 C 
ATOM     17  H   UNL A   1      33.306  27.247  20.837  1.00  0.00     0.168 HD
BRANCH  16  18
ATOM     18  O   UNL A   1      32.602  24.234  21.656  1.00  0.00    -0.449 OA
BRANCH  18  19
ATOM     19  C   UNL A   1      33.751  23.469  22.078  1.00  0.00     0.248 C 
BRANCH  19  20
ATOM     20  C   UNL A   1      33.583  22.822  23.487  1.00  0.00     0.088 C 
ATOM     21  C   UNL A   1      34.892  22.885  24.299  1.00  0.00    -0.029 A 
ATOM     22  C   UNL A   1      33.222  21.334  23.649  1.00  0.00    -0.029 A 
ATOM     23  C   UNL A   1      35.801  23.926  24.417  1.00  0.00     0.005 A 
ATOM     24  C   UNL A   1      35.141  21.645  24.929  1.00  0.00    -0.014 A 
ATOM     25  C   UNL A   1      34.089  20.721  24.585  1.00  0.00    -0.014 A 
ATOM     26  C   UNL A   1      32.223  20.586  23.044  1.00  0.00     0.005 A 
ATOM     27  C   UNL A   1      36.972  23.704  25.149  1.00  0.00     0.000 A 
ATOM     28  C   UNL A   1      36.310  21.420  25.641  1.00  0.00     0.009 A 
ATOM     29  C   UNL A   1      33.909  19.404  24.988  1.00  0.00     0.009 A 
ATOM     30  C   UNL A   1      32.072  19.241  23.410  1.00  0.00     0.000 A 
ATOM     31  C   UNL A   1      37.233  22.460  25.744  1.00  0.00     0.001 A 
ATOM     32  C   UNL A   1      32.887  18.663  24.397  1.00  0.00     0.001 A 
ENDBRANCH  19  20
ENDBRANCH  18  19
ENDBRANCH  16  18
ENDBRANCH   8  14
BRANCH  13  33
ATOM     33  C   UNL A   1      31.740  24.829  26.160  1.00  0.00    -0.045 A 
ATOM     34  C   UNL A   1      30.548  24.084  26.090  1.00  0.00     0.004 A 
ATOM     35  C   UNL A   1      32.846  24.237  26.787  1.00  0.00     0.004 A 
ATOM     36  C   UNL A   1      30.463  22.802  26.627  1.00  0.00     0.000 A 
ATOM     37  C   UNL A   1      32.765  22.947  27.313  1.00  0.00     0.000 A 
ATOM     38  C   UNL A   1      31.574  22.231  27.236  1.00  0.00     0.000 A 
ENDBRANCH  13  33
ENDBRANCH   5   8
ENDBRANCH   3   4
ENDBRANCH   2   3
ENDBRANCH   1   2
BRANCH   1  39
ATOM     39  C   UNL A   1      30.567  30.830  24.827  1.00  0.00     0.002 C 
BRANCH  39  40
ATOM     40  C   UNL A   1      31.390  29.875  25.695  1.00  0.00     0.021 C 
BRANCH  40  41
ATOM     41  C   UNL A   1      32.719  30.447  26.165  1.00  0.00     0.116 C 
BRANCH  41  42
ATOM     42  N   UNL A   1      32.608  31.860  26.493  1.00  0.00    -0.352 N 
ATOM     43  C   UNL A   1      33.263  32.581  27.456  1.00  0.00     0.251 C 
ATOM     44  H   UNL A   1      31.970  32.371  25.944  1.00  0.00     0.163 HD
ATOM     45  O   UNL A   1      32.863  33.700  27.763  1.00  0.00    -0.269 OA
BRANCH  43  46
ATOM     46  C   UNL A   1      34.451  32.002  28.114  1.00  0.00     0.039 A 
ATOM     47  C   UNL A   1      34.450  30.652  28.466  1.00  0.00     0.014 A 
ATOM     48  C   UNL A   1      35.557  32.807  28.401  1.00  0.00     0.014 A 
ATOM     49  C   UNL A   1      35.569  30.105  29.092  1.00  0.00     0.010 A 
ATOM     50  C   UNL A   1      36.709  32.237  28.922  1.00  0.00     0.010 A 
ATOM     51  C   UNL A   1      36.711  30.892  29.315  1.00  0.00    -0.014 A 
BRANCH  51  52
ATOM     52  C   UNL A   1      37.899  30.353  30.019  1.00  0.00     0.031 A 
ATOM     53  C   UNL A   1      38.169  30.765  31.443  1.00  0.00     0.074 A 
ATOM     54  C   UNL A   1      38.767  29.564  29.359  1.00  0.00     0.049 A 
ATOM     55  N   UNL A   1      39.173  30.449  32.216  1.00  0.00    -0.248 NA
ATOM     56  C   UNL A   1      37.203  31.687  32.066  1.00  0.00     0.031 C 
ATOM     57  C   UNL A   1      38.649  29.161  27.956  1.00  0.00     0.029 A 
ATOM     58  N   UNL A   1      39.931  28.974  29.777  1.00  0.00    -0.354 N 
ATOM     59  C   UNL A   1      38.988  31.171  33.389  1.00  0.00     0.074 A 
ATOM     60  C   UNL A   1      37.802  31.977  33.210  1.00  0.00     0.031 C 
ATOM     61  C   UNL A   1      39.685  28.370  27.637  1.00  0.00     0.029 A 
ATOM     62  C   UNL A   1      40.558  28.238  28.800  1.00  0.00     0.049 A 
ATOM     63  H   UNL A   1      40.286  29.069  30.691  1.00  0.00     0.167 HD
ATOM     64  C   UNL A   1      39.720  31.144  34.528  1.00  0.00     0.034 A 
ATOM     65  C   UNL A   1      41.705  27.533  28.842  1.00  0.00     0.034 A 
ATOM     66  C   UNL A   1      40.865  30.297  34.714  1.00  0.00     0.049 A 
ATOM     67  C   UNL A   1      42.472  27.473  30.135  1.00  0.00     0.074 A 
ATOM     68  C   UNL A   1      41.621  30.109  35.857  1.00  0.00     0.029 A 
ATOM     69  N   UNL A   1      41.425  29.501  33.726  1.00  0.00    -0.354 N 
ATOM     70  N   UNL A   1      42.200  28.044  31.285  1.00  0.00    -0.248 NA
ATOM     71  C   UNL A   1      43.682  26.641  30.150  1.00  0.00     0.031 C 
ATOM     72  C   UNL A   1      42.663  29.229  35.548  1.00  0.00     0.029 A 
ATOM     73  C   UNL A   1      42.526  28.830  34.227  1.00  0.00     0.049 A 
ATOM     74  H   UNL A   1      41.089  29.425  32.804  1.00  0.00     0.167 HD
ATOM     75  C   UNL A   1      43.173  27.599  32.171  1.00  0.00     0.074 A 
ATOM     76  C   UNL A   1      44.036  26.705  31.426  1.00  0.00     0.031 C 
ATOM     77  C   UNL A   1      43.340  27.904  33.482  1.00  0.00     0.034 A 
BRANCH  64  78
ATOM     78  C   UNL A   1      39.282  32.034  35.663  1.00  0.00     0.023 A 
ATOM     79  C   UNL A   1      38.388  31.548  36.640  1.00  0.00     0.012 A 
ATOM     80  C   UNL A   1      39.772  33.350  35.774  1.00  0.00     0.148 A 
ATOM     81  C   UNL A   1      37.949  32.370  37.677  1.00  0.00     0.002 A 
ATOM     82  C   UNL A   1      39.373  34.146  36.841  1.00  0.00     0.091 A 
ATOM     83  F   UNL A   1      40.602  33.807  34.825  1.00  0.00    -0.205 F 
ATOM     84  C   UNL A   1      38.449  33.666  37.783  1.00  0.00     0.022 A 
BRANCH  82  85
ATOM     85  S   UNL A   1      40.028  35.796  37.113  1.00  0.00     0.127 S 
ATOM     86  O   UNL A   1      41.459  35.525  37.249  1.00  0.00    -0.237 OA
ATOM     87  O   UNL A   1      39.653  36.482  35.875  1.00  0.00    -0.237 OA
ATOM     88  O   UNL A   1      39.369  36.298  38.309  1.00  0.00    -0.744 OA
ENDBRANCH  82  85
ENDBRANCH  64  78
BRANCH  65  89
ATOM     89  C   UNL A   1      42.144  26.755  27.651  1.00  0.00     0.023 A 
ATOM     90  C   UNL A   1      42.867  27.406  26.631  1.00  0.00     0.012 A 
ATOM     91  C   UNL A   1      41.884  25.376  27.535  1.00  0.00     0.148 A 
ATOM     92  C   UNL A   1      43.294  26.706  25.503  1.00  0.00     0.002 A 
ATOM     93  C   UNL A   1      42.359  24.673  26.434  1.00  0.00     0.091 A 
ATOM     94  F   UNL A   1      41.195  24.777  28.515  1.00  0.00    -0.205 F 
ATOM     95  C   UNL A   1      43.048  25.339  25.407  1.00  0.00     0.022 A 
BRANCH  93  96
ATOM     96  S   UNL A   1      42.202  22.890  26.283  1.00  0.00     0.127 S 
ATOM     97  O   UNL A   1      40.768  22.698  26.479  1.00  0.00    -0.237 OA
ATOM     98  O   UNL A   1      42.675  22.663  24.917  1.00  0.00    -0.237 OA
ATOM     99  O   UNL A   1      43.059  22.328  27.319  1.00  0.00    -0.744 OA
ENDBRANCH  93  96
ENDBRANCH  65  89
BRANCH  77 100
ATOM    100  C   UNL A   1      44.460  27.219  34.221  1.00  0.00     0.023 A 
ATOM    101  C   UNL A   1      45.726  27.828  34.319  1.00  0.00     0.012 A 
ATOM    102  C   UNL A   1      44.227  25.997  34.881  1.00  0.00     0.148 A 
ATOM    103  C   UNL A   1      46.754  27.210  35.030  1.00  0.00     0.002 A 
ATOM    104  C   UNL A   1      45.237  25.416  35.635  1.00  0.00     0.091 A 
ATOM    105  F   UNL A   1      43.020  25.424  34.759  1.00  0.00    -0.205 F 
ATOM    106  C   UNL A   1      46.506  26.013  35.698  1.00  0.00     0.022 A 
BRANCH 104 107
ATOM    107  S   UNL A   1      44.973  23.933  36.614  1.00  0.00     0.127 S 
ATOM    108  O   UNL A   1      46.344  23.484  36.849  1.00  0.00    -0.237 OA
ATOM    109  O   UNL A   1      44.291  24.460  37.796  1.00  0.00    -0.237 OA
ATOM    110  O   UNL A   1      44.158  23.050  35.791  1.00  0.00    -0.744 OA
ENDBRANCH 104 107
ENDBRANCH  77 100
ENDBRANCH  51  52
ENDBRANCH  43  46
ENDBRANCH  41  42
ENDBRANCH  40  41
ENDBRANCH  39  40
ENDBRANCH   1  39
TORSDOF 21
ENDMDL
MODEL 2
REMARK VINA RESULT:     -12.6      2.075      7.298
REMARK SMILES O=C(N[C@]1(C(=O)NCCCCCCNC(=O)c2ccc(-c3c4nc(c(-c5cccc(S(=O)(=O)[O-])c5F)c5ccc([nH]5)c(-c5cccc(S(=O)(=O)[O-])c5F)c5nc(c(-c6cccc(S(=O)(=O)[O-])c6F)c6ccc3[nH]6)C=C5)C=C4)cc2)CC[C@H](c2ccccc2)CC1)OCC1c2ccccc2-c2ccccc21
REMARK SMILES IDX 10 1 9 2 8 3 7 4 5 5 6 6 4 8 80 9 90 10 81 11 89 12 82 13
REMARK SMILES IDX 3 14 1 15 2 16 91 18 92 19 93 20 94 21 105 22 95 23 99 24
REMARK SMILES IDX 100 25 104 26 96 27 98 28 101 29 103 30 97 31 102 32 83 33
REMARK SMILES IDX 84 34 88 35 85 36 87 37 86 38 11 39 12 40 13 41 14 42 15 43
REMARK SMILES IDX 16 45 17 46 18 47 79 48 19 49 78 50 20 51 21 52 22 53 72 54
REMARK SMILES IDX 23 55 77 56 71 57 73 58 24 59 76 60 70 61 69 62 25 64 57 65
REMARK SMILES IDX 37 66 56 67 38 68 41 69 55 70 74 71 39 72 40 73 54 75 75 76
REMARK SMILES IDX 42 77 26 78 27 79 35 80 28 81 30 82 36 83 29 84 31 85 32 86
REMARK SMILES IDX 33 87 34 88 58 89 59 90 67 91 60 92 62 93 68 94 61 95 63 96
REMARK SMILES IDX 64 97 65 98 66 99 43 100 44 101 52 102 45 103 47 104 53 105
REMARK SMILES IDX 46 106 48 107 49 108 50 109 51 110
REMARK H PARENT 7 7 3 17 14 44 73 63 41 74
REMARK Flexibility Score: inf
ROOT
ATOM      1  C   UNL A   1      32.421  30.098  27.152  1.00  0.00     0.002 C 
ENDROOT
BRANCH   1   2
ATOM      2  C   UNL A   1      31.711  30.342  25.824  1.00  0.00     0.021 C 
BRANCH   2   3
ATOM      3  C   UNL A   1      32.384  29.701  24.621  1.00  0.00     0.116 C 
BRANCH   3   4
ATOM      4  N   UNL A   1      31.507  29.515  23.500  1.00  0.00    -0.354 N 
ATOM      5  C   UNL A   1      31.088  28.424  22.823  1.00  0.00     0.245 C 
ATOM      6  O   UNL A   1      30.295  28.720  21.908  1.00  0.00    -0.272 OA
ATOM      7  H   UNL A   1      31.134  30.357  23.153  1.00  0.00     0.163 HD
BRANCH   5   8
ATOM      8  C   UNL A   1      31.557  26.911  23.012  1.00  0.00     0.122 C 
ATOM      9  C   UNL A   1      30.650  25.741  23.369  1.00  0.00     0.039 C 
ATOM     10  C   UNL A   1      32.725  26.850  24.025  1.00  0.00     0.039 C 
ATOM     11  C   UNL A   1      30.043  25.705  24.741  1.00  0.00     0.011 C 
ATOM     12  C   UNL A   1      32.323  26.653  25.502  1.00  0.00     0.011 C 
ATOM     13  C   UNL A   1      31.124  25.705  25.816  1.00  0.00     0.019 C 
BRANCH   8  14
ATOM     14  N   UNL A   1      32.081  26.629  21.628  1.00  0.00    -0.307 N 
ATOM     15  O   UNL A   1      32.965  25.510  19.891  1.00  0.00    -0.225 OA
ATOM     16  C   UNL A   1      32.807  25.582  21.111  1.00  0.00     0.408 C 
ATOM     17  H   UNL A   1      31.863  27.327  20.969  1.00  0.00     0.168 HD
BRANCH  16  18
ATOM     18  O   UNL A   1      33.496  24.755  21.947  1.00  0.00    -0.449 OA
BRANCH  18  19
ATOM     19  C   UNL A   1      33.333  23.323  21.853  1.00  0.00     0.248 C 
BRANCH  19  20
ATOM     20  C   UNL A   1      33.200  22.621  23.240  1.00  0.00     0.088 C 
ATOM     21  C   UNL A   1      34.458  22.834  24.105  1.00  0.00    -0.029 A 
ATOM     22  C   UNL A   1      33.033  21.095  23.353  1.00  0.00    -0.029 A 
ATOM     23  C   UNL A   1      35.216  23.980  24.282  1.00  0.00     0.005 A 
ATOM     24  C   UNL A   1      34.845  21.620  24.716  1.00  0.00    -0.014 A 
ATOM     25  C   UNL A   1      33.938  20.575  24.309  1.00  0.00    -0.014 A 
ATOM     26  C   UNL A   1      32.165  20.239  22.691  1.00  0.00     0.005 A 
ATOM     27  C   UNL A   1      36.378  23.894  25.057  1.00  0.00     0.000 A 
ATOM     28  C   UNL A   1      36.006  21.531  25.470  1.00  0.00     0.009 A 
ATOM     29  C   UNL A   1      33.918  19.235  24.675  1.00  0.00     0.009 A 
ATOM     30  C   UNL A   1      32.179  18.876  23.021  1.00  0.00     0.000 A 
ATOM     31  C   UNL A   1      36.779  22.679  25.633  1.00  0.00     0.001 A 
ATOM     32  C   UNL A   1      33.026  18.384  24.026  1.00  0.00     0.001 A 
ENDBRANCH  19  20
ENDBRANCH  18  19
ENDBRANCH  16  18
ENDBRANCH   8  14
BRANCH  13  33
ATOM     33  C   UNL A   1      31.560  24.296  26.209  1.00  0.00    -0.045 A 
ATOM     34  C   UNL A   1      30.830  23.133  25.899  1.00  0.00     0.004 A 
ATOM     35  C   UNL A   1      32.699  24.157  27.015  1.00  0.00     0.004 A 
ATOM     36  C   UNL A   1      31.220  21.884  26.378  1.00  0.00     0.000 A 
ATOM     37  C   UNL A   1      33.098  22.905  27.483  1.00  0.00     0.000 A 
ATOM     38  C   UNL A   1      32.357  21.770  27.167  1.00  0.00     0.000 A 
ENDBRANCH  13  33
ENDBRANCH   5   8
ENDBRANCH   3   4
ENDBRANCH   2   3
ENDBRANCH   1   2
BRANCH   1  39
ATOM     39  C   UNL A   1      33.812  30.727  27.273  1.00  0.00     0.002 C 
BRANCH  39  40
ATOM     40  C   UNL A   1      33.844  32.241  27.491  1.00  0.00     0.021 C 
BRANCH  40  41
ATOM     41  C   UNL A   1      32.481  32.862  27.760  1.00  0.00     0.116 C 
BRANCH  41  42
ATOM     42  N   UNL A   1      32.565  34.311  27.863  1.00  0.00    -0.352 N 
ATOM     43  C   UNL A   1      33.338  35.078  28.693  1.00  0.00     0.251 C 
ATOM     44  H   UNL A   1      31.983  34.812  27.246  1.00  0.00     0.163 HD
ATOM     45  O   UNL A   1      33.097  36.274  28.824  1.00  0.00    -0.269 OA
BRANCH  43  46
ATOM     46  C   UNL A   1      34.460  34.455  29.422  1.00  0.00     0.039 A 
ATOM     47  C   UNL A   1      35.752  34.548  28.901  1.00  0.00     0.014 A 
ATOM     48  C   UNL A   1      34.226  33.758  30.611  1.00  0.00     0.014 A 
ATOM     49  C   UNL A   1      36.812  33.956  29.585  1.00  0.00     0.010 A 
ATOM     50  C   UNL A   1      35.295  33.266  31.344  1.00  0.00     0.010 A 
ATOM     51  C   UNL A   1      36.592  33.319  30.817  1.00  0.00    -0.014 A 
BRANCH  51  52
ATOM     52  C   UNL A   1      37.690  32.641  31.546  1.00  0.00     0.031 A 
ATOM     53  C   UNL A   1      38.406  31.484  30.900  1.00  0.00     0.074 A 
ATOM     54  C   UNL A   1      37.988  33.012  32.806  1.00  0.00     0.049 A 
ATOM     55  N   UNL A   1      39.355  30.726  31.383  1.00  0.00    -0.248 NA
ATOM     56  C   UNL A   1      37.970  31.100  29.546  1.00  0.00     0.031 C 
ATOM     57  C   UNL A   1      37.310  34.068  33.560  1.00  0.00     0.029 A 
ATOM     58  N   UNL A   1      38.926  32.527  33.679  1.00  0.00    -0.354 N 
ATOM     59  C   UNL A   1      39.589  29.752  30.421  1.00  0.00     0.074 A 
ATOM     60  C   UNL A   1      38.652  29.983  29.345  1.00  0.00     0.031 C 
ATOM     61  C   UNL A   1      37.872  34.169  34.776  1.00  0.00     0.029 A 
ATOM     62  C   UNL A   1      38.923  33.164  34.898  1.00  0.00     0.049 A 
ATOM     63  H   UNL A   1      39.543  31.793  33.456  1.00  0.00     0.167 HD
ATOM     64  C   UNL A   1      40.521  28.770  30.415  1.00  0.00     0.034 A 
ATOM     65  C   UNL A   1      39.687  32.960  35.988  1.00  0.00     0.034 A 
ATOM     66  C   UNL A   1      41.482  28.584  31.466  1.00  0.00     0.049 A 
ATOM     67  C   UNL A   1      40.753  31.899  35.937  1.00  0.00     0.074 A 
ATOM     68  C   UNL A   1      42.537  27.690  31.520  1.00  0.00     0.029 A 
ATOM     69  N   UNL A   1      41.502  29.301  32.652  1.00  0.00    -0.354 N 
ATOM     70  N   UNL A   1      41.062  31.083  34.958  1.00  0.00    -0.248 NA
ATOM     71  C   UNL A   1      41.603  31.756  37.127  1.00  0.00     0.031 C 
ATOM     72  C   UNL A   1      43.169  27.840  32.758  1.00  0.00     0.029 A 
ATOM     73  C   UNL A   1      42.541  28.862  33.453  1.00  0.00     0.049 A 
ATOM     74  H   UNL A   1      40.869  30.017  32.890  1.00  0.00     0.167 HD
ATOM     75  C   UNL A   1      42.172  30.368  35.391  1.00  0.00     0.074 A 
ATOM     76  C   UNL A   1      42.485  30.854  36.720  1.00  0.00     0.031 C 
ATOM     77  C   UNL A   1      42.867  29.395  34.751  1.00  0.00     0.034 A 
BRANCH  64  78
ATOM     78  C   UNL A   1      40.557  27.846  29.223  1.00  0.00     0.023 A 
ATOM     79  C   UNL A   1      39.693  26.733  29.164  1.00  0.00     0.012 A 
ATOM     80  C   UNL A   1      41.436  28.094  28.150  1.00  0.00     0.148 A 
ATOM     81  C   UNL A   1      39.739  25.852  28.083  1.00  0.00     0.002 A 
ATOM     82  C   UNL A   1      41.437  27.243  27.051  1.00  0.00     0.091 A 
ATOM     83  F   UNL A   1      42.268  29.142  28.232  1.00  0.00    -0.205 F 
ATOM     84  C   UNL A   1      40.604  26.113  27.023  1.00  0.00     0.022 A 
BRANCH  82  85
ATOM     85  S   UNL A   1      42.451  27.543  25.600  1.00  0.00     0.127 S 
ATOM     86  O   UNL A   1      43.796  27.541  26.175  1.00  0.00    -0.237 OA
ATOM     87  O   UNL A   1      42.144  26.380  24.765  1.00  0.00    -0.237 OA
ATOM     88  O   UNL A   1      42.005  28.816  25.054  1.00  0.00    -0.744 OA
ENDBRANCH  82  85
ENDBRANCH  64  78
BRANCH  65  89
ATOM     89  C   UNL A   1      39.533  33.839  37.180  1.00  0.00     0.023 A 
ATOM     90  C   UNL A   1      40.025  35.158  37.131  1.00  0.00     0.012 A 
ATOM     91  C   UNL A   1      38.876  33.394  38.343  1.00  0.00     0.148 A 
ATOM     92  C   UNL A   1      39.895  36.008  38.230  1.00  0.00     0.002 A 
ATOM     93  C   UNL A   1      38.702  34.263  39.414  1.00  0.00     0.091 A 
ATOM     94  F   UNL A   1      38.417  32.135  38.369  1.00  0.00    -0.205 F 
ATOM     95  C   UNL A   1      39.227  35.564  39.368  1.00  0.00     0.022 A 
BRANCH  93  96
ATOM     96  S   UNL A   1      37.747  33.824  40.871  1.00  0.00     0.127 S 
ATOM     97  O   UNL A   1      37.502  35.131  41.474  1.00  0.00    -0.237 OA
ATOM     98  O   UNL A   1      36.571  33.188  40.277  1.00  0.00    -0.237 OA
ATOM     99  O   UNL A   1      38.594  32.924  41.643  1.00  0.00    -0.744 OA
ENDBRANCH  93  96
ENDBRANCH  65  89
BRANCH  77 100
ATOM    100  C   UNL A   1      44.079  28.832  35.445  1.00  0.00     0.023 A 
ATOM    101  C   UNL A   1      45.350  29.398  35.230  1.00  0.00     0.012 A 
ATOM    102  C   UNL A   1      43.937  27.779  36.371  1.00  0.00     0.148 A 
ATOM    103  C   UNL A   1      46.468  28.898  35.898  1.00  0.00     0.002 A 
ATOM    104  C   UNL A   1      45.044  27.325  37.074  1.00  0.00     0.091 A 
ATOM    105  F   UNL A   1      42.721  27.242  36.547  1.00  0.00    -0.205 F 
ATOM    106  C   UNL A   1      46.314  27.872  36.828  1.00  0.00     0.022 A 
BRANCH 104 107
ATOM    107  S   UNL A   1      44.918  26.084  38.366  1.00  0.00     0.127 S 
ATOM    108  O   UNL A   1      46.304  25.984  38.820  1.00  0.00    -0.237 OA
ATOM    109  O   UNL A   1      44.008  26.721  39.319  1.00  0.00    -0.237 OA
ATOM    110  O   UNL A   1      44.381  24.891  37.726  1.00  0.00    -0.744 OA
ENDBRANCH 104 107
ENDBRANCH  77 100
ENDBRANCH  51  52
ENDBRANCH  43  46
ENDBRANCH  41  42
ENDBRANCH  40  41
ENDBRANCH  39  40
ENDBRANCH   1  39
TORSDOF 21
ENDMDL
MODEL 3
REMARK VINA RESULT:     -12.0      1.870      2.640
REMARK SMILES O=C(N[C@]1(C(=O)NCCCCCCNC(=O)c2ccc(-c3c4nc(c(-c5cccc(S(=O)(=O)[O-])c5F)c5ccc([nH]5)c(-c5cccc(S(=O)(=O)[O-])c5F)c5nc(c(-c6cccc(S(=O)(=O)[O-])c6F)c6ccc3[nH]6)C=C5)C=C4)cc2)CC[C@H](c2ccccc2)CC1)OCC1c2ccccc2-c2ccccc21
REMARK SMILES IDX 10 1 9 2 8 3 7 4 5 5 6 6 4 8 80 9 90 10 81 11 89 12 82 13
REMARK SMILES IDX 3 14 1 15 2 16 91 18 92 19 93 20 94 21 105 22 95 23 99 24
REMARK SMILES IDX 100 25 104 26 96 27 98 28 101 29 103 30 97 31 102 32 83 33
REMARK SMILES IDX 84 34 88 35 85 36 87 37 86 38 11 39 12 40 13 41 14 42 15 43
REMARK SMILES IDX 16 45 17 46 18 47 79 48 19 49 78 50 20 51 21 52 22 53 72 54
REMARK SMILES IDX 23 55 77 56 71 57 73 58 24 59 76 60 70 61 69 62 25 64 57 65
REMARK SMILES IDX 37 66 56 67 38 68 41 69 55 70 74 71 39 72 40 73 54 75 75 76
REMARK SMILES IDX 42 77 26 78 27 79 35 80 28 81 30 82 36 83 29 84 31 85 32 86
REMARK SMILES IDX 33 87 34 88 58 89 59 90 67 91 60 92 62 93 68 94 61 95 63 96
REMARK SMILES IDX 64 97 65 98 66 99 43 100 44 101 52 102 45 103 47 104 53 105
REMARK SMILES IDX 46 106 48 107 49 108 50 109 51 110
REMARK H PARENT 7 7 3 17 14 44 73 63 41 74
REMARK Flexibility Score: inf
ROOT
ATOM      1  C   UNL A   1      32.915  30.405  27.597  1.00  0.00     0.002 C 
ENDROOT
BRANCH   1   2
ATOM      2  C   UNL A   1      32.108  30.153  26.327  1.00  0.00     0.021 C 
BRANCH   2   3
ATOM      3  C   UNL A   1      32.935  29.705  25.132  1.00  0.00     0.116 C 
BRANCH   3   4
ATOM      4  N   UNL A   1      32.205  29.698  23.896  1.00  0.00    -0.354 N 
ATOM      5  C   UNL A   1      31.731  28.710  23.106  1.00  0.00     0.245 C 
ATOM      6  O   UNL A   1      31.125  29.158  22.114  1.00  0.00    -0.272 OA
ATOM      7  H   UNL A   1      32.010  30.600  23.553  1.00  0.00     0.163 HD
BRANCH   5   8
ATOM      8  C   UNL A   1      31.946  27.137  23.266  1.00  0.00     0.122 C 
ATOM      9  C   UNL A   1      30.872  26.132  23.659  1.00  0.00     0.039 C 
ATOM     10  C   UNL A   1      33.132  26.868  24.223  1.00  0.00     0.039 C 
ATOM     11  C   UNL A   1      30.330  26.182  25.057  1.00  0.00     0.011 C 
ATOM     12  C   UNL A   1      32.769  26.722  25.716  1.00  0.00     0.011 C 
ATOM     13  C   UNL A   1      31.443  25.986  26.081  1.00  0.00     0.019 C 
BRANCH   8  14
ATOM     14  N   UNL A   1      32.352  26.788  21.858  1.00  0.00    -0.307 N 
ATOM     15  O   UNL A   1      33.031  25.572  20.094  1.00  0.00    -0.225 OA
ATOM     16  C   UNL A   1      32.962  25.680  21.320  1.00  0.00     0.408 C 
ATOM     17  H   UNL A   1      32.140  27.488  21.197  1.00  0.00     0.168 HD
BRANCH  16  18
ATOM     18  O   UNL A   1      33.646  24.822  22.129  1.00  0.00    -0.449 OA
BRANCH  18  19
ATOM     19  C   UNL A   1      33.454  23.396  22.006  1.00  0.00     0.248 C 
BRANCH  19  20
ATOM     20  C   UNL A   1      33.344  22.664  23.379  1.00  0.00     0.088 C 
ATOM     21  C   UNL A   1      34.643  22.797  24.198  1.00  0.00    -0.029 A 
ATOM     22  C   UNL A   1      33.112  21.144  23.461  1.00  0.00    -0.029 A 
ATOM     23  C   UNL A   1      35.458  23.904  24.373  1.00  0.00     0.005 A 
ATOM     24  C   UNL A   1      34.998  21.552  24.763  1.00  0.00    -0.014 A 
ATOM     25  C   UNL A   1      34.029  20.559  24.367  1.00  0.00    -0.014 A 
ATOM     26  C   UNL A   1      32.180  20.346  22.814  1.00  0.00     0.005 A 
ATOM     27  C   UNL A   1      36.645  23.746  25.098  1.00  0.00     0.000 A 
ATOM     28  C   UNL A   1      36.183  21.391  25.467  1.00  0.00     0.009 A 
ATOM     29  C   UNL A   1      33.963  19.213  24.700  1.00  0.00     0.009 A 
ATOM     30  C   UNL A   1      32.146  18.975  23.109  1.00  0.00     0.000 A 
ATOM     31  C   UNL A   1      37.012  22.500  25.627  1.00  0.00     0.001 A 
ATOM     32  C   UNL A   1      33.008  18.419  24.067  1.00  0.00     0.001 A 
ENDBRANCH  19  20
ENDBRANCH  18  19
ENDBRANCH  16  18
ENDBRANCH   8  14
BRANCH  13  33
ATOM     33  C   UNL A   1      31.652  24.518  26.446  1.00  0.00    -0.045 A 
ATOM     34  C   UNL A   1      32.781  24.033  27.131  1.00  0.00     0.004 A 
ATOM     35  C   UNL A   1      30.716  23.583  25.983  1.00  0.00     0.004 A 
ATOM     36  C   UNL A   1      32.970  22.668  27.341  1.00  0.00     0.000 A 
ATOM     37  C   UNL A   1      30.896  22.218  26.205  1.00  0.00     0.000 A 
ATOM     38  C   UNL A   1      32.024  21.761  26.881  1.00  0.00     0.000 A 
ENDBRANCH  13  33
ENDBRANCH   5   8
ENDBRANCH   3   4
ENDBRANCH   2   3
ENDBRANCH   1   2
BRANCH   1  39
ATOM     39  C   UNL A   1      34.195  31.225  27.404  1.00  0.00     0.002 C 
BRANCH  39  40
ATOM     40  C   UNL A   1      34.013  32.743  27.351  1.00  0.00     0.021 C 
BRANCH  40  41
ATOM     41  C   UNL A   1      32.597  33.214  27.646  1.00  0.00     0.116 C 
BRANCH  41  42
ATOM     42  N   UNL A   1      32.581  34.579  28.150  1.00  0.00    -0.352 N 
ATOM     43  C   UNL A   1      33.282  35.127  29.190  1.00  0.00     0.251 C 
ATOM     44  H   UNL A   1      31.979  35.197  27.674  1.00  0.00     0.163 HD
ATOM     45  O   UNL A   1      32.959  36.223  29.638  1.00  0.00    -0.269 OA
BRANCH  43  46
ATOM     46  C   UNL A   1      34.428  34.392  29.761  1.00  0.00     0.039 A 
ATOM     47  C   UNL A   1      34.213  33.494  30.808  1.00  0.00     0.014 A 
ATOM     48  C   UNL A   1      35.719  34.613  29.272  1.00  0.00     0.014 A 
ATOM     49  C   UNL A   1      35.295  32.803  31.351  1.00  0.00     0.010 A 
ATOM     50  C   UNL A   1      36.774  33.845  29.739  1.00  0.00     0.010 A 
ATOM     51  C   UNL A   1      36.583  32.966  30.814  1.00  0.00    -0.014 A 
BRANCH  51  52
ATOM     52  C   UNL A   1      37.759  32.280  31.398  1.00  0.00     0.031 A 
ATOM     53  C   UNL A   1      38.341  32.780  32.695  1.00  0.00     0.074 A 
ATOM     54  C   UNL A   1      38.345  31.269  30.731  1.00  0.00     0.049 A 
ATOM     55  N   UNL A   1      39.392  32.356  33.345  1.00  0.00    -0.248 NA
ATOM     56  C   UNL A   1      37.678  33.936  33.323  1.00  0.00     0.031 C 
ATOM     57  C   UNL A   1      37.915  30.749  29.430  1.00  0.00     0.029 A 
ATOM     58  N   UNL A   1      39.441  30.509  31.047  1.00  0.00    -0.354 N 
ATOM     59  C   UNL A   1      39.545  33.222  34.422  1.00  0.00     0.074 A 
ATOM     60  C   UNL A   1      38.508  34.223  34.313  1.00  0.00     0.031 C 
ATOM     61  C   UNL A   1      38.724  29.739  29.072  1.00  0.00     0.029 A 
ATOM     62  C   UNL A   1      39.747  29.562  30.097  1.00  0.00     0.049 A 
ATOM     63  H   UNL A   1      39.960  30.628  31.875  1.00  0.00     0.167 HD
ATOM     64  C   UNL A   1      40.446  33.172  35.431  1.00  0.00     0.034 A 
ATOM     65  C   UNL A   1      40.740  28.653  30.064  1.00  0.00     0.034 A 
ATOM     66  C   UNL A   1      41.437  32.140  35.558  1.00  0.00     0.049 A 
ATOM     67  C   UNL A   1      41.697  28.581  31.223  1.00  0.00     0.074 A 
ATOM     68  C   UNL A   1      42.335  31.929  36.589  1.00  0.00     0.029 A 
ATOM     69  N   UNL A   1      41.667  31.148  34.616  1.00  0.00    -0.354 N 
ATOM     70  N   UNL A   1      41.734  29.314  32.310  1.00  0.00    -0.248 NA
ATOM     71  C   UNL A   1      42.723  27.532  31.170  1.00  0.00     0.031 C 
ATOM     72  C   UNL A   1      43.133  30.832  36.252  1.00  0.00     0.029 A 
ATOM     73  C   UNL A   1      42.701  30.329  35.034  1.00  0.00     0.049 A 
ATOM     74  H   UNL A   1      41.168  31.042  33.774  1.00  0.00     0.167 HD
ATOM     75  C   UNL A   1      42.752  28.783  33.094  1.00  0.00     0.074 A 
ATOM     76  C   UNL A   1      43.299  27.661  32.357  1.00  0.00     0.031 C 
ATOM     77  C   UNL A   1      43.196  29.187  34.310  1.00  0.00     0.034 A 
BRANCH  64  78
ATOM     78  C   UNL A   1      40.377  34.248  36.485  1.00  0.00     0.023 A 
ATOM     79  C   UNL A   1      40.843  35.548  36.201  1.00  0.00     0.012 A 
ATOM     80  C   UNL A   1      39.831  33.975  37.755  1.00  0.00     0.148 A 
ATOM     81  C   UNL A   1      40.816  36.544  37.176  1.00  0.00     0.002 A 
ATOM     82  C   UNL A   1      39.756  34.987  38.704  1.00  0.00     0.091 A 
ATOM     83  F   UNL A   1      39.414  32.728  38.019  1.00  0.00    -0.205 F 
ATOM     84  C   UNL A   1      40.263  36.267  38.424  1.00  0.00     0.022 A 
BRANCH  82  85
ATOM     85  S   UNL A   1      38.983  34.751  40.308  1.00  0.00     0.127 S 
ATOM     86  O   UNL A   1      37.847  33.897  39.963  1.00  0.00    -0.237 OA
ATOM     87  O   UNL A   1      40.043  34.081  41.063  1.00  0.00    -0.237 OA
ATOM     88  O   UNL A   1      38.643  36.082  40.789  1.00  0.00    -0.744 OA
ENDBRANCH  82  85
ENDBRANCH  64  78
BRANCH  65  89
ATOM     89  C   UNL A   1      40.820  27.681  28.939  1.00  0.00     0.023 A 
ATOM     90  C   UNL A   1      39.913  26.603  28.894  1.00  0.00     0.012 A 
ATOM     91  C   UNL A   1      41.758  27.832  27.900  1.00  0.00     0.148 A 
ATOM     92  C   UNL A   1      39.960  25.676  27.853  1.00  0.00     0.002 A 
ATOM     93  C   UNL A   1      41.765  26.935  26.838  1.00  0.00     0.091 A 
ATOM     94  F   UNL A   1      42.612  28.863  27.963  1.00  0.00    -0.205 F 
ATOM     95  C   UNL A   1      40.880  25.845  26.822  1.00  0.00     0.022 A 
BRANCH  93  96
ATOM     96  S   UNL A   1      42.825  27.142  25.403  1.00  0.00     0.127 S 
ATOM     97  O   UNL A   1      44.138  27.307  26.022  1.00  0.00    -0.237 OA
ATOM     98  O   UNL A   1      42.629  25.873  24.701  1.00  0.00    -0.237 OA
ATOM     99  O   UNL A   1      42.312  28.308  24.697  1.00  0.00    -0.744 OA
ENDBRANCH  93  96
ENDBRANCH  65  89
BRANCH  77 100
ATOM    100  C   UNL A   1      44.286  28.376  34.959  1.00  0.00     0.023 A 
ATOM    101  C   UNL A   1      45.635  28.597  34.621  1.00  0.00     0.012 A 
ATOM    102  C   UNL A   1      43.969  27.442  35.965  1.00  0.00     0.148 A 
ATOM    103  C   UNL A   1      46.649  27.870  35.245  1.00  0.00     0.002 A 
ATOM    104  C   UNL A   1      44.986  26.764  36.622  1.00  0.00     0.091 A 
ATOM    105  F   UNL A   1      42.677  27.233  36.258  1.00  0.00    -0.205 F 
ATOM    106  C   UNL A   1      46.326  26.965  36.253  1.00  0.00     0.022 A 
BRANCH 104 107
ATOM    107  S   UNL A   1      44.668  25.662  38.004  1.00  0.00     0.127 S 
ATOM    108  O   UNL A   1      43.913  24.588  37.361  1.00  0.00    -0.237 OA
ATOM    109  O   UNL A   1      46.020  25.292  38.424  1.00  0.00    -0.237 OA
ATOM    110  O   UNL A   1      43.928  26.448  38.982  1.00  0.00    -0.744 OA
ENDBRANCH 104 107
ENDBRANCH  77 100
ENDBRANCH  51  52
ENDBRANCH  43  46
ENDBRANCH  41  42
ENDBRANCH  40  41
ENDBRANCH  39  40
ENDBRANCH   1  39
TORSDOF 21
ENDMDL
