MODEL 1
REMARK VINA RESULT:     -11.7      0.000      0.000
REMARK SMILES O=C(NCCCCCCNC(=O)[C@@H]1CCCN(C(=O)[C@H]2CC=CCC2)C1)c1ccc(-c2c3nc(c(-c4cccc(S(=O)(=O)[O-])c4F)c4ccc([nH]4)c(-c4cccc(S(=O)(=O)[O-])c4F)c4nc(c(-c5cccc(S(=O)(=O)[O-])c5F)c5ccc2[nH]5)C=C4)C=C3)cc1
REMARK SMILES IDX 6 1 5 2 4 3 3 4 1 5 2 6 27 8 28 9 89 10 29 11 88 12 30 13
REMARK SMILES IDX 31 14 32 15 82 16 33 17 87 18 81 19 83 20 34 21 86 22 80 23
REMARK SMILES IDX 79 24 35 26 67 27 47 28 66 29 48 30 51 31 65 32 84 33 49 34
REMARK SMILES IDX 50 35 64 37 85 38 52 39 36 40 37 41 45 42 38 43 40 44 46 45
REMARK SMILES IDX 39 46 41 47 42 48 43 49 44 50 68 51 69 52 77 53 70 54 72 55
REMARK SMILES IDX 78 56 71 57 73 58 74 59 75 60 76 61 53 62 54 63 62 64 55 65
REMARK SMILES IDX 57 66 63 67 56 68 58 69 59 70 60 71 61 72 7 73 8 74 9 75
REMARK SMILES IDX 10 76 11 77 12 79 13 80 14 81 26 82 15 83 17 84 16 85 18 86
REMARK SMILES IDX 19 87 20 88 21 89 25 90 22 91 24 92 23 93
REMARK H PARENT 3 7 83 25 51 36 10 78
REMARK Flexibility Score: inf
ROOT
ATOM      1  C   UNL A   1      32.705  27.073  23.677  1.00  0.00     0.002 C 
ENDROOT
BRANCH   1   2
ATOM      2  C   UNL A   1      33.257  27.859  24.870  1.00  0.00     0.021 C 
BRANCH   2   3
ATOM      3  C   UNL A   1      33.611  29.313  24.578  1.00  0.00     0.116 C 
BRANCH   3   4
ATOM      4  N   UNL A   1      32.808  30.252  25.345  1.00  0.00    -0.352 N 
ATOM      5  O   UNL A   1      32.090  31.395  27.141  1.00  0.00    -0.269 OA
ATOM      6  C   UNL A   1      32.995  30.753  26.610  1.00  0.00     0.251 C 
ATOM      7  H   UNL A   1      32.003  30.581  24.883  1.00  0.00     0.163 HD
BRANCH   6   8
ATOM      8  C   UNL A   1      34.257  30.505  27.346  1.00  0.00     0.039 A 
ATOM      9  C   UNL A   1      34.623  29.214  27.732  1.00  0.00     0.014 A 
ATOM     10  C   UNL A   1      35.111  31.577  27.621  1.00  0.00     0.014 A 
ATOM     11  C   UNL A   1      35.754  29.019  28.520  1.00  0.00     0.010 A 
ATOM     12  C   UNL A   1      36.299  31.365  28.331  1.00  0.00     0.010 A 
ATOM     13  C   UNL A   1      36.617  30.088  28.817  1.00  0.00    -0.014 A 
BRANCH  13  14
ATOM     14  C   UNL A   1      37.880  29.814  29.554  1.00  0.00     0.031 A 
ATOM     15  C   UNL A   1      38.145  30.389  30.920  1.00  0.00     0.074 A 
ATOM     16  C   UNL A   1      38.796  29.008  28.979  1.00  0.00     0.049 A 
ATOM     17  N   UNL A   1      39.162  30.177  31.717  1.00  0.00    -0.248 NA
ATOM     18  C   UNL A   1      37.150  31.329  31.462  1.00  0.00     0.031 C 
ATOM     19  C   UNL A   1      38.689  28.445  27.631  1.00  0.00     0.029 A 
ATOM     20  N   UNL A   1      39.988  28.517  29.448  1.00  0.00    -0.354 N 
ATOM     21  C   UNL A   1      38.945  30.966  32.840  1.00  0.00     0.074 A 
ATOM     22  C   UNL A   1      37.707  31.682  32.614  1.00  0.00     0.031 C 
ATOM     23  C   UNL A   1      39.753  27.664  27.393  1.00  0.00     0.029 A 
ATOM     24  C   UNL A   1      40.639  27.707  28.549  1.00  0.00     0.049 A 
ATOM     25  H   UNL A   1      40.342  28.725  30.343  1.00  0.00     0.167 HD
ATOM     26  C   UNL A   1      39.694  31.068  33.966  1.00  0.00     0.034 A 
ATOM     27  C   UNL A   1      41.825  27.073  28.633  1.00  0.00     0.034 A 
ATOM     28  C   UNL A   1      40.917  30.341  34.195  1.00  0.00     0.049 A 
ATOM     29  C   UNL A   1      42.615  27.175  29.907  1.00  0.00     0.074 A 
ATOM     30  C   UNL A   1      41.724  30.348  35.320  1.00  0.00     0.029 A 
ATOM     31  N   UNL A   1      41.515  29.483  33.284  1.00  0.00    -0.354 N 
ATOM     32  N   UNL A   1      42.319  27.821  31.009  1.00  0.00    -0.248 NA
ATOM     33  C   UNL A   1      43.881  26.434  29.963  1.00  0.00     0.031 C 
ATOM     34  C   UNL A   1      42.817  29.505  35.084  1.00  0.00     0.029 A 
ATOM     35  C   UNL A   1      42.679  28.955  33.821  1.00  0.00     0.049 A 
ATOM     36  H   UNL A   1      41.165  29.280  32.387  1.00  0.00     0.167 HD
ATOM     37  C   UNL A   1      43.354  27.550  31.895  1.00  0.00     0.074 A 
ATOM     38  C   UNL A   1      44.261  26.647  31.215  1.00  0.00     0.031 C 
ATOM     39  C   UNL A   1      43.550  28.025  33.150  1.00  0.00     0.034 A 
BRANCH  26  40
ATOM     40  C   UNL A   1      39.187  31.957  35.074  1.00  0.00     0.023 A 
ATOM     41  C   UNL A   1      39.250  33.357  34.915  1.00  0.00     0.012 A 
ATOM     42  C   UNL A   1      38.573  31.420  36.223  1.00  0.00     0.148 A 
ATOM     43  C   UNL A   1      38.734  34.208  35.893  1.00  0.00     0.002 A 
ATOM     44  C   UNL A   1      38.024  32.276  37.174  1.00  0.00     0.091 A 
ATOM     45  F   UNL A   1      38.535  30.088  36.365  1.00  0.00    -0.205 F 
ATOM     46  C   UNL A   1      38.113  33.668  37.015  1.00  0.00     0.022 A 
BRANCH  44  47
ATOM     47  S   UNL A   1      37.135  31.684  38.619  1.00  0.00     0.127 S 
ATOM     48  O   UNL A   1      38.113  31.917  39.682  1.00  0.00    -0.237 OA
ATOM     49  O   UNL A   1      35.976  32.577  38.653  1.00  0.00    -0.237 OA
ATOM     50  O   UNL A   1      36.821  30.288  38.355  1.00  0.00    -0.744 OA
ENDBRANCH  44  47
ENDBRANCH  26  40
BRANCH  27  51
ATOM     51  C   UNL A   1      42.312  26.258  27.486  1.00  0.00     0.023 A 
ATOM     52  C   UNL A   1      43.183  26.830  26.539  1.00  0.00     0.012 A 
ATOM     53  C   UNL A   1      41.946  24.905  27.353  1.00  0.00     0.148 A 
ATOM     54  C   UNL A   1      43.653  26.078  25.461  1.00  0.00     0.002 A 
ATOM     55  C   UNL A   1      42.469  24.144  26.316  1.00  0.00     0.091 A 
ATOM     56  F   UNL A   1      41.102  24.383  28.254  1.00  0.00    -0.205 F 
ATOM     57  C   UNL A   1      43.307  24.732  25.357  1.00  0.00     0.022 A 
BRANCH  55  58
ATOM     58  S   UNL A   1      42.193  22.373  26.204  1.00  0.00     0.127 S 
ATOM     59  O   UNL A   1      42.943  22.028  25.000  1.00  0.00    -0.237 OA
ATOM     60  O   UNL A   1      42.779  21.892  27.456  1.00  0.00    -0.237 OA
ATOM     61  O   UNL A   1      40.747  22.213  26.125  1.00  0.00    -0.744 OA
ENDBRANCH  55  58
ENDBRANCH  27  51
BRANCH  39  62
ATOM     62  C   UNL A   1      44.787  27.560  33.875  1.00  0.00     0.023 A 
ATOM     63  C   UNL A   1      45.971  28.320  33.794  1.00  0.00     0.012 A 
ATOM     64  C   UNL A   1      44.766  26.394  34.663  1.00  0.00     0.148 A 
ATOM     65  C   UNL A   1      47.128  27.903  34.450  1.00  0.00     0.002 A 
ATOM     66  C   UNL A   1      45.910  26.010  35.353  1.00  0.00     0.091 A 
ATOM     67  F   UNL A   1      43.637  25.672  34.711  1.00  0.00    -0.205 F 
ATOM     68  C   UNL A   1      47.095  26.755  35.237  1.00  0.00     0.022 A 
BRANCH  66  69
ATOM     69  S   UNL A   1      45.932  24.594  36.460  1.00  0.00     0.127 S 
ATOM     70  O   UNL A   1      44.793  24.880  37.331  1.00  0.00    -0.237 OA
ATOM     71  O   UNL A   1      45.729  23.476  35.538  1.00  0.00    -0.237 OA
ATOM     72  O   UNL A   1      47.237  24.613  37.104  1.00  0.00    -0.744 OA
ENDBRANCH  66  69
ENDBRANCH  39  62
ENDBRANCH  13  14
ENDBRANCH   6   8
ENDBRANCH   3   4
ENDBRANCH   2   3
ENDBRANCH   1   2
BRANCH   1  73
ATOM     73  C   UNL A   1      31.457  27.663  23.007  1.00  0.00     0.002 C 
BRANCH  73  74
ATOM     74  C   UNL A   1      30.193  27.670  23.873  1.00  0.00     0.021 C 
BRANCH  74  75
ATOM     75  C   UNL A   1      29.730  26.295  24.333  1.00  0.00     0.116 C 
BRANCH  75  76
ATOM     76  N   UNL A   1      30.421  25.847  25.517  1.00  0.00    -0.356 N 
ATOM     77  C   UNL A   1      30.964  24.655  25.855  1.00  0.00     0.224 C 
ATOM     78  H   UNL A   1      30.517  26.539  26.209  1.00  0.00     0.163 HD
ATOM     79  O   UNL A   1      31.554  24.622  26.944  1.00  0.00    -0.275 OA
BRANCH  77  80
ATOM     80  C   UNL A   1      30.854  23.364  25.038  1.00  0.00     0.098 C 
ATOM     81  C   UNL A   1      30.928  22.008  25.733  1.00  0.00     0.017 C 
ATOM     82  C   UNL A   1      31.652  23.454  23.744  1.00  0.00     0.133 C 
ATOM     83  C   UNL A   1      32.197  21.185  25.505  1.00  0.00     0.022 C 
ATOM     84  N   UNL A   1      32.991  22.870  23.809  1.00  0.00    -0.342 N 
ATOM     85  C   UNL A   1      33.019  21.490  24.254  1.00  0.00     0.119 C 
BRANCH  84  86
ATOM     86  C   UNL A   1      34.009  23.550  23.149  1.00  0.00     0.226 C 
ATOM     87  O   UNL A   1      33.806  23.973  22.000  1.00  0.00    -0.275 OA
BRANCH  86  88
ATOM     88  C   UNL A   1      35.410  23.837  23.738  1.00  0.00     0.083 C 
ATOM     89  C   UNL A   1      35.459  24.222  25.217  1.00  0.00     0.040 C 
ATOM     90  C   UNL A   1      36.567  22.942  23.290  1.00  0.00     0.018 C 
ATOM     91  C   UNL A   1      35.990  23.166  26.133  1.00  0.00    -0.030 C 
ATOM     92  C   UNL A   1      36.986  21.836  24.261  1.00  0.00     0.028 C 
ATOM     93  C   UNL A   1      36.683  22.105  25.703  1.00  0.00    -0.031 C 
ENDBRANCH  86  88
ENDBRANCH  84  86
ENDBRANCH  77  80
ENDBRANCH  75  76
ENDBRANCH  74  75
ENDBRANCH  73  74
ENDBRANCH   1  73
TORSDOF 18
ENDMDL
MODEL 2
REMARK VINA RESULT:     -11.5      1.954      2.581
REMARK SMILES O=C(NCCCCCCNC(=O)[C@@H]1CCCN(C(=O)[C@H]2CC=CCC2)C1)c1ccc(-c2c3nc(c(-c4cccc(S(=O)(=O)[O-])c4F)c4ccc([nH]4)c(-c4cccc(S(=O)(=O)[O-])c4F)c4nc(c(-c5cccc(S(=O)(=O)[O-])c5F)c5ccc2[nH]5)C=C4)C=C3)cc1
REMARK SMILES IDX 6 1 5 2 4 3 3 4 1 5 2 6 27 8 28 9 89 10 29 11 88 12 30 13
REMARK SMILES IDX 31 14 32 15 82 16 33 17 87 18 81 19 83 20 34 21 86 22 80 23
REMARK SMILES IDX 79 24 35 26 67 27 47 28 66 29 48 30 51 31 65 32 84 33 49 34
REMARK SMILES IDX 50 35 64 37 85 38 52 39 36 40 37 41 45 42 38 43 40 44 46 45
REMARK SMILES IDX 39 46 41 47 42 48 43 49 44 50 68 51 69 52 77 53 70 54 72 55
REMARK SMILES IDX 78 56 71 57 73 58 74 59 75 60 76 61 53 62 54 63 62 64 55 65
REMARK SMILES IDX 57 66 63 67 56 68 58 69 59 70 60 71 61 72 7 73 8 74 9 75
REMARK SMILES IDX 10 76 11 77 12 79 13 80 14 81 26 82 15 83 17 84 16 85 18 86
REMARK SMILES IDX 19 87 20 88 21 89 25 90 22 91 24 92 23 93
REMARK H PARENT 3 7 83 25 51 36 10 78
REMARK Flexibility Score: inf
ROOT
ATOM      1  C   UNL A   1      33.249  28.227  24.681  1.00  0.00     0.002 C 
ENDROOT
BRANCH   1   2
ATOM      2  C   UNL A   1      34.066  27.813  25.908  1.00  0.00     0.021 C 
BRANCH   2   3
ATOM      3  C   UNL A   1      33.506  28.283  27.246  1.00  0.00     0.116 C 
BRANCH   3   4
ATOM      4  N   UNL A   1      33.427  29.731  27.345  1.00  0.00    -0.352 N 
ATOM      5  O   UNL A   1      33.966  31.803  28.027  1.00  0.00    -0.269 OA
ATOM      6  C   UNL A   1      34.316  30.634  27.877  1.00  0.00     0.251 C 
ATOM      7  H   UNL A   1      32.607  30.127  26.971  1.00  0.00     0.163 HD
BRANCH   6   8
ATOM      8  C   UNL A   1      35.672  30.208  28.295  1.00  0.00     0.039 A 
ATOM      9  C   UNL A   1      35.891  29.633  29.549  1.00  0.00     0.014 A 
ATOM     10  C   UNL A   1      36.738  30.348  27.403  1.00  0.00     0.014 A 
ATOM     11  C   UNL A   1      37.189  29.346  29.964  1.00  0.00     0.010 A 
ATOM     12  C   UNL A   1      38.031  29.968  27.786  1.00  0.00     0.010 A 
ATOM     13  C   UNL A   1      38.275  29.493  29.083  1.00  0.00    -0.014 A 
BRANCH  13  14
ATOM     14  C   UNL A   1      39.627  29.055  29.524  1.00  0.00     0.031 A 
ATOM     15  C   UNL A   1      40.361  29.745  30.643  1.00  0.00     0.074 A 
ATOM     16  C   UNL A   1      40.190  27.995  28.909  1.00  0.00     0.049 A 
ATOM     17  N   UNL A   1      41.508  29.430  31.190  1.00  0.00    -0.248 NA
ATOM     18  C   UNL A   1      39.738  30.947  31.221  1.00  0.00     0.031 C 
ATOM     19  C   UNL A   1      39.612  27.285  27.766  1.00  0.00     0.029 A 
ATOM     20  N   UNL A   1      41.362  27.326  29.155  1.00  0.00    -0.354 N 
ATOM     21  C   UNL A   1      41.757  30.398  32.155  1.00  0.00     0.074 A 
ATOM     22  C   UNL A   1      40.649  31.328  32.108  1.00  0.00     0.031 C 
ATOM     23  C   UNL A   1      40.413  26.264  27.428  1.00  0.00     0.029 A 
ATOM     24  C   UNL A   1      41.583  26.274  28.298  1.00  0.00     0.049 A 
ATOM     25  H   UNL A   1      41.984  27.575  29.876  1.00  0.00     0.167 HD
ATOM     26  C   UNL A   1      42.799  30.490  33.019  1.00  0.00     0.034 A 
ATOM     27  C   UNL A   1      42.616  25.415  28.208  1.00  0.00     0.034 A 
ATOM     28  C   UNL A   1      43.891  29.552  33.075  1.00  0.00     0.049 A 
ATOM     29  C   UNL A   1      43.737  25.519  29.202  1.00  0.00     0.074 A 
ATOM     30  C   UNL A   1      44.971  29.540  33.943  1.00  0.00     0.029 A 
ATOM     31  N   UNL A   1      44.051  28.464  32.230  1.00  0.00    -0.354 N 
ATOM     32  N   UNL A   1      43.881  26.363  30.195  1.00  0.00    -0.248 NA
ATOM     33  C   UNL A   1      44.820  24.534  29.086  1.00  0.00     0.031 C 
ATOM     34  C   UNL A   1      45.789  28.454  33.612  1.00  0.00     0.029 A 
ATOM     35  C   UNL A   1      45.209  27.775  32.554  1.00  0.00     0.049 A 
ATOM     36  H   UNL A   1      43.432  28.219  31.504  1.00  0.00     0.167 HD
ATOM     37  C   UNL A   1      45.060  25.999  30.833  1.00  0.00     0.074 A 
ATOM     38  C   UNL A   1      45.568  24.833  30.139  1.00  0.00     0.031 C 
ATOM     39  C   UNL A   1      45.680  26.592  31.883  1.00  0.00     0.034 A 
BRANCH  26  40
ATOM     40  C   UNL A   1      42.785  31.616  34.023  1.00  0.00     0.023 A 
ATOM     41  C   UNL A   1      43.336  32.864  33.664  1.00  0.00     0.012 A 
ATOM     42  C   UNL A   1      42.158  31.474  35.277  1.00  0.00     0.148 A 
ATOM     43  C   UNL A   1      43.286  33.944  34.545  1.00  0.00     0.002 A 
ATOM     44  C   UNL A   1      42.076  32.568  36.133  1.00  0.00     0.091 A 
ATOM     45  F   UNL A   1      41.652  30.278  35.607  1.00  0.00    -0.205 F 
ATOM     46  C   UNL A   1      42.648  33.799  35.773  1.00  0.00     0.022 A 
BRANCH  44  47
ATOM     47  S   UNL A   1      41.209  32.511  37.706  1.00  0.00     0.127 S 
ATOM     48  O   UNL A   1      42.054  31.598  38.475  1.00  0.00    -0.237 OA
ATOM     49  O   UNL A   1      41.269  33.907  38.141  1.00  0.00    -0.237 OA
ATOM     50  O   UNL A   1      39.870  32.023  37.411  1.00  0.00    -0.744 OA
ENDBRANCH  44  47
ENDBRANCH  26  40
BRANCH  27  51
ATOM     51  C   UNL A   1      42.612  24.359  27.158  1.00  0.00     0.023 A 
ATOM     52  C   UNL A   1      43.322  24.559  25.960  1.00  0.00     0.012 A 
ATOM     53  C   UNL A   1      41.937  23.139  27.360  1.00  0.00     0.148 A 
ATOM     54  C   UNL A   1      43.333  23.577  24.967  1.00  0.00     0.002 A 
ATOM     55  C   UNL A   1      42.005  22.141  26.397  1.00  0.00     0.091 A 
ATOM     56  F   UNL A   1      41.250  22.974  28.499  1.00  0.00    -0.205 F 
ATOM     57  C   UNL A   1      42.686  22.364  25.192  1.00  0.00     0.022 A 
BRANCH  55  58
ATOM     58  S   UNL A   1      41.329  20.502  26.680  1.00  0.00     0.127 S 
ATOM     59  O   UNL A   1      41.772  19.785  25.487  1.00  0.00    -0.237 OA
ATOM     60  O   UNL A   1      41.995  20.105  27.921  1.00  0.00    -0.237 OA
ATOM     61  O   UNL A   1      39.891  20.696  26.812  1.00  0.00    -0.744 OA
ENDBRANCH  55  58
ENDBRANCH  27  51
BRANCH  39  62
ATOM     62  C   UNL A   1      46.971  25.974  32.355  1.00  0.00     0.023 A 
ATOM     63  C   UNL A   1      48.192  26.385  31.784  1.00  0.00     0.012 A 
ATOM     64  C   UNL A   1      46.978  25.017  33.388  1.00  0.00     0.148 A 
ATOM     65  C   UNL A   1      49.396  25.820  32.201  1.00  0.00     0.002 A 
ATOM     66  C   UNL A   1      48.187  24.493  33.832  1.00  0.00     0.091 A 
ATOM     67  F   UNL A   1      45.805  24.622  33.905  1.00  0.00    -0.205 F 
ATOM     68  C   UNL A   1      49.395  24.882  33.231  1.00  0.00     0.022 A 
BRANCH  66  69
ATOM     69  S   UNL A   1      48.284  23.347  35.212  1.00  0.00     0.127 S 
ATOM     70  O   UNL A   1      49.726  23.127  35.316  1.00  0.00    -0.237 OA
ATOM     71  O   UNL A   1      47.706  24.127  36.307  1.00  0.00    -0.237 OA
ATOM     72  O   UNL A   1      47.498  22.185  34.821  1.00  0.00    -0.744 OA
ENDBRANCH  66  69
ENDBRANCH  39  62
ENDBRANCH  13  14
ENDBRANCH   6   8
ENDBRANCH   3   4
ENDBRANCH   2   3
ENDBRANCH   1   2
BRANCH   1  73
ATOM     73  C   UNL A   1      32.779  27.082  23.773  1.00  0.00     0.002 C 
BRANCH  73  74
ATOM     74  C   UNL A   1      31.329  27.187  23.289  1.00  0.00     0.021 C 
BRANCH  74  75
ATOM     75  C   UNL A   1      30.291  26.659  24.269  1.00  0.00     0.116 C 
BRANCH  75  76
ATOM     76  N   UNL A   1      30.887  26.120  25.468  1.00  0.00    -0.356 N 
ATOM     77  C   UNL A   1      31.210  24.858  25.833  1.00  0.00     0.224 C 
ATOM     78  H   UNL A   1      31.099  26.799  26.148  1.00  0.00     0.163 HD
ATOM     79  O   UNL A   1      31.780  24.744  26.927  1.00  0.00    -0.275 OA
BRANCH  77  80
ATOM     80  C   UNL A   1      30.881  23.591  25.039  1.00  0.00     0.098 C 
ATOM     81  C   UNL A   1      30.818  22.239  25.744  1.00  0.00     0.017 C 
ATOM     82  C   UNL A   1      31.602  23.570  23.697  1.00  0.00     0.133 C 
ATOM     83  C   UNL A   1      31.951  21.254  25.448  1.00  0.00     0.022 C 
ATOM     84  N   UNL A   1      32.854  22.814  23.688  1.00  0.00    -0.342 N 
ATOM     85  C   UNL A   1      32.727  21.444  24.146  1.00  0.00     0.119 C 
BRANCH  84  86
ATOM     86  C   UNL A   1      33.910  23.350  22.958  1.00  0.00     0.226 C 
ATOM     87  O   UNL A   1      33.787  23.488  21.731  1.00  0.00    -0.275 OA
BRANCH  86  88
ATOM     88  C   UNL A   1      35.259  23.807  23.559  1.00  0.00     0.083 C 
ATOM     89  C   UNL A   1      35.224  24.316  25.000  1.00  0.00     0.040 C 
ATOM     90  C   UNL A   1      36.503  22.982  23.222  1.00  0.00     0.018 C 
ATOM     91  C   UNL A   1      35.810  23.391  26.019  1.00  0.00    -0.030 C 
ATOM     92  C   UNL A   1      36.980  22.002  24.296  1.00  0.00     0.028 C 
ATOM     93  C   UNL A   1      36.605  22.362  25.701  1.00  0.00    -0.031 C 
ENDBRANCH  86  88
ENDBRANCH  84  86
ENDBRANCH  77  80
ENDBRANCH  75  76
ENDBRANCH  74  75
ENDBRANCH  73  74
ENDBRANCH   1  73
TORSDOF 18
ENDMDL
MODEL 3
REMARK VINA RESULT:     -11.4      5.220     10.243
REMARK SMILES O=C(NCCCCCCNC(=O)[C@@H]1CCCN(C(=O)[C@H]2CC=CCC2)C1)c1ccc(-c2c3nc(c(-c4cccc(S(=O)(=O)[O-])c4F)c4ccc([nH]4)c(-c4cccc(S(=O)(=O)[O-])c4F)c4nc(c(-c5cccc(S(=O)(=O)[O-])c5F)c5ccc2[nH]5)C=C4)C=C3)cc1
REMARK SMILES IDX 6 1 5 2 4 3 3 4 1 5 2 6 27 8 28 9 89 10 29 11 88 12 30 13
REMARK SMILES IDX 31 14 32 15 82 16 33 17 87 18 81 19 83 20 34 21 86 22 80 23
REMARK SMILES IDX 79 24 35 26 67 27 47 28 66 29 48 30 51 31 65 32 84 33 49 34
REMARK SMILES IDX 50 35 64 37 85 38 52 39 36 40 37 41 45 42 38 43 40 44 46 45
REMARK SMILES IDX 39 46 41 47 42 48 43 49 44 50 68 51 69 52 77 53 70 54 72 55
REMARK SMILES IDX 78 56 71 57 73 58 74 59 75 60 76 61 53 62 54 63 62 64 55 65
REMARK SMILES IDX 57 66 63 67 56 68 58 69 59 70 60 71 61 72 7 73 8 74 9 75
REMARK SMILES IDX 10 76 11 77 12 79 13 80 14 81 26 82 15 83 17 84 16 85 18 86
REMARK SMILES IDX 19 87 20 88 21 89 25 90 22 91 24 92 23 93
REMARK H PARENT 3 7 83 25 51 36 10 78
REMARK Flexibility Score: inf
ROOT
ATOM      1  C   UNL A   1      34.693  21.043  24.918  1.00  0.00     0.002 C 
ENDROOT
BRANCH   1   2
ATOM      2  C   UNL A   1      35.851  21.920  24.432  1.00  0.00     0.021 C 
BRANCH   2   3
ATOM      3  C   UNL A   1      36.878  22.285  25.499  1.00  0.00     0.116 C 
BRANCH   3   4
ATOM      4  N   UNL A   1      37.837  21.220  25.744  1.00  0.00    -0.352 N 
ATOM      5  O   UNL A   1      39.837  20.264  26.113  1.00  0.00    -0.269 OA
ATOM      6  C   UNL A   1      39.148  21.283  26.148  1.00  0.00     0.251 C 
ATOM      7  H   UNL A   1      37.491  20.310  25.598  1.00  0.00     0.163 HD
BRANCH   6   8
ATOM      8  C   UNL A   1      39.744  22.564  26.595  1.00  0.00     0.039 A 
ATOM      9  C   UNL A   1      39.324  23.781  26.055  1.00  0.00     0.014 A 
ATOM     10  C   UNL A   1      40.714  22.553  27.602  1.00  0.00     0.014 A 
ATOM     11  C   UNL A   1      39.976  24.960  26.407  1.00  0.00     0.010 A 
ATOM     12  C   UNL A   1      41.302  23.751  28.025  1.00  0.00     0.010 A 
ATOM     13  C   UNL A   1      40.962  24.965  27.409  1.00  0.00    -0.014 A 
BRANCH  13  14
ATOM     14  C   UNL A   1      41.544  26.264  27.843  1.00  0.00     0.031 A 
ATOM     15  C   UNL A   1      42.972  26.635  27.546  1.00  0.00     0.074 A 
ATOM     16  C   UNL A   1      40.750  27.133  28.503  1.00  0.00     0.049 A 
ATOM     17  N   UNL A   1      43.595  27.760  27.791  1.00  0.00    -0.248 NA
ATOM     18  C   UNL A   1      43.815  25.616  26.900  1.00  0.00     0.031 C 
ATOM     19  C   UNL A   1      39.370  26.863  28.912  1.00  0.00     0.029 A 
ATOM     20  N   UNL A   1      40.980  28.412  28.939  1.00  0.00    -0.354 N 
ATOM     21  C   UNL A   1      44.902  27.582  27.353  1.00  0.00     0.074 A 
ATOM     22  C   UNL A   1      44.990  26.230  26.843  1.00  0.00     0.031 C 
ATOM     23  C   UNL A   1      38.866  27.951  29.513  1.00  0.00     0.029 A 
ATOM     24  C   UNL A   1      39.899  28.978  29.574  1.00  0.00     0.049 A 
ATOM     25  H   UNL A   1      41.836  28.881  28.811  1.00  0.00     0.167 HD
ATOM     26  C   UNL A   1      45.927  28.470  27.351  1.00  0.00     0.034 A 
ATOM     27  C   UNL A   1      39.751  30.185  30.153  1.00  0.00     0.034 A 
ATOM     28  C   UNL A   1      45.831  29.821  27.844  1.00  0.00     0.049 A 
ATOM     29  C   UNL A   1      40.892  31.160  30.103  1.00  0.00     0.074 A 
ATOM     30  C   UNL A   1      46.804  30.806  27.847  1.00  0.00     0.029 A 
ATOM     31  N   UNL A   1      44.702  30.377  28.425  1.00  0.00    -0.354 N 
ATOM     32  N   UNL A   1      42.076  31.014  29.559  1.00  0.00    -0.248 NA
ATOM     33  C   UNL A   1      40.667  32.476  30.713  1.00  0.00     0.031 C 
ATOM     34  C   UNL A   1      46.266  31.954  28.443  1.00  0.00     0.029 A 
ATOM     35  C   UNL A   1      44.952  31.691  28.789  1.00  0.00     0.049 A 
ATOM     36  H   UNL A   1      43.847  29.907  28.560  1.00  0.00     0.167 HD
ATOM     37  C   UNL A   1      42.730  32.225  29.746  1.00  0.00     0.074 A 
ATOM     38  C   UNL A   1      41.794  33.106  30.416  1.00  0.00     0.031 C 
ATOM     39  C   UNL A   1      44.000  32.569  29.417  1.00  0.00     0.034 A 
BRANCH  26  40
ATOM     40  C   UNL A   1      47.238  28.033  26.745  1.00  0.00     0.023 A 
ATOM     41  C   UNL A   1      48.278  27.601  27.594  1.00  0.00     0.012 A 
ATOM     42  C   UNL A   1      47.414  27.966  25.348  1.00  0.00     0.148 A 
ATOM     43  C   UNL A   1      49.481  27.133  27.065  1.00  0.00     0.002 A 
ATOM     44  C   UNL A   1      48.602  27.460  24.829  1.00  0.00     0.091 A 
ATOM     45  F   UNL A   1      46.421  28.394  24.557  1.00  0.00    -0.205 F 
ATOM     46  C   UNL A   1      49.638  27.053  25.684  1.00  0.00     0.022 A 
BRANCH  44  47
ATOM     47  S   UNL A   1      48.879  27.242  23.066  1.00  0.00     0.127 S 
ATOM     48  O   UNL A   1      50.339  27.197  23.001  1.00  0.00    -0.237 OA
ATOM     49  O   UNL A   1      48.218  25.962  22.807  1.00  0.00    -0.237 OA
ATOM     50  O   UNL A   1      48.260  28.389  22.417  1.00  0.00    -0.744 OA
ENDBRANCH  44  47
ENDBRANCH  26  40
BRANCH  27  51
ATOM     51  C   UNL A   1      38.456  30.544  30.795  1.00  0.00     0.023 A 
ATOM     52  C   UNL A   1      38.219  30.195  32.138  1.00  0.00     0.012 A 
ATOM     53  C   UNL A   1      37.474  31.266  30.089  1.00  0.00     0.148 A 
ATOM     54  C   UNL A   1      37.013  30.530  32.756  1.00  0.00     0.002 A 
ATOM     55  C   UNL A   1      36.304  31.653  30.729  1.00  0.00     0.091 A 
ATOM     56  F   UNL A   1      37.711  31.573  28.806  1.00  0.00    -0.205 F 
ATOM     57  C   UNL A   1      36.062  31.270  32.056  1.00  0.00     0.022 A 
BRANCH  55  58
ATOM     58  S   UNL A   1      35.106  32.734  29.944  1.00  0.00     0.127 S 
ATOM     59  O   UNL A   1      34.552  31.867  28.908  1.00  0.00    -0.237 OA
ATOM     60  O   UNL A   1      34.195  33.037  31.049  1.00  0.00    -0.237 OA
ATOM     61  O   UNL A   1      35.872  33.882  29.474  1.00  0.00    -0.744 OA
ENDBRANCH  55  58
ENDBRANCH  27  51
BRANCH  39  62
ATOM     62  C   UNL A   1      44.443  33.968  29.761  1.00  0.00     0.023 A 
ATOM     63  C   UNL A   1      45.080  34.215  30.994  1.00  0.00     0.012 A 
ATOM     64  C   UNL A   1      44.262  35.028  28.852  1.00  0.00     0.148 A 
ATOM     65  C   UNL A   1      45.490  35.503  31.335  1.00  0.00     0.002 A 
ATOM     66  C   UNL A   1      44.717  36.300  29.179  1.00  0.00     0.091 A 
ATOM     67  F   UNL A   1      43.636  34.779  27.692  1.00  0.00    -0.205 F 
ATOM     68  C   UNL A   1      45.318  36.543  30.425  1.00  0.00     0.022 A 
BRANCH  66  69
ATOM     69  S   UNL A   1      44.616  37.678  28.030  1.00  0.00     0.127 S 
ATOM     70  O   UNL A   1      45.201  38.764  28.815  1.00  0.00    -0.237 OA
ATOM     71  O   UNL A   1      45.445  37.216  26.916  1.00  0.00    -0.237 OA
ATOM     72  O   UNL A   1      43.203  37.824  27.708  1.00  0.00    -0.744 OA
ENDBRANCH  66  69
ENDBRANCH  39  62
ENDBRANCH  13  14
ENDBRANCH   6   8
ENDBRANCH   3   4
ENDBRANCH   2   3
ENDBRANCH   1   2
BRANCH   1  73
ATOM     73  C   UNL A   1      33.338  21.289  24.240  1.00  0.00     0.002 C 
BRANCH  73  74
ATOM     74  C   UNL A   1      33.374  22.236  23.036  1.00  0.00     0.021 C 
BRANCH  74  75
ATOM     75  C   UNL A   1      32.327  23.340  23.063  1.00  0.00     0.116 C 
BRANCH  75  76
ATOM     76  N   UNL A   1      32.596  24.380  22.100  1.00  0.00    -0.356 N 
ATOM     77  C   UNL A   1      33.251  25.559  22.196  1.00  0.00     0.224 C 
ATOM     78  H   UNL A   1      32.233  24.197  21.203  1.00  0.00     0.163 HD
ATOM     79  O   UNL A   1      33.360  26.202  21.142  1.00  0.00    -0.275 OA
BRANCH  77  80
ATOM     80  C   UNL A   1      33.803  26.166  23.489  1.00  0.00     0.098 C 
ATOM     81  C   UNL A   1      33.832  25.341  24.772  1.00  0.00     0.017 C 
ATOM     82  C   UNL A   1      33.335  27.604  23.674  1.00  0.00     0.133 C 
ATOM     83  C   UNL A   1      32.841  25.736  25.868  1.00  0.00     0.022 C 
ATOM     84  N   UNL A   1      32.160  27.759  24.531  1.00  0.00    -0.342 N 
ATOM     85  C   UNL A   1      32.297  27.163  25.846  1.00  0.00     0.119 C 
BRANCH  84  86
ATOM     86  C   UNL A   1      31.216  28.704  24.143  1.00  0.00     0.226 C 
ATOM     87  O   UNL A   1      31.116  29.758  24.791  1.00  0.00    -0.275 OA
BRANCH  86  88
ATOM     88  C   UNL A   1      30.258  28.556  22.939  1.00  0.00     0.083 C 
ATOM     89  C   UNL A   1      29.014  27.696  23.163  1.00  0.00     0.040 C 
ATOM     90  C   UNL A   1      30.011  29.790  22.069  1.00  0.00     0.018 C 
ATOM     91  C   UNL A   1      27.728  28.450  23.279  1.00  0.00    -0.030 C 
ATOM     92  C   UNL A   1      28.704  30.546  22.318  1.00  0.00     0.028 C 
ATOM     93  C   UNL A   1      27.590  29.724  22.889  1.00  0.00    -0.031 C 
ENDBRANCH  86  88
ENDBRANCH  84  86
ENDBRANCH  77  80
ENDBRANCH  75  76
ENDBRANCH  74  75
ENDBRANCH  73  74
ENDBRANCH   1  73
TORSDOF 18
ENDMDL
