MODEL 1
REMARK VINA RESULT:     -12.6      0.000      0.000
REMARK SMILES Cc1ccccc1/[NH+]=C1\S[C@@H](CC(=O)Nc2ccc(C(=O)NCCCCCCNC(=O)c3ccc(-c4c5nc(c(-c6cccc(S(=O)(=O)[O-])c6F)c6ccc([nH]6)c(-c6cccc(S(=O)(=O)[O-])c6F)c6nc(c(-c7cccc(S(=O)(=O)[O-])c7F)c7ccc4[nH]7)C=C6)C=C5)cc3)cc2)C(=O)N1C
REMARK SMILES IDX 25 1 24 2 23 3 22 4 20 5 21 6 19 8 16 9 17 10 96 11 18 12
REMARK SMILES IDX 95 13 15 14 13 15 14 16 12 18 11 19 8 20 9 21 10 23 99 24
REMARK SMILES IDX 97 25 100 26 98 27 7 28 1 29 2 30 3 31 4 32 6 33 5 34 26 35
REMARK SMILES IDX 27 36 28 37 29 38 30 39 31 41 32 42 33 43 94 44 34 45 93 46
REMARK SMILES IDX 35 47 36 48 37 49 87 50 38 51 92 52 86 53 88 54 39 55 91 56
REMARK SMILES IDX 85 57 84 58 40 60 72 61 52 62 71 63 53 64 56 65 70 66 89 67
REMARK SMILES IDX 54 68 55 69 69 71 90 72 57 73 41 74 42 75 50 76 43 77 45 78
REMARK SMILES IDX 51 79 44 80 46 81 47 82 48 83 49 84 73 85 74 86 82 87 75 88
REMARK SMILES IDX 77 89 83 90 76 91 78 92 79 93 80 94 81 95 58 96 59 97 67 98
REMARK SMILES IDX 60 99 62 100 68 101 61 102 63 103 64 104 65 105 66 106
REMARK H PARENT 22 7 15 17 8 22 29 40 88 59 56 70
REMARK Flexibility Score: inf
ROOT
ATOM      1  C   UNL A   1      33.826  29.360  26.595  1.00  0.00     0.002 C 
ENDROOT
BRANCH   1   2
ATOM      2  C   UNL A   1      33.182  29.934  25.322  1.00  0.00     0.021 C 
BRANCH   2   3
ATOM      3  C   UNL A   1      33.568  29.216  24.025  1.00  0.00     0.116 C 
BRANCH   3   4
ATOM      4  N   UNL A   1      32.475  29.220  23.060  1.00  0.00    -0.352 N 
ATOM      5  C   UNL A   1      31.276  28.548  23.020  1.00  0.00     0.251 C 
ATOM      6  O   UNL A   1      30.441  28.881  22.179  1.00  0.00    -0.269 OA
ATOM      7  H   UNL A   1      32.624  29.817  22.292  1.00  0.00     0.163 HD
BRANCH   5   8
ATOM      8  C   UNL A   1      30.929  27.468  23.979  1.00  0.00     0.039 A 
ATOM      9  C   UNL A   1      30.068  25.430  25.695  1.00  0.00     0.041 A 
ATOM     10  C   UNL A   1      30.581  26.622  26.202  1.00  0.00     0.027 A 
ATOM     11  C   UNL A   1      30.156  25.174  24.334  1.00  0.00     0.027 A 
ATOM     12  C   UNL A   1      31.014  27.639  25.355  1.00  0.00     0.016 A 
ATOM     13  C   UNL A   1      30.571  26.203  23.475  1.00  0.00     0.016 A 
BRANCH   9  14
ATOM     14  N   UNL A   1      29.441  24.518  26.553  1.00  0.00    -0.326 N 
ATOM     15  C   UNL A   1      30.021  23.377  27.071  1.00  0.00     0.226 C 
ATOM     16  O   UNL A   1      29.335  22.519  27.626  1.00  0.00    -0.275 OA
ATOM     17  H   UNL A   1      28.510  24.706  26.807  1.00  0.00     0.169 HD
BRANCH  15  18
ATOM     18  C   UNL A   1      31.540  23.333  27.145  1.00  0.00     0.128 C 
BRANCH  18  19
ATOM     19  C   UNL A   1      32.259  22.637  26.010  1.00  0.00     0.183 C 
ATOM     20  N   UNL A   1      34.661  20.181  24.657  1.00  0.00    -0.234 N 
ATOM     21  C   UNL A   1      34.141  21.080  25.407  1.00  0.00     0.319 C 
ATOM     22  H   UNL A   1      35.447  20.473  24.143  1.00  0.00     0.313 HD
ATOM     23  S   UNL A   1      32.865  20.999  26.575  1.00  0.00    -0.022 SA
ATOM     24  N   UNL A   1      34.532  22.382  25.303  1.00  0.00    -0.193 N 
ATOM     25  C   UNL A   1      33.507  23.293  25.448  1.00  0.00     0.324 C 
ATOM     26  C   UNL A   1      35.834  22.788  24.810  1.00  0.00     0.301 C 
ATOM     27  O   UNL A   1      33.546  24.454  25.062  1.00  0.00    -0.245 OA
BRANCH  20  28
ATOM     28  C   UNL A   1      34.287  18.845  24.451  1.00  0.00     0.128 A 
ATOM     29  C   UNL A   1      32.230  19.190  22.914  1.00  0.00     0.049 C 
ATOM     30  C   UNL A   1      33.259  18.353  23.616  1.00  0.00    -0.004 A 
ATOM     31  C   UNL A   1      33.174  16.964  23.366  1.00  0.00     0.008 A 
ATOM     32  C   UNL A   1      34.134  16.080  23.848  1.00  0.00     0.001 A 
ATOM     33  C   UNL A   1      35.232  17.921  24.936  1.00  0.00     0.052 A 
ATOM     34  C   UNL A   1      35.172  16.561  24.628  1.00  0.00     0.004 A 
ENDBRANCH  20  28
ENDBRANCH  18  19
ENDBRANCH  15  18
ENDBRANCH   9  14
ENDBRANCH   5   8
ENDBRANCH   3   4
ENDBRANCH   2   3
ENDBRANCH   1   2
BRANCH   1  35
ATOM     35  C   UNL A   1      34.884  30.239  27.286  1.00  0.00     0.002 C 
BRANCH  35  36
ATOM     36  C   UNL A   1      34.346  31.311  28.234  1.00  0.00     0.021 C 
BRANCH  36  37
ATOM     37  C   UNL A   1      34.316  32.709  27.631  1.00  0.00     0.116 C 
BRANCH  37  38
ATOM     38  N   UNL A   1      33.617  33.679  28.460  1.00  0.00    -0.352 N 
ATOM     39  C   UNL A   1      33.903  34.160  29.730  1.00  0.00     0.251 C 
ATOM     40  H   UNL A   1      32.805  34.058  28.051  1.00  0.00     0.163 HD
ATOM     41  O   UNL A   1      33.066  34.834  30.299  1.00  0.00    -0.269 OA
BRANCH  39  42
ATOM     42  C   UNL A   1      35.260  33.969  30.311  1.00  0.00     0.039 A 
ATOM     43  C   UNL A   1      36.367  34.268  29.501  1.00  0.00     0.014 A 
ATOM     44  C   UNL A   1      35.448  33.314  31.521  1.00  0.00     0.014 A 
ATOM     45  C   UNL A   1      37.603  33.681  29.773  1.00  0.00     0.010 A 
ATOM     46  C   UNL A   1      36.633  32.650  31.739  1.00  0.00     0.010 A 
ATOM     47  C   UNL A   1      37.684  32.780  30.826  1.00  0.00    -0.014 A 
BRANCH  47  48
ATOM     48  C   UNL A   1      38.786  31.870  31.072  1.00  0.00     0.031 A 
ATOM     49  C   UNL A   1      38.759  30.513  30.499  1.00  0.00     0.074 A 
ATOM     50  C   UNL A   1      39.938  32.381  31.560  1.00  0.00     0.049 A 
ATOM     51  N   UNL A   1      39.651  29.624  30.761  1.00  0.00    -0.248 NA
ATOM     52  C   UNL A   1      37.698  30.031  29.623  1.00  0.00     0.031 C 
ATOM     53  C   UNL A   1      41.285  31.852  31.378  1.00  0.00     0.029 A 
ATOM     54  N   UNL A   1      40.096  33.387  32.519  1.00  0.00    -0.354 N 
ATOM     55  C   UNL A   1      39.464  28.584  29.882  1.00  0.00     0.074 A 
ATOM     56  C   UNL A   1      38.163  28.817  29.308  1.00  0.00     0.031 C 
ATOM     57  C   UNL A   1      42.068  32.316  32.362  1.00  0.00     0.029 A 
ATOM     58  C   UNL A   1      41.201  33.001  33.301  1.00  0.00     0.049 A 
ATOM     59  H   UNL A   1      39.546  34.196  32.627  1.00  0.00     0.167 HD
ATOM     60  C   UNL A   1      40.508  27.740  29.660  1.00  0.00     0.034 A 
ATOM     61  C   UNL A   1      41.144  32.758  34.644  1.00  0.00     0.034 A 
ATOM     62  C   UNL A   1      41.606  28.000  30.606  1.00  0.00     0.049 A 
ATOM     63  C   UNL A   1      41.637  31.375  35.041  1.00  0.00     0.074 A 
ATOM     64  C   UNL A   1      42.862  28.573  30.504  1.00  0.00     0.029 A 
ATOM     65  N   UNL A   1      41.370  27.825  31.962  1.00  0.00    -0.354 N 
ATOM     66  N   UNL A   1      42.064  30.464  34.212  1.00  0.00    -0.248 NA
ATOM     67  C   UNL A   1      41.605  30.884  36.416  1.00  0.00     0.031 C 
ATOM     68  C   UNL A   1      43.379  28.743  31.822  1.00  0.00     0.029 A 
ATOM     69  C   UNL A   1      42.453  28.241  32.719  1.00  0.00     0.049 A 
ATOM     70  H   UNL A   1      40.541  27.452  32.338  1.00  0.00     0.167 HD
ATOM     71  C   UNL A   1      42.183  29.253  34.859  1.00  0.00     0.074 A 
ATOM     72  C   UNL A   1      41.936  29.591  36.252  1.00  0.00     0.031 C 
ATOM     73  C   UNL A   1      42.395  28.084  34.169  1.00  0.00     0.034 A 
BRANCH  60  74
ATOM     74  C   UNL A   1      40.671  26.768  28.500  1.00  0.00     0.023 A 
ATOM     75  C   UNL A   1      39.714  25.731  28.405  1.00  0.00     0.012 A 
ATOM     76  C   UNL A   1      41.729  26.717  27.562  1.00  0.00     0.148 A 
ATOM     77  C   UNL A   1      39.823  24.683  27.483  1.00  0.00     0.002 A 
ATOM     78  C   UNL A   1      41.816  25.695  26.610  1.00  0.00     0.091 A 
ATOM     79  F   UNL A   1      42.716  27.609  27.608  1.00  0.00    -0.205 F 
ATOM     80  C   UNL A   1      40.875  24.665  26.582  1.00  0.00     0.022 A 
BRANCH  78  81
ATOM     81  S   UNL A   1      43.141  25.621  25.389  1.00  0.00     0.127 S 
ATOM     82  O   UNL A   1      44.336  25.679  26.232  1.00  0.00    -0.237 OA
ATOM     83  O   UNL A   1      42.912  24.325  24.749  1.00  0.00    -0.237 OA
ATOM     84  O   UNL A   1      42.955  26.768  24.507  1.00  0.00    -0.744 OA
ENDBRANCH  78  81
ENDBRANCH  60  74
BRANCH  61  85
ATOM     85  C   UNL A   1      40.061  33.516  35.336  1.00  0.00     0.023 A 
ATOM     86  C   UNL A   1      38.759  32.964  35.288  1.00  0.00     0.012 A 
ATOM     87  C   UNL A   1      40.363  34.466  36.328  1.00  0.00     0.148 A 
ATOM     88  C   UNL A   1      37.823  33.253  36.282  1.00  0.00     0.002 A 
ATOM     89  C   UNL A   1      39.425  34.743  37.320  1.00  0.00     0.091 A 
ATOM     90  F   UNL A   1      41.586  35.010  36.342  1.00  0.00    -0.205 F 
ATOM     91  C   UNL A   1      38.169  34.114  37.317  1.00  0.00     0.022 A 
BRANCH  89  92
ATOM     92  S   UNL A   1      39.827  35.778  38.736  1.00  0.00     0.127 S 
ATOM     93  O   UNL A   1      41.208  35.387  39.000  1.00  0.00    -0.237 OA
ATOM     94  O   UNL A   1      39.657  37.125  38.191  1.00  0.00    -0.237 OA
ATOM     95  O   UNL A   1      38.847  35.420  39.750  1.00  0.00    -0.744 OA
ENDBRANCH  89  92
ENDBRANCH  61  85
BRANCH  73  96
ATOM     96  C   UNL A   1      42.468  26.665  34.748  1.00  0.00     0.023 A 
ATOM     97  C   UNL A   1      41.405  26.065  35.445  1.00  0.00     0.012 A 
ATOM     98  C   UNL A   1      43.649  25.872  34.638  1.00  0.00     0.148 A 
ATOM     99  C   UNL A   1      41.451  24.733  35.886  1.00  0.00     0.002 A 
ATOM    100  C   UNL A   1      43.689  24.543  35.056  1.00  0.00     0.091 A 
ATOM    101  F   UNL A   1      44.789  26.413  34.191  1.00  0.00    -0.205 F 
ATOM    102  C   UNL A   1      42.582  23.961  35.664  1.00  0.00     0.022 A 
BRANCH 100 103
ATOM    103  S   UNL A   1      45.150  23.522  34.795  1.00  0.00     0.127 S 
ATOM    104  O   UNL A   1      44.608  22.176  34.973  1.00  0.00    -0.237 OA
ATOM    105  O   UNL A   1      45.517  23.854  33.416  1.00  0.00    -0.237 OA
ATOM    106  O   UNL A   1      46.114  23.962  35.792  1.00  0.00    -0.744 OA
ENDBRANCH 100 103
ENDBRANCH  73  96
ENDBRANCH  47  48
ENDBRANCH  39  42
ENDBRANCH  37  38
ENDBRANCH  36  37
ENDBRANCH  35  36
ENDBRANCH   1  35
TORSDOF 20
ENDMDL
MODEL 2
REMARK VINA RESULT:     -12.5      2.434      3.429
REMARK SMILES Cc1ccccc1/[NH+]=C1\S[C@@H](CC(=O)Nc2ccc(C(=O)NCCCCCCNC(=O)c3ccc(-c4c5nc(c(-c6cccc(S(=O)(=O)[O-])c6F)c6ccc([nH]6)c(-c6cccc(S(=O)(=O)[O-])c6F)c6nc(c(-c7cccc(S(=O)(=O)[O-])c7F)c7ccc4[nH]7)C=C6)C=C5)cc3)cc2)C(=O)N1C
REMARK SMILES IDX 25 1 24 2 23 3 22 4 20 5 21 6 19 8 16 9 17 10 96 11 18 12
REMARK SMILES IDX 95 13 15 14 13 15 14 16 12 18 11 19 8 20 9 21 10 23 99 24
REMARK SMILES IDX 97 25 100 26 98 27 7 28 1 29 2 30 3 31 4 32 6 33 5 34 26 35
REMARK SMILES IDX 27 36 28 37 29 38 30 39 31 41 32 42 33 43 94 44 34 45 93 46
REMARK SMILES IDX 35 47 36 48 37 49 87 50 38 51 92 52 86 53 88 54 39 55 91 56
REMARK SMILES IDX 85 57 84 58 40 60 72 61 52 62 71 63 53 64 56 65 70 66 89 67
REMARK SMILES IDX 54 68 55 69 69 71 90 72 57 73 41 74 42 75 50 76 43 77 45 78
REMARK SMILES IDX 51 79 44 80 46 81 47 82 48 83 49 84 73 85 74 86 82 87 75 88
REMARK SMILES IDX 77 89 83 90 76 91 78 92 79 93 80 94 81 95 58 96 59 97 67 98
REMARK SMILES IDX 60 99 62 100 68 101 61 102 63 103 64 104 65 105 66 106
REMARK H PARENT 22 7 15 17 8 22 29 40 88 59 56 70
REMARK Flexibility Score: inf
ROOT
ATOM      1  C   UNL A   1      32.229  28.071  26.790  1.00  0.00     0.002 C 
ENDROOT
BRANCH   1   2
ATOM      2  C   UNL A   1      31.806  29.502  26.420  1.00  0.00     0.021 C 
BRANCH   2   3
ATOM      3  C   UNL A   1      32.017  29.879  24.950  1.00  0.00     0.116 C 
BRANCH   3   4
ATOM      4  N   UNL A   1      30.752  30.080  24.256  1.00  0.00    -0.352 N 
ATOM      5  C   UNL A   1      29.921  29.218  23.581  1.00  0.00     0.251 C 
ATOM      6  O   UNL A   1      28.804  29.613  23.248  1.00  0.00    -0.269 OA
ATOM      7  H   UNL A   1      30.431  31.010  24.275  1.00  0.00     0.163 HD
BRANCH   5   8
ATOM      8  C   UNL A   1      30.298  27.813  23.278  1.00  0.00     0.039 A 
ATOM      9  C   UNL A   1      31.126  25.165  22.901  1.00  0.00     0.041 A 
ATOM     10  C   UNL A   1      31.389  26.140  21.940  1.00  0.00     0.027 A 
ATOM     11  C   UNL A   1      30.288  25.465  23.965  1.00  0.00     0.027 A 
ATOM     12  C   UNL A   1      30.979  27.458  22.120  1.00  0.00     0.016 A 
ATOM     13  C   UNL A   1      29.889  26.795  24.161  1.00  0.00     0.016 A 
BRANCH   9  14
ATOM     14  N   UNL A   1      31.733  23.907  22.804  1.00  0.00    -0.326 N 
ATOM     15  C   UNL A   1      33.090  23.679  22.688  1.00  0.00     0.226 C 
ATOM     16  O   UNL A   1      33.517  22.566  22.380  1.00  0.00    -0.275 OA
ATOM     17  H   UNL A   1      31.143  23.120  22.819  1.00  0.00     0.169 HD
BRANCH  15  18
ATOM     18  C   UNL A   1      34.030  24.769  23.182  1.00  0.00     0.128 C 
BRANCH  18  19
ATOM     19  C   UNL A   1      34.821  24.470  24.437  1.00  0.00     0.183 C 
ATOM     20  N   UNL A   1      37.179  22.446  26.431  1.00  0.00    -0.234 N 
ATOM     21  C   UNL A   1      36.232  22.760  25.627  1.00  0.00     0.319 C 
ATOM     22  H   UNL A   1      36.889  22.004  27.261  1.00  0.00     0.313 HD
ATOM     23  S   UNL A   1      36.260  23.408  24.022  1.00  0.00    -0.022 SA
ATOM     24  N   UNL A   1      34.930  22.681  26.025  1.00  0.00    -0.193 N 
ATOM     25  C   UNL A   1      34.131  23.698  25.547  1.00  0.00     0.324 C 
ATOM     26  C   UNL A   1      34.466  21.789  27.070  1.00  0.00     0.301 C 
ATOM     27  O   UNL A   1      33.054  24.024  26.030  1.00  0.00    -0.245 OA
BRANCH  20  28
ATOM     28  C   UNL A   1      38.564  22.631  26.315  1.00  0.00     0.128 A 
ATOM     29  C   UNL A   1      38.783  25.001  27.338  1.00  0.00     0.049 C 
ATOM     30  C   UNL A   1      39.333  23.721  26.780  1.00  0.00    -0.004 A 
ATOM     31  C   UNL A   1      40.743  23.629  26.769  1.00  0.00     0.008 A 
ATOM     32  C   UNL A   1      41.392  22.456  26.398  1.00  0.00     0.001 A 
ATOM     33  C   UNL A   1      39.251  21.465  25.931  1.00  0.00     0.052 A 
ATOM     34  C   UNL A   1      40.644  21.366  25.986  1.00  0.00     0.004 A 
ENDBRANCH  20  28
ENDBRANCH  18  19
ENDBRANCH  15  18
ENDBRANCH   9  14
ENDBRANCH   5   8
ENDBRANCH   3   4
ENDBRANCH   2   3
ENDBRANCH   1   2
BRANCH   1  35
ATOM     35  C   UNL A   1      33.742  27.802  26.873  1.00  0.00     0.002 C 
BRANCH  35  36
ATOM     36  C   UNL A   1      34.649  29.008  26.626  1.00  0.00     0.021 C 
BRANCH  36  37
ATOM     37  C   UNL A   1      35.102  29.711  27.898  1.00  0.00     0.116 C 
BRANCH  37  38
ATOM     38  N   UNL A   1      34.501  31.023  28.077  1.00  0.00    -0.352 N 
ATOM     39  C   UNL A   1      34.806  32.047  28.963  1.00  0.00     0.251 C 
ATOM     40  H   UNL A   1      33.752  31.218  27.469  1.00  0.00     0.163 HD
ATOM     41  O   UNL A   1      34.041  32.988  29.052  1.00  0.00    -0.269 OA
BRANCH  39  42
ATOM     42  C   UNL A   1      36.115  32.053  29.673  1.00  0.00     0.039 A 
ATOM     43  C   UNL A   1      37.203  32.671  29.036  1.00  0.00     0.014 A 
ATOM     44  C   UNL A   1      36.326  31.292  30.816  1.00  0.00     0.014 A 
ATOM     45  C   UNL A   1      38.505  32.309  29.382  1.00  0.00     0.010 A 
ATOM     46  C   UNL A   1      37.600  30.852  31.093  1.00  0.00     0.010 A 
ATOM     47  C   UNL A   1      38.679  31.309  30.329  1.00  0.00    -0.014 A 
BRANCH  47  48
ATOM     48  C   UNL A   1      39.921  30.611  30.598  1.00  0.00     0.031 A 
ATOM     49  C   UNL A   1      40.261  29.399  29.834  1.00  0.00     0.074 A 
ATOM     50  C   UNL A   1      40.868  31.250  31.320  1.00  0.00     0.049 A 
ATOM     51  N   UNL A   1      41.294  28.675  30.090  1.00  0.00    -0.248 NA
ATOM     52  C   UNL A   1      39.439  28.874  28.749  1.00  0.00     0.031 C 
ATOM     53  C   UNL A   1      42.311  31.043  31.262  1.00  0.00     0.029 A 
ATOM     54  N   UNL A   1      40.689  32.082  32.429  1.00  0.00    -0.354 N 
ATOM     55  C   UNL A   1      41.443  27.789  29.050  1.00  0.00     0.074 A 
ATOM     56  C   UNL A   1      40.195  27.852  28.332  1.00  0.00     0.031 C 
ATOM     57  C   UNL A   1      42.855  31.475  32.407  1.00  0.00     0.029 A 
ATOM     58  C   UNL A   1      41.758  31.796  33.300  1.00  0.00     0.049 A 
ATOM     59  H   UNL A   1      39.965  32.733  32.573  1.00  0.00     0.167 HD
ATOM     60  C   UNL A   1      42.667  27.225  28.861  1.00  0.00     0.034 A 
ATOM     61  C   UNL A   1      41.607  31.315  34.569  1.00  0.00     0.034 A 
ATOM     62  C   UNL A   1      43.566  27.531  29.987  1.00  0.00     0.049 A 
ATOM     63  C   UNL A   1      42.348  30.012  34.826  1.00  0.00     0.074 A 
ATOM     64  C   UNL A   1      44.666  28.354  30.156  1.00  0.00     0.029 A 
ATOM     65  N   UNL A   1      43.225  27.077  31.252  1.00  0.00    -0.354 N 
ATOM     66  N   UNL A   1      43.057  29.365  33.943  1.00  0.00    -0.248 NA
ATOM     67  C   UNL A   1      42.272  29.291  36.094  1.00  0.00     0.031 C 
ATOM     68  C   UNL A   1      44.981  28.390  31.546  1.00  0.00     0.029 A 
ATOM     69  C   UNL A   1      44.096  27.563  32.213  1.00  0.00     0.049 A 
ATOM     70  H   UNL A   1      42.462  26.485  31.443  1.00  0.00     0.167 HD
ATOM     71  C   UNL A   1      43.370  28.109  34.416  1.00  0.00     0.074 A 
ATOM     72  C   UNL A   1      42.899  28.140  35.791  1.00  0.00     0.031 C 
ATOM     73  C   UNL A   1      43.913  27.146  33.600  1.00  0.00     0.034 A 
BRANCH  60  74
ATOM     74  C   UNL A   1      43.170  26.525  27.608  1.00  0.00     0.023 A 
ATOM     75  C   UNL A   1      42.576  26.914  26.384  1.00  0.00     0.012 A 
ATOM     76  C   UNL A   1      44.092  25.454  27.531  1.00  0.00     0.148 A 
ATOM     77  C   UNL A   1      42.832  26.255  25.175  1.00  0.00     0.002 A 
ATOM     78  C   UNL A   1      44.383  24.823  26.317  1.00  0.00     0.091 A 
ATOM     79  F   UNL A   1      44.657  24.969  28.635  1.00  0.00    -0.205 F 
ATOM     80  C   UNL A   1      43.739  25.208  25.140  1.00  0.00     0.022 A 
BRANCH  78  81
ATOM     81  S   UNL A   1      45.572  23.472  26.189  1.00  0.00     0.127 S 
ATOM     82  O   UNL A   1      46.636  23.917  27.090  1.00  0.00    -0.237 OA
ATOM     83  O   UNL A   1      44.803  22.326  26.676  1.00  0.00    -0.237 OA
ATOM     84  O   UNL A   1      45.952  23.387  24.784  1.00  0.00    -0.744 OA
ENDBRANCH  78  81
ENDBRANCH  60  74
BRANCH  61  85
ATOM     85  C   UNL A   1      40.312  31.706  35.198  1.00  0.00     0.023 A 
ATOM     86  C   UNL A   1      39.181  30.914  34.887  1.00  0.00     0.012 A 
ATOM     87  C   UNL A   1      40.281  32.517  36.347  1.00  0.00     0.148 A 
ATOM     88  C   UNL A   1      38.101  30.832  35.767  1.00  0.00     0.002 A 
ATOM     89  C   UNL A   1      39.202  32.423  37.224  1.00  0.00     0.091 A 
ATOM     90  F   UNL A   1      41.341  33.291  36.612  1.00  0.00    -0.205 F 
ATOM     91  C   UNL A   1      38.129  31.559  36.953  1.00  0.00     0.022 A 
BRANCH  89  92
ATOM     92  S   UNL A   1      39.203  33.266  38.813  1.00  0.00     0.127 S 
ATOM     93  O   UNL A   1      39.371  34.657  38.405  1.00  0.00    -0.237 OA
ATOM     94  O   UNL A   1      37.881  32.930  39.342  1.00  0.00    -0.237 OA
ATOM     95  O   UNL A   1      40.306  32.670  39.551  1.00  0.00    -0.744 OA
ENDBRANCH  89  92
ENDBRANCH  61  85
BRANCH  73  96
ATOM     96  C   UNL A   1      44.234  25.692  33.968  1.00  0.00     0.023 A 
ATOM     97  C   UNL A   1      43.266  24.673  33.987  1.00  0.00     0.012 A 
ATOM     98  C   UNL A   1      45.549  25.290  34.348  1.00  0.00     0.148 A 
ATOM     99  C   UNL A   1      43.593  23.329  34.232  1.00  0.00     0.002 A 
ATOM    100  C   UNL A   1      45.879  23.954  34.572  1.00  0.00     0.091 A 
ATOM    101  F   UNL A   1      46.498  26.206  34.575  1.00  0.00    -0.205 F 
ATOM    102  C   UNL A   1      44.905  22.965  34.494  1.00  0.00     0.022 A 
BRANCH 100 103
ATOM    103  S   UNL A   1      47.572  23.453  34.929  1.00  0.00     0.127 S 
ATOM    104  O   UNL A   1      47.489  22.001  34.788  1.00  0.00    -0.237 OA
ATOM    105  O   UNL A   1      48.324  24.126  33.867  1.00  0.00    -0.237 OA
ATOM    106  O   UNL A   1      47.850  23.954  36.267  1.00  0.00    -0.744 OA
ENDBRANCH 100 103
ENDBRANCH  73  96
ENDBRANCH  47  48
ENDBRANCH  39  42
ENDBRANCH  37  38
ENDBRANCH  36  37
ENDBRANCH  35  36
ENDBRANCH   1  35
TORSDOF 20
ENDMDL
MODEL 3
REMARK VINA RESULT:     -12.5      2.322      3.179
REMARK SMILES Cc1ccccc1/[NH+]=C1\S[C@@H](CC(=O)Nc2ccc(C(=O)NCCCCCCNC(=O)c3ccc(-c4c5nc(c(-c6cccc(S(=O)(=O)[O-])c6F)c6ccc([nH]6)c(-c6cccc(S(=O)(=O)[O-])c6F)c6nc(c(-c7cccc(S(=O)(=O)[O-])c7F)c7ccc4[nH]7)C=C6)C=C5)cc3)cc2)C(=O)N1C
REMARK SMILES IDX 25 1 24 2 23 3 22 4 20 5 21 6 19 8 16 9 17 10 96 11 18 12
REMARK SMILES IDX 95 13 15 14 13 15 14 16 12 18 11 19 8 20 9 21 10 23 99 24
REMARK SMILES IDX 97 25 100 26 98 27 7 28 1 29 2 30 3 31 4 32 6 33 5 34 26 35
REMARK SMILES IDX 27 36 28 37 29 38 30 39 31 41 32 42 33 43 94 44 34 45 93 46
REMARK SMILES IDX 35 47 36 48 37 49 87 50 38 51 92 52 86 53 88 54 39 55 91 56
REMARK SMILES IDX 85 57 84 58 40 60 72 61 52 62 71 63 53 64 56 65 70 66 89 67
REMARK SMILES IDX 54 68 55 69 69 71 90 72 57 73 41 74 42 75 50 76 43 77 45 78
REMARK SMILES IDX 51 79 44 80 46 81 47 82 48 83 49 84 73 85 74 86 82 87 75 88
REMARK SMILES IDX 77 89 83 90 76 91 78 92 79 93 80 94 81 95 58 96 59 97 67 98
REMARK SMILES IDX 60 99 62 100 68 101 61 102 63 103 64 104 65 105 66 106
REMARK H PARENT 22 7 15 17 8 22 29 40 88 59 56 70
REMARK Flexibility Score: inf
ROOT
ATOM      1  C   UNL A   1      31.636  29.009  26.761  1.00  0.00     0.002 C 
ENDROOT
BRANCH   1   2
ATOM      2  C   UNL A   1      31.768  29.801  25.450  1.00  0.00     0.021 C 
BRANCH   2   3
ATOM      3  C   UNL A   1      31.617  28.966  24.174  1.00  0.00     0.116 C 
BRANCH   3   4
ATOM      4  N   UNL A   1      30.690  27.857  24.360  1.00  0.00    -0.352 N 
ATOM      5  C   UNL A   1      30.888  26.508  24.536  1.00  0.00     0.251 C 
ATOM      6  O   UNL A   1      29.929  25.809  24.866  1.00  0.00    -0.269 OA
ATOM      7  H   UNL A   1      29.743  28.125  24.360  1.00  0.00     0.163 HD
BRANCH   5   8
ATOM      8  C   UNL A   1      32.219  25.866  24.390  1.00  0.00     0.039 A 
ATOM      9  C   UNL A   1      34.627  24.458  24.153  1.00  0.00     0.041 A 
ATOM     10  C   UNL A   1      34.491  25.489  25.080  1.00  0.00     0.027 A 
ATOM     11  C   UNL A   1      33.628  24.249  23.213  1.00  0.00     0.027 A 
ATOM     12  C   UNL A   1      33.298  26.195  25.202  1.00  0.00     0.016 A 
ATOM     13  C   UNL A   1      32.417  24.944  23.345  1.00  0.00     0.016 A 
BRANCH   9  14
ATOM     14  N   UNL A   1      35.751  23.623  24.196  1.00  0.00    -0.326 N 
ATOM     15  C   UNL A   1      36.349  23.145  25.345  1.00  0.00     0.226 C 
ATOM     16  O   UNL A   1      37.457  22.610  25.301  1.00  0.00    -0.275 OA
ATOM     17  H   UNL A   1      36.146  23.355  23.337  1.00  0.00     0.169 HD
BRANCH  15  18
ATOM     18  C   UNL A   1      35.501  23.086  26.607  1.00  0.00     0.128 C 
BRANCH  18  19
ATOM     19  C   UNL A   1      34.411  22.037  26.647  1.00  0.00     0.183 C 
ATOM     20  N   UNL A   1      32.081  19.656  25.055  1.00  0.00    -0.234 N 
ATOM     21  C   UNL A   1      32.770  20.714  25.274  1.00  0.00     0.319 C 
ATOM     22  H   UNL A   1      31.107  19.771  25.137  1.00  0.00     0.313 HD
ATOM     23  S   UNL A   1      34.465  21.031  25.113  1.00  0.00    -0.022 SA
ATOM     24  N   UNL A   1      32.182  21.828  25.797  1.00  0.00    -0.193 N 
ATOM     25  C   UNL A   1      32.969  22.510  26.701  1.00  0.00     0.324 C 
ATOM     26  C   UNL A   1      30.773  22.133  25.649  1.00  0.00     0.301 C 
ATOM     27  O   UNL A   1      32.549  23.306  27.531  1.00  0.00    -0.245 OA
BRANCH  20  28
ATOM     28  C   UNL A   1      32.495  18.360  24.717  1.00  0.00     0.128 A 
ATOM     29  C   UNL A   1      32.482  18.547  22.133  1.00  0.00     0.049 C 
ATOM     30  C   UNL A   1      32.766  17.845  23.430  1.00  0.00    -0.004 A 
ATOM     31  C   UNL A   1      33.385  16.581  23.304  1.00  0.00     0.008 A 
ATOM     32  C   UNL A   1      33.820  15.872  24.419  1.00  0.00     0.001 A 
ATOM     33  C   UNL A   1      32.934  17.610  25.824  1.00  0.00     0.052 A 
ATOM     34  C   UNL A   1      33.603  16.392  25.684  1.00  0.00     0.004 A 
ENDBRANCH  20  28
ENDBRANCH  18  19
ENDBRANCH  15  18
ENDBRANCH   9  14
ENDBRANCH   5   8
ENDBRANCH   3   4
ENDBRANCH   2   3
ENDBRANCH   1   2
BRANCH   1  35
ATOM     35  C   UNL A   1      32.895  28.924  27.643  1.00  0.00     0.002 C 
BRANCH  35  36
ATOM     36  C   UNL A   1      34.209  29.323  26.969  1.00  0.00     0.021 C 
BRANCH  36  37
ATOM     37  C   UNL A   1      35.079  30.247  27.812  1.00  0.00     0.116 C 
BRANCH  37  38
ATOM     38  N   UNL A   1      34.370  31.418  28.303  1.00  0.00    -0.352 N 
ATOM     39  C   UNL A   1      34.667  32.287  29.342  1.00  0.00     0.251 C 
ATOM     40  H   UNL A   1      33.540  31.628  27.816  1.00  0.00     0.163 HD
ATOM     41  O   UNL A   1      33.823  33.093  29.687  1.00  0.00    -0.269 OA
BRANCH  39  42
ATOM     42  C   UNL A   1      36.040  32.322  29.916  1.00  0.00     0.039 A 
ATOM     43  C   UNL A   1      37.014  33.074  29.240  1.00  0.00     0.014 A 
ATOM     44  C   UNL A   1      36.418  31.475  30.950  1.00  0.00     0.014 A 
ATOM     45  C   UNL A   1      38.365  32.777  29.417  1.00  0.00     0.010 A 
ATOM     46  C   UNL A   1      37.739  31.105  31.054  1.00  0.00     0.010 A 
ATOM     47  C   UNL A   1      38.700  31.708  30.237  1.00  0.00    -0.014 A 
BRANCH  47  48
ATOM     48  C   UNL A   1      40.005  31.080  30.310  1.00  0.00     0.031 A 
ATOM     49  C   UNL A   1      40.200  29.728  29.759  1.00  0.00     0.074 A 
ATOM     50  C   UNL A   1      41.072  31.857  30.602  1.00  0.00     0.049 A 
ATOM     51  N   UNL A   1      41.300  29.073  29.880  1.00  0.00    -0.248 NA
ATOM     52  C   UNL A   1      39.153  28.982  29.068  1.00  0.00     0.031 C 
ATOM     53  C   UNL A   1      42.459  31.635  30.210  1.00  0.00     0.029 A 
ATOM     54  N   UNL A   1      41.143  32.913  31.516  1.00  0.00    -0.354 N 
ATOM     55  C   UNL A   1      41.222  27.980  29.051  1.00  0.00     0.074 A 
ATOM     56  C   UNL A   1      39.829  27.890  28.692  1.00  0.00     0.031 C 
ATOM     57  C   UNL A   1      43.258  32.305  31.051  1.00  0.00     0.029 A 
ATOM     58  C   UNL A   1      42.414  32.820  32.113  1.00  0.00     0.049 A 
ATOM     59  H   UNL A   1      40.446  33.583  31.704  1.00  0.00     0.167 HD
ATOM     60  C   UNL A   1      42.383  27.382  28.670  1.00  0.00     0.034 A 
ATOM     61  C   UNL A   1      42.623  32.629  33.448  1.00  0.00     0.034 A 
ATOM     62  C   UNL A   1      43.526  27.923  29.426  1.00  0.00     0.049 A 
ATOM     63  C   UNL A   1      43.473  31.410  33.772  1.00  0.00     0.074 A 
ATOM     64  C   UNL A   1      44.586  28.757  29.119  1.00  0.00     0.029 A 
ATOM     65  N   UNL A   1      43.549  27.759  30.803  1.00  0.00    -0.354 N 
ATOM     66  N   UNL A   1      43.963  30.582  32.892  1.00  0.00    -0.248 NA
ATOM     67  C   UNL A   1      43.767  30.986  35.138  1.00  0.00     0.031 C 
ATOM     68  C   UNL A   1      45.249  29.096  30.335  1.00  0.00     0.029 A 
ATOM     69  C   UNL A   1      44.613  28.440  31.372  1.00  0.00     0.049 A 
ATOM     70  H   UNL A   1      42.895  27.226  31.310  1.00  0.00     0.167 HD
ATOM     71  C   UNL A   1      44.454  29.459  33.520  1.00  0.00     0.074 A 
ATOM     72  C   UNL A   1      44.355  29.793  34.932  1.00  0.00     0.031 C 
ATOM     73  C   UNL A   1      44.817  28.337  32.814  1.00  0.00     0.034 A 
BRANCH  60  74
ATOM     74  C   UNL A   1      42.581  26.421  27.507  1.00  0.00     0.023 A 
ATOM     75  C   UNL A   1      42.967  26.994  26.272  1.00  0.00     0.012 A 
ATOM     76  C   UNL A   1      42.325  25.030  27.485  1.00  0.00     0.148 A 
ATOM     77  C   UNL A   1      43.040  26.255  25.085  1.00  0.00     0.002 A 
ATOM     78  C   UNL A   1      42.441  24.281  26.309  1.00  0.00     0.091 A 
ATOM     79  F   UNL A   1      41.893  24.406  28.580  1.00  0.00    -0.205 F 
ATOM     80  C   UNL A   1      42.779  24.895  25.103  1.00  0.00     0.022 A 
BRANCH  78  81
ATOM     81  S   UNL A   1      42.143  22.502  26.262  1.00  0.00     0.127 S 
ATOM     82  O   UNL A   1      42.814  22.048  27.481  1.00  0.00    -0.237 OA
ATOM     83  O   UNL A   1      40.683  22.423  26.308  1.00  0.00    -0.237 OA
ATOM     84  O   UNL A   1      42.733  22.017  25.019  1.00  0.00    -0.744 OA
ENDBRANCH  78  81
ENDBRANCH  60  74
BRANCH  61  85
ATOM     85  C   UNL A   1      41.516  33.156  34.300  1.00  0.00     0.023 A 
ATOM     86  C   UNL A   1      41.384  34.562  34.382  1.00  0.00     0.012 A 
ATOM     87  C   UNL A   1      40.420  32.346  34.645  1.00  0.00     0.148 A 
ATOM     88  C   UNL A   1      40.151  35.148  34.673  1.00  0.00     0.002 A 
ATOM     89  C   UNL A   1      39.191  32.940  34.928  1.00  0.00     0.091 A 
ATOM     90  F   UNL A   1      40.567  31.016  34.600  1.00  0.00    -0.205 F 
ATOM     91  C   UNL A   1      39.047  34.337  34.911  1.00  0.00     0.022 A 
BRANCH  89  92
ATOM     92  S   UNL A   1      37.701  31.959  35.162  1.00  0.00     0.127 S 
ATOM     93  O   UNL A   1      37.747  31.697  36.597  1.00  0.00    -0.237 OA
ATOM     94  O   UNL A   1      36.652  32.883  34.732  1.00  0.00    -0.237 OA
ATOM     95  O   UNL A   1      37.872  30.808  34.289  1.00  0.00    -0.744 OA
ENDBRANCH  89  92
ENDBRANCH  61  85
BRANCH  73  96
ATOM     96  C   UNL A   1      45.301  26.998  33.385  1.00  0.00     0.023 A 
ATOM     97  C   UNL A   1      46.634  26.560  33.291  1.00  0.00     0.012 A 
ATOM     98  C   UNL A   1      44.405  26.091  34.026  1.00  0.00     0.148 A 
ATOM     99  C   UNL A   1      47.081  25.377  33.901  1.00  0.00     0.002 A 
ATOM    100  C   UNL A   1      44.852  24.927  34.649  1.00  0.00     0.091 A 
ATOM    101  F   UNL A   1      43.084  26.299  33.981  1.00  0.00    -0.205 F 
ATOM    102  C   UNL A   1      46.197  24.575  34.607  1.00  0.00     0.022 A 
BRANCH 100 103
ATOM    103  S   UNL A   1      43.723  23.859  35.560  1.00  0.00     0.127 S 
ATOM    104  O   UNL A   1      44.637  22.861  36.112  1.00  0.00    -0.237 OA
ATOM    105  O   UNL A   1      43.157  24.779  36.549  1.00  0.00    -0.237 OA
ATOM    106  O   UNL A   1      42.765  23.377  34.575  1.00  0.00    -0.744 OA
ENDBRANCH 100 103
ENDBRANCH  73  96
ENDBRANCH  47  48
ENDBRANCH  39  42
ENDBRANCH  37  38
ENDBRANCH  36  37
ENDBRANCH  35  36
ENDBRANCH   1  35
TORSDOF 20
ENDMDL
