MODEL 1
REMARK VINA RESULT:     -12.1      0.000      0.000
REMARK SMILES N#Cc1ccc2c(c1)C=C(C(=O)NCCCCCCNC(=O)c1ccc(-c3c4nc(c(-c5cccc(S(=O)(=O)[O-])c5F)c5ccc([nH]5)c(-c5cccc(S(=O)(=O)[O-])c5F)c5nc(c(-c6cccc(S(=O)(=O)[O-])c6F)c6ccc3[nH]6)C=C5)C=C4)cc1)[C@@H](C(F)(F)F)O2
REMARK SMILES IDX 17 1 16 2 15 3 14 4 13 5 11 6 12 7 10 9 3 10 4 11 8 12 5 13
REMARK SMILES IDX 7 14 6 15 9 16 91 17 86 18 2 19 1 20 87 21 88 22 89 23 90 24
REMARK SMILES IDX 18 25 19 26 20 27 21 28 22 30 23 31 24 32 85 33 25 34 84 35
REMARK SMILES IDX 26 36 27 37 28 38 78 39 29 40 83 41 77 42 79 43 30 44 82 45
REMARK SMILES IDX 76 46 75 47 31 49 63 50 43 51 62 52 44 53 47 54 61 55 80 56
REMARK SMILES IDX 45 57 46 58 60 60 81 61 48 62 32 63 33 64 41 65 34 66 36 67
REMARK SMILES IDX 42 68 35 69 37 70 38 71 39 72 40 73 64 74 65 75 73 76 66 77
REMARK SMILES IDX 68 78 74 79 67 80 69 81 70 82 71 83 72 84 49 85 50 86 58 87
REMARK SMILES IDX 51 88 53 89 59 90 52 91 54 92 55 93 56 94 57 95
REMARK H PARENT 13 8 20 29 79 48 47 59
REMARK Flexibility Score: inf
ROOT
ATOM      1  C   UNL A   1      32.004  29.885  26.987  1.00  0.00     0.002 C 
ENDROOT
BRANCH   1   2
ATOM      2  C   UNL A   1      33.418  29.316  27.168  1.00  0.00     0.002 C 
BRANCH   2   3
ATOM      3  C   UNL A   1      33.988  28.619  25.931  1.00  0.00     0.021 C 
BRANCH   3   4
ATOM      4  C   UNL A   1      33.768  27.111  25.944  1.00  0.00     0.116 C 
BRANCH   4   5
ATOM      5  N   UNL A   1      33.782  26.554  24.602  1.00  0.00    -0.352 N 
ATOM      6  C   UNL A   1      32.933  26.485  23.551  1.00  0.00     0.251 C 
ATOM      7  O   UNL A   1      33.373  25.917  22.545  1.00  0.00    -0.270 OA
ATOM      8  H   UNL A   1      34.638  26.108  24.405  1.00  0.00     0.163 HD
BRANCH   6   9
ATOM      9  C   UNL A   1      31.542  27.032  23.539  1.00  0.00     0.067 C 
ATOM     10  C   UNL A   1      28.597  30.812  22.863  1.00  0.00     0.053 A 
ATOM     11  C   UNL A   1      27.488  29.970  23.000  1.00  0.00     0.023 A 
ATOM     12  C   UNL A   1      29.894  30.286  22.942  1.00  0.00     0.031 A 
ATOM     13  C   UNL A   1      27.676  28.609  23.221  1.00  0.00     0.048 A 
ATOM     14  C   UNL A   1      30.084  28.918  23.163  1.00  0.00     0.018 A 
ATOM     15  C   UNL A   1      28.967  28.095  23.309  1.00  0.00     0.128 A 
ATOM     16  C   UNL A   1      31.417  28.327  23.195  1.00  0.00     0.025 C 
ATOM     17  O   UNL A   1      29.051  26.753  23.503  1.00  0.00    -0.475 OA
ATOM     18  C   UNL A   1      30.334  26.224  23.919  1.00  0.00     0.314 C 
BRANCH  10  19
ATOM     19  C   UNL A   1      28.398  32.211  22.630  1.00  0.00     0.099 C 
ATOM     20  N   UNL A   1      28.242  33.346  22.435  1.00  0.00    -0.192 NA
ENDBRANCH  10  19
BRANCH  18  21
ATOM     21  C   UNL A   1      30.282  25.917  25.428  1.00  0.00     0.429 C 
ATOM     22  F   UNL A   1      30.637  27.008  26.147  1.00  0.00    -0.167 F 
ATOM     23  F   UNL A   1      29.046  25.564  25.851  1.00  0.00    -0.167 F 
ATOM     24  F   UNL A   1      31.115  24.908  25.772  1.00  0.00    -0.167 F 
ENDBRANCH  18  21
ENDBRANCH   6   9
ENDBRANCH   4   5
ENDBRANCH   3   4
ENDBRANCH   2   3
ENDBRANCH   1   2
BRANCH   1  25
ATOM     25  C   UNL A   1      31.946  31.388  26.713  1.00  0.00     0.021 C 
BRANCH  25  26
ATOM     26  C   UNL A   1      33.081  32.176  27.352  1.00  0.00     0.116 C 
BRANCH  26  27
ATOM     27  N   UNL A   1      32.725  33.572  27.558  1.00  0.00    -0.352 N 
ATOM     28  C   UNL A   1      33.178  34.452  28.511  1.00  0.00     0.251 C 
ATOM     29  H   UNL A   1      32.065  33.937  26.925  1.00  0.00     0.163 HD
ATOM     30  O   UNL A   1      32.617  35.530  28.672  1.00  0.00    -0.269 OA
BRANCH  28  31
ATOM     31  C   UNL A   1      34.324  34.059  29.355  1.00  0.00     0.039 A 
ATOM     32  C   UNL A   1      35.625  34.376  28.958  1.00  0.00     0.014 A 
ATOM     33  C   UNL A   1      34.098  33.304  30.508  1.00  0.00     0.014 A 
ATOM     34  C   UNL A   1      36.699  33.770  29.594  1.00  0.00     0.010 A 
ATOM     35  C   UNL A   1      35.187  32.784  31.208  1.00  0.00     0.010 A 
ATOM     36  C   UNL A   1      36.493  32.957  30.719  1.00  0.00    -0.014 A 
BRANCH  36  37
ATOM     37  C   UNL A   1      37.649  32.280  31.358  1.00  0.00     0.031 A 
ATOM     38  C   UNL A   1      38.150  32.725  32.708  1.00  0.00     0.074 A 
ATOM     39  C   UNL A   1      38.235  31.240  30.733  1.00  0.00     0.049 A 
ATOM     40  N   UNL A   1      39.165  32.270  33.396  1.00  0.00    -0.248 NA
ATOM     41  C   UNL A   1      37.424  33.822  33.373  1.00  0.00     0.031 C 
ATOM     42  C   UNL A   1      37.839  30.708  29.427  1.00  0.00     0.029 A 
ATOM     43  N   UNL A   1      39.285  30.443  31.112  1.00  0.00    -0.354 N 
ATOM     44  C   UNL A   1      39.227  33.047  34.546  1.00  0.00     0.074 A 
ATOM     45  C   UNL A   1      38.152  34.010  34.465  1.00  0.00     0.031 C 
ATOM     46  C   UNL A   1      38.617  29.661  29.124  1.00  0.00     0.029 A 
ATOM     47  C   UNL A   1      39.610  29.488  30.180  1.00  0.00     0.049 A 
ATOM     48  H   UNL A   1      39.761  30.547  31.968  1.00  0.00     0.167 HD
ATOM     49  C   UNL A   1      40.091  32.955  35.584  1.00  0.00     0.034 A 
ATOM     50  C   UNL A   1      40.611  28.588  30.155  1.00  0.00     0.034 A 
ATOM     51  C   UNL A   1      41.134  31.972  35.682  1.00  0.00     0.049 A 
ATOM     52  C   UNL A   1      41.575  28.528  31.300  1.00  0.00     0.074 A 
ATOM     53  C   UNL A   1      42.029  31.777  36.720  1.00  0.00     0.029 A 
ATOM     54  N   UNL A   1      41.431  31.028  34.713  1.00  0.00    -0.354 N 
ATOM     55  N   UNL A   1      41.575  29.228  32.407  1.00  0.00    -0.248 NA
ATOM     56  C   UNL A   1      42.664  27.547  31.206  1.00  0.00     0.031 C 
ATOM     57  C   UNL A   1      42.886  30.734  36.365  1.00  0.00     0.029 A 
ATOM     58  C   UNL A   1      42.505  30.258  35.121  1.00  0.00     0.049 A 
ATOM     59  H   UNL A   1      40.949  30.922  33.861  1.00  0.00     0.167 HD
ATOM     60  C   UNL A   1      42.655  28.765  33.150  1.00  0.00     0.074 A 
ATOM     61  C   UNL A   1      43.275  27.710  32.373  1.00  0.00     0.031 C 
ATOM     62  C   UNL A   1      43.094  29.188  34.358  1.00  0.00     0.034 A 
BRANCH  49  63
ATOM     63  C   UNL A   1      39.938  33.922  36.725  1.00  0.00     0.023 A 
ATOM     64  C   UNL A   1      40.293  35.274  36.543  1.00  0.00     0.012 A 
ATOM     65  C   UNL A   1      39.342  33.516  37.935  1.00  0.00     0.148 A 
ATOM     66  C   UNL A   1      40.063  36.206  37.555  1.00  0.00     0.002 A 
ATOM     67  C   UNL A   1      39.091  34.456  38.927  1.00  0.00     0.091 A 
ATOM     68  F   UNL A   1      39.021  32.223  38.084  1.00  0.00    -0.205 F 
ATOM     69  C   UNL A   1      39.453  35.801  38.739  1.00  0.00     0.022 A 
BRANCH  67  70
ATOM     70  S   UNL A   1      38.278  34.047  40.474  1.00  0.00     0.127 S 
ATOM     71  O   UNL A   1      39.276  33.185  41.110  1.00  0.00    -0.237 OA
ATOM     72  O   UNL A   1      38.122  35.361  41.095  1.00  0.00    -0.237 OA
ATOM     73  O   UNL A   1      37.033  33.384  40.115  1.00  0.00    -0.744 OA
ENDBRANCH  67  70
ENDBRANCH  49  63
BRANCH  50  74
ATOM     74  C   UNL A   1      40.715  27.663  28.996  1.00  0.00     0.023 A 
ATOM     75  C   UNL A   1      39.789  26.612  28.870  1.00  0.00     0.012 A 
ATOM     76  C   UNL A   1      41.661  27.882  27.976  1.00  0.00     0.148 A 
ATOM     77  C   UNL A   1      39.800  25.793  27.740  1.00  0.00     0.002 A 
ATOM     78  C   UNL A   1      41.644  27.086  26.838  1.00  0.00     0.091 A 
ATOM     79  F   UNL A   1      42.523  28.898  28.122  1.00  0.00    -0.205 F 
ATOM     80  C   UNL A   1      40.718  26.038  26.721  1.00  0.00     0.022 A 
BRANCH  78  81
ATOM     81  S   UNL A   1      42.732  27.371  25.438  1.00  0.00     0.127 S 
ATOM     82  O   UNL A   1      42.604  26.115  24.702  1.00  0.00    -0.237 OA
ATOM     83  O   UNL A   1      42.098  28.526  24.802  1.00  0.00    -0.237 OA
ATOM     84  O   UNL A   1      44.049  27.629  26.001  1.00  0.00    -0.744 OA
ENDBRANCH  78  81
ENDBRANCH  50  74
BRANCH  62  85
ATOM     85  C   UNL A   1      44.301  28.515  34.950  1.00  0.00     0.023 A 
ATOM     86  C   UNL A   1      45.574  29.088  34.767  1.00  0.00     0.012 A 
ATOM     87  C   UNL A   1      44.155  27.396  35.793  1.00  0.00     0.148 A 
ATOM     88  C   UNL A   1      46.687  28.555  35.415  1.00  0.00     0.002 A 
ATOM     89  C   UNL A   1      45.263  26.888  36.459  1.00  0.00     0.091 A 
ATOM     90  F   UNL A   1      42.930  26.870  35.948  1.00  0.00    -0.205 F 
ATOM     91  C   UNL A   1      46.530  27.464  36.269  1.00  0.00     0.022 A 
BRANCH  89  92
ATOM     92  S   UNL A   1      45.156  25.521  37.618  1.00  0.00     0.127 S 
ATOM     93  O   UNL A   1      46.560  25.326  37.978  1.00  0.00    -0.237 OA
ATOM     94  O   UNL A   1      44.325  26.083  38.682  1.00  0.00    -0.237 OA
ATOM     95  O   UNL A   1      44.549  24.415  36.888  1.00  0.00    -0.744 OA
ENDBRANCH  89  92
ENDBRANCH  62  85
ENDBRANCH  36  37
ENDBRANCH  28  31
ENDBRANCH  26  27
ENDBRANCH  25  26
ENDBRANCH   1  25
TORSDOF 18
ENDMDL
MODEL 2
REMARK VINA RESULT:     -12.0      5.709      8.404
REMARK SMILES N#Cc1ccc2c(c1)C=C(C(=O)NCCCCCCNC(=O)c1ccc(-c3c4nc(c(-c5cccc(S(=O)(=O)[O-])c5F)c5ccc([nH]5)c(-c5cccc(S(=O)(=O)[O-])c5F)c5nc(c(-c6cccc(S(=O)(=O)[O-])c6F)c6ccc3[nH]6)C=C5)C=C4)cc1)[C@@H](C(F)(F)F)O2
REMARK SMILES IDX 17 1 16 2 15 3 14 4 13 5 11 6 12 7 10 9 3 10 4 11 8 12 5 13
REMARK SMILES IDX 7 14 6 15 9 16 91 17 86 18 2 19 1 20 87 21 88 22 89 23 90 24
REMARK SMILES IDX 18 25 19 26 20 27 21 28 22 30 23 31 24 32 85 33 25 34 84 35
REMARK SMILES IDX 26 36 27 37 28 38 78 39 29 40 83 41 77 42 79 43 30 44 82 45
REMARK SMILES IDX 76 46 75 47 31 49 63 50 43 51 62 52 44 53 47 54 61 55 80 56
REMARK SMILES IDX 45 57 46 58 60 60 81 61 48 62 32 63 33 64 41 65 34 66 36 67
REMARK SMILES IDX 42 68 35 69 37 70 38 71 39 72 40 73 64 74 65 75 73 76 66 77
REMARK SMILES IDX 68 78 74 79 67 80 69 81 70 82 71 83 72 84 49 85 50 86 58 87
REMARK SMILES IDX 51 88 53 89 59 90 52 91 54 92 55 93 56 94 57 95
REMARK H PARENT 13 8 20 29 79 48 47 59
REMARK Flexibility Score: inf
ROOT
ATOM      1  C   UNL A   1      35.734  23.135  23.724  1.00  0.00     0.002 C 
ENDROOT
BRANCH   1   2
ATOM      2  C   UNL A   1      34.320  22.917  23.168  1.00  0.00     0.002 C 
BRANCH   2   3
ATOM      3  C   UNL A   1      33.377  22.159  24.104  1.00  0.00     0.021 C 
BRANCH   3   4
ATOM      4  C   UNL A   1      31.930  22.620  23.990  1.00  0.00     0.116 C 
BRANCH   4   5
ATOM      5  N   UNL A   1      31.312  22.780  25.296  1.00  0.00    -0.352 N 
ATOM      6  C   UNL A   1      30.906  23.807  26.078  1.00  0.00     0.251 C 
ATOM      7  O   UNL A   1      30.383  23.486  27.151  1.00  0.00    -0.270 OA
ATOM      8  H   UNL A   1      31.143  21.910  25.726  1.00  0.00     0.163 HD
BRANCH   6   9
ATOM      9  C   UNL A   1      31.053  25.254  25.732  1.00  0.00     0.067 C 
ATOM     10  C   UNL A   1      29.572  29.046  23.115  1.00  0.00     0.053 A 
ATOM     11  C   UNL A   1      30.422  29.881  23.850  1.00  0.00     0.023 A 
ATOM     12  C   UNL A   1      29.499  27.678  23.416  1.00  0.00     0.031 A 
ATOM     13  C   UNL A   1      31.198  29.350  24.875  1.00  0.00     0.048 A 
ATOM     14  C   UNL A   1      30.278  27.144  24.446  1.00  0.00     0.018 A 
ATOM     15  C   UNL A   1      31.128  27.988  25.159  1.00  0.00     0.128 A 
ATOM     16  C   UNL A   1      30.187  25.737  24.823  1.00  0.00     0.025 C 
ATOM     17  O   UNL A   1      31.905  27.566  26.191  1.00  0.00    -0.475 OA
ATOM     18  C   UNL A   1      32.116  26.139  26.319  1.00  0.00     0.314 C 
BRANCH  10  19
ATOM     19  C   UNL A   1      28.770  29.599  22.065  1.00  0.00     0.099 C 
ATOM     20  N   UNL A   1      28.127  30.051  21.210  1.00  0.00    -0.192 NA
ENDBRANCH  10  19
BRANCH  18  21
ATOM     21  C   UNL A   1      33.523  25.793  25.797  1.00  0.00     0.429 C 
ATOM     22  F   UNL A   1      33.517  25.693  24.446  1.00  0.00    -0.167 F 
ATOM     23  F   UNL A   1      34.446  26.733  26.108  1.00  0.00    -0.167 F 
ATOM     24  F   UNL A   1      33.978  24.620  26.294  1.00  0.00    -0.167 F 
ENDBRANCH  18  21
ENDBRANCH   6   9
ENDBRANCH   4   5
ENDBRANCH   3   4
ENDBRANCH   2   3
ENDBRANCH   1   2
BRANCH   1  25
ATOM     25  C   UNL A   1      36.421  21.873  24.248  1.00  0.00     0.021 C 
BRANCH  25  26
ATOM     26  C   UNL A   1      37.130  22.065  25.581  1.00  0.00     0.116 C 
BRANCH  26  27
ATOM     27  N   UNL A   1      38.220  21.118  25.758  1.00  0.00    -0.352 N 
ATOM     28  C   UNL A   1      39.499  21.341  26.210  1.00  0.00     0.251 C 
ATOM     29  H   UNL A   1      38.013  20.185  25.520  1.00  0.00     0.163 HD
ATOM     30  O   UNL A   1      40.354  20.468  26.099  1.00  0.00    -0.269 OA
BRANCH  28  31
ATOM     31  C   UNL A   1      39.828  22.656  26.797  1.00  0.00     0.039 A 
ATOM     32  C   UNL A   1      39.278  23.819  26.254  1.00  0.00     0.014 A 
ATOM     33  C   UNL A   1      40.748  22.727  27.843  1.00  0.00     0.014 A 
ATOM     34  C   UNL A   1      39.799  25.052  26.616  1.00  0.00     0.010 A 
ATOM     35  C   UNL A   1      41.191  23.977  28.279  1.00  0.00     0.010 A 
ATOM     36  C   UNL A   1      40.771  25.146  27.624  1.00  0.00    -0.014 A 
BRANCH  36  37
ATOM     37  C   UNL A   1      41.351  26.469  27.966  1.00  0.00     0.031 A 
ATOM     38  C   UNL A   1      40.526  27.508  28.680  1.00  0.00     0.074 A 
ATOM     39  C   UNL A   1      42.636  26.728  27.657  1.00  0.00     0.049 A 
ATOM     40  N   UNL A   1      40.861  28.724  29.025  1.00  0.00    -0.248 NA
ATOM     41  C   UNL A   1      39.148  27.141  29.053  1.00  0.00     0.031 C 
ATOM     42  C   UNL A   1      43.543  25.802  26.972  1.00  0.00     0.029 A 
ATOM     43  N   UNL A   1      43.404  27.842  27.879  1.00  0.00    -0.354 N 
ATOM     44  C   UNL A   1      39.731  29.280  29.612  1.00  0.00     0.074 A 
ATOM     45  C   UNL A   1      38.694  28.273  29.574  1.00  0.00     0.031 C 
ATOM     46  C   UNL A   1      44.747  26.375  26.852  1.00  0.00     0.029 A 
ATOM     47  C   UNL A   1      44.683  27.731  27.388  1.00  0.00     0.049 A 
ATOM     48  H   UNL A   1      43.072  28.644  28.343  1.00  0.00     0.167 HD
ATOM     49  C   UNL A   1      39.576  30.512  30.152  1.00  0.00     0.034 A 
ATOM     50  C   UNL A   1      45.689  28.625  27.343  1.00  0.00     0.034 A 
ATOM     51  C   UNL A   1      40.618  31.498  30.225  1.00  0.00     0.049 A 
ATOM     52  C   UNL A   1      45.483  29.993  27.917  1.00  0.00     0.074 A 
ATOM     53  C   UNL A   1      40.563  32.759  30.795  1.00  0.00     0.029 A 
ATOM     54  N   UNL A   1      41.895  31.346  29.711  1.00  0.00    -0.354 N 
ATOM     55  N   UNL A   1      44.428  30.475  28.526  1.00  0.00    -0.248 NA
ATOM     56  C   UNL A   1      46.604  30.937  27.814  1.00  0.00     0.031 C 
ATOM     57  C   UNL A   1      41.798  33.379  30.599  1.00  0.00     0.029 A 
ATOM     58  C   UNL A   1      42.632  32.494  29.937  1.00  0.00     0.049 A 
ATOM     59  H   UNL A   1      42.228  30.540  29.254  1.00  0.00     0.167 HD
ATOM     60  C   UNL A   1      44.760  31.773  28.893  1.00  0.00     0.074 A 
ATOM     61  C   UNL A   1      46.123  31.996  28.453  1.00  0.00     0.031 C 
ATOM     62  C   UNL A   1      43.998  32.695  29.526  1.00  0.00     0.034 A 
BRANCH  49  63
ATOM     63  C   UNL A   1      38.239  30.869  30.739  1.00  0.00     0.023 A 
ATOM     64  C   UNL A   1      37.962  30.554  32.083  1.00  0.00     0.012 A 
ATOM     65  C   UNL A   1      37.302  31.612  29.992  1.00  0.00     0.148 A 
ATOM     66  C   UNL A   1      36.769  30.967  32.675  1.00  0.00     0.002 A 
ATOM     67  C   UNL A   1      36.129  32.043  30.597  1.00  0.00     0.091 A 
ATOM     68  F   UNL A   1      37.587  31.893  28.712  1.00  0.00    -0.205 F 
ATOM     69  C   UNL A   1      35.859  31.720  31.937  1.00  0.00     0.022 A 
BRANCH  67  70
ATOM     70  S   UNL A   1      34.907  33.049  29.747  1.00  0.00     0.127 S 
ATOM     71  O   UNL A   1      35.758  34.017  29.053  1.00  0.00    -0.237 OA
ATOM     72  O   UNL A   1      34.259  32.070  28.874  1.00  0.00    -0.237 OA
ATOM     73  O   UNL A   1      34.053  33.611  30.782  1.00  0.00    -0.744 OA
ENDBRANCH  67  70
ENDBRANCH  49  63
BRANCH  50  74
ATOM     74  C   UNL A   1      46.986  28.216  26.743  1.00  0.00     0.023 A 
ATOM     75  C   UNL A   1      48.028  27.788  27.585  1.00  0.00     0.012 A 
ATOM     76  C   UNL A   1      47.152  28.156  25.346  1.00  0.00     0.148 A 
ATOM     77  C   UNL A   1      49.219  27.301  27.044  1.00  0.00     0.002 A 
ATOM     78  C   UNL A   1      48.325  27.638  24.813  1.00  0.00     0.091 A 
ATOM     79  F   UNL A   1      46.137  28.562  24.571  1.00  0.00    -0.205 F 
ATOM     80  C   UNL A   1      49.361  27.215  25.660  1.00  0.00     0.022 A 
BRANCH  78  81
ATOM     81  S   UNL A   1      48.574  27.412  23.049  1.00  0.00     0.127 S 
ATOM     82  O   UNL A   1      48.387  25.971  22.905  1.00  0.00    -0.237 OA
ATOM     83  O   UNL A   1      47.498  28.233  22.492  1.00  0.00    -0.237 OA
ATOM     84  O   UNL A   1      49.918  27.895  22.771  1.00  0.00    -0.744 OA
ENDBRANCH  78  81
ENDBRANCH  50  74
BRANCH  62  85
ATOM     85  C   UNL A   1      44.601  34.044  29.807  1.00  0.00     0.023 A 
ATOM     86  C   UNL A   1      45.378  34.228  30.966  1.00  0.00     0.012 A 
ATOM     87  C   UNL A   1      44.508  35.080  28.857  1.00  0.00     0.148 A 
ATOM     88  C   UNL A   1      46.053  35.429  31.178  1.00  0.00     0.002 A 
ATOM     89  C   UNL A   1      45.207  36.263  29.061  1.00  0.00     0.091 A 
ATOM     90  F   UNL A   1      43.760  34.876  27.762  1.00  0.00    -0.205 F 
ATOM     91  C   UNL A   1      45.978  36.440  30.222  1.00  0.00     0.022 A 
BRANCH  89  92
ATOM     92  S   UNL A   1      45.216  37.603  27.865  1.00  0.00     0.127 S 
ATOM     93  O   UNL A   1      46.158  38.539  28.476  1.00  0.00    -0.237 OA
ATOM     94  O   UNL A   1      45.710  36.938  26.660  1.00  0.00    -0.237 OA
ATOM     95  O   UNL A   1      43.841  38.080  27.779  1.00  0.00    -0.744 OA
ENDBRANCH  89  92
ENDBRANCH  62  85
ENDBRANCH  36  37
ENDBRANCH  28  31
ENDBRANCH  26  27
ENDBRANCH  25  26
ENDBRANCH   1  25
TORSDOF 18
ENDMDL
MODEL 3
REMARK VINA RESULT:     -12.0      2.808      8.556
REMARK SMILES N#Cc1ccc2c(c1)C=C(C(=O)NCCCCCCNC(=O)c1ccc(-c3c4nc(c(-c5cccc(S(=O)(=O)[O-])c5F)c5ccc([nH]5)c(-c5cccc(S(=O)(=O)[O-])c5F)c5nc(c(-c6cccc(S(=O)(=O)[O-])c6F)c6ccc3[nH]6)C=C5)C=C4)cc1)[C@@H](C(F)(F)F)O2
REMARK SMILES IDX 17 1 16 2 15 3 14 4 13 5 11 6 12 7 10 9 3 10 4 11 8 12 5 13
REMARK SMILES IDX 7 14 6 15 9 16 91 17 86 18 2 19 1 20 87 21 88 22 89 23 90 24
REMARK SMILES IDX 18 25 19 26 20 27 21 28 22 30 23 31 24 32 85 33 25 34 84 35
REMARK SMILES IDX 26 36 27 37 28 38 78 39 29 40 83 41 77 42 79 43 30 44 82 45
REMARK SMILES IDX 76 46 75 47 31 49 63 50 43 51 62 52 44 53 47 54 61 55 80 56
REMARK SMILES IDX 45 57 46 58 60 60 81 61 48 62 32 63 33 64 41 65 34 66 36 67
REMARK SMILES IDX 42 68 35 69 37 70 38 71 39 72 40 73 64 74 65 75 73 76 66 77
REMARK SMILES IDX 68 78 74 79 67 80 69 81 70 82 71 83 72 84 49 85 50 86 58 87
REMARK SMILES IDX 51 88 53 89 59 90 52 91 54 92 55 93 56 94 57 95
REMARK H PARENT 13 8 20 29 79 48 47 59
REMARK Flexibility Score: inf
ROOT
ATOM      1  C   UNL A   1      32.265  29.139  24.640  1.00  0.00     0.002 C 
ENDROOT
BRANCH   1   2
ATOM      2  C   UNL A   1      31.827  28.840  23.200  1.00  0.00     0.002 C 
BRANCH   2   3
ATOM      3  C   UNL A   1      30.531  28.034  23.082  1.00  0.00     0.021 C 
BRANCH   3   4
ATOM      4  C   UNL A   1      30.774  26.537  22.932  1.00  0.00     0.116 C 
BRANCH   4   5
ATOM      5  N   UNL A   1      31.579  26.238  21.761  1.00  0.00    -0.352 N 
ATOM      6  C   UNL A   1      32.578  25.382  21.440  1.00  0.00     0.251 C 
ATOM      7  O   UNL A   1      32.978  25.442  20.272  1.00  0.00    -0.270 OA
ATOM      8  H   UNL A   1      31.334  26.808  20.997  1.00  0.00     0.163 HD
BRANCH   6   9
ATOM      9  C   UNL A   1      33.205  24.408  22.385  1.00  0.00     0.067 C 
ATOM     10  C   UNL A   1      33.177  20.009  24.402  1.00  0.00     0.053 A 
ATOM     11  C   UNL A   1      34.405  20.286  25.015  1.00  0.00     0.023 A 
ATOM     12  C   UNL A   1      32.576  20.965  23.570  1.00  0.00     0.031 A 
ATOM     13  C   UNL A   1      35.024  21.513  24.801  1.00  0.00     0.048 A 
ATOM     14  C   UNL A   1      33.199  22.198  23.354  1.00  0.00     0.018 A 
ATOM     15  C   UNL A   1      34.415  22.461  23.983  1.00  0.00     0.128 A 
ATOM     16  C   UNL A   1      32.630  23.193  22.452  1.00  0.00     0.025 C 
ATOM     17  O   UNL A   1      35.106  23.619  23.816  1.00  0.00    -0.475 OA
ATOM     18  C   UNL A   1      34.386  24.742  23.252  1.00  0.00     0.314 C 
BRANCH  10  19
ATOM     19  C   UNL A   1      32.547  18.742  24.621  1.00  0.00     0.099 C 
ATOM     20  N   UNL A   1      32.041  17.713  24.804  1.00  0.00    -0.192 NA
ENDBRANCH  10  19
BRANCH  18  21
ATOM     21  C   UNL A   1      34.027  25.724  24.382  1.00  0.00     0.429 C 
ATOM     22  F   UNL A   1      34.194  27.004  23.971  1.00  0.00    -0.167 F 
ATOM     23  F   UNL A   1      32.739  25.616  24.785  1.00  0.00    -0.167 F 
ATOM     24  F   UNL A   1      34.795  25.542  25.480  1.00  0.00    -0.167 F 
ENDBRANCH  18  21
ENDBRANCH   6   9
ENDBRANCH   4   5
ENDBRANCH   3   4
ENDBRANCH   2   3
ENDBRANCH   1   2
BRANCH   1  25
ATOM     25  C   UNL A   1      31.364  30.117  25.396  1.00  0.00     0.021 C 
BRANCH  25  26
ATOM     26  C   UNL A   1      31.930  30.567  26.735  1.00  0.00     0.116 C 
BRANCH  26  27
ATOM     27  N   UNL A   1      31.950  32.018  26.857  1.00  0.00    -0.352 N 
ATOM     28  C   UNL A   1      32.885  32.826  27.457  1.00  0.00     0.251 C 
ATOM     29  H   UNL A   1      31.184  32.486  26.453  1.00  0.00     0.163 HD
ATOM     30  O   UNL A   1      32.641  34.012  27.653  1.00  0.00    -0.269 OA
BRANCH  28  31
ATOM     31  C   UNL A   1      34.166  32.232  27.890  1.00  0.00     0.039 A 
ATOM     32  C   UNL A   1      34.224  30.885  28.254  1.00  0.00     0.014 A 
ATOM     33  C   UNL A   1      35.294  33.046  28.003  1.00  0.00     0.014 A 
ATOM     34  C   UNL A   1      35.342  30.406  28.920  1.00  0.00     0.010 A 
ATOM     35  C   UNL A   1      36.455  32.529  28.578  1.00  0.00     0.010 A 
ATOM     36  C   UNL A   1      36.467  31.225  29.101  1.00  0.00    -0.014 A 
BRANCH  36  37
ATOM     37  C   UNL A   1      37.637  30.711  29.856  1.00  0.00     0.031 A 
ATOM     38  C   UNL A   1      38.610  29.759  29.211  1.00  0.00     0.074 A 
ATOM     39  C   UNL A   1      37.841  31.125  31.122  1.00  0.00     0.049 A 
ATOM     40  N   UNL A   1      39.665  29.187  29.732  1.00  0.00    -0.248 NA
ATOM     41  C   UNL A   1      38.373  29.398  27.802  1.00  0.00     0.031 C 
ATOM     42  C   UNL A   1      36.976  32.050  31.858  1.00  0.00     0.029 A 
ATOM     43  N   UNL A   1      38.839  30.823  32.013  1.00  0.00    -0.354 N 
ATOM     44  C   UNL A   1      40.188  28.370  28.737  1.00  0.00     0.074 A 
ATOM     45  C   UNL A   1      39.334  28.512  27.580  1.00  0.00     0.031 C 
ATOM     46  C   UNL A   1      37.492  32.260  33.076  1.00  0.00     0.029 A 
ATOM     47  C   UNL A   1      38.684  31.435  33.234  1.00  0.00     0.049 A 
ATOM     48  H   UNL A   1      39.592  30.226  31.800  1.00  0.00     0.167 HD
ATOM     49  C   UNL A   1      41.291  27.586  28.779  1.00  0.00     0.034 A 
ATOM     50  C   UNL A   1      39.400  31.326  34.369  1.00  0.00     0.034 A 
ATOM     51  C   UNL A   1      42.161  27.475  29.917  1.00  0.00     0.049 A 
ATOM     52  C   UNL A   1      40.598  30.426  34.401  1.00  0.00     0.074 A 
ATOM     53  C   UNL A   1      43.327  26.738  30.032  1.00  0.00     0.029 A 
ATOM     54  N   UNL A   1      41.963  28.107  31.133  1.00  0.00    -0.354 N 
ATOM     55  N   UNL A   1      41.112  29.714  33.429  1.00  0.00    -0.248 NA
ATOM     56  C   UNL A   1      41.324  30.324  35.674  1.00  0.00     0.031 C 
ATOM     57  C   UNL A   1      43.818  26.901  31.328  1.00  0.00     0.029 A 
ATOM     58  C   UNL A   1      42.977  27.765  32.010  1.00  0.00     0.049 A 
ATOM     59  H   UNL A   1      41.214  28.710  31.342  1.00  0.00     0.167 HD
ATOM     60  C   UNL A   1      42.230  29.089  33.966  1.00  0.00     0.074 A 
ATOM     61  C   UNL A   1      42.329  29.522  35.346  1.00  0.00     0.031 C 
ATOM     62  C   UNL A   1      43.087  28.227  33.370  1.00  0.00     0.034 A 
BRANCH  49  63
ATOM     63  C   UNL A   1      41.650  26.797  27.550  1.00  0.00     0.023 A 
ATOM     64  C   UNL A   1      42.272  27.446  26.465  1.00  0.00     0.012 A 
ATOM     65  C   UNL A   1      41.472  25.400  27.516  1.00  0.00     0.148 A 
ATOM     66  C   UNL A   1      42.705  26.715  25.359  1.00  0.00     0.002 A 
ATOM     67  C   UNL A   1      41.931  24.676  26.423  1.00  0.00     0.091 A 
ATOM     68  F   UNL A   1      40.871  24.809  28.558  1.00  0.00    -0.205 F 
ATOM     69  C   UNL A   1      42.546  25.332  25.343  1.00  0.00     0.022 A 
BRANCH  67  70
ATOM     70  S   UNL A   1      41.809  22.887  26.319  1.00  0.00     0.127 S 
ATOM     71  O   UNL A   1      42.469  22.623  25.040  1.00  0.00    -0.237 OA
ATOM     72  O   UNL A   1      42.564  22.459  27.496  1.00  0.00    -0.237 OA
ATOM     73  O   UNL A   1      40.387  22.575  26.354  1.00  0.00    -0.744 OA
ENDBRANCH  67  70
ENDBRANCH  49  63
BRANCH  50  74
ATOM     74  C   UNL A   1      38.992  32.125  35.554  1.00  0.00     0.023 A 
ATOM     75  C   UNL A   1      38.132  31.551  36.509  1.00  0.00     0.012 A 
ATOM     76  C   UNL A   1      39.529  33.406  35.784  1.00  0.00     0.148 A 
ATOM     77  C   UNL A   1      37.817  32.240  37.680  1.00  0.00     0.002 A 
ATOM     78  C   UNL A   1      39.239  34.073  36.968  1.00  0.00     0.091 A 
ATOM     79  F   UNL A   1      40.352  33.921  34.860  1.00  0.00    -0.205 F 
ATOM     80  C   UNL A   1      38.379  33.493  37.914  1.00  0.00     0.022 A 
BRANCH  78  81
ATOM     81  S   UNL A   1      39.975  35.653  37.397  1.00  0.00     0.127 S 
ATOM     82  O   UNL A   1      41.385  35.296  37.538  1.00  0.00    -0.237 OA
ATOM     83  O   UNL A   1      39.657  36.458  36.218  1.00  0.00    -0.237 OA
ATOM     84  O   UNL A   1      39.317  36.079  38.624  1.00  0.00    -0.744 OA
ENDBRANCH  78  81
ENDBRANCH  50  74
BRANCH  62  85
ATOM     85  C   UNL A   1      44.229  27.684  34.183  1.00  0.00     0.023 A 
ATOM     86  C   UNL A   1      45.425  28.420  34.276  1.00  0.00     0.012 A 
ATOM     87  C   UNL A   1      44.065  26.517  34.955  1.00  0.00     0.148 A 
ATOM     88  C   UNL A   1      46.446  28.000  35.128  1.00  0.00     0.002 A 
ATOM     89  C   UNL A   1      45.074  26.121  35.824  1.00  0.00     0.091 A 
ATOM     90  F   UNL A   1      42.915  25.835  34.845  1.00  0.00    -0.205 F 
ATOM     91  C   UNL A   1      46.266  26.860  35.909  1.00  0.00     0.022 A 
BRANCH  89  92
ATOM     92  S   UNL A   1      44.918  24.699  36.909  1.00  0.00     0.127 S 
ATOM     93  O   UNL A   1      43.770  25.077  37.730  1.00  0.00    -0.237 OA
ATOM     94  O   UNL A   1      44.662  23.615  35.961  1.00  0.00    -0.237 OA
ATOM     95  O   UNL A   1      46.182  24.596  37.627  1.00  0.00    -0.744 OA
ENDBRANCH  89  92
ENDBRANCH  62  85
ENDBRANCH  36  37
ENDBRANCH  28  31
ENDBRANCH  26  27
ENDBRANCH  25  26
ENDBRANCH   1  25
TORSDOF 18
ENDMDL
