MODEL 1
REMARK VINA RESULT:     -12.1      0.000      0.000
REMARK SMILES COc1ccc2c(c1)C(=O)N(c1ccccc1C(=O)NCCCCCCNC(=O)c1ccc(-c3c4nc(c(-c5cccc(S(=O)(=O)[O-])c5F)c5ccc([nH]5)c(-c5cccc(S(=O)(=O)[O-])c5F)c5nc(c(-c6cccc(S(=O)(=O)[O-])c6F)c6ccc3[nH]6)C=C5)C=C4)cc1)C2=O
REMARK SMILES IDX 24 1 23 2 22 3 21 4 20 5 18 6 19 7 17 9 12 10 13 11 14 12
REMARK SMILES IDX 16 13 15 14 11 15 3 16 4 17 8 18 5 19 7 20 6 21 9 22 93 23
REMARK SMILES IDX 10 24 94 25 2 26 1 27 25 28 26 29 27 30 28 31 29 33 30 34
REMARK SMILES IDX 31 35 92 36 32 37 91 38 33 39 34 40 35 41 85 42 36 43 90 44
REMARK SMILES IDX 84 45 86 46 37 47 89 48 83 49 82 50 38 52 70 53 50 54 69 55
REMARK SMILES IDX 51 56 54 57 68 58 87 59 52 60 53 61 67 63 88 64 55 65 39 66
REMARK SMILES IDX 40 67 48 68 41 69 43 70 49 71 42 72 44 73 45 74 46 75 47 76
REMARK SMILES IDX 71 77 72 78 80 79 73 80 75 81 81 82 74 83 76 84 77 85 78 86
REMARK SMILES IDX 79 87 56 88 57 89 65 90 58 91 60 92 66 93 59 94 61 95 62 96
REMARK SMILES IDX 63 97 64 98
REMARK H PARENT 20 8 27 32 86 51 54 62
REMARK Flexibility Score: inf
ROOT
ATOM      1  C   UNL A   1      32.587  27.228  26.294  1.00  0.00     0.002 C 
ENDROOT
BRANCH   1   2
ATOM      2  C   UNL A   1      33.462  26.733  25.135  1.00  0.00     0.002 C 
BRANCH   2   3
ATOM      3  C   UNL A   1      34.719  25.911  25.443  1.00  0.00     0.021 C 
BRANCH   3   4
ATOM      4  C   UNL A   1      34.648  24.390  25.355  1.00  0.00     0.116 C 
BRANCH   4   5
ATOM      5  N   UNL A   1      34.095  23.684  26.477  1.00  0.00    -0.352 N 
ATOM      6  C   UNL A   1      33.623  22.393  26.590  1.00  0.00     0.253 C 
ATOM      7  O   UNL A   1      33.354  22.022  27.739  1.00  0.00    -0.269 OA
ATOM      8  H   UNL A   1      34.046  24.211  27.307  1.00  0.00     0.163 HD
BRANCH   6   9
ATOM      9  C   UNL A   1      33.267  21.472  25.454  1.00  0.00     0.064 A 
ATOM     10  C   UNL A   1      32.483  21.686  24.301  1.00  0.00     0.065 A 
ATOM     11  C   UNL A   1      32.237  20.602  23.421  1.00  0.00     0.028 A 
ATOM     12  C   UNL A   1      32.780  19.337  23.630  1.00  0.00     0.002 A 
ATOM     13  C   UNL A   1      33.801  20.167  25.639  1.00  0.00     0.016 A 
ATOM     14  C   UNL A   1      33.568  19.118  24.744  1.00  0.00     0.001 A 
BRANCH  10  15
ATOM     15  N   UNL A   1      31.894  22.906  23.907  1.00  0.00    -0.241 N 
ATOM     16  C   UNL A   1      30.684  27.116  22.570  1.00  0.00     0.119 A 
ATOM     17  C   UNL A   1      29.860  26.990  23.711  1.00  0.00     0.047 A 
ATOM     18  C   UNL A   1      31.452  26.033  22.122  1.00  0.00     0.061 A 
ATOM     19  C   UNL A   1      29.804  25.802  24.438  1.00  0.00     0.018 A 
ATOM     20  C   UNL A   1      31.404  24.872  22.875  1.00  0.00     0.057 A 
ATOM     21  C   UNL A   1      30.591  24.763  23.989  1.00  0.00     0.053 A 
ATOM     22  C   UNL A   1      32.252  23.670  22.823  1.00  0.00     0.266 C 
ATOM     23  C   UNL A   1      30.864  23.481  24.621  1.00  0.00     0.266 C 
ATOM     24  O   UNL A   1      33.108  23.482  21.979  1.00  0.00    -0.268 OA
ATOM     25  O   UNL A   1      30.323  23.119  25.650  1.00  0.00    -0.268 OA
BRANCH  16  26
ATOM     26  O   UNL A   1      30.703  28.382  22.051  1.00  0.00    -0.497 OA
ATOM     27  C   UNL A   1      29.938  29.377  22.717  1.00  0.00     0.278 C 
ENDBRANCH  16  26
ENDBRANCH  10  15
ENDBRANCH   6   9
ENDBRANCH   4   5
ENDBRANCH   3   4
ENDBRANCH   2   3
ENDBRANCH   1   2
BRANCH   1  28
ATOM     28  C   UNL A   1      31.900  28.586  26.149  1.00  0.00     0.021 C 
BRANCH  28  29
ATOM     29  C   UNL A   1      32.664  29.704  25.444  1.00  0.00     0.116 C 
BRANCH  29  30
ATOM     30  N   UNL A   1      32.343  31.020  25.961  1.00  0.00    -0.352 N 
ATOM     31  C   UNL A   1      32.929  31.781  26.946  1.00  0.00     0.251 C 
ATOM     32  H   UNL A   1      31.567  31.444  25.530  1.00  0.00     0.163 HD
ATOM     33  O   UNL A   1      32.350  32.812  27.291  1.00  0.00    -0.269 OA
BRANCH  31  34
ATOM     34  C   UNL A   1      34.211  31.416  27.617  1.00  0.00     0.039 A 
ATOM     35  C   UNL A   1      34.353  30.099  28.075  1.00  0.00     0.014 A 
ATOM     36  C   UNL A   1      35.225  32.335  27.902  1.00  0.00     0.014 A 
ATOM     37  C   UNL A   1      35.499  29.703  28.780  1.00  0.00     0.010 A 
ATOM     38  C   UNL A   1      36.402  31.921  28.549  1.00  0.00     0.010 A 
ATOM     39  C   UNL A   1      36.549  30.604  29.010  1.00  0.00    -0.014 A 
BRANCH  39  40
ATOM     40  C   UNL A   1      37.782  30.169  29.735  1.00  0.00     0.031 A 
ATOM     41  C   UNL A   1      38.079  30.650  31.135  1.00  0.00     0.074 A 
ATOM     42  C   UNL A   1      38.670  29.356  29.123  1.00  0.00     0.049 A 
ATOM     43  N   UNL A   1      39.096  30.361  31.909  1.00  0.00    -0.248 NA
ATOM     44  C   UNL A   1      37.121  31.589  31.738  1.00  0.00     0.031 C 
ATOM     45  C   UNL A   1      38.555  28.864  27.750  1.00  0.00     0.029 A 
ATOM     46  N   UNL A   1      39.852  28.814  29.572  1.00  0.00    -0.354 N 
ATOM     47  C   UNL A   1      38.919  31.101  33.073  1.00  0.00     0.074 A 
ATOM     48  C   UNL A   1      37.710  31.876  32.892  1.00  0.00     0.031 C 
ATOM     49  C   UNL A   1      39.614  28.086  27.472  1.00  0.00     0.029 A 
ATOM     50  C   UNL A   1      40.499  28.044  28.633  1.00  0.00     0.049 A 
ATOM     51  H   UNL A   1      40.201  28.963  30.480  1.00  0.00     0.167 HD
ATOM     52  C   UNL A   1      39.670  31.118  34.202  1.00  0.00     0.034 A 
ATOM     53  C   UNL A   1      41.671  27.380  28.693  1.00  0.00     0.034 A 
ATOM     54  C   UNL A   1      40.848  30.316  34.412  1.00  0.00     0.049 A 
ATOM     55  C   UNL A   1      42.470  27.387  29.970  1.00  0.00     0.074 A 
ATOM     56  C   UNL A   1      41.620  30.207  35.558  1.00  0.00     0.029 A 
ATOM     57  N   UNL A   1      41.431  29.493  33.463  1.00  0.00    -0.354 N 
ATOM     58  N   UNL A   1      42.194  27.966  31.112  1.00  0.00    -0.248 NA
ATOM     59  C   UNL A   1      43.724  26.617  29.976  1.00  0.00     0.031 C 
ATOM     60  C   UNL A   1      42.681  29.334  35.293  1.00  0.00     0.029 A 
ATOM     61  C   UNL A   1      42.558  28.882  33.990  1.00  0.00     0.049 A 
ATOM     62  H   UNL A   1      41.094  29.362  32.546  1.00  0.00     0.167 HD
ATOM     63  C   UNL A   1      43.218  27.603  31.981  1.00  0.00     0.074 A 
ATOM     64  C   UNL A   1      44.108  26.734  31.240  1.00  0.00     0.031 C 
ATOM     65  C   UNL A   1      43.412  27.972  33.271  1.00  0.00     0.034 A 
BRANCH  52  66
ATOM     66  C   UNL A   1      39.212  31.996  35.339  1.00  0.00     0.023 A 
ATOM     67  C   UNL A   1      38.326  31.475  36.303  1.00  0.00     0.012 A 
ATOM     68  C   UNL A   1      39.718  33.302  35.500  1.00  0.00     0.148 A 
ATOM     69  C   UNL A   1      37.924  32.247  37.392  1.00  0.00     0.002 A 
ATOM     70  C   UNL A   1      39.345  34.052  36.611  1.00  0.00     0.091 A 
ATOM     71  F   UNL A   1      40.546  33.788  34.566  1.00  0.00    -0.205 F 
ATOM     72  C   UNL A   1      38.441  33.530  37.551  1.00  0.00     0.022 A 
BRANCH  70  73
ATOM     73  S   UNL A   1      40.016  35.683  36.949  1.00  0.00     0.127 S 
ATOM     74  O   UNL A   1      39.344  36.025  38.201  1.00  0.00    -0.237 OA
ATOM     75  O   UNL A   1      41.448  35.410  37.081  1.00  0.00    -0.237 OA
ATOM     76  O   UNL A   1      39.660  36.508  35.803  1.00  0.00    -0.744 OA
ENDBRANCH  70  73
ENDBRANCH  52  66
BRANCH  53  77
ATOM     77  C   UNL A   1      42.140  26.594  27.515  1.00  0.00     0.023 A 
ATOM     78  C   UNL A   1      42.892  27.233  26.510  1.00  0.00     0.012 A 
ATOM     79  C   UNL A   1      41.863  25.218  27.397  1.00  0.00     0.148 A 
ATOM     80  C   UNL A   1      43.331  26.524  25.391  1.00  0.00     0.002 A 
ATOM     81  C   UNL A   1      42.355  24.505  26.309  1.00  0.00     0.091 A 
ATOM     82  F   UNL A   1      41.132  24.632  28.354  1.00  0.00    -0.205 F 
ATOM     83  C   UNL A   1      43.073  25.160  25.296  1.00  0.00     0.022 A 
BRANCH  81  84
ATOM     84  S   UNL A   1      42.188  22.722  26.179  1.00  0.00     0.127 S 
ATOM     85  O   UNL A   1      42.843  22.452  24.902  1.00  0.00    -0.237 OA
ATOM     86  O   UNL A   1      42.922  22.262  27.359  1.00  0.00    -0.237 OA
ATOM     87  O   UNL A   1      40.756  22.458  26.228  1.00  0.00    -0.744 OA
ENDBRANCH  81  84
ENDBRANCH  53  77
BRANCH  65  88
ATOM     88  C   UNL A   1      44.615  27.417  33.991  1.00  0.00     0.023 A 
ATOM     89  C   UNL A   1      45.843  28.108  33.936  1.00  0.00     0.012 A 
ATOM     90  C   UNL A   1      44.516  26.250  34.774  1.00  0.00     0.148 A 
ATOM     91  C   UNL A   1      46.960  27.628  34.621  1.00  0.00     0.002 A 
ATOM     92  C   UNL A   1      45.620  25.803  35.492  1.00  0.00     0.091 A 
ATOM     93  F   UNL A   1      43.346  25.595  34.799  1.00  0.00    -0.205 F 
ATOM     94  C   UNL A   1      46.845  26.483  35.407  1.00  0.00     0.022 A 
BRANCH  92  95
ATOM     95  S   UNL A   1      45.540  24.392  36.601  1.00  0.00     0.127 S 
ATOM     96  O   UNL A   1      44.533  24.829  37.568  1.00  0.00    -0.237 OA
ATOM     97  O   UNL A   1      45.103  23.318  35.708  1.00  0.00    -0.237 OA
ATOM     98  O   UNL A   1      46.886  24.224  37.132  1.00  0.00    -0.744 OA
ENDBRANCH  92  95
ENDBRANCH  65  88
ENDBRANCH  39  40
ENDBRANCH  31  34
ENDBRANCH  29  30
ENDBRANCH  28  29
ENDBRANCH   1  28
TORSDOF 18
ENDMDL
MODEL 2
REMARK VINA RESULT:     -12.1      4.554      9.807
REMARK SMILES COc1ccc2c(c1)C(=O)N(c1ccccc1C(=O)NCCCCCCNC(=O)c1ccc(-c3c4nc(c(-c5cccc(S(=O)(=O)[O-])c5F)c5ccc([nH]5)c(-c5cccc(S(=O)(=O)[O-])c5F)c5nc(c(-c6cccc(S(=O)(=O)[O-])c6F)c6ccc3[nH]6)C=C5)C=C4)cc1)C2=O
REMARK SMILES IDX 24 1 23 2 22 3 21 4 20 5 18 6 19 7 17 9 12 10 13 11 14 12
REMARK SMILES IDX 16 13 15 14 11 15 3 16 4 17 8 18 5 19 7 20 6 21 9 22 93 23
REMARK SMILES IDX 10 24 94 25 2 26 1 27 25 28 26 29 27 30 28 31 29 33 30 34
REMARK SMILES IDX 31 35 92 36 32 37 91 38 33 39 34 40 35 41 85 42 36 43 90 44
REMARK SMILES IDX 84 45 86 46 37 47 89 48 83 49 82 50 38 52 70 53 50 54 69 55
REMARK SMILES IDX 51 56 54 57 68 58 87 59 52 60 53 61 67 63 88 64 55 65 39 66
REMARK SMILES IDX 40 67 48 68 41 69 43 70 49 71 42 72 44 73 45 74 46 75 47 76
REMARK SMILES IDX 71 77 72 78 80 79 73 80 75 81 81 82 74 83 76 84 77 85 78 86
REMARK SMILES IDX 79 87 56 88 57 89 65 90 58 91 60 92 66 93 59 94 61 95 62 96
REMARK SMILES IDX 63 97 64 98
REMARK H PARENT 20 8 27 32 86 51 54 62
REMARK Flexibility Score: inf
ROOT
ATOM      1  C   UNL A   1      35.112  22.658  26.495  1.00  0.00     0.002 C 
ENDROOT
BRANCH   1   2
ATOM      2  C   UNL A   1      34.390  23.957  26.113  1.00  0.00     0.002 C 
BRANCH   2   3
ATOM      3  C   UNL A   1      34.941  24.812  24.967  1.00  0.00     0.021 C 
BRANCH   3   4
ATOM      4  C   UNL A   1      34.205  26.090  24.578  1.00  0.00     0.116 C 
BRANCH   4   5
ATOM      5  N   UNL A   1      33.852  27.002  25.631  1.00  0.00    -0.352 N 
ATOM      6  C   UNL A   1      32.674  27.669  25.893  1.00  0.00     0.253 C 
ATOM      7  O   UNL A   1      32.629  28.267  26.974  1.00  0.00    -0.269 OA
ATOM      8  H   UNL A   1      34.574  27.179  26.276  1.00  0.00     0.163 HD
BRANCH   6   9
ATOM      9  C   UNL A   1      31.526  27.860  24.937  1.00  0.00     0.064 A 
ATOM     10  C   UNL A   1      30.799  26.926  24.169  1.00  0.00     0.065 A 
ATOM     11  C   UNL A   1      29.805  27.395  23.272  1.00  0.00     0.028 A 
ATOM     12  C   UNL A   1      29.489  28.745  23.152  1.00  0.00     0.002 A 
ATOM     13  C   UNL A   1      31.182  29.231  24.785  1.00  0.00     0.016 A 
ATOM     14  C   UNL A   1      30.179  29.669  23.914  1.00  0.00     0.001 A 
BRANCH  10  15
ATOM     15  N   UNL A   1      30.951  25.524  24.195  1.00  0.00    -0.241 N 
ATOM     16  C   UNL A   1      31.803  21.084  24.925  1.00  0.00     0.119 A 
ATOM     17  C   UNL A   1      32.275  21.195  23.598  1.00  0.00     0.047 A 
ATOM     18  C   UNL A   1      31.165  22.165  25.547  1.00  0.00     0.061 A 
ATOM     19  C   UNL A   1      32.146  22.382  22.878  1.00  0.00     0.018 A 
ATOM     20  C   UNL A   1      31.073  23.343  24.826  1.00  0.00     0.057 A 
ATOM     21  C   UNL A   1      31.538  23.436  23.526  1.00  0.00     0.053 A 
ATOM     22  C   UNL A   1      30.695  24.697  25.262  1.00  0.00     0.266 C 
ATOM     23  C   UNL A   1      31.410  24.822  23.102  1.00  0.00     0.266 C 
ATOM     24  O   UNL A   1      30.284  24.959  26.376  1.00  0.00    -0.268 OA
ATOM     25  O   UNL A   1      31.777  25.219  22.009  1.00  0.00    -0.268 OA
BRANCH  16  26
ATOM     26  O   UNL A   1      32.116  19.889  25.515  1.00  0.00    -0.497 OA
ATOM     27  C   UNL A   1      32.786  18.920  24.721  1.00  0.00     0.278 C 
ENDBRANCH  16  26
ENDBRANCH  10  15
ENDBRANCH   6   9
ENDBRANCH   4   5
ENDBRANCH   3   4
ENDBRANCH   2   3
ENDBRANCH   1   2
BRANCH   1  28
ATOM     28  C   UNL A   1      35.305  21.597  25.412  1.00  0.00     0.021 C 
BRANCH  28  29
ATOM     29  C   UNL A   1      36.631  21.578  24.656  1.00  0.00     0.116 C 
BRANCH  29  30
ATOM     30  N   UNL A   1      37.569  20.607  25.185  1.00  0.00    -0.352 N 
ATOM     31  C   UNL A   1      38.809  20.758  25.761  1.00  0.00     0.251 C 
ATOM     32  H   UNL A   1      37.263  19.674  25.121  1.00  0.00     0.163 HD
ATOM     33  O   UNL A   1      39.462  19.737  25.985  1.00  0.00    -0.269 OA
BRANCH  31  34
ATOM     34  C   UNL A   1      39.399  22.082  26.114  1.00  0.00     0.039 A 
ATOM     35  C   UNL A   1      40.677  22.091  26.692  1.00  0.00     0.014 A 
ATOM     36  C   UNL A   1      38.711  23.293  25.997  1.00  0.00     0.014 A 
ATOM     37  C   UNL A   1      41.265  23.292  27.116  1.00  0.00     0.010 A 
ATOM     38  C   UNL A   1      39.328  24.502  26.361  1.00  0.00     0.010 A 
ATOM     39  C   UNL A   1      40.606  24.517  26.940  1.00  0.00    -0.014 A 
BRANCH  39  40
ATOM     40  C   UNL A   1      41.251  25.797  27.365  1.00  0.00     0.031 A 
ATOM     41  C   UNL A   1      42.690  26.100  27.024  1.00  0.00     0.074 A 
ATOM     42  C   UNL A   1      40.552  26.692  28.096  1.00  0.00     0.049 A 
ATOM     43  N   UNL A   1      43.399  27.166  27.306  1.00  0.00    -0.248 NA
ATOM     44  C   UNL A   1      43.437  25.068  26.288  1.00  0.00     0.031 C 
ATOM     45  C   UNL A   1      39.176  26.511  28.559  1.00  0.00     0.029 A 
ATOM     46  N   UNL A   1      40.908  27.925  28.589  1.00  0.00    -0.354 N 
ATOM     47  C   UNL A   1      44.676  26.923  26.812  1.00  0.00     0.074 A 
ATOM     48  C   UNL A   1      44.652  25.594  26.237  1.00  0.00     0.031 C 
ATOM     49  C   UNL A   1      38.801  27.595  29.259  1.00  0.00     0.029 A 
ATOM     50  C   UNL A   1      39.916  28.538  29.319  1.00  0.00     0.049 A 
ATOM     51  H   UNL A   1      41.791  28.332  28.433  1.00  0.00     0.167 HD
ATOM     52  C   UNL A   1      45.763  27.734  26.807  1.00  0.00     0.034 A 
ATOM     53  C   UNL A   1      39.899  29.719  29.968  1.00  0.00     0.034 A 
ATOM     54  C   UNL A   1      45.785  29.074  27.333  1.00  0.00     0.049 A 
ATOM     55  C   UNL A   1      41.107  30.617  29.918  1.00  0.00     0.074 A 
ATOM     56  C   UNL A   1      46.818  29.997  27.291  1.00  0.00     0.029 A 
ATOM     57  N   UNL A   1      44.736  29.685  28.001  1.00  0.00    -0.354 N 
ATOM     58  N   UNL A   1      42.248  30.431  29.303  1.00  0.00    -0.248 NA
ATOM     59  C   UNL A   1      41.010  31.906  30.622  1.00  0.00     0.031 C 
ATOM     60  C   UNL A   1      46.400  31.157  27.953  1.00  0.00     0.029 A 
ATOM     61  C   UNL A   1      45.099  30.966  28.386  1.00  0.00     0.049 A 
ATOM     62  H   UNL A   1      43.860  29.270  28.177  1.00  0.00     0.167 HD
ATOM     63  C   UNL A   1      42.990  31.588  29.515  1.00  0.00     0.074 A 
ATOM     64  C   UNL A   1      42.159  32.481  30.295  1.00  0.00     0.031 C 
ATOM     65  C   UNL A   1      44.253  31.876  29.113  1.00  0.00     0.034 A 
BRANCH  52  66
ATOM     66  C   UNL A   1      47.022  27.219  26.157  1.00  0.00     0.023 A 
ATOM     67  C   UNL A   1      47.265  27.503  24.797  1.00  0.00     0.012 A 
ATOM     68  C   UNL A   1      47.999  26.530  26.903  1.00  0.00     0.148 A 
ATOM     69  C   UNL A   1      48.444  27.082  24.182  1.00  0.00     0.002 A 
ATOM     70  C   UNL A   1      49.190  26.150  26.294  1.00  0.00     0.091 A 
ATOM     71  F   UNL A   1      47.745  26.254  28.190  1.00  0.00    -0.205 F 
ATOM     72  C   UNL A   1      49.409  26.416  24.932  1.00  0.00     0.022 A 
BRANCH  70  73
ATOM     73  S   UNL A   1      50.529  25.358  27.192  1.00  0.00     0.127 S 
ATOM     74  O   UNL A   1      50.918  26.410  28.130  1.00  0.00    -0.237 OA
ATOM     75  O   UNL A   1      49.857  24.212  27.805  1.00  0.00    -0.237 OA
ATOM     76  O   UNL A   1      51.530  25.010  26.192  1.00  0.00    -0.744 OA
ENDBRANCH  70  73
ENDBRANCH  52  66
BRANCH  53  77
ATOM     77  C   UNL A   1      38.663  30.158  30.681  1.00  0.00     0.023 A 
ATOM     78  C   UNL A   1      38.503  29.847  32.045  1.00  0.00     0.012 A 
ATOM     79  C   UNL A   1      37.661  30.894  30.021  1.00  0.00     0.148 A 
ATOM     80  C   UNL A   1      37.351  30.233  32.732  1.00  0.00     0.002 A 
ATOM     81  C   UNL A   1      36.544  31.327  30.726  1.00  0.00     0.091 A 
ATOM     82  F   UNL A   1      37.823  31.165  28.719  1.00  0.00    -0.205 F 
ATOM     83  C   UNL A   1      36.378  30.982  32.077  1.00  0.00     0.022 A 
BRANCH  81  84
ATOM     84  S   UNL A   1      35.312  32.413  29.997  1.00  0.00     0.127 S 
ATOM     85  O   UNL A   1      36.121  33.564  29.607  1.00  0.00    -0.237 OA
ATOM     86  O   UNL A   1      34.814  31.601  28.886  1.00  0.00    -0.237 OA
ATOM     87  O   UNL A   1      34.331  32.652  31.047  1.00  0.00    -0.744 OA
ENDBRANCH  81  84
ENDBRANCH  53  77
BRANCH  65  88
ATOM     88  C   UNL A   1      44.817  33.226  29.477  1.00  0.00     0.023 A 
ATOM     89  C   UNL A   1      45.535  33.384  30.681  1.00  0.00     0.012 A 
ATOM     90  C   UNL A   1      44.696  34.322  28.599  1.00  0.00     0.148 A 
ATOM     91  C   UNL A   1      46.092  34.618  31.020  1.00  0.00     0.002 A 
ATOM     92  C   UNL A   1      45.294  35.536  28.921  1.00  0.00     0.091 A 
ATOM     93  F   UNL A   1      43.993  34.161  27.468  1.00  0.00    -0.205 F 
ATOM     94  C   UNL A   1      45.982  35.689  30.135  1.00  0.00     0.022 A 
BRANCH  92  95
ATOM     95  S   UNL A   1      45.282  36.942  27.803  1.00  0.00     0.127 S 
ATOM     96  O   UNL A   1      45.949  37.967  28.604  1.00  0.00    -0.237 OA
ATOM     97  O   UNL A   1      46.066  36.447  26.670  1.00  0.00    -0.237 OA
ATOM     98  O   UNL A   1      43.880  37.198  27.498  1.00  0.00    -0.744 OA
ENDBRANCH  92  95
ENDBRANCH  65  88
ENDBRANCH  39  40
ENDBRANCH  31  34
ENDBRANCH  29  30
ENDBRANCH  28  29
ENDBRANCH   1  28
TORSDOF 18
ENDMDL
MODEL 3
REMARK VINA RESULT:     -11.9      5.031      7.923
REMARK SMILES COc1ccc2c(c1)C(=O)N(c1ccccc1C(=O)NCCCCCCNC(=O)c1ccc(-c3c4nc(c(-c5cccc(S(=O)(=O)[O-])c5F)c5ccc([nH]5)c(-c5cccc(S(=O)(=O)[O-])c5F)c5nc(c(-c6cccc(S(=O)(=O)[O-])c6F)c6ccc3[nH]6)C=C5)C=C4)cc1)C2=O
REMARK SMILES IDX 24 1 23 2 22 3 21 4 20 5 18 6 19 7 17 9 12 10 13 11 14 12
REMARK SMILES IDX 16 13 15 14 11 15 3 16 4 17 8 18 5 19 7 20 6 21 9 22 93 23
REMARK SMILES IDX 10 24 94 25 2 26 1 27 25 28 26 29 27 30 28 31 29 33 30 34
REMARK SMILES IDX 31 35 92 36 32 37 91 38 33 39 34 40 35 41 85 42 36 43 90 44
REMARK SMILES IDX 84 45 86 46 37 47 89 48 83 49 82 50 38 52 70 53 50 54 69 55
REMARK SMILES IDX 51 56 54 57 68 58 87 59 52 60 53 61 67 63 88 64 55 65 39 66
REMARK SMILES IDX 40 67 48 68 41 69 43 70 49 71 42 72 44 73 45 74 46 75 47 76
REMARK SMILES IDX 71 77 72 78 80 79 73 80 75 81 81 82 74 83 76 84 77 85 78 86
REMARK SMILES IDX 79 87 56 88 57 89 65 90 58 91 60 92 66 93 59 94 61 95 62 96
REMARK SMILES IDX 63 97 64 98
REMARK H PARENT 20 8 27 32 86 51 54 62
REMARK Flexibility Score: inf
ROOT
ATOM      1  C   UNL A   1      35.209  22.052  26.229  1.00  0.00     0.002 C 
ENDROOT
BRANCH   1   2
ATOM      2  C   UNL A   1      34.607  23.459  26.126  1.00  0.00     0.002 C 
BRANCH   2   3
ATOM      3  C   UNL A   1      35.170  24.442  25.093  1.00  0.00     0.021 C 
BRANCH   3   4
ATOM      4  C   UNL A   1      34.370  25.695  24.753  1.00  0.00     0.116 C 
BRANCH   4   5
ATOM      5  N   UNL A   1      34.074  26.607  25.823  1.00  0.00    -0.352 N 
ATOM      6  C   UNL A   1      32.937  27.334  26.103  1.00  0.00     0.253 C 
ATOM      7  O   UNL A   1      32.931  27.915  27.195  1.00  0.00    -0.269 OA
ATOM      8  H   UNL A   1      34.809  26.733  26.466  1.00  0.00     0.163 HD
BRANCH   6   9
ATOM      9  C   UNL A   1      31.796  27.604  25.158  1.00  0.00     0.064 A 
ATOM     10  C   UNL A   1      31.038  26.729  24.352  1.00  0.00     0.065 A 
ATOM     11  C   UNL A   1      30.060  27.269  23.478  1.00  0.00     0.028 A 
ATOM     12  C   UNL A   1      29.789  28.633  23.416  1.00  0.00     0.002 A 
ATOM     13  C   UNL A   1      31.497  28.991  25.067  1.00  0.00     0.016 A 
ATOM     14  C   UNL A   1      30.509  29.499  24.217  1.00  0.00     0.001 A 
BRANCH  10  15
ATOM     15  N   UNL A   1      31.143  25.323  24.317  1.00  0.00    -0.241 N 
ATOM     16  C   UNL A   1      31.863  20.831  24.843  1.00  0.00     0.119 A 
ATOM     17  C   UNL A   1      32.306  20.982  23.509  1.00  0.00     0.047 A 
ATOM     18  C   UNL A   1      31.277  21.905  25.525  1.00  0.00     0.061 A 
ATOM     19  C   UNL A   1      32.200  22.201  22.842  1.00  0.00     0.018 A 
ATOM     20  C   UNL A   1      31.207  23.114  24.854  1.00  0.00     0.057 A 
ATOM     21  C   UNL A   1      31.644  23.247  23.548  1.00  0.00     0.053 A 
ATOM     22  C   UNL A   1      30.885  24.461  25.355  1.00  0.00     0.266 C 
ATOM     23  C   UNL A   1      31.552  24.653  23.184  1.00  0.00     0.266 C 
ATOM     24  O   UNL A   1      30.511  24.689  26.489  1.00  0.00    -0.268 OA
ATOM     25  O   UNL A   1      31.905  25.082  22.100  1.00  0.00    -0.268 OA
BRANCH  16  26
ATOM     26  O   UNL A   1      32.150  19.603  25.375  1.00  0.00    -0.497 OA
ATOM     27  C   UNL A   1      33.095  18.794  24.689  1.00  0.00     0.278 C 
ENDBRANCH  16  26
ENDBRANCH  10  15
ENDBRANCH   6   9
ENDBRANCH   4   5
ENDBRANCH   3   4
ENDBRANCH   2   3
ENDBRANCH   1   2
BRANCH   1  28
ATOM     28  C   UNL A   1      35.591  21.335  24.933  1.00  0.00     0.021 C 
BRANCH  28  29
ATOM     29  C   UNL A   1      37.047  21.398  24.482  1.00  0.00     0.116 C 
BRANCH  29  30
ATOM     30  N   UNL A   1      37.863  20.348  25.059  1.00  0.00    -0.352 N 
ATOM     31  C   UNL A   1      39.070  20.390  25.717  1.00  0.00     0.251 C 
ATOM     32  H   UNL A   1      37.485  19.445  24.964  1.00  0.00     0.163 HD
ATOM     33  O   UNL A   1      39.619  19.317  25.971  1.00  0.00    -0.269 OA
BRANCH  31  34
ATOM     34  C   UNL A   1      39.745  21.657  26.124  1.00  0.00     0.039 A 
ATOM     35  C   UNL A   1      38.978  22.831  26.122  1.00  0.00     0.014 A 
ATOM     36  C   UNL A   1      41.111  21.754  26.402  1.00  0.00     0.014 A 
ATOM     37  C   UNL A   1      39.562  24.071  26.421  1.00  0.00     0.010 A 
ATOM     38  C   UNL A   1      41.680  22.986  26.767  1.00  0.00     0.010 A 
ATOM     39  C   UNL A   1      40.918  24.163  26.767  1.00  0.00    -0.014 A 
BRANCH  39  40
ATOM     40  C   UNL A   1      41.528  25.483  27.116  1.00  0.00     0.031 A 
ATOM     41  C   UNL A   1      40.760  26.516  27.905  1.00  0.00     0.074 A 
ATOM     42  C   UNL A   1      42.776  25.779  26.695  1.00  0.00     0.049 A 
ATOM     43  N   UNL A   1      41.143  27.705  28.302  1.00  0.00    -0.248 NA
ATOM     44  C   UNL A   1      39.379  26.180  28.284  1.00  0.00     0.031 C 
ATOM     45  C   UNL A   1      43.615  24.912  25.867  1.00  0.00     0.029 A 
ATOM     46  N   UNL A   1      43.549  26.899  26.892  1.00  0.00    -0.354 N 
ATOM     47  C   UNL A   1      40.048  28.269  28.947  1.00  0.00     0.074 A 
ATOM     48  C   UNL A   1      38.974  27.302  28.863  1.00  0.00     0.031 C 
ATOM     49  C   UNL A   1      44.788  25.525  25.637  1.00  0.00     0.029 A 
ATOM     50  C   UNL A   1      44.778  26.840  26.274  1.00  0.00     0.049 A 
ATOM     51  H   UNL A   1      43.252  27.671  27.426  1.00  0.00     0.167 HD
ATOM     52  C   UNL A   1      39.946  29.466  29.577  1.00  0.00     0.034 A 
ATOM     53  C   UNL A   1      45.783  27.736  26.220  1.00  0.00     0.034 A 
ATOM     54  C   UNL A   1      41.021  30.415  29.708  1.00  0.00     0.049 A 
ATOM     55  C   UNL A   1      45.658  29.044  26.958  1.00  0.00     0.074 A 
ATOM     56  C   UNL A   1      41.030  31.613  30.404  1.00  0.00     0.029 A 
ATOM     57  N   UNL A   1      42.273  30.285  29.129  1.00  0.00    -0.354 N 
ATOM     58  N   UNL A   1      44.671  29.483  27.697  1.00  0.00    -0.248 NA
ATOM     59  C   UNL A   1      46.805  29.963  26.882  1.00  0.00     0.031 C 
ATOM     60  C   UNL A   1      42.280  32.215  30.228  1.00  0.00     0.029 A 
ATOM     61  C   UNL A   1      43.058  31.383  29.442  1.00  0.00     0.049 A 
ATOM     62  H   UNL A   1      42.563  29.523  28.576  1.00  0.00     0.167 HD
ATOM     63  C   UNL A   1      45.088  30.710  28.203  1.00  0.00     0.074 A 
ATOM     64  C   UNL A   1      46.429  30.934  27.705  1.00  0.00     0.031 C 
ATOM     65  C   UNL A   1      44.413  31.580  28.994  1.00  0.00     0.034 A 
BRANCH  52  66
ATOM     66  C   UNL A   1      38.632  29.805  30.234  1.00  0.00     0.023 A 
ATOM     67  C   UNL A   1      38.351  29.301  31.520  1.00  0.00     0.012 A 
ATOM     68  C   UNL A   1      37.716  30.683  29.622  1.00  0.00     0.148 A 
ATOM     69  C   UNL A   1      37.166  29.637  32.174  1.00  0.00     0.002 A 
ATOM     70  C   UNL A   1      36.556  31.047  30.296  1.00  0.00     0.091 A 
ATOM     71  F   UNL A   1      37.990  31.140  28.392  1.00  0.00    -0.205 F 
ATOM     72  C   UNL A   1      36.275  30.518  31.567  1.00  0.00     0.022 A 
BRANCH  70  73
ATOM     73  S   UNL A   1      35.382  32.236  29.635  1.00  0.00     0.127 S 
ATOM     74  O   UNL A   1      36.254  33.365  29.316  1.00  0.00    -0.237 OA
ATOM     75  O   UNL A   1      34.846  31.530  28.471  1.00  0.00    -0.237 OA
ATOM     76  O   UNL A   1      34.414  32.475  30.697  1.00  0.00    -0.744 OA
ENDBRANCH  70  73
ENDBRANCH  52  66
BRANCH  53  77
ATOM     77  C   UNL A   1      47.036  27.404  25.482  1.00  0.00     0.023 A 
ATOM     78  C   UNL A   1      48.065  26.704  26.143  1.00  0.00     0.012 A 
ATOM     79  C   UNL A   1      47.204  27.759  24.130  1.00  0.00     0.148 A 
ATOM     80  C   UNL A   1      49.253  26.393  25.479  1.00  0.00     0.002 A 
ATOM     81  C   UNL A   1      48.365  27.393  23.459  1.00  0.00     0.091 A 
ATOM     82  F   UNL A   1      46.222  28.440  23.524  1.00  0.00    -0.205 F 
ATOM     83  C   UNL A   1      49.398  26.727  24.136  1.00  0.00     0.022 A 
BRANCH  81  84
ATOM     84  S   UNL A   1      48.576  27.660  21.695  1.00  0.00     0.127 S 
ATOM     85  O   UNL A   1      49.712  28.577  21.664  1.00  0.00    -0.237 OA
ATOM     86  O   UNL A   1      48.861  26.306  21.216  1.00  0.00    -0.237 OA
ATOM     87  O   UNL A   1      47.308  28.203  21.227  1.00  0.00    -0.744 OA
ENDBRANCH  81  84
ENDBRANCH  53  77
BRANCH  65  88
ATOM     88  C   UNL A   1      45.115  32.849  29.406  1.00  0.00     0.023 A 
ATOM     89  C   UNL A   1      45.927  32.857  30.559  1.00  0.00     0.012 A 
ATOM     90  C   UNL A   1      45.025  34.014  28.619  1.00  0.00     0.148 A 
ATOM     91  C   UNL A   1      46.610  34.012  30.939  1.00  0.00     0.002 A 
ATOM     92  C   UNL A   1      45.746  35.148  28.978  1.00  0.00     0.091 A 
ATOM     93  F   UNL A   1      44.233  33.996  27.537  1.00  0.00    -0.205 F 
ATOM     94  C   UNL A   1      46.529  35.153  30.143  1.00  0.00     0.022 A 
BRANCH  92  95
ATOM     95  S   UNL A   1      45.774  36.632  27.965  1.00  0.00     0.127 S 
ATOM     96  O   UNL A   1      44.384  37.079  28.052  1.00  0.00    -0.237 OA
ATOM     97  O   UNL A   1      46.733  37.478  28.677  1.00  0.00    -0.237 OA
ATOM     98  O   UNL A   1      46.214  36.205  26.643  1.00  0.00    -0.744 OA
ENDBRANCH  92  95
ENDBRANCH  65  88
ENDBRANCH  39  40
ENDBRANCH  31  34
ENDBRANCH  29  30
ENDBRANCH  28  29
ENDBRANCH   1  28
TORSDOF 18
ENDMDL
