MODEL 1
REMARK VINA RESULT:     -12.1      0.000      0.000
REMARK SMILES NC(=O)c1ccccc1NC(=O)[C@@H]1CC=CC[C@@H]1C(=O)NCCCCCCNC(=O)c1ccc(-c2c3nc(c(-c4cccc(S(=O)(=O)[O-])c4F)c4ccc([nH]4)c(-c4cccc(S(=O)(=O)[O-])c4F)c4nc(c(-c5cccc(S(=O)(=O)[O-])c5F)c5ccc2[nH]5)C=C4)C=C3)cc1
REMARK SMILES IDX 24 1 23 2 22 3 21 4 19 5 20 6 18 8 13 9 14 10 15 11 17 12
REMARK SMILES IDX 16 13 11 14 10 15 12 17 9 18 4 19 5 20 6 21 8 22 7 23 2 24
REMARK SMILES IDX 1 25 3 28 25 29 26 30 27 31 28 32 29 33 30 35 31 36 32 37
REMARK SMILES IDX 93 38 33 39 92 40 34 41 35 42 36 43 86 44 37 45 91 46 85 47
REMARK SMILES IDX 87 48 38 49 90 50 84 51 83 52 39 54 71 55 51 56 70 57 52 58
REMARK SMILES IDX 55 59 69 60 88 61 53 62 54 63 68 65 89 66 56 67 40 68 41 69
REMARK SMILES IDX 49 70 42 71 44 72 50 73 43 74 45 75 46 76 47 77 48 78 72 79
REMARK SMILES IDX 73 80 81 81 74 82 76 83 82 84 75 85 77 86 78 87 79 88 80 89
REMARK SMILES IDX 57 90 58 91 66 92 59 93 61 94 67 95 60 96 62 97 63 98 64 99
REMARK SMILES IDX 65 100
REMARK H PARENT 21 7 10 16 1 26 1 27 28 34 87 53 55 64
REMARK Flexibility Score: inf
ROOT
ATOM      1  C   UNL A   1      33.126  29.871  26.024  1.00  0.00     0.002 C 
ENDROOT
BRANCH   1   2
ATOM      2  C   UNL A   1      33.347  29.385  24.591  1.00  0.00     0.021 C 
BRANCH   2   3
ATOM      3  C   UNL A   1      32.272  28.428  24.062  1.00  0.00     0.116 C 
BRANCH   3   4
ATOM      4  N   UNL A   1      32.838  27.431  23.170  1.00  0.00    -0.356 N 
ATOM      5  C   UNL A   1      33.242  26.145  23.241  1.00  0.00     0.224 C 
ATOM      6  O   UNL A   1      33.666  25.711  22.154  1.00  0.00    -0.275 OA
ATOM      7  H   UNL A   1      32.959  27.792  22.262  1.00  0.00     0.163 HD
BRANCH   5   8
ATOM      8  C   UNL A   1      33.191  25.165  24.439  1.00  0.00     0.095 C 
ATOM      9  C   UNL A   1      32.009  24.185  24.675  1.00  0.00     0.095 C 
ATOM     10  C   UNL A   1      30.744  25.004  24.969  1.00  0.00     0.041 C 
ATOM     11  C   UNL A   1      30.963  26.051  26.027  1.00  0.00    -0.030 C 
ATOM     12  C   UNL A   1      33.439  25.974  25.743  1.00  0.00     0.041 C 
ATOM     13  C   UNL A   1      32.181  26.466  26.397  1.00  0.00    -0.030 C 
BRANCH   9  14
ATOM     14  C   UNL A   1      32.061  23.071  23.616  1.00  0.00     0.228 C 
ATOM     15  N   UNL A   1      33.103  22.242  23.367  1.00  0.00    -0.325 N 
ATOM     16  H   UNL A   1      32.877  21.557  22.698  1.00  0.00     0.169 HD
ATOM     17  O   UNL A   1      31.070  22.873  22.897  1.00  0.00    -0.274 OA
BRANCH  15  18
ATOM     18  C   UNL A   1      34.423  22.119  23.827  1.00  0.00     0.053 A 
ATOM     19  C   UNL A   1      34.691  21.227  24.885  1.00  0.00     0.063 A 
ATOM     20  C   UNL A   1      35.953  21.168  25.483  1.00  0.00     0.016 A 
ATOM     21  C   UNL A   1      36.983  21.959  24.984  1.00  0.00     0.001 A 
ATOM     22  C   UNL A   1      35.491  22.820  23.274  1.00  0.00     0.027 A 
ATOM     23  C   UNL A   1      36.759  22.762  23.866  1.00  0.00     0.002 A 
BRANCH  19  24
ATOM     24  C   UNL A   1      33.636  20.357  25.436  1.00  0.00     0.250 C 
ATOM     25  N   UNL A   1      33.413  20.494  26.774  1.00  0.00    -0.366 N 
ATOM     26  H   UNL A   1      32.724  19.949  27.218  1.00  0.00     0.159 HD
ATOM     27  H   UNL A   1      33.942  21.140  27.298  1.00  0.00     0.159 HD
ATOM     28  O   UNL A   1      33.043  19.548  24.733  1.00  0.00    -0.269 OA
ENDBRANCH  19  24
ENDBRANCH  15  18
ENDBRANCH   9  14
ENDBRANCH   5   8
ENDBRANCH   3   4
ENDBRANCH   2   3
ENDBRANCH   1   2
BRANCH   1  29
ATOM     29  C   UNL A   1      31.709  30.360  26.343  1.00  0.00     0.002 C 
BRANCH  29  30
ATOM     30  C   UNL A   1      31.567  31.856  26.641  1.00  0.00     0.021 C 
BRANCH  30  31
ATOM     31  C   UNL A   1      32.777  32.514  27.299  1.00  0.00     0.116 C 
BRANCH  31  32
ATOM     32  N   UNL A   1      32.527  33.904  27.653  1.00  0.00    -0.352 N 
ATOM     33  C   UNL A   1      33.086  34.668  28.645  1.00  0.00     0.251 C 
ATOM     34  H   UNL A   1      31.856  34.364  27.097  1.00  0.00     0.163 HD
ATOM     35  O   UNL A   1      32.611  35.766  28.920  1.00  0.00    -0.269 OA
BRANCH  33  36
ATOM     36  C   UNL A   1      34.261  34.167  29.388  1.00  0.00     0.039 A 
ATOM     37  C   UNL A   1      34.065  33.289  30.458  1.00  0.00     0.014 A 
ATOM     38  C   UNL A   1      35.550  34.578  29.041  1.00  0.00     0.014 A 
ATOM     39  C   UNL A   1      35.168  32.777  31.146  1.00  0.00     0.010 A 
ATOM     40  C   UNL A   1      36.650  34.026  29.693  1.00  0.00     0.010 A 
ATOM     41  C   UNL A   1      36.470  33.122  30.751  1.00  0.00    -0.014 A 
BRANCH  41  42
ATOM     42  C   UNL A   1      37.665  32.545  31.416  1.00  0.00     0.031 A 
ATOM     43  C   UNL A   1      38.402  31.401  30.778  1.00  0.00     0.074 A 
ATOM     44  C   UNL A   1      38.008  32.969  32.648  1.00  0.00     0.049 A 
ATOM     45  N   UNL A   1      39.384  30.683  31.257  1.00  0.00    -0.248 NA
ATOM     46  C   UNL A   1      37.955  30.987  29.437  1.00  0.00     0.031 C 
ATOM     47  C   UNL A   1      37.320  34.017  33.404  1.00  0.00     0.029 A 
ATOM     48  N   UNL A   1      38.998  32.540  33.499  1.00  0.00    -0.354 N 
ATOM     49  C   UNL A   1      39.642  29.706  30.303  1.00  0.00     0.074 A 
ATOM     50  C   UNL A   1      38.701  29.912  29.223  1.00  0.00     0.031 C 
ATOM     51  C   UNL A   1      37.896  34.139  34.611  1.00  0.00     0.029 A 
ATOM     52  C   UNL A   1      38.976  33.165  34.726  1.00  0.00     0.049 A 
ATOM     53  H   UNL A   1      39.659  31.853  33.255  1.00  0.00     0.167 HD
ATOM     54  C   UNL A   1      40.592  28.741  30.313  1.00  0.00     0.034 A 
ATOM     55  C   UNL A   1      39.734  32.964  35.822  1.00  0.00     0.034 A 
ATOM     56  C   UNL A   1      41.567  28.582  31.358  1.00  0.00     0.049 A 
ATOM     57  C   UNL A   1      40.831  31.936  35.777  1.00  0.00     0.074 A 
ATOM     58  C   UNL A   1      42.635  27.705  31.410  1.00  0.00     0.029 A 
ATOM     59  N   UNL A   1      41.595  29.319  32.531  1.00  0.00    -0.354 N 
ATOM     60  N   UNL A   1      41.165  31.130  34.797  1.00  0.00    -0.248 NA
ATOM     61  C   UNL A   1      41.680  31.811  36.971  1.00  0.00     0.031 C 
ATOM     62  C   UNL A   1      43.305  27.904  32.621  1.00  0.00     0.029 A 
ATOM     63  C   UNL A   1      42.659  28.913  33.319  1.00  0.00     0.049 A 
ATOM     64  H   UNL A   1      40.953  30.026  32.769  1.00  0.00     0.167 HD
ATOM     65  C   UNL A   1      42.279  30.427  35.243  1.00  0.00     0.074 A 
ATOM     66  C   UNL A   1      42.575  30.916  36.574  1.00  0.00     0.031 C 
ATOM     67  C   UNL A   1      42.979  29.452  34.615  1.00  0.00     0.034 A 
BRANCH  54  68
ATOM     68  C   UNL A   1      40.666  27.816  29.128  1.00  0.00     0.023 A 
ATOM     69  C   UNL A   1      39.793  26.711  29.057  1.00  0.00     0.012 A 
ATOM     70  C   UNL A   1      41.545  28.073  28.058  1.00  0.00     0.148 A 
ATOM     71  C   UNL A   1      39.813  25.860  27.953  1.00  0.00     0.002 A 
ATOM     72  C   UNL A   1      41.532  27.243  26.943  1.00  0.00     0.091 A 
ATOM     73  F   UNL A   1      42.384  29.115  28.155  1.00  0.00    -0.205 F 
ATOM     74  C   UNL A   1      40.674  26.132  26.893  1.00  0.00     0.022 A 
BRANCH  72  75
ATOM     75  S   UNL A   1      42.552  27.552  25.496  1.00  0.00     0.127 S 
ATOM     76  O   UNL A   1      43.894  27.554  26.076  1.00  0.00    -0.237 OA
ATOM     77  O   UNL A   1      42.253  26.394  24.653  1.00  0.00    -0.237 OA
ATOM     78  O   UNL A   1      42.100  28.826  24.955  1.00  0.00    -0.744 OA
ENDBRANCH  72  75
ENDBRANCH  54  68
BRANCH  55  79
ATOM     79  C   UNL A   1      39.519  33.807  37.032  1.00  0.00     0.023 A 
ATOM     80  C   UNL A   1      39.927  35.155  37.011  1.00  0.00     0.012 A 
ATOM     81  C   UNL A   1      38.877  33.300  38.179  1.00  0.00     0.148 A 
ATOM     82  C   UNL A   1      39.726  35.975  38.122  1.00  0.00     0.002 A 
ATOM     83  C   UNL A   1      38.633  34.137  39.263  1.00  0.00     0.091 A 
ATOM     84  F   UNL A   1      38.509  32.012  38.185  1.00  0.00    -0.205 F 
ATOM     85  C   UNL A   1      39.071  35.471  39.243  1.00  0.00     0.022 A 
BRANCH  83  86
ATOM     86  S   UNL A   1      37.686  33.598  40.693  1.00  0.00     0.127 S 
ATOM     87  O   UNL A   1      37.557  34.839  41.453  1.00  0.00    -0.237 OA
ATOM     88  O   UNL A   1      36.446  33.122  40.079  1.00  0.00    -0.237 OA
ATOM     89  O   UNL A   1      38.479  32.548  41.319  1.00  0.00    -0.744 OA
ENDBRANCH  83  86
ENDBRANCH  55  79
BRANCH  67  90
ATOM     90  C   UNL A   1      44.155  28.855  35.339  1.00  0.00     0.023 A 
ATOM     91  C   UNL A   1      45.431  29.431  35.185  1.00  0.00     0.012 A 
ATOM     92  C   UNL A   1      43.979  27.791  36.246  1.00  0.00     0.148 A 
ATOM     93  C   UNL A   1      46.520  28.944  35.907  1.00  0.00     0.002 A 
ATOM     94  C   UNL A   1      45.061  27.339  36.993  1.00  0.00     0.091 A 
ATOM     95  F   UNL A   1      42.761  27.244  36.363  1.00  0.00    -0.205 F 
ATOM     96  C   UNL A   1      46.332  27.908  36.819  1.00  0.00     0.022 A 
BRANCH  94  97
ATOM     97  S   UNL A   1      44.892  26.072  38.257  1.00  0.00     0.127 S 
ATOM     98  O   UNL A   1      43.946  26.696  39.180  1.00  0.00    -0.237 OA
ATOM     99  O   UNL A   1      44.349  24.944  37.498  1.00  0.00    -0.237 OA
ATOM    100  O   UNL A   1      46.231  25.853  38.784  1.00  0.00    -0.744 OA
ENDBRANCH  94  97
ENDBRANCH  67  90
ENDBRANCH  41  42
ENDBRANCH  33  36
ENDBRANCH  31  32
ENDBRANCH  30  31
ENDBRANCH  29  30
ENDBRANCH   1  29
TORSDOF 19
ENDMDL
MODEL 2
REMARK VINA RESULT:     -12.1      1.800      2.345
REMARK SMILES NC(=O)c1ccccc1NC(=O)[C@@H]1CC=CC[C@@H]1C(=O)NCCCCCCNC(=O)c1ccc(-c2c3nc(c(-c4cccc(S(=O)(=O)[O-])c4F)c4ccc([nH]4)c(-c4cccc(S(=O)(=O)[O-])c4F)c4nc(c(-c5cccc(S(=O)(=O)[O-])c5F)c5ccc2[nH]5)C=C4)C=C3)cc1
REMARK SMILES IDX 24 1 23 2 22 3 21 4 19 5 20 6 18 8 13 9 14 10 15 11 17 12
REMARK SMILES IDX 16 13 11 14 10 15 12 17 9 18 4 19 5 20 6 21 8 22 7 23 2 24
REMARK SMILES IDX 1 25 3 28 25 29 26 30 27 31 28 32 29 33 30 35 31 36 32 37
REMARK SMILES IDX 93 38 33 39 92 40 34 41 35 42 36 43 86 44 37 45 91 46 85 47
REMARK SMILES IDX 87 48 38 49 90 50 84 51 83 52 39 54 71 55 51 56 70 57 52 58
REMARK SMILES IDX 55 59 69 60 88 61 53 62 54 63 68 65 89 66 56 67 40 68 41 69
REMARK SMILES IDX 49 70 42 71 44 72 50 73 43 74 45 75 46 76 47 77 48 78 72 79
REMARK SMILES IDX 73 80 81 81 74 82 76 83 82 84 75 85 77 86 78 87 79 88 80 89
REMARK SMILES IDX 57 90 58 91 66 92 59 93 61 94 67 95 60 96 62 97 63 98 64 99
REMARK SMILES IDX 65 100
REMARK H PARENT 21 7 10 16 1 26 1 27 28 34 87 53 55 64
REMARK Flexibility Score: inf
ROOT
ATOM      1  C   UNL A   1      32.775  29.695  25.845  1.00  0.00     0.002 C 
ENDROOT
BRANCH   1   2
ATOM      2  C   UNL A   1      33.018  29.322  24.383  1.00  0.00     0.021 C 
BRANCH   2   3
ATOM      3  C   UNL A   1      33.737  27.985  24.168  1.00  0.00     0.116 C 
BRANCH   3   4
ATOM      4  N   UNL A   1      33.425  27.036  25.223  1.00  0.00    -0.356 N 
ATOM      5  C   UNL A   1      32.669  25.928  25.376  1.00  0.00     0.224 C 
ATOM      6  O   UNL A   1      32.743  25.447  26.522  1.00  0.00    -0.275 OA
ATOM      7  H   UNL A   1      33.896  27.263  26.058  1.00  0.00     0.163 HD
BRANCH   5   8
ATOM      8  C   UNL A   1      31.804  25.178  24.333  1.00  0.00     0.095 C 
ATOM      9  C   UNL A   1      31.762  25.577  22.832  1.00  0.00     0.095 C 
ATOM     10  C   UNL A   1      31.138  26.975  22.714  1.00  0.00     0.041 C 
ATOM     11  C   UNL A   1      29.846  27.100  23.473  1.00  0.00    -0.030 C 
ATOM     12  C   UNL A   1      30.349  25.097  24.871  1.00  0.00     0.041 C 
ATOM     13  C   UNL A   1      29.476  26.234  24.426  1.00  0.00    -0.030 C 
BRANCH   9  14
ATOM     14  C   UNL A   1      33.098  25.196  22.173  1.00  0.00     0.228 C 
ATOM     15  N   UNL A   1      33.761  24.024  22.313  1.00  0.00    -0.325 N 
ATOM     16  H   UNL A   1      34.555  23.977  21.733  1.00  0.00     0.169 HD
ATOM     17  O   UNL A   1      33.660  26.012  21.426  1.00  0.00    -0.274 OA
BRANCH  15  18
ATOM     18  C   UNL A   1      33.597  22.860  23.080  1.00  0.00     0.053 A 
ATOM     19  C   UNL A   1      34.579  22.538  24.041  1.00  0.00     0.063 A 
ATOM     20  C   UNL A   1      34.549  21.322  24.729  1.00  0.00     0.016 A 
ATOM     21  C   UNL A   1      33.496  20.439  24.511  1.00  0.00     0.001 A 
ATOM     22  C   UNL A   1      32.499  22.014  22.957  1.00  0.00     0.027 A 
ATOM     23  C   UNL A   1      32.461  20.797  23.647  1.00  0.00     0.002 A 
BRANCH  19  24
ATOM     24  C   UNL A   1      35.703  23.450  24.318  1.00  0.00     0.250 C 
ATOM     25  N   UNL A   1      36.927  22.998  23.918  1.00  0.00    -0.366 N 
ATOM     26  H   UNL A   1      37.728  23.549  24.068  1.00  0.00     0.159 HD
ATOM     27  H   UNL A   1      37.008  22.120  23.480  1.00  0.00     0.159 HD
ATOM     28  O   UNL A   1      35.535  24.513  24.902  1.00  0.00    -0.269 OA
ENDBRANCH  19  24
ENDBRANCH  15  18
ENDBRANCH   9  14
ENDBRANCH   5   8
ENDBRANCH   3   4
ENDBRANCH   2   3
ENDBRANCH   1   2
BRANCH   1  29
ATOM     29  C   UNL A   1      31.388  30.266  26.158  1.00  0.00     0.002 C 
BRANCH  29  30
ATOM     30  C   UNL A   1      31.339  31.760  26.499  1.00  0.00     0.021 C 
BRANCH  30  31
ATOM     31  C   UNL A   1      32.682  32.402  26.837  1.00  0.00     0.116 C 
BRANCH  31  32
ATOM     32  N   UNL A   1      32.530  33.726  27.420  1.00  0.00    -0.352 N 
ATOM     33  C   UNL A   1      33.214  34.309  28.459  1.00  0.00     0.251 C 
ATOM     34  H   UNL A   1      31.833  34.289  27.010  1.00  0.00     0.163 HD
ATOM     35  O   UNL A   1      32.818  35.365  28.942  1.00  0.00    -0.269 OA
BRANCH  33  36
ATOM     36  C   UNL A   1      34.427  33.660  28.998  1.00  0.00     0.039 A 
ATOM     37  C   UNL A   1      35.655  34.320  28.890  1.00  0.00     0.014 A 
ATOM     38  C   UNL A   1      34.355  32.396  29.588  1.00  0.00     0.014 A 
ATOM     39  C   UNL A   1      36.805  33.736  29.429  1.00  0.00     0.010 A 
ATOM     40  C   UNL A   1      35.491  31.841  30.171  1.00  0.00     0.010 A 
ATOM     41  C   UNL A   1      36.726  32.504  30.096  1.00  0.00    -0.014 A 
BRANCH  41  42
ATOM     42  C   UNL A   1      37.915  31.887  30.737  1.00  0.00     0.031 A 
ATOM     43  C   UNL A   1      38.685  30.815  30.019  1.00  0.00     0.074 A 
ATOM     44  C   UNL A   1      38.223  32.207  32.009  1.00  0.00     0.049 A 
ATOM     45  N   UNL A   1      39.668  30.072  30.457  1.00  0.00    -0.248 NA
ATOM     46  C   UNL A   1      38.276  30.514  28.637  1.00  0.00     0.031 C 
ATOM     47  C   UNL A   1      37.500  33.173  32.837  1.00  0.00     0.029 A 
ATOM     48  N   UNL A   1      39.199  31.719  32.843  1.00  0.00    -0.354 N 
ATOM     49  C   UNL A   1      39.963  29.187  29.427  1.00  0.00     0.074 A 
ATOM     50  C   UNL A   1      39.044  29.473  28.347  1.00  0.00     0.031 C 
ATOM     51  C   UNL A   1      38.046  33.197  34.064  1.00  0.00     0.029 A 
ATOM     52  C   UNL A   1      39.140  32.233  34.119  1.00  0.00     0.049 A 
ATOM     53  H   UNL A   1      39.877  31.066  32.556  1.00  0.00     0.167 HD
ATOM     54  C   UNL A   1      40.929  28.238  29.376  1.00  0.00     0.034 A 
ATOM     55  C   UNL A   1      39.875  31.948  35.212  1.00  0.00     0.034 A 
ATOM     56  C   UNL A   1      41.882  28.002  30.426  1.00  0.00     0.049 A 
ATOM     57  C   UNL A   1      40.990  30.943  35.103  1.00  0.00     0.074 A 
ATOM     58  C   UNL A   1      42.963  27.139  30.427  1.00  0.00     0.029 A 
ATOM     59  N   UNL A   1      41.871  28.633  31.660  1.00  0.00    -0.354 N 
ATOM     60  N   UNL A   1      41.359  30.232  34.065  1.00  0.00    -0.248 NA
ATOM     61  C   UNL A   1      41.813  30.726  36.302  1.00  0.00     0.031 C 
ATOM     62  C   UNL A   1      43.601  27.241  31.667  1.00  0.00     0.029 A 
ATOM     63  C   UNL A   1      42.923  28.175  32.434  1.00  0.00     0.049 A 
ATOM     64  H   UNL A   1      41.212  29.307  31.943  1.00  0.00     0.167 HD
ATOM     65  C   UNL A   1      42.474  29.508  34.474  1.00  0.00     0.074 A 
ATOM     66  C   UNL A   1      42.732  29.882  35.849  1.00  0.00     0.031 C 
ATOM     67  C   UNL A   1      43.204  28.602  33.780  1.00  0.00     0.034 A 
BRANCH  54  68
ATOM     68  C   UNL A   1      41.045  27.423  28.117  1.00  0.00     0.023 A 
ATOM     69  C   UNL A   1      41.734  27.955  27.008  1.00  0.00     0.012 A 
ATOM     70  C   UNL A   1      40.534  26.111  28.049  1.00  0.00     0.148 A 
ATOM     71  C   UNL A   1      41.890  27.206  25.842  1.00  0.00     0.002 A 
ATOM     72  C   UNL A   1      40.727  25.357  26.898  1.00  0.00     0.091 A 
ATOM     73  F   UNL A   1      39.860  25.631  29.105  1.00  0.00    -0.205 F 
ATOM     74  C   UNL A   1      41.397  25.905  25.792  1.00  0.00     0.022 A 
BRANCH  72  75
ATOM     75  S   UNL A   1      40.192  23.647  26.762  1.00  0.00     0.127 S 
ATOM     76  O   UNL A   1      41.070  23.145  25.708  1.00  0.00    -0.237 OA
ATOM     77  O   UNL A   1      40.481  23.124  28.098  1.00  0.00    -0.237 OA
ATOM     78  O   UNL A   1      38.776  23.698  26.427  1.00  0.00    -0.744 OA
ENDBRANCH  72  75
ENDBRANCH  54  68
BRANCH  55  79
ATOM     79  C   UNL A   1      39.618  32.678  36.485  1.00  0.00     0.023 A 
ATOM     80  C   UNL A   1      40.317  33.872  36.744  1.00  0.00     0.012 A 
ATOM     81  C   UNL A   1      38.661  32.225  37.415  1.00  0.00     0.148 A 
ATOM     82  C   UNL A   1      40.089  34.588  37.920  1.00  0.00     0.002 A 
ATOM     83  C   UNL A   1      38.401  32.970  38.560  1.00  0.00     0.091 A 
ATOM     84  F   UNL A   1      38.016  31.079  37.156  1.00  0.00    -0.205 F 
ATOM     85  C   UNL A   1      39.125  34.144  38.822  1.00  0.00     0.022 A 
BRANCH  83  86
ATOM     86  S   UNL A   1      37.088  32.533  39.708  1.00  0.00     0.127 S 
ATOM     87  O   UNL A   1      37.224  33.569  40.728  1.00  0.00    -0.237 OA
ATOM     88  O   UNL A   1      35.894  32.647  38.869  1.00  0.00    -0.237 OA
ATOM     89  O   UNL A   1      37.379  31.172  40.141  1.00  0.00    -0.744 OA
ENDBRANCH  83  86
ENDBRANCH  55  79
BRANCH  67  90
ATOM     90  C   UNL A   1      44.373  27.961  34.478  1.00  0.00     0.023 A 
ATOM     91  C   UNL A   1      45.635  28.586  34.435  1.00  0.00     0.012 A 
ATOM     92  C   UNL A   1      44.200  26.799  35.255  1.00  0.00     0.148 A 
ATOM     93  C   UNL A   1      46.714  28.051  35.139  1.00  0.00     0.002 A 
ATOM     94  C   UNL A   1      45.270  26.296  35.988  1.00  0.00     0.091 A 
ATOM     95  F   UNL A   1      42.996  26.209  35.267  1.00  0.00    -0.205 F 
ATOM     96  C   UNL A   1      46.527  26.915  35.924  1.00  0.00     0.022 A 
BRANCH  94  97
ATOM     97  S   UNL A   1      45.097  24.893  37.097  1.00  0.00     0.127 S 
ATOM     98  O   UNL A   1      44.204  25.431  38.122  1.00  0.00    -0.237 OA
ATOM     99  O   UNL A   1      44.492  23.881  36.230  1.00  0.00    -0.237 OA
ATOM    100  O   UNL A   1      46.445  24.572  37.546  1.00  0.00    -0.744 OA
ENDBRANCH  94  97
ENDBRANCH  67  90
ENDBRANCH  41  42
ENDBRANCH  33  36
ENDBRANCH  31  32
ENDBRANCH  30  31
ENDBRANCH  29  30
ENDBRANCH   1  29
TORSDOF 19
ENDMDL
MODEL 3
REMARK VINA RESULT:     -11.9      2.272      7.819
REMARK SMILES NC(=O)c1ccccc1NC(=O)[C@@H]1CC=CC[C@@H]1C(=O)NCCCCCCNC(=O)c1ccc(-c2c3nc(c(-c4cccc(S(=O)(=O)[O-])c4F)c4ccc([nH]4)c(-c4cccc(S(=O)(=O)[O-])c4F)c4nc(c(-c5cccc(S(=O)(=O)[O-])c5F)c5ccc2[nH]5)C=C4)C=C3)cc1
REMARK SMILES IDX 24 1 23 2 22 3 21 4 19 5 20 6 18 8 13 9 14 10 15 11 17 12
REMARK SMILES IDX 16 13 11 14 10 15 12 17 9 18 4 19 5 20 6 21 8 22 7 23 2 24
REMARK SMILES IDX 1 25 3 28 25 29 26 30 27 31 28 32 29 33 30 35 31 36 32 37
REMARK SMILES IDX 93 38 33 39 92 40 34 41 35 42 36 43 86 44 37 45 91 46 85 47
REMARK SMILES IDX 87 48 38 49 90 50 84 51 83 52 39 54 71 55 51 56 70 57 52 58
REMARK SMILES IDX 55 59 69 60 88 61 53 62 54 63 68 65 89 66 56 67 40 68 41 69
REMARK SMILES IDX 49 70 42 71 44 72 50 73 43 74 45 75 46 76 47 77 48 78 72 79
REMARK SMILES IDX 73 80 81 81 74 82 76 83 82 84 75 85 77 86 78 87 79 88 80 89
REMARK SMILES IDX 57 90 58 91 66 92 59 93 61 94 67 95 60 96 62 97 63 98 64 99
REMARK SMILES IDX 65 100
REMARK H PARENT 21 7 10 16 1 26 1 27 28 34 87 53 55 64
REMARK Flexibility Score: inf
ROOT
ATOM      1  C   UNL A   1      34.577  31.523  28.025  1.00  0.00     0.002 C 
ENDROOT
BRANCH   1   2
ATOM      2  C   UNL A   1      35.232  30.270  27.443  1.00  0.00     0.021 C 
BRANCH   2   3
ATOM      3  C   UNL A   1      34.252  29.194  26.961  1.00  0.00     0.116 C 
BRANCH   3   4
ATOM      4  N   UNL A   1      34.028  29.278  25.528  1.00  0.00    -0.356 N 
ATOM      5  C   UNL A   1      32.993  29.147  24.671  1.00  0.00     0.224 C 
ATOM      6  O   UNL A   1      33.323  29.328  23.484  1.00  0.00    -0.275 OA
ATOM      7  H   UNL A   1      34.862  29.490  25.048  1.00  0.00     0.163 HD
BRANCH   5   8
ATOM      8  C   UNL A   1      31.499  28.872  24.972  1.00  0.00     0.095 C 
ATOM      9  C   UNL A   1      30.941  27.444  25.224  1.00  0.00     0.095 C 
ATOM     10  C   UNL A   1      31.092  26.623  23.935  1.00  0.00     0.041 C 
ATOM     11  C   UNL A   1      30.561  27.342  22.725  1.00  0.00    -0.030 C 
ATOM     12  C   UNL A   1      30.645  29.556  23.869  1.00  0.00     0.041 C 
ATOM     13  C   UNL A   1      30.330  28.661  22.706  1.00  0.00    -0.030 C 
BRANCH   9  14
ATOM     14  C   UNL A   1      31.430  26.950  26.596  1.00  0.00     0.228 C 
ATOM     15  N   UNL A   1      32.353  25.985  26.825  1.00  0.00    -0.325 N 
ATOM     16  H   UNL A   1      32.564  25.895  27.782  1.00  0.00     0.169 HD
ATOM     17  O   UNL A   1      30.963  27.461  27.626  1.00  0.00    -0.274 OA
BRANCH  15  18
ATOM     18  C   UNL A   1      33.083  25.083  26.035  1.00  0.00     0.053 A 
ATOM     19  C   UNL A   1      32.585  23.774  25.867  1.00  0.00     0.063 A 
ATOM     20  C   UNL A   1      33.335  22.789  25.218  1.00  0.00     0.016 A 
ATOM     21  C   UNL A   1      34.569  23.122  24.669  1.00  0.00     0.001 A 
ATOM     22  C   UNL A   1      34.267  25.422  25.387  1.00  0.00     0.027 A 
ATOM     23  C   UNL A   1      35.020  24.441  24.731  1.00  0.00     0.002 A 
BRANCH  19  24
ATOM     24  C   UNL A   1      31.274  23.379  26.417  1.00  0.00     0.250 C 
ATOM     25  N   UNL A   1      30.278  23.243  25.495  1.00  0.00    -0.366 N 
ATOM     26  H   UNL A   1      29.374  22.981  25.783  1.00  0.00     0.159 HD
ATOM     27  H   UNL A   1      30.464  23.405  24.542  1.00  0.00     0.159 HD
ATOM     28  O   UNL A   1      31.105  23.230  27.620  1.00  0.00    -0.269 OA
ENDBRANCH  19  24
ENDBRANCH  15  18
ENDBRANCH   9  14
ENDBRANCH   5   8
ENDBRANCH   3   4
ENDBRANCH   2   3
ENDBRANCH   1   2
BRANCH   1  29
ATOM     29  C   UNL A   1      35.423  32.799  27.964  1.00  0.00     0.002 C 
BRANCH  29  30
ATOM     30  C   UNL A   1      34.646  34.120  27.966  1.00  0.00     0.021 C 
BRANCH  30  31
ATOM     31  C   UNL A   1      33.205  34.035  28.460  1.00  0.00     0.116 C 
BRANCH  31  32
ATOM     32  N   UNL A   1      32.926  34.993  29.520  1.00  0.00    -0.352 N 
ATOM     33  C   UNL A   1      33.442  35.069  30.789  1.00  0.00     0.251 C 
ATOM     34  H   UNL A   1      32.270  35.692  29.292  1.00  0.00     0.163 HD
ATOM     35  O   UNL A   1      32.946  35.831  31.612  1.00  0.00    -0.269 OA
BRANCH  33  36
ATOM     36  C   UNL A   1      34.596  34.226  31.167  1.00  0.00     0.039 A 
ATOM     37  C   UNL A   1      35.890  34.713  30.960  1.00  0.00     0.014 A 
ATOM     38  C   UNL A   1      34.400  32.951  31.704  1.00  0.00     0.014 A 
ATOM     39  C   UNL A   1      36.990  33.943  31.346  1.00  0.00     0.010 A 
ATOM     40  C   UNL A   1      35.495  32.209  32.137  1.00  0.00     0.010 A 
ATOM     41  C   UNL A   1      36.799  32.696  31.962  1.00  0.00    -0.014 A 
BRANCH  41  42
ATOM     42  C   UNL A   1      37.943  31.882  32.445  1.00  0.00     0.031 A 
ATOM     43  C   UNL A   1      38.625  32.235  33.738  1.00  0.00     0.074 A 
ATOM     44  C   UNL A   1      38.442  30.907  31.661  1.00  0.00     0.049 A 
ATOM     45  N   UNL A   1      39.709  31.729  34.263  1.00  0.00    -0.248 NA
ATOM     46  C   UNL A   1      38.026  33.323  34.529  1.00  0.00     0.031 C 
ATOM     47  C   UNL A   1      37.917  30.526  30.348  1.00  0.00     0.029 A 
ATOM     48  N   UNL A   1      39.530  30.087  31.834  1.00  0.00    -0.354 N 
ATOM     49  C   UNL A   1      39.951  32.464  35.418  1.00  0.00     0.074 A 
ATOM     50  C   UNL A   1      38.909  33.463  35.509  1.00  0.00     0.031 C 
ATOM     51  C   UNL A   1      38.691  29.559  29.829  1.00  0.00     0.029 A 
ATOM     52  C   UNL A   1      39.780  29.269  30.756  1.00  0.00     0.049 A 
ATOM     53  H   UNL A   1      40.079  30.085  32.651  1.00  0.00     0.167 HD
ATOM     54  C   UNL A   1      40.937  32.305  36.332  1.00  0.00     0.034 A 
ATOM     55  C   UNL A   1      40.780  28.394  30.536  1.00  0.00     0.034 A 
ATOM     56  C   UNL A   1      41.931  31.268  36.272  1.00  0.00     0.049 A 
ATOM     57  C   UNL A   1      41.820  28.185  31.604  1.00  0.00     0.074 A 
ATOM     58  C   UNL A   1      42.907  30.957  37.203  1.00  0.00     0.029 A 
ATOM     59  N   UNL A   1      42.077  30.372  35.225  1.00  0.00    -0.354 N 
ATOM     60  N   UNL A   1      41.936  28.778  32.767  1.00  0.00    -0.248 NA
ATOM     61  C   UNL A   1      42.845  27.162  31.348  1.00  0.00     0.031 C 
ATOM     62  C   UNL A   1      43.649  29.878  36.714  1.00  0.00     0.029 A 
ATOM     63  C   UNL A   1      43.129  29.510  35.483  1.00  0.00     0.049 A 
ATOM     64  H   UNL A   1      41.514  30.352  34.417  1.00  0.00     0.167 HD
ATOM     65  C   UNL A   1      43.024  28.181  33.394  1.00  0.00     0.074 A 
ATOM     66  C   UNL A   1      43.521  27.165  32.490  1.00  0.00     0.031 C 
ATOM     67  C   UNL A   1      43.573  28.463  34.600  1.00  0.00     0.034 A 
BRANCH  54  68
ATOM     68  C   UNL A   1      40.955  33.236  37.514  1.00  0.00     0.023 A 
ATOM     69  C   UNL A   1      40.121  32.968  38.619  1.00  0.00     0.012 A 
ATOM     70  C   UNL A   1      41.837  34.334  37.563  1.00  0.00     0.148 A 
ATOM     71  C   UNL A   1      40.145  33.792  39.743  1.00  0.00     0.002 A 
ATOM     72  C   UNL A   1      41.883  35.128  38.703  1.00  0.00     0.091 A 
ATOM     73  F   UNL A   1      42.604  34.587  36.493  1.00  0.00    -0.205 F 
ATOM     74  C   UNL A   1      41.033  34.864  39.789  1.00  0.00     0.022 A 
BRANCH  72  75
ATOM     75  S   UNL A   1      43.043  36.488  38.886  1.00  0.00     0.127 S 
ATOM     76  O   UNL A   1      42.778  36.920  40.257  1.00  0.00    -0.237 OA
ATOM     77  O   UNL A   1      44.333  35.824  38.694  1.00  0.00    -0.237 OA
ATOM     78  O   UNL A   1      42.698  37.448  37.847  1.00  0.00    -0.744 OA
ENDBRANCH  72  75
ENDBRANCH  54  68
BRANCH  55  79
ATOM     79  C   UNL A   1      40.803  27.601  29.274  1.00  0.00     0.023 A 
ATOM     80  C   UNL A   1      39.919  26.516  29.129  1.00  0.00     0.012 A 
ATOM     81  C   UNL A   1      41.658  27.940  28.206  1.00  0.00     0.148 A 
ATOM     82  C   UNL A   1      39.904  25.763  27.954  1.00  0.00     0.002 A 
ATOM     83  C   UNL A   1      41.602  27.218  27.019  1.00  0.00     0.091 A 
ATOM     84  F   UNL A   1      42.503  28.967  28.369  1.00  0.00    -0.205 F 
ATOM     85  C   UNL A   1      40.737  26.119  26.896  1.00  0.00     0.022 A 
BRANCH  83  86
ATOM     86  S   UNL A   1      42.552  27.690  25.567  1.00  0.00     0.127 S 
ATOM     87  O   UNL A   1      41.907  28.943  25.181  1.00  0.00    -0.237 OA
ATOM     88  O   UNL A   1      43.901  27.836  26.114  1.00  0.00    -0.237 OA
ATOM     89  O   UNL A   1      42.410  26.586  24.626  1.00  0.00    -0.744 OA
ENDBRANCH  83  86
ENDBRANCH  55  79
BRANCH  67  90
ATOM     90  C   UNL A   1      44.762  27.651  35.037  1.00  0.00     0.023 A 
ATOM     91  C   UNL A   1      46.060  28.168  34.856  1.00  0.00     0.012 A 
ATOM     92  C   UNL A   1      44.591  26.428  35.714  1.00  0.00     0.148 A 
ATOM     93  C   UNL A   1      47.173  27.469  35.323  1.00  0.00     0.002 A 
ATOM     94  C   UNL A   1      45.702  25.757  36.214  1.00  0.00     0.091 A 
ATOM     95  F   UNL A   1      43.350  25.944  35.859  1.00  0.00    -0.205 F 
ATOM     96  C   UNL A   1      46.992  26.272  36.012  1.00  0.00     0.022 A 
BRANCH  94  97
ATOM     97  S   UNL A   1      45.558  24.258  37.194  1.00  0.00     0.127 S 
ATOM     98  O   UNL A   1      46.953  23.992  37.539  1.00  0.00    -0.237 OA
ATOM     99  O   UNL A   1      44.725  24.696  38.315  1.00  0.00    -0.237 OA
ATOM    100  O   UNL A   1      44.927  23.273  36.325  1.00  0.00    -0.744 OA
ENDBRANCH  94  97
ENDBRANCH  67  90
ENDBRANCH  41  42
ENDBRANCH  33  36
ENDBRANCH  31  32
ENDBRANCH  30  31
ENDBRANCH  29  30
ENDBRANCH   1  29
TORSDOF 19
ENDMDL
