MODEL 1
REMARK VINA RESULT:     -11.6      0.000      0.000
REMARK SMILES O=C(NCCCCCCNC(=O)C1(NC(=O)c2ccncc2Cl)CCCCC1)c1ccc(-c2c3nc(c(-c4cccc(S(=O)(=O)[O-])c4F)c4ccc([nH]4)c(-c4cccc(S(=O)(=O)[O-])c4F)c4nc(c(-c5cccc(S(=O)(=O)[O-])c5F)c5ccc2[nH]5)C=C4)C=C3)cc1
REMARK SMILES IDX 6 1 5 2 4 3 3 4 1 5 2 6 29 8 30 9 91 10 31 11 90 12 32 13
REMARK SMILES IDX 33 14 34 15 84 16 35 17 89 18 83 19 85 20 36 21 88 22 82 23
REMARK SMILES IDX 81 24 37 26 69 27 49 28 68 29 50 30 53 31 67 32 86 33 51 34
REMARK SMILES IDX 52 35 66 37 87 38 54 39 38 40 39 41 47 42 40 43 42 44 48 45
REMARK SMILES IDX 41 46 43 47 44 48 45 49 46 50 70 51 71 52 79 53 72 54 74 55
REMARK SMILES IDX 80 56 73 57 75 58 76 59 77 60 78 61 55 62 56 63 64 64 57 65
REMARK SMILES IDX 59 66 65 67 58 68 60 69 61 70 62 71 63 72 7 73 8 74 9 75
REMARK SMILES IDX 10 76 11 77 12 79 13 80 24 81 28 82 25 83 27 84 26 85 14 86
REMARK SMILES IDX 15 87 16 89 17 90 18 91 22 92 19 93 21 94 23 95 20 96
REMARK H PARENT 3 7 85 25 53 36 10 78 14 88
REMARK Flexibility Score: inf
ROOT
ATOM      1  C   UNL A   1      31.723  31.139  26.296  1.00  0.00     0.002 C 
ENDROOT
BRANCH   1   2
ATOM      2  C   UNL A   1      31.533  32.549  26.856  1.00  0.00     0.021 C 
BRANCH   2   3
ATOM      3  C   UNL A   1      32.804  33.169  27.419  1.00  0.00     0.116 C 
BRANCH   3   4
ATOM      4  N   UNL A   1      32.560  34.489  27.968  1.00  0.00    -0.352 N 
ATOM      5  O   UNL A   1      32.650  36.091  29.549  1.00  0.00    -0.269 OA
ATOM      6  C   UNL A   1      33.111  35.058  29.092  1.00  0.00     0.251 C 
ATOM      7  H   UNL A   1      31.918  35.049  27.474  1.00  0.00     0.163 HD
BRANCH   6   8
ATOM      8  C   UNL A   1      34.256  34.383  29.741  1.00  0.00     0.039 A 
ATOM      9  C   UNL A   1      35.554  34.572  29.256  1.00  0.00     0.014 A 
ATOM     10  C   UNL A   1      34.025  33.553  30.839  1.00  0.00     0.014 A 
ATOM     11  C   UNL A   1      36.607  33.849  29.803  1.00  0.00     0.010 A 
ATOM     12  C   UNL A   1      35.098  32.888  31.439  1.00  0.00     0.010 A 
ATOM     13  C   UNL A   1      36.394  33.019  30.915  1.00  0.00    -0.014 A 
BRANCH  13  14
ATOM     14  C   UNL A   1      37.558  32.390  31.583  1.00  0.00     0.031 A 
ATOM     15  C   UNL A   1      38.054  32.869  32.918  1.00  0.00     0.074 A 
ATOM     16  C   UNL A   1      38.179  31.376  30.950  1.00  0.00     0.049 A 
ATOM     17  N   UNL A   1      39.047  32.410  33.635  1.00  0.00    -0.248 NA
ATOM     18  C   UNL A   1      37.354  34.012  33.525  1.00  0.00     0.031 C 
ATOM     19  C   UNL A   1      37.814  30.866  29.625  1.00  0.00     0.029 A 
ATOM     20  N   UNL A   1      39.243  30.596  31.322  1.00  0.00    -0.354 N 
ATOM     21  C   UNL A   1      39.119  33.226  34.756  1.00  0.00     0.074 A 
ATOM     22  C   UNL A   1      38.070  34.215  34.625  1.00  0.00     0.031 C 
ATOM     23  C   UNL A   1      38.623  29.846  29.306  1.00  0.00     0.029 A 
ATOM     24  C   UNL A   1      39.593  29.660  30.377  1.00  0.00     0.049 A 
ATOM     25  H   UNL A   1      39.710  30.696  32.184  1.00  0.00     0.167 HD
ATOM     26  C   UNL A   1      39.974  33.147  35.804  1.00  0.00     0.034 A 
ATOM     27  C   UNL A   1      40.594  28.761  30.364  1.00  0.00     0.034 A 
ATOM     28  C   UNL A   1      40.993  32.138  35.939  1.00  0.00     0.049 A 
ATOM     29  C   UNL A   1      41.504  28.678  31.555  1.00  0.00     0.074 A 
ATOM     30  C   UNL A   1      41.865  31.931  36.995  1.00  0.00     0.029 A 
ATOM     31  N   UNL A   1      41.287  31.173  34.987  1.00  0.00    -0.354 N 
ATOM     32  N   UNL A   1      41.467  29.368  32.668  1.00  0.00    -0.248 NA
ATOM     33  C   UNL A   1      42.575  27.675  31.501  1.00  0.00     0.031 C 
ATOM     34  C   UNL A   1      42.695  30.851  36.674  1.00  0.00     0.029 A 
ATOM     35  C   UNL A   1      42.329  30.374  35.425  1.00  0.00     0.049 A 
ATOM     36  H   UNL A   1      40.821  31.071  34.126  1.00  0.00     0.167 HD
ATOM     37  C   UNL A   1      42.496  28.873  33.457  1.00  0.00     0.074 A 
ATOM     38  C   UNL A   1      43.118  27.800  32.705  1.00  0.00     0.031 C 
ATOM     39  C   UNL A   1      42.906  29.282  34.683  1.00  0.00     0.034 A 
BRANCH  26  40
ATOM     40  C   UNL A   1      39.820  34.149  36.918  1.00  0.00     0.023 A 
ATOM     41  C   UNL A   1      40.175  35.494  36.694  1.00  0.00     0.012 A 
ATOM     42  C   UNL A   1      39.254  33.781  38.155  1.00  0.00     0.148 A 
ATOM     43  C   UNL A   1      39.991  36.454  37.690  1.00  0.00     0.002 A 
ATOM     44  C   UNL A   1      39.040  34.749  39.130  1.00  0.00     0.091 A 
ATOM     45  F   UNL A   1      38.943  32.493  38.358  1.00  0.00    -0.205 F 
ATOM     46  C   UNL A   1      39.415  36.084  38.902  1.00  0.00     0.022 A 
BRANCH  44  47
ATOM     47  S   UNL A   1      38.239  34.385  40.696  1.00  0.00     0.127 S 
ATOM     48  O   UNL A   1      37.151  33.503  40.273  1.00  0.00    -0.237 OA
ATOM     49  O   UNL A   1      39.306  33.718  41.443  1.00  0.00    -0.237 OA
ATOM     50  O   UNL A   1      37.829  35.670  41.244  1.00  0.00    -0.744 OA
ENDBRANCH  44  47
ENDBRANCH  26  40
BRANCH  27  51
ATOM     51  C   UNL A   1      40.741  27.840  29.204  1.00  0.00     0.023 A 
ATOM     52  C   UNL A   1      39.942  26.684  29.133  1.00  0.00     0.012 A 
ATOM     53  C   UNL A   1      41.619  28.138  28.143  1.00  0.00     0.148 A 
ATOM     54  C   UNL A   1      40.028  25.828  28.033  1.00  0.00     0.002 A 
ATOM     55  C   UNL A   1      41.656  27.314  27.024  1.00  0.00     0.091 A 
ATOM     56  F   UNL A   1      42.385  29.233  28.238  1.00  0.00    -0.205 F 
ATOM     57  C   UNL A   1      40.873  26.150  26.974  1.00  0.00     0.022 A 
BRANCH  55  58
ATOM     58  S   UNL A   1      42.602  27.742  25.559  1.00  0.00     0.127 S 
ATOM     59  O   UNL A   1      43.956  27.848  26.098  1.00  0.00    -0.237 OA
ATOM     60  O   UNL A   1      42.372  26.583  24.695  1.00  0.00    -0.237 OA
ATOM     61  O   UNL A   1      42.011  28.978  25.066  1.00  0.00    -0.744 OA
ENDBRANCH  55  58
ENDBRANCH  27  51
BRANCH  39  62
ATOM     62  C   UNL A   1      44.073  28.557  35.295  1.00  0.00     0.023 A 
ATOM     63  C   UNL A   1      45.383  28.891  34.898  1.00  0.00     0.012 A 
ATOM     64  C   UNL A   1      43.877  27.592  36.301  1.00  0.00     0.148 A 
ATOM     65  C   UNL A   1      46.481  28.251  35.471  1.00  0.00     0.002 A 
ATOM     66  C   UNL A   1      44.978  26.991  36.900  1.00  0.00     0.091 A 
ATOM     67  F   UNL A   1      42.622  27.273  36.648  1.00  0.00    -0.205 F 
ATOM     68  C   UNL A   1      46.279  27.311  36.479  1.00  0.00     0.022 A 
BRANCH  66  69
ATOM     69  S   UNL A   1      44.811  25.836  38.266  1.00  0.00     0.127 S 
ATOM     70  O   UNL A   1      44.069  24.742  37.642  1.00  0.00    -0.237 OA
ATOM     71  O   UNL A   1      46.204  25.524  38.584  1.00  0.00    -0.237 OA
ATOM     72  O   UNL A   1      44.102  26.559  39.313  1.00  0.00    -0.744 OA
ENDBRANCH  66  69
ENDBRANCH  39  62
ENDBRANCH  13  14
ENDBRANCH   6   8
ENDBRANCH   3   4
ENDBRANCH   2   3
ENDBRANCH   1   2
BRANCH   1  73
ATOM     73  C   UNL A   1      32.408  30.158  27.255  1.00  0.00     0.002 C 
BRANCH  73  74
ATOM     74  C   UNL A   1      33.879  29.868  26.930  1.00  0.00     0.021 C 
BRANCH  74  75
ATOM     75  C   UNL A   1      34.059  28.755  25.900  1.00  0.00     0.116 C 
BRANCH  75  76
ATOM     76  N   UNL A   1      33.452  27.550  26.411  1.00  0.00    -0.354 N 
ATOM     77  C   UNL A   1      32.259  26.960  26.158  1.00  0.00     0.245 C 
ATOM     78  H   UNL A   1      34.007  27.068  27.065  1.00  0.00     0.163 HD
ATOM     79  O   UNL A   1      31.802  26.314  27.112  1.00  0.00    -0.272 OA
BRANCH  77  80
ATOM     80  C   UNL A   1      31.590  26.886  24.741  1.00  0.00     0.119 C 
ATOM     81  C   UNL A   1      30.577  25.703  24.816  1.00  0.00     0.038 C 
ATOM     82  C   UNL A   1      30.837  28.192  24.377  1.00  0.00     0.038 C 
ATOM     83  C   UNL A   1      29.548  25.642  23.691  1.00  0.00     0.003 C 
ATOM     84  C   UNL A   1      29.770  28.076  23.287  1.00  0.00     0.003 C 
ATOM     85  C   UNL A   1      28.793  26.954  23.568  1.00  0.00     0.000 C 
BRANCH  80  86
ATOM     86  N   UNL A   1      32.587  26.627  23.654  1.00  0.00    -0.338 N 
ATOM     87  C   UNL A   1      33.256  25.503  23.233  1.00  0.00     0.253 C 
ATOM     88  H   UNL A   1      32.810  27.431  23.131  1.00  0.00     0.164 HD
ATOM     89  O   UNL A   1      33.731  25.461  22.101  1.00  0.00    -0.269 OA
BRANCH  87  90
ATOM     90  C   UNL A   1      33.616  24.430  24.167  1.00  0.00     0.061 A 
ATOM     91  C   UNL A   1      34.706  24.668  25.016  1.00  0.00     0.035 A 
ATOM     92  C   UNL A   1      32.963  23.205  24.195  1.00  0.00     0.072 A 
ATOM     93  C   UNL A   1      35.043  23.689  25.932  1.00  0.00     0.112 A 
ATOM     94  C   UNL A   1      33.360  22.306  25.175  1.00  0.00     0.132 A 
ATOM     95  Cl  UNL A   1      31.719  22.766  23.092  1.00  0.00    -0.082 Cl
ATOM     96  N   UNL A   1      34.376  22.523  26.050  1.00  0.00    -0.263 NA
ENDBRANCH  87  90
ENDBRANCH  80  86
ENDBRANCH  77  80
ENDBRANCH  75  76
ENDBRANCH  74  75
ENDBRANCH  73  74
ENDBRANCH   1  73
TORSDOF 18
ENDMDL
MODEL 2
REMARK VINA RESULT:     -11.5      0.940      7.800
REMARK SMILES O=C(NCCCCCCNC(=O)C1(NC(=O)c2ccncc2Cl)CCCCC1)c1ccc(-c2c3nc(c(-c4cccc(S(=O)(=O)[O-])c4F)c4ccc([nH]4)c(-c4cccc(S(=O)(=O)[O-])c4F)c4nc(c(-c5cccc(S(=O)(=O)[O-])c5F)c5ccc2[nH]5)C=C4)C=C3)cc1
REMARK SMILES IDX 6 1 5 2 4 3 3 4 1 5 2 6 29 8 30 9 91 10 31 11 90 12 32 13
REMARK SMILES IDX 33 14 34 15 84 16 35 17 89 18 83 19 85 20 36 21 88 22 82 23
REMARK SMILES IDX 81 24 37 26 69 27 49 28 68 29 50 30 53 31 67 32 86 33 51 34
REMARK SMILES IDX 52 35 66 37 87 38 54 39 38 40 39 41 47 42 40 43 42 44 48 45
REMARK SMILES IDX 41 46 43 47 44 48 45 49 46 50 70 51 71 52 79 53 72 54 74 55
REMARK SMILES IDX 80 56 73 57 75 58 76 59 77 60 78 61 55 62 56 63 64 64 57 65
REMARK SMILES IDX 59 66 65 67 58 68 60 69 61 70 62 71 63 72 7 73 8 74 9 75
REMARK SMILES IDX 10 76 11 77 12 79 13 80 24 81 28 82 25 83 27 84 26 85 14 86
REMARK SMILES IDX 15 87 16 89 17 90 18 91 22 92 19 93 21 94 23 95 20 96
REMARK H PARENT 3 7 85 25 53 36 10 78 14 88
REMARK Flexibility Score: inf
ROOT
ATOM      1  C   UNL A   1      31.724  30.824  26.144  1.00  0.00     0.002 C 
ENDROOT
BRANCH   1   2
ATOM      2  C   UNL A   1      31.539  32.243  26.683  1.00  0.00     0.021 C 
BRANCH   2   3
ATOM      3  C   UNL A   1      32.790  32.832  27.320  1.00  0.00     0.116 C 
BRANCH   3   4
ATOM      4  N   UNL A   1      32.573  34.194  27.768  1.00  0.00    -0.352 N 
ATOM      5  O   UNL A   1      32.717  35.914  29.215  1.00  0.00    -0.269 OA
ATOM      6  C   UNL A   1      33.155  34.843  28.832  1.00  0.00     0.251 C 
ATOM      7  H   UNL A   1      31.927  34.722  27.244  1.00  0.00     0.163 HD
BRANCH   6   8
ATOM      8  C   UNL A   1      34.306  34.205  29.507  1.00  0.00     0.039 A 
ATOM      9  C   UNL A   1      34.099  33.316  30.566  1.00  0.00     0.014 A 
ATOM     10  C   UNL A   1      35.601  34.505  29.078  1.00  0.00     0.014 A 
ATOM     11  C   UNL A   1      35.189  32.809  31.265  1.00  0.00     0.010 A 
ATOM     12  C   UNL A   1      36.694  33.931  29.730  1.00  0.00     0.010 A 
ATOM     13  C   UNL A   1      36.496  33.091  30.838  1.00  0.00    -0.014 A 
BRANCH  13  14
ATOM     14  C   UNL A   1      37.635  32.405  31.494  1.00  0.00     0.031 A 
ATOM     15  C   UNL A   1      38.356  31.265  30.832  1.00  0.00     0.074 A 
ATOM     16  C   UNL A   1      38.004  32.823  32.720  1.00  0.00     0.049 A 
ATOM     17  N   UNL A   1      39.378  30.578  31.271  1.00  0.00    -0.248 NA
ATOM     18  C   UNL A   1      37.864  30.833  29.514  1.00  0.00     0.031 C 
ATOM     19  C   UNL A   1      37.339  33.888  33.479  1.00  0.00     0.029 A 
ATOM     20  N   UNL A   1      39.016  32.412  33.547  1.00  0.00    -0.354 N 
ATOM     21  C   UNL A   1      39.631  29.610  30.308  1.00  0.00     0.074 A 
ATOM     22  C   UNL A   1      38.651  29.795  29.258  1.00  0.00     0.031 C 
ATOM     23  C   UNL A   1      37.974  34.060  34.647  1.00  0.00     0.029 A 
ATOM     24  C   UNL A   1      39.056  33.090  34.743  1.00  0.00     0.049 A 
ATOM     25  H   UNL A   1      39.654  31.700  33.308  1.00  0.00     0.167 HD
ATOM     26  C   UNL A   1      40.602  28.665  30.296  1.00  0.00     0.034 A 
ATOM     27  C   UNL A   1      39.865  32.939  35.809  1.00  0.00     0.034 A 
ATOM     28  C   UNL A   1      41.592  28.512  31.330  1.00  0.00     0.049 A 
ATOM     29  C   UNL A   1      40.950  31.904  35.751  1.00  0.00     0.074 A 
ATOM     30  C   UNL A   1      42.657  27.630  31.377  1.00  0.00     0.029 A 
ATOM     31  N   UNL A   1      41.635  29.250  32.503  1.00  0.00    -0.354 N 
ATOM     32  N   UNL A   1      41.259  31.092  34.769  1.00  0.00    -0.248 NA
ATOM     33  C   UNL A   1      41.814  31.782  36.932  1.00  0.00     0.031 C 
ATOM     34  C   UNL A   1      43.336  27.824  32.587  1.00  0.00     0.029 A 
ATOM     35  C   UNL A   1      42.701  28.840  33.285  1.00  0.00     0.049 A 
ATOM     36  H   UNL A   1      41.000  29.962  32.745  1.00  0.00     0.167 HD
ATOM     37  C   UNL A   1      42.365  30.374  35.205  1.00  0.00     0.074 A 
ATOM     38  C   UNL A   1      42.691  30.873  36.528  1.00  0.00     0.031 C 
ATOM     39  C   UNL A   1      43.038  29.378  34.578  1.00  0.00     0.034 A 
BRANCH  26  40
ATOM     40  C   UNL A   1      40.677  27.745  29.104  1.00  0.00     0.023 A 
ATOM     41  C   UNL A   1      39.785  26.658  29.012  1.00  0.00     0.012 A 
ATOM     42  C   UNL A   1      41.570  27.999  28.044  1.00  0.00     0.148 A 
ATOM     43  C   UNL A   1      39.796  25.823  27.894  1.00  0.00     0.002 A 
ATOM     44  C   UNL A   1      41.549  27.185  26.917  1.00  0.00     0.091 A 
ATOM     45  F   UNL A   1      42.425  29.025  28.160  1.00  0.00    -0.205 F 
ATOM     46  C   UNL A   1      40.669  26.092  26.844  1.00  0.00     0.022 A 
BRANCH  44  47
ATOM     47  S   UNL A   1      42.586  27.493  25.482  1.00  0.00     0.127 S 
ATOM     48  O   UNL A   1      41.933  28.661  24.893  1.00  0.00    -0.237 OA
ATOM     49  O   UNL A   1      43.888  27.767  26.093  1.00  0.00    -0.237 OA
ATOM     50  O   UNL A   1      42.536  26.276  24.685  1.00  0.00    -0.744 OA
ENDBRANCH  44  47
ENDBRANCH  26  40
BRANCH  27  51
ATOM     51  C   UNL A   1      39.701  33.832  36.989  1.00  0.00     0.023 A 
ATOM     52  C   UNL A   1      40.081  35.183  36.893  1.00  0.00     0.012 A 
ATOM     53  C   UNL A   1      39.111  33.365  38.181  1.00  0.00     0.148 A 
ATOM     54  C   UNL A   1      39.895  36.051  37.970  1.00  0.00     0.002 A 
ATOM     55  C   UNL A   1      38.874  34.248  39.227  1.00  0.00     0.091 A 
ATOM     56  F   UNL A   1      38.772  32.070  38.259  1.00  0.00    -0.205 F 
ATOM     57  C   UNL A   1      39.280  35.588  39.130  1.00  0.00     0.022 A 
BRANCH  55  58
ATOM     58  S   UNL A   1      37.951  33.764  40.690  1.00  0.00     0.127 S 
ATOM     59  O   UNL A   1      37.740  35.050  41.349  1.00  0.00    -0.237 OA
ATOM     60  O   UNL A   1      36.749  33.164  40.109  1.00  0.00    -0.237 OA
ATOM     61  O   UNL A   1      38.808  32.817  41.391  1.00  0.00    -0.744 OA
ENDBRANCH  55  58
ENDBRANCH  27  51
BRANCH  39  62
ATOM     62  C   UNL A   1      44.204  28.769  35.310  1.00  0.00     0.023 A 
ATOM     63  C   UNL A   1      45.500  29.275  35.091  1.00  0.00     0.012 A 
ATOM     64  C   UNL A   1      44.008  27.741  36.252  1.00  0.00     0.148 A 
ATOM     65  C   UNL A   1      46.591  28.744  35.778  1.00  0.00     0.002 A 
ATOM     66  C   UNL A   1      45.093  27.249  36.965  1.00  0.00     0.091 A 
ATOM     67  F   UNL A   1      42.769  27.260  36.428  1.00  0.00    -0.205 F 
ATOM     68  C   UNL A   1      46.387  27.740  36.722  1.00  0.00     0.022 A 
BRANCH  66  69
ATOM     69  S   UNL A   1      44.907  26.020  38.262  1.00  0.00     0.127 S 
ATOM     70  O   UNL A   1      46.290  25.835  38.700  1.00  0.00    -0.237 OA
ATOM     71  O   UNL A   1      44.049  26.709  39.226  1.00  0.00    -0.237 OA
ATOM     72  O   UNL A   1      44.289  24.863  37.627  1.00  0.00    -0.744 OA
ENDBRANCH  66  69
ENDBRANCH  39  62
ENDBRANCH  13  14
ENDBRANCH   6   8
ENDBRANCH   3   4
ENDBRANCH   2   3
ENDBRANCH   1   2
BRANCH   1  73
ATOM     73  C   UNL A   1      33.062  30.171  26.510  1.00  0.00     0.002 C 
BRANCH  73  74
ATOM     74  C   UNL A   1      32.940  28.834  27.254  1.00  0.00     0.021 C 
BRANCH  74  75
ATOM     75  C   UNL A   1      31.494  28.375  27.430  1.00  0.00     0.116 C 
BRANCH  75  76
ATOM     76  N   UNL A   1      31.444  26.940  27.286  1.00  0.00    -0.354 N 
ATOM     77  C   UNL A   1      31.140  26.147  26.231  1.00  0.00     0.245 C 
ATOM     78  H   UNL A   1      31.672  26.446  28.106  1.00  0.00     0.163 HD
ATOM     79  O   UNL A   1      30.640  25.058  26.544  1.00  0.00    -0.272 OA
BRANCH  77  80
ATOM     80  C   UNL A   1      31.567  26.442  24.750  1.00  0.00     0.119 C 
ATOM     81  C   UNL A   1      30.743  27.694  24.317  1.00  0.00     0.038 C 
ATOM     82  C   UNL A   1      33.081  26.750  24.623  1.00  0.00     0.038 C 
ATOM     83  C   UNL A   1      31.223  28.396  23.051  1.00  0.00     0.003 C 
ATOM     84  C   UNL A   1      33.514  27.510  23.368  1.00  0.00     0.003 C 
ATOM     85  C   UNL A   1      32.693  28.763  23.153  1.00  0.00     0.000 C 
BRANCH  80  86
ATOM     86  N   UNL A   1      31.264  25.298  23.832  1.00  0.00    -0.338 N 
ATOM     87  C   UNL A   1      31.723  24.005  23.750  1.00  0.00     0.253 C 
ATOM     88  H   UNL A   1      30.596  25.518  23.144  1.00  0.00     0.164 HD
ATOM     89  O   UNL A   1      31.060  23.157  23.158  1.00  0.00    -0.269 OA
BRANCH  87  90
ATOM     90  C   UNL A   1      33.086  23.648  24.159  1.00  0.00     0.061 A 
ATOM     91  C   UNL A   1      34.117  23.950  23.258  1.00  0.00     0.035 A 
ATOM     92  C   UNL A   1      33.369  22.991  25.349  1.00  0.00     0.072 A 
ATOM     93  C   UNL A   1      35.415  23.659  23.633  1.00  0.00     0.112 A 
ATOM     94  C   UNL A   1      34.707  22.776  25.643  1.00  0.00     0.132 A 
ATOM     95  Cl  UNL A   1      32.160  22.445  26.444  1.00  0.00    -0.082 Cl
ATOM     96  N   UNL A   1      35.737  23.103  24.819  1.00  0.00    -0.263 NA
ENDBRANCH  87  90
ENDBRANCH  80  86
ENDBRANCH  77  80
ENDBRANCH  75  76
ENDBRANCH  74  75
ENDBRANCH  73  74
ENDBRANCH   1  73
TORSDOF 18
ENDMDL
MODEL 3
REMARK VINA RESULT:     -11.5      6.232      9.820
REMARK SMILES O=C(NCCCCCCNC(=O)C1(NC(=O)c2ccncc2Cl)CCCCC1)c1ccc(-c2c3nc(c(-c4cccc(S(=O)(=O)[O-])c4F)c4ccc([nH]4)c(-c4cccc(S(=O)(=O)[O-])c4F)c4nc(c(-c5cccc(S(=O)(=O)[O-])c5F)c5ccc2[nH]5)C=C4)C=C3)cc1
REMARK SMILES IDX 6 1 5 2 4 3 3 4 1 5 2 6 29 8 30 9 91 10 31 11 90 12 32 13
REMARK SMILES IDX 33 14 34 15 84 16 35 17 89 18 83 19 85 20 36 21 88 22 82 23
REMARK SMILES IDX 81 24 37 26 69 27 49 28 68 29 50 30 53 31 67 32 86 33 51 34
REMARK SMILES IDX 52 35 66 37 87 38 54 39 38 40 39 41 47 42 40 43 42 44 48 45
REMARK SMILES IDX 41 46 43 47 44 48 45 49 46 50 70 51 71 52 79 53 72 54 74 55
REMARK SMILES IDX 80 56 73 57 75 58 76 59 77 60 78 61 55 62 56 63 64 64 57 65
REMARK SMILES IDX 59 66 65 67 58 68 60 69 61 70 62 71 63 72 7 73 8 74 9 75
REMARK SMILES IDX 10 76 11 77 12 79 13 80 24 81 28 82 25 83 27 84 26 85 14 86
REMARK SMILES IDX 15 87 16 89 17 90 18 91 22 92 19 93 21 94 23 95 20 96
REMARK H PARENT 3 7 85 25 53 36 10 78 14 88
REMARK Flexibility Score: inf
ROOT
ATOM      1  C   UNL A   1      36.671  20.970  24.603  1.00  0.00     0.002 C 
ENDROOT
BRANCH   1   2
ATOM      2  C   UNL A   1      37.761  19.921  24.825  1.00  0.00     0.021 C 
BRANCH   2   3
ATOM      3  C   UNL A   1      38.734  20.265  25.944  1.00  0.00     0.116 C 
BRANCH   3   4
ATOM      4  N   UNL A   1      39.829  19.317  26.015  1.00  0.00    -0.352 N 
ATOM      5  O   UNL A   1      41.990  18.685  25.950  1.00  0.00    -0.269 OA
ATOM      6  C   UNL A   1      41.175  19.577  26.117  1.00  0.00     0.251 C 
ATOM      7  H   UNL A   1      39.576  18.365  25.985  1.00  0.00     0.163 HD
BRANCH   6   8
ATOM      8  C   UNL A   1      41.610  20.960  26.414  1.00  0.00     0.039 A 
ATOM      9  C   UNL A   1      41.757  21.891  25.381  1.00  0.00     0.014 A 
ATOM     10  C   UNL A   1      41.874  21.322  27.737  1.00  0.00     0.014 A 
ATOM     11  C   UNL A   1      42.271  23.152  25.657  1.00  0.00     0.010 A 
ATOM     12  C   UNL A   1      42.314  22.617  28.021  1.00  0.00     0.010 A 
ATOM     13  C   UNL A   1      42.530  23.536  26.982  1.00  0.00    -0.014 A 
BRANCH  13  14
ATOM     14  C   UNL A   1      42.917  24.939  27.267  1.00  0.00     0.031 A 
ATOM     15  C   UNL A   1      41.973  25.895  27.939  1.00  0.00     0.074 A 
ATOM     16  C   UNL A   1      44.145  25.345  26.890  1.00  0.00     0.049 A 
ATOM     17  N   UNL A   1      42.172  27.145  28.269  1.00  0.00    -0.248 NA
ATOM     18  C   UNL A   1      40.632  25.391  28.276  1.00  0.00     0.031 C 
ATOM     19  C   UNL A   1      45.123  24.514  26.183  1.00  0.00     0.029 A 
ATOM     20  N   UNL A   1      44.782  26.549  27.041  1.00  0.00    -0.354 N 
ATOM     21  C   UNL A   1      40.977  27.591  28.817  1.00  0.00     0.074 A 
ATOM     22  C   UNL A   1      40.052  26.478  28.773  1.00  0.00     0.031 C 
ATOM     23  C   UNL A   1      46.243  25.223  25.982  1.00  0.00     0.029 A 
ATOM     24  C   UNL A   1      46.046  26.571  26.499  1.00  0.00     0.049 A 
ATOM     25  H   UNL A   1      44.375  27.323  27.494  1.00  0.00     0.167 HD
ATOM     26  C   UNL A   1      40.685  28.814  29.324  1.00  0.00     0.034 A 
ATOM     27  C   UNL A   1      46.945  27.569  26.413  1.00  0.00     0.034 A 
ATOM     28  C   UNL A   1      41.623  29.904  29.393  1.00  0.00     0.049 A 
ATOM     29  C   UNL A   1      46.602  28.902  27.012  1.00  0.00     0.074 A 
ATOM     30  C   UNL A   1      41.445  31.158  29.949  1.00  0.00     0.029 A 
ATOM     31  N   UNL A   1      42.912  29.875  28.882  1.00  0.00    -0.354 N 
ATOM     32  N   UNL A   1      45.516  29.261  27.652  1.00  0.00    -0.248 NA
ATOM     33  C   UNL A   1      47.617  29.958  26.904  1.00  0.00     0.031 C 
ATOM     34  C   UNL A   1      42.622  31.893  29.761  1.00  0.00     0.029 A 
ATOM     35  C   UNL A   1      43.539  31.089  29.101  1.00  0.00     0.049 A 
ATOM     36  H   UNL A   1      43.323  29.103  28.430  1.00  0.00     0.167 HD
ATOM     37  C   UNL A   1      45.722  30.578  28.039  1.00  0.00     0.074 A 
ATOM     38  C   UNL A   1      47.052  30.942  27.590  1.00  0.00     0.031 C 
ATOM     39  C   UNL A   1      44.879  31.419  28.688  1.00  0.00     0.034 A 
BRANCH  26  40
ATOM     40  C   UNL A   1      39.306  29.032  29.890  1.00  0.00     0.023 A 
ATOM     41  C   UNL A   1      39.017  28.592  31.198  1.00  0.00     0.012 A 
ATOM     42  C   UNL A   1      38.324  29.736  29.165  1.00  0.00     0.148 A 
ATOM     43  C   UNL A   1      37.766  28.830  31.767  1.00  0.00     0.002 A 
ATOM     44  C   UNL A   1      37.092  30.002  29.753  1.00  0.00     0.091 A 
ATOM     45  F   UNL A   1      38.610  30.127  27.915  1.00  0.00    -0.205 F 
ATOM     46  C   UNL A   1      36.808  29.542  31.050  1.00  0.00     0.022 A 
BRANCH  44  47
ATOM     47  S   UNL A   1      35.820  30.973  28.937  1.00  0.00     0.127 S 
ATOM     48  O   UNL A   1      35.059  29.936  28.241  1.00  0.00    -0.237 OA
ATOM     49  O   UNL A   1      35.121  31.583  30.070  1.00  0.00    -0.237 OA
ATOM     50  O   UNL A   1      36.525  31.917  28.082  1.00  0.00    -0.744 OA
ENDBRANCH  44  47
ENDBRANCH  26  40
BRANCH  27  51
ATOM     51  C   UNL A   1      48.268  27.315  25.780  1.00  0.00     0.023 A 
ATOM     52  C   UNL A   1      49.313  26.776  26.553  1.00  0.00     0.012 A 
ATOM     53  C   UNL A   1      48.475  27.543  24.405  1.00  0.00     0.148 A 
ATOM     54  C   UNL A   1      50.549  26.487  25.973  1.00  0.00     0.002 A 
ATOM     55  C   UNL A   1      49.688  27.197  23.821  1.00  0.00     0.091 A 
ATOM     56  F   UNL A   1      47.473  28.074  23.689  1.00  0.00    -0.205 F 
ATOM     57  C   UNL A   1      50.731  26.683  24.606  1.00  0.00     0.022 A 
BRANCH  55  58
ATOM     58  S   UNL A   1      49.946  27.277  22.046  1.00  0.00     0.127 S 
ATOM     59  O   UNL A   1      51.340  26.860  21.928  1.00  0.00    -0.237 OA
ATOM     60  O   UNL A   1      48.968  26.307  21.550  1.00  0.00    -0.237 OA
ATOM     61  O   UNL A   1      49.656  28.656  21.676  1.00  0.00    -0.744 OA
ENDBRANCH  55  58
ENDBRANCH  27  51
BRANCH  39  62
ATOM     62  C   UNL A   1      45.376  32.812  28.965  1.00  0.00     0.023 A 
ATOM     63  C   UNL A   1      46.099  33.069  30.146  1.00  0.00     0.012 A 
ATOM     64  C   UNL A   1      45.178  33.848  28.032  1.00  0.00     0.148 A 
ATOM     65  C   UNL A   1      46.592  34.346  30.410  1.00  0.00     0.002 A 
ATOM     66  C   UNL A   1      45.711  35.107  28.281  1.00  0.00     0.091 A 
ATOM     67  F   UNL A   1      44.467  33.588  26.926  1.00  0.00    -0.205 F 
ATOM     68  C   UNL A   1      46.408  35.361  29.474  1.00  0.00     0.022 A 
BRANCH  66  69
ATOM     69  S   UNL A   1      45.597  36.446  27.089  1.00  0.00     0.127 S 
ATOM     70  O   UNL A   1      46.286  35.876  25.932  1.00  0.00    -0.237 OA
ATOM     71  O   UNL A   1      44.151  36.596  26.925  1.00  0.00    -0.237 OA
ATOM     72  O   UNL A   1      46.253  37.588  27.711  1.00  0.00    -0.744 OA
ENDBRANCH  66  69
ENDBRANCH  39  62
ENDBRANCH  13  14
ENDBRANCH   6   8
ENDBRANCH   3   4
ENDBRANCH   2   3
ENDBRANCH   1   2
BRANCH   1  73
ATOM     73  C   UNL A   1      36.366  21.843  25.827  1.00  0.00     0.002 C 
BRANCH  73  74
ATOM     74  C   UNL A   1      34.944  21.690  26.383  1.00  0.00     0.021 C 
BRANCH  74  75
ATOM     75  C   UNL A   1      34.468  22.917  27.159  1.00  0.00     0.116 C 
BRANCH  75  76
ATOM     76  N   UNL A   1      33.038  22.828  27.332  1.00  0.00    -0.354 N 
ATOM     77  C   UNL A   1      32.008  23.392  26.658  1.00  0.00     0.245 C 
ATOM     78  H   UNL A   1      32.760  22.251  28.080  1.00  0.00     0.163 HD
ATOM     79  O   UNL A   1      31.000  23.594  27.350  1.00  0.00    -0.272 OA
BRANCH  77  80
ATOM     80  C   UNL A   1      31.968  23.584  25.101  1.00  0.00     0.119 C 
ATOM     81  C   UNL A   1      33.206  24.467  24.755  1.00  0.00     0.038 C 
ATOM     82  C   UNL A   1      32.064  22.237  24.339  1.00  0.00     0.038 C 
ATOM     83  C   UNL A   1      33.597  24.508  23.281  1.00  0.00     0.003 C 
ATOM     84  C   UNL A   1      32.519  22.315  22.881  1.00  0.00     0.003 C 
ATOM     85  C   UNL A   1      33.799  23.108  22.729  1.00  0.00     0.000 C 
BRANCH  80  86
ATOM     86  N   UNL A   1      30.717  24.269  24.644  1.00  0.00    -0.338 N 
ATOM     87  C   UNL A   1      30.410  25.573  24.343  1.00  0.00     0.253 C 
ATOM     88  H   UNL A   1      29.955  23.654  24.537  1.00  0.00     0.164 HD
ATOM     89  O   UNL A   1      29.434  25.826  23.641  1.00  0.00    -0.269 OA
BRANCH  87  90
ATOM     90  C   UNL A   1      31.081  26.693  25.012  1.00  0.00     0.061 A 
ATOM     91  C   UNL A   1      30.892  26.809  26.396  1.00  0.00     0.035 A 
ATOM     92  C   UNL A   1      31.829  27.642  24.328  1.00  0.00     0.072 A 
ATOM     93  C   UNL A   1      31.542  27.833  27.059  1.00  0.00     0.112 A 
ATOM     94  C   UNL A   1      32.466  28.609  25.093  1.00  0.00     0.132 A 
ATOM     95  Cl  UNL A   1      31.991  27.671  22.616  1.00  0.00    -0.082 Cl
ATOM     96  N   UNL A   1      32.349  28.720  26.443  1.00  0.00    -0.263 NA
ENDBRANCH  87  90
ENDBRANCH  80  86
ENDBRANCH  77  80
ENDBRANCH  75  76
ENDBRANCH  74  75
ENDBRANCH  73  74
ENDBRANCH   1  73
TORSDOF 18
ENDMDL
