MODEL 1
REMARK VINA RESULT:     -12.7      0.000      0.000
REMARK SMILES O=C1[NH+]=C(Nc2ccc(C(=O)NCCCCCCNC(=O)c3ccc(-c4c5nc(c(-c6cccc(S(=O)(=O)[O-])c6F)c6ccc([nH]6)c(-c6cccc(S(=O)(=O)[O-])c6F)c6nc(c(-c7cccc(S(=O)(=O)[O-])c7F)c7ccc4[nH]7)C=C6)C=C5)cc3)c(O)c2)S/C1=C\c1ccncc1
REMARK SMILES IDX 16 1 15 2 14 3 13 4 12 5 10 6 11 7 9 9 6 10 7 11 87 12 8 13
REMARK SMILES IDX 85 14 5 15 1 16 2 17 3 18 89 19 4 20 88 22 90 23 91 25 92 26
REMARK SMILES IDX 96 27 93 28 95 29 94 30 86 31 17 33 18 34 19 35 20 36 21 38
REMARK SMILES IDX 22 39 23 40 84 41 24 42 83 43 25 44 26 45 27 46 77 47 28 48
REMARK SMILES IDX 82 49 76 50 78 51 29 52 81 53 75 54 74 55 30 57 62 58 42 59
REMARK SMILES IDX 61 60 43 61 46 62 60 63 79 64 44 65 45 66 59 68 80 69 47 70
REMARK SMILES IDX 31 71 32 72 40 73 33 74 35 75 41 76 34 77 36 78 37 79 38 80
REMARK SMILES IDX 39 81 63 82 64 83 72 84 65 85 67 86 73 87 66 88 68 89 69 90
REMARK SMILES IDX 70 91 71 92 48 93 49 94 57 95 50 96 52 97 58 98 51 99 53 100
REMARK SMILES IDX 54 101 55 102 56 103
REMARK H PARENT 12 8 3 21 5 24 86 32 19 37 78 56 46 67
REMARK Flexibility Score: inf
ROOT
ATOM      1  C   UNL A   1      32.012  29.994  27.223  1.00  0.00     0.002 C 
ENDROOT
BRANCH   1   2
ATOM      2  C   UNL A   1      31.799  29.011  26.069  1.00  0.00     0.002 C 
BRANCH   2   3
ATOM      3  C   UNL A   1      33.056  28.473  25.377  1.00  0.00     0.021 C 
BRANCH   3   4
ATOM      4  C   UNL A   1      33.333  28.997  23.970  1.00  0.00     0.116 C 
BRANCH   4   5
ATOM      5  N   UNL A   1      32.150  29.457  23.262  1.00  0.00    -0.352 N 
ATOM      6  C   UNL A   1      31.142  28.742  22.660  1.00  0.00     0.255 C 
ATOM      7  O   UNL A   1      30.241  29.356  22.091  1.00  0.00    -0.269 OA
ATOM      8  H   UNL A   1      32.056  30.435  23.205  1.00  0.00     0.163 HD
BRANCH   6   9
ATOM      9  C   UNL A   1      31.138  27.258  22.623  1.00  0.00     0.081 A 
ATOM     10  C   UNL A   1      31.446  24.445  22.592  1.00  0.00     0.129 A 
ATOM     11  C   UNL A   1      32.311  25.266  21.863  1.00  0.00     0.053 A 
ATOM     12  C   UNL A   1      30.387  25.046  23.281  1.00  0.00     0.098 A 
ATOM     13  C   UNL A   1      32.158  26.656  21.872  1.00  0.00     0.022 A 
ATOM     14  C   UNL A   1      30.212  26.432  23.261  1.00  0.00     0.132 A 
BRANCH  10  15
ATOM     15  N   UNL A   1      31.654  23.067  22.732  1.00  0.00    -0.234 N 
ATOM     16  O   UNL A   1      33.250  22.176  27.026  1.00  0.00    -0.240 OA
ATOM     17  C   UNL A   1      32.909  21.958  25.870  1.00  0.00     0.346 C 
ATOM     18  N   UNL A   1      32.492  22.914  24.976  1.00  0.00    -0.199 N 
ATOM     19  C   UNL A   1      32.923  20.600  25.257  1.00  0.00     0.110 C 
ATOM     20  C   UNL A   1      32.155  22.430  23.827  1.00  0.00     0.322 C 
ATOM     21  H   UNL A   1      32.455  23.874  25.190  1.00  0.00     0.316 HD
ATOM     22  S   UNL A   1      32.327  20.696  23.650  1.00  0.00     0.006 SA
ATOM     23  C   UNL A   1      33.361  19.515  25.912  1.00  0.00     0.032 C 
ATOM     24  H   UNL A   1      31.415  22.503  21.961  1.00  0.00     0.313 HD
BRANCH  23  25
ATOM     25  C   UNL A   1      33.461  18.173  25.332  1.00  0.00    -0.021 A 
ATOM     26  C   UNL A   1      34.430  17.880  24.372  1.00  0.00     0.028 A 
ATOM     27  C   UNL A   1      32.588  17.167  25.742  1.00  0.00     0.028 A 
ATOM     28  C   UNL A   1      34.468  16.603  23.842  1.00  0.00     0.111 A 
ATOM     29  C   UNL A   1      32.710  15.918  25.155  1.00  0.00     0.111 A 
ATOM     30  N   UNL A   1      33.632  15.613  24.217  1.00  0.00    -0.265 NA
ENDBRANCH  23  25
ENDBRANCH  10  15
BRANCH  14  31
ATOM     31  O   UNL A   1      29.076  26.879  23.874  1.00  0.00    -0.507 OA
ATOM     32  H   UNL A   1      28.682  26.373  24.557  1.00  0.00     0.293 HD
ENDBRANCH  14  31
ENDBRANCH   6   9
ENDBRANCH   4   5
ENDBRANCH   3   4
ENDBRANCH   2   3
ENDBRANCH   1   2
BRANCH   1  33
ATOM     33  C   UNL A   1      31.832  31.479  26.899  1.00  0.00     0.021 C 
BRANCH  33  34
ATOM     34  C   UNL A   1      33.022  32.379  27.212  1.00  0.00     0.116 C 
BRANCH  34  35
ATOM     35  N   UNL A   1      32.632  33.735  27.558  1.00  0.00    -0.352 N 
ATOM     36  C   UNL A   1      33.124  34.563  28.539  1.00  0.00     0.251 C 
ATOM     37  H   UNL A   1      31.908  34.118  27.011  1.00  0.00     0.163 HD
ATOM     38  O   UNL A   1      32.569  35.634  28.771  1.00  0.00    -0.269 OA
BRANCH  36  39
ATOM     39  C   UNL A   1      34.302  34.152  29.335  1.00  0.00     0.039 A 
ATOM     40  C   UNL A   1      34.097  33.473  30.538  1.00  0.00     0.014 A 
ATOM     41  C   UNL A   1      35.602  34.422  28.894  1.00  0.00     0.014 A 
ATOM     42  C   UNL A   1      35.194  32.999  31.262  1.00  0.00     0.010 A 
ATOM     43  C   UNL A   1      36.690  33.884  29.578  1.00  0.00     0.010 A 
ATOM     44  C   UNL A   1      36.498  33.163  30.767  1.00  0.00    -0.014 A 
BRANCH  44  45
ATOM     45  C   UNL A   1      37.664  32.549  31.455  1.00  0.00     0.031 A 
ATOM     46  C   UNL A   1      38.400  31.393  30.832  1.00  0.00     0.074 A 
ATOM     47  C   UNL A   1      38.008  32.979  32.687  1.00  0.00     0.049 A 
ATOM     48  N   UNL A   1      39.397  30.697  31.314  1.00  0.00    -0.248 NA
ATOM     49  C   UNL A   1      37.942  30.946  29.507  1.00  0.00     0.031 C 
ATOM     50  C   UNL A   1      37.328  34.043  33.430  1.00  0.00     0.029 A 
ATOM     51  N   UNL A   1      38.993  32.555  33.544  1.00  0.00    -0.354 N 
ATOM     52  C   UNL A   1      39.665  29.712  30.370  1.00  0.00     0.074 A 
ATOM     53  C   UNL A   1      38.706  29.882  29.300  1.00  0.00     0.031 C 
ATOM     54  C   UNL A   1      37.917  34.190  34.626  1.00  0.00     0.029 A 
ATOM     55  C   UNL A   1      38.987  33.206  34.757  1.00  0.00     0.049 A 
ATOM     56  H   UNL A   1      39.643  31.852  33.313  1.00  0.00     0.167 HD
ATOM     57  C   UNL A   1      40.634  28.766  30.383  1.00  0.00     0.034 A 
ATOM     58  C   UNL A   1      39.740  33.020  35.858  1.00  0.00     0.034 A 
ATOM     59  C   UNL A   1      41.603  28.617  31.437  1.00  0.00     0.049 A 
ATOM     60  C   UNL A   1      40.815  31.967  35.840  1.00  0.00     0.074 A 
ATOM     61  C   UNL A   1      42.676  27.745  31.498  1.00  0.00     0.029 A 
ATOM     62  N   UNL A   1      41.605  29.337  32.620  1.00  0.00    -0.354 N 
ATOM     63  N   UNL A   1      41.156  31.152  34.871  1.00  0.00    -0.248 NA
ATOM     64  C   UNL A   1      41.632  31.829  37.055  1.00  0.00     0.031 C 
ATOM     65  C   UNL A   1      43.302  27.909  32.738  1.00  0.00     0.029 A 
ATOM     66  C   UNL A   1      42.646  28.914  33.430  1.00  0.00     0.049 A 
ATOM     67  H   UNL A   1      40.962  30.045  32.853  1.00  0.00     0.167 HD
ATOM     68  C   UNL A   1      42.245  30.429  35.346  1.00  0.00     0.074 A 
ATOM     69  C   UNL A   1      42.521  30.920  36.680  1.00  0.00     0.031 C 
ATOM     70  C   UNL A   1      42.942  29.438  34.738  1.00  0.00     0.034 A 
BRANCH  57  71
ATOM     71  C   UNL A   1      40.723  27.833  29.203  1.00  0.00     0.023 A 
ATOM     72  C   UNL A   1      39.880  26.705  29.136  1.00  0.00     0.012 A 
ATOM     73  C   UNL A   1      41.587  28.114  28.125  1.00  0.00     0.148 A 
ATOM     74  C   UNL A   1      39.920  25.852  28.034  1.00  0.00     0.002 A 
ATOM     75  C   UNL A   1      41.586  27.286  27.009  1.00  0.00     0.091 A 
ATOM     76  F   UNL A   1      42.392  29.182  28.214  1.00  0.00    -0.205 F 
ATOM     77  C   UNL A   1      40.764  26.148  26.967  1.00  0.00     0.022 A 
BRANCH  75  78
ATOM     78  S   UNL A   1      42.573  27.626  25.548  1.00  0.00     0.127 S 
ATOM     79  O   UNL A   1      41.950  28.853  25.051  1.00  0.00    -0.237 OA
ATOM     80  O   UNL A   1      43.909  27.807  26.116  1.00  0.00    -0.237 OA
ATOM     81  O   UNL A   1      42.430  26.464  24.683  1.00  0.00    -0.744 OA
ENDBRANCH  75  78
ENDBRANCH  57  71
BRANCH  58  82
ATOM     82  C   UNL A   1      39.527  33.871  37.064  1.00  0.00     0.023 A 
ATOM     83  C   UNL A   1      39.980  35.204  37.065  1.00  0.00     0.012 A 
ATOM     84  C   UNL A   1      38.867  33.370  38.203  1.00  0.00     0.148 A 
ATOM     85  C   UNL A   1      39.816  36.010  38.191  1.00  0.00     0.002 A 
ATOM     86  C   UNL A   1      38.652  34.197  39.299  1.00  0.00     0.091 A 
ATOM     87  F   UNL A   1      38.450  32.096  38.186  1.00  0.00    -0.205 F 
ATOM     88  C   UNL A   1      39.144  35.511  39.303  1.00  0.00     0.022 A 
BRANCH  86  89
ATOM     89  S   UNL A   1      37.684  33.679  40.720  1.00  0.00     0.127 S 
ATOM     90  O   UNL A   1      38.554  32.675  41.327  1.00  0.00    -0.237 OA
ATOM     91  O   UNL A   1      37.565  34.929  41.473  1.00  0.00    -0.237 OA
ATOM     92  O   UNL A   1      36.425  33.183  40.182  1.00  0.00    -0.744 OA
ENDBRANCH  86  89
ENDBRANCH  58  82
BRANCH  70  93
ATOM     93  C   UNL A   1      44.103  28.836  35.488  1.00  0.00     0.023 A 
ATOM     94  C   UNL A   1      45.392  29.384  35.348  1.00  0.00     0.012 A 
ATOM     95  C   UNL A   1      43.897  27.772  36.389  1.00  0.00     0.148 A 
ATOM     96  C   UNL A   1      46.467  28.862  36.069  1.00  0.00     0.002 A 
ATOM     97  C   UNL A   1      44.960  27.292  37.144  1.00  0.00     0.091 A 
ATOM     98  F   UNL A   1      42.665  27.254  36.496  1.00  0.00    -0.205 F 
ATOM     99  C   UNL A   1      46.248  27.826  36.975  1.00  0.00     0.022 A 
BRANCH  97 100
ATOM    100  S   UNL A   1      44.759  26.028  38.404  1.00  0.00     0.127 S 
ATOM    101  O   UNL A   1      46.129  25.875  38.892  1.00  0.00    -0.237 OA
ATOM    102  O   UNL A   1      43.844  26.676  39.345  1.00  0.00    -0.237 OA
ATOM    103  O   UNL A   1      44.208  24.863  37.725  1.00  0.00    -0.744 OA
ENDBRANCH  97 100
ENDBRANCH  70  93
ENDBRANCH  44  45
ENDBRANCH  36  39
ENDBRANCH  34  35
ENDBRANCH  33  34
ENDBRANCH   1  33
TORSDOF 19
ENDMDL
MODEL 2
REMARK VINA RESULT:     -12.4      0.490      7.483
REMARK SMILES O=C1[NH+]=C(Nc2ccc(C(=O)NCCCCCCNC(=O)c3ccc(-c4c5nc(c(-c6cccc(S(=O)(=O)[O-])c6F)c6ccc([nH]6)c(-c6cccc(S(=O)(=O)[O-])c6F)c6nc(c(-c7cccc(S(=O)(=O)[O-])c7F)c7ccc4[nH]7)C=C6)C=C5)cc3)c(O)c2)S/C1=C\c1ccncc1
REMARK SMILES IDX 16 1 15 2 14 3 13 4 12 5 10 6 11 7 9 9 6 10 7 11 87 12 8 13
REMARK SMILES IDX 85 14 5 15 1 16 2 17 3 18 89 19 4 20 88 22 90 23 91 25 92 26
REMARK SMILES IDX 96 27 93 28 95 29 94 30 86 31 17 33 18 34 19 35 20 36 21 38
REMARK SMILES IDX 22 39 23 40 84 41 24 42 83 43 25 44 26 45 27 46 77 47 28 48
REMARK SMILES IDX 82 49 76 50 78 51 29 52 81 53 75 54 74 55 30 57 62 58 42 59
REMARK SMILES IDX 61 60 43 61 46 62 60 63 79 64 44 65 45 66 59 68 80 69 47 70
REMARK SMILES IDX 31 71 32 72 40 73 33 74 35 75 41 76 34 77 36 78 37 79 38 80
REMARK SMILES IDX 39 81 63 82 64 83 72 84 65 85 67 86 73 87 66 88 68 89 69 90
REMARK SMILES IDX 70 91 71 92 48 93 49 94 57 95 50 96 52 97 58 98 51 99 53 100
REMARK SMILES IDX 54 101 55 102 56 103
REMARK H PARENT 12 8 3 21 5 24 86 32 19 37 78 56 46 67
REMARK Flexibility Score: inf
ROOT
ATOM      1  C   UNL A   1      31.686  30.696  26.530  1.00  0.00     0.002 C 
ENDROOT
BRANCH   1   2
ATOM      2  C   UNL A   1      33.097  30.121  26.381  1.00  0.00     0.002 C 
BRANCH   2   3
ATOM      3  C   UNL A   1      33.236  28.827  25.572  1.00  0.00     0.021 C 
BRANCH   3   4
ATOM      4  C   UNL A   1      33.505  28.986  24.078  1.00  0.00     0.116 C 
BRANCH   4   5
ATOM      5  N   UNL A   1      32.369  29.475  23.317  1.00  0.00    -0.352 N 
ATOM      6  C   UNL A   1      31.372  28.786  22.667  1.00  0.00     0.255 C 
ATOM      7  O   UNL A   1      30.514  29.422  22.058  1.00  0.00    -0.269 OA
ATOM      8  H   UNL A   1      32.301  30.456  23.258  1.00  0.00     0.163 HD
BRANCH   6   9
ATOM      9  C   UNL A   1      31.335  27.302  22.626  1.00  0.00     0.081 A 
ATOM     10  C   UNL A   1      31.579  24.483  22.580  1.00  0.00     0.129 A 
ATOM     11  C   UNL A   1      32.439  25.287  21.827  1.00  0.00     0.053 A 
ATOM     12  C   UNL A   1      30.554  25.105  23.300  1.00  0.00     0.098 A 
ATOM     13  C   UNL A   1      32.318  26.680  21.844  1.00  0.00     0.022 A 
ATOM     14  C   UNL A   1      30.409  26.494  23.290  1.00  0.00     0.132 A 
BRANCH  10  15
ATOM     15  N   UNL A   1      31.760  23.101  22.710  1.00  0.00    -0.234 N 
ATOM     16  O   UNL A   1      33.104  22.125  27.072  1.00  0.00    -0.240 OA
ATOM     17  C   UNL A   1      32.824  21.929  25.895  1.00  0.00     0.346 C 
ATOM     18  N   UNL A   1      32.470  22.903  24.994  1.00  0.00    -0.199 N 
ATOM     19  C   UNL A   1      32.853  20.579  25.264  1.00  0.00     0.110 C 
ATOM     20  C   UNL A   1      32.190  22.440  23.822  1.00  0.00     0.322 C 
ATOM     21  H   UNL A   1      32.434  23.861  25.220  1.00  0.00     0.316 HD
ATOM     22  S   UNL A   1      32.349  20.707  23.627  1.00  0.00     0.006 SA
ATOM     23  C   UNL A   1      33.240  19.479  25.925  1.00  0.00     0.032 C 
ATOM     24  H   UNL A   1      31.556  22.551  21.919  1.00  0.00     0.313 HD
BRANCH  23  25
ATOM     25  C   UNL A   1      33.354  18.144  25.332  1.00  0.00    -0.021 A 
ATOM     26  C   UNL A   1      34.243  17.902  24.284  1.00  0.00     0.028 A 
ATOM     27  C   UNL A   1      32.575  17.095  25.815  1.00  0.00     0.028 A 
ATOM     28  C   UNL A   1      34.297  16.628  23.747  1.00  0.00     0.111 A 
ATOM     29  C   UNL A   1      32.706  15.854  25.214  1.00  0.00     0.111 A 
ATOM     30  N   UNL A   1      33.550  15.596  24.192  1.00  0.00    -0.265 NA
ENDBRANCH  23  25
ENDBRANCH  10  15
BRANCH  14  31
ATOM     31  O   UNL A   1      29.302  26.965  23.937  1.00  0.00    -0.507 OA
ATOM     32  H   UNL A   1      29.392  27.409  24.756  1.00  0.00     0.293 HD
ENDBRANCH  14  31
ENDBRANCH   6   9
ENDBRANCH   4   5
ENDBRANCH   3   4
ENDBRANCH   2   3
ENDBRANCH   1   2
BRANCH   1  33
ATOM     33  C   UNL A   1      31.580  32.207  26.742  1.00  0.00     0.021 C 
BRANCH  33  34
ATOM     34  C   UNL A   1      32.762  32.866  27.444  1.00  0.00     0.116 C 
BRANCH  34  35
ATOM     35  N   UNL A   1      32.497  34.242  27.831  1.00  0.00    -0.352 N 
ATOM     36  C   UNL A   1      33.075  34.999  28.821  1.00  0.00     0.251 C 
ATOM     37  H   UNL A   1      31.801  34.700  27.306  1.00  0.00     0.163 HD
ATOM     38  O   UNL A   1      32.619  36.107  29.090  1.00  0.00    -0.269 OA
BRANCH  36  39
ATOM     39  C   UNL A   1      34.226  34.467  29.586  1.00  0.00     0.039 A 
ATOM     40  C   UNL A   1      33.985  33.820  30.800  1.00  0.00     0.014 A 
ATOM     41  C   UNL A   1      35.533  34.593  29.105  1.00  0.00     0.014 A 
ATOM     42  C   UNL A   1      35.046  33.234  31.495  1.00  0.00     0.010 A 
ATOM     43  C   UNL A   1      36.577  33.944  29.761  1.00  0.00     0.010 A 
ATOM     44  C   UNL A   1      36.344  33.254  30.960  1.00  0.00    -0.014 A 
BRANCH  44  45
ATOM     45  C   UNL A   1      37.458  32.521  31.619  1.00  0.00     0.031 A 
ATOM     46  C   UNL A   1      38.007  32.987  32.940  1.00  0.00     0.074 A 
ATOM     47  C   UNL A   1      38.035  31.482  30.981  1.00  0.00     0.049 A 
ATOM     48  N   UNL A   1      39.011  32.509  33.629  1.00  0.00    -0.248 NA
ATOM     49  C   UNL A   1      37.359  34.155  33.558  1.00  0.00     0.031 C 
ATOM     50  C   UNL A   1      37.643  30.976  29.662  1.00  0.00     0.029 A 
ATOM     51  N   UNL A   1      39.093  30.682  31.339  1.00  0.00    -0.354 N 
ATOM     52  C   UNL A   1      39.136  33.333  34.741  1.00  0.00     0.074 A 
ATOM     53  C   UNL A   1      38.125  34.360  34.621  1.00  0.00     0.031 C 
ATOM     54  C   UNL A   1      38.444  29.955  29.325  1.00  0.00     0.029 A 
ATOM     55  C   UNL A   1      39.434  29.756  30.379  1.00  0.00     0.049 A 
ATOM     56  H   UNL A   1      39.561  30.762  32.201  1.00  0.00     0.167 HD
ATOM     57  C   UNL A   1      40.002  33.232  35.778  1.00  0.00     0.034 A 
ATOM     58  C   UNL A   1      40.441  28.862  30.340  1.00  0.00     0.034 A 
ATOM     59  C   UNL A   1      40.990  32.194  35.908  1.00  0.00     0.049 A 
ATOM     60  C   UNL A   1      41.382  28.767  31.510  1.00  0.00     0.074 A 
ATOM     61  C   UNL A   1      41.852  31.957  36.964  1.00  0.00     0.029 A 
ATOM     62  N   UNL A   1      41.264  31.235  34.946  1.00  0.00    -0.354 N 
ATOM     63  N   UNL A   1      41.382  29.455  32.627  1.00  0.00    -0.248 NA
ATOM     64  C   UNL A   1      42.442  27.751  31.431  1.00  0.00     0.031 C 
ATOM     65  C   UNL A   1      42.677  30.881  36.622  1.00  0.00     0.029 A 
ATOM     66  C   UNL A   1      42.298  30.418  35.372  1.00  0.00     0.049 A 
ATOM     67  H   UNL A   1      40.793  31.146  34.086  1.00  0.00     0.167 HD
ATOM     68  C   UNL A   1      42.417  28.933  33.395  1.00  0.00     0.074 A 
ATOM     69  C   UNL A   1      43.006  27.857  32.626  1.00  0.00     0.031 C 
ATOM     70  C   UNL A   1      42.850  29.322  34.620  1.00  0.00     0.034 A 
BRANCH  57  71
ATOM     71  C   UNL A   1      39.899  34.254  36.882  1.00  0.00     0.023 A 
ATOM     72  C   UNL A   1      40.282  35.589  36.639  1.00  0.00     0.012 A 
ATOM     73  C   UNL A   1      39.356  33.909  38.135  1.00  0.00     0.148 A 
ATOM     74  C   UNL A   1      40.158  36.556  37.635  1.00  0.00     0.002 A 
ATOM     75  C   UNL A   1      39.190  34.888  39.107  1.00  0.00     0.091 A 
ATOM     76  F   UNL A   1      39.013  32.631  38.353  1.00  0.00    -0.205 F 
ATOM     77  C   UNL A   1      39.603  36.209  38.864  1.00  0.00     0.022 A 
BRANCH  75  78
ATOM     78  S   UNL A   1      38.409  34.563  40.691  1.00  0.00     0.127 S 
ATOM     79  O   UNL A   1      39.528  34.028  41.467  1.00  0.00    -0.237 OA
ATOM     80  O   UNL A   1      37.969  35.898  41.095  1.00  0.00    -0.237 OA
ATOM     81  O   UNL A   1      37.332  33.619  40.424  1.00  0.00    -0.744 OA
ENDBRANCH  75  78
ENDBRANCH  57  71
BRANCH  58  82
ATOM     82  C   UNL A   1      40.597  27.962  29.162  1.00  0.00     0.023 A 
ATOM     83  C   UNL A   1      39.820  26.791  29.072  1.00  0.00     0.012 A 
ATOM     84  C   UNL A   1      41.501  28.266  28.125  1.00  0.00     0.148 A 
ATOM     85  C   UNL A   1      39.968  25.919  27.993  1.00  0.00     0.002 A 
ATOM     86  C   UNL A   1      41.600  27.424  27.023  1.00  0.00     0.091 A 
ATOM     87  F   UNL A   1      42.238  29.380  28.232  1.00  0.00    -0.205 F 
ATOM     88  C   UNL A   1      40.849  26.241  26.965  1.00  0.00     0.022 A 
BRANCH  86  89
ATOM     89  S   UNL A   1      42.610  27.825  25.594  1.00  0.00     0.127 S 
ATOM     90  O   UNL A   1      43.940  27.935  26.188  1.00  0.00    -0.237 OA
ATOM     91  O   UNL A   1      42.408  26.650  24.745  1.00  0.00    -0.237 OA
ATOM     92  O   UNL A   1      42.057  29.058  25.051  1.00  0.00    -0.744 OA
ENDBRANCH  86  89
ENDBRANCH  58  82
BRANCH  70  93
ATOM     93  C   UNL A   1      43.995  28.558  35.234  1.00  0.00     0.023 A 
ATOM     94  C   UNL A   1      45.323  28.916  34.930  1.00  0.00     0.012 A 
ATOM     95  C   UNL A   1      43.752  27.534  36.170  1.00  0.00     0.148 A 
ATOM     96  C   UNL A   1      46.392  28.245  35.525  1.00  0.00     0.002 A 
ATOM     97  C   UNL A   1      44.819  26.906  36.799  1.00  0.00     0.091 A 
ATOM     98  F   UNL A   1      42.480  27.198  36.433  1.00  0.00    -0.205 F 
ATOM     99  C   UNL A   1      46.140  27.250  36.467  1.00  0.00     0.022 A 
BRANCH  97 100
ATOM    100  S   UNL A   1      44.595  25.683  38.095  1.00  0.00     0.127 S 
ATOM    101  O   UNL A   1      43.611  24.786  37.490  1.00  0.00    -0.237 OA
ATOM    102  O   UNL A   1      45.939  25.119  38.221  1.00  0.00    -0.237 OA
ATOM    103  O   UNL A   1      44.131  26.414  39.266  1.00  0.00    -0.744 OA
ENDBRANCH  97 100
ENDBRANCH  70  93
ENDBRANCH  44  45
ENDBRANCH  36  39
ENDBRANCH  34  35
ENDBRANCH  33  34
ENDBRANCH   1  33
TORSDOF 19
ENDMDL
MODEL 3
REMARK VINA RESULT:     -12.3      3.321      8.443
REMARK SMILES O=C1[NH+]=C(Nc2ccc(C(=O)NCCCCCCNC(=O)c3ccc(-c4c5nc(c(-c6cccc(S(=O)(=O)[O-])c6F)c6ccc([nH]6)c(-c6cccc(S(=O)(=O)[O-])c6F)c6nc(c(-c7cccc(S(=O)(=O)[O-])c7F)c7ccc4[nH]7)C=C6)C=C5)cc3)c(O)c2)S/C1=C\c1ccncc1
REMARK SMILES IDX 16 1 15 2 14 3 13 4 12 5 10 6 11 7 9 9 6 10 7 11 87 12 8 13
REMARK SMILES IDX 85 14 5 15 1 16 2 17 3 18 89 19 4 20 88 22 90 23 91 25 92 26
REMARK SMILES IDX 96 27 93 28 95 29 94 30 86 31 17 33 18 34 19 35 20 36 21 38
REMARK SMILES IDX 22 39 23 40 84 41 24 42 83 43 25 44 26 45 27 46 77 47 28 48
REMARK SMILES IDX 82 49 76 50 78 51 29 52 81 53 75 54 74 55 30 57 62 58 42 59
REMARK SMILES IDX 61 60 43 61 46 62 60 63 79 64 44 65 45 66 59 68 80 69 47 70
REMARK SMILES IDX 31 71 32 72 40 73 33 74 35 75 41 76 34 77 36 78 37 79 38 80
REMARK SMILES IDX 39 81 63 82 64 83 72 84 65 85 67 86 73 87 66 88 68 89 69 90
REMARK SMILES IDX 70 91 71 92 48 93 49 94 57 95 50 96 52 97 58 98 51 99 53 100
REMARK SMILES IDX 54 101 55 102 56 103
REMARK H PARENT 12 8 3 21 5 24 86 32 19 37 78 56 46 67
REMARK Flexibility Score: inf
ROOT
ATOM      1  C   UNL A   1      31.420  28.309  25.456  1.00  0.00     0.002 C 
ENDROOT
BRANCH   1   2
ATOM      2  C   UNL A   1      31.534  27.241  26.547  1.00  0.00     0.002 C 
BRANCH   2   3
ATOM      3  C   UNL A   1      32.239  25.934  26.166  1.00  0.00     0.021 C 
BRANCH   3   4
ATOM      4  C   UNL A   1      31.398  24.663  26.239  1.00  0.00     0.116 C 
BRANCH   4   5
ATOM      5  N   UNL A   1      30.995  24.141  24.944  1.00  0.00    -0.352 N 
ATOM      6  C   UNL A   1      31.674  23.335  24.061  1.00  0.00     0.255 C 
ATOM      7  O   UNL A   1      31.133  23.037  22.997  1.00  0.00    -0.269 OA
ATOM      8  H   UNL A   1      30.092  24.406  24.653  1.00  0.00     0.163 HD
BRANCH   6   9
ATOM      9  C   UNL A   1      33.059  22.867  24.322  1.00  0.00     0.081 A 
ATOM     10  C   UNL A   1      35.574  21.684  24.856  1.00  0.00     0.129 A 
ATOM     11  C   UNL A   1      34.458  21.375  25.639  1.00  0.00     0.053 A 
ATOM     12  C   UNL A   1      35.428  22.643  23.848  1.00  0.00     0.098 A 
ATOM     13  C   UNL A   1      33.215  21.961  25.381  1.00  0.00     0.022 A 
ATOM     14  C   UNL A   1      34.196  23.256  23.612  1.00  0.00     0.132 A 
BRANCH  10  15
ATOM     15  N   UNL A   1      36.794  21.010  24.983  1.00  0.00    -0.234 N 
ATOM     16  O   UNL A   1      39.772  23.661  27.411  1.00  0.00    -0.240 OA
ATOM     17  C   UNL A   1      39.371  22.710  26.751  1.00  0.00     0.346 C 
ATOM     18  N   UNL A   1      38.112  22.594  26.216  1.00  0.00    -0.199 N 
ATOM     19  C   UNL A   1      40.223  21.533  26.415  1.00  0.00     0.110 C 
ATOM     20  C   UNL A   1      37.921  21.481  25.589  1.00  0.00     0.322 C 
ATOM     21  H   UNL A   1      37.422  23.292  26.301  1.00  0.00     0.316 HD
ATOM     22  S   UNL A   1      39.292  20.393  25.530  1.00  0.00     0.006 SA
ATOM     23  C   UNL A   1      41.514  21.451  26.766  1.00  0.00     0.032 C 
ATOM     24  H   UNL A   1      36.844  20.106  24.596  1.00  0.00     0.313 HD
BRANCH  23  25
ATOM     25  C   UNL A   1      42.411  20.352  26.399  1.00  0.00    -0.021 A 
ATOM     26  C   UNL A   1      43.447  20.550  25.485  1.00  0.00     0.028 A 
ATOM     27  C   UNL A   1      42.242  19.092  26.968  1.00  0.00     0.028 A 
ATOM     28  C   UNL A   1      44.252  19.473  25.159  1.00  0.00     0.111 A 
ATOM     29  C   UNL A   1      43.103  18.079  26.580  1.00  0.00     0.111 A 
ATOM     30  N   UNL A   1      44.106  18.241  25.690  1.00  0.00    -0.265 NA
ENDBRANCH  23  25
ENDBRANCH  10  15
BRANCH  14  31
ATOM     31  O   UNL A   1      34.216  24.255  22.681  1.00  0.00    -0.507 OA
ATOM     32  H   UNL A   1      34.499  25.114  22.922  1.00  0.00     0.293 HD
ENDBRANCH  14  31
ENDBRANCH   6   9
ENDBRANCH   4   5
ENDBRANCH   3   4
ENDBRANCH   2   3
ENDBRANCH   1   2
BRANCH   1  33
ATOM     33  C   UNL A   1      32.729  28.781  24.821  1.00  0.00     0.021 C 
BRANCH  33  34
ATOM     34  C   UNL A   1      33.758  29.377  25.775  1.00  0.00     0.116 C 
BRANCH  34  35
ATOM     35  N   UNL A   1      33.370  30.682  26.283  1.00  0.00    -0.352 N 
ATOM     36  C   UNL A   1      33.903  31.411  27.319  1.00  0.00     0.251 C 
ATOM     37  H   UNL A   1      32.614  31.108  25.817  1.00  0.00     0.163 HD
ATOM     38  O   UNL A   1      33.349  32.441  27.692  1.00  0.00    -0.269 OA
BRANCH  36  39
ATOM     39  C   UNL A   1      35.127  30.938  28.006  1.00  0.00     0.039 A 
ATOM     40  C   UNL A   1      36.240  31.781  28.051  1.00  0.00     0.014 A 
ATOM     41  C   UNL A   1      35.175  29.679  28.611  1.00  0.00     0.014 A 
ATOM     42  C   UNL A   1      37.374  31.392  28.767  1.00  0.00     0.010 A 
ATOM     43  C   UNL A   1      36.278  29.326  29.386  1.00  0.00     0.010 A 
ATOM     44  C   UNL A   1      37.387  30.180  29.477  1.00  0.00    -0.014 A 
BRANCH  44  45
ATOM     45  C   UNL A   1      38.532  29.814  30.352  1.00  0.00     0.031 A 
ATOM     46  C   UNL A   1      38.699  30.454  31.704  1.00  0.00     0.074 A 
ATOM     47  C   UNL A   1      39.473  28.965  29.890  1.00  0.00     0.049 A 
ATOM     48  N   UNL A   1      39.665  30.302  32.573  1.00  0.00    -0.248 NA
ATOM     49  C   UNL A   1      37.659  31.406  32.125  1.00  0.00     0.031 C 
ATOM     50  C   UNL A   1      39.465  28.332  28.568  1.00  0.00     0.029 A 
ATOM     51  N   UNL A   1      40.635  28.510  30.466  1.00  0.00    -0.354 N 
ATOM     52  C   UNL A   1      39.368  31.158  33.626  1.00  0.00     0.074 A 
ATOM     53  C   UNL A   1      38.147  31.850  33.275  1.00  0.00     0.031 C 
ATOM     54  C   UNL A   1      40.563  27.573  28.436  1.00  0.00     0.029 A 
ATOM     55  C   UNL A   1      41.376  27.694  29.642  1.00  0.00     0.049 A 
ATOM     56  H   UNL A   1      40.910  28.745  31.381  1.00  0.00     0.167 HD
ATOM     57  C   UNL A   1      40.039  31.337  34.789  1.00  0.00     0.034 A 
ATOM     58  C   UNL A   1      42.582  27.124  29.825  1.00  0.00     0.034 A 
ATOM     59  C   UNL A   1      41.239  30.628  35.147  1.00  0.00     0.049 A 
ATOM     60  C   UNL A   1      43.301  27.333  31.130  1.00  0.00     0.074 A 
ATOM     61  C   UNL A   1      41.942  30.677  36.338  1.00  0.00     0.029 A 
ATOM     62  N   UNL A   1      41.925  29.760  34.313  1.00  0.00    -0.354 N 
ATOM     63  N   UNL A   1      42.922  28.023  32.179  1.00  0.00    -0.248 NA
ATOM     64  C   UNL A   1      44.598  26.660  31.292  1.00  0.00     0.031 C 
ATOM     65  C   UNL A   1      43.077  29.871  36.208  1.00  0.00     0.029 A 
ATOM     66  C   UNL A   1      43.058  29.285  34.953  1.00  0.00     0.049 A 
ATOM     67  H   UNL A   1      41.650  29.517  33.399  1.00  0.00     0.167 HD
ATOM     68  C   UNL A   1      43.916  27.841  33.135  1.00  0.00     0.074 A 
ATOM     69  C   UNL A   1      44.901  26.956  32.548  1.00  0.00     0.031 C 
ATOM     70  C   UNL A   1      44.010  28.370  34.379  1.00  0.00     0.034 A 
BRANCH  57  71
ATOM     71  C   UNL A   1      39.473  32.318  35.785  1.00  0.00     0.023 A 
ATOM     72  C   UNL A   1      38.498  31.893  36.710  1.00  0.00     0.012 A 
ATOM     73  C   UNL A   1      39.960  33.638  35.852  1.00  0.00     0.148 A 
ATOM     74  C   UNL A   1      37.991  32.775  37.663  1.00  0.00     0.002 A 
ATOM     75  C   UNL A   1      39.485  34.497  36.836  1.00  0.00     0.091 A 
ATOM     76  F   UNL A   1      40.875  34.028  34.954  1.00  0.00    -0.205 F 
ATOM     77  C   UNL A   1      38.491  34.072  37.733  1.00  0.00     0.022 A 
BRANCH  75  78
ATOM     78  S   UNL A   1      40.124  36.160  37.065  1.00  0.00     0.127 S 
ATOM     79  O   UNL A   1      39.361  36.611  38.228  1.00  0.00    -0.237 OA
ATOM     80  O   UNL A   1      41.542  35.909  37.325  1.00  0.00    -0.237 OA
ATOM     81  O   UNL A   1      39.848  36.874  35.826  1.00  0.00    -0.744 OA
ENDBRANCH  75  78
ENDBRANCH  57  71
BRANCH  58  82
ATOM     82  C   UNL A   1      43.178  26.272  28.756  1.00  0.00     0.023 A 
ATOM     83  C   UNL A   1      42.822  24.912  28.669  1.00  0.00     0.012 A 
ATOM     84  C   UNL A   1      44.084  26.805  27.818  1.00  0.00     0.148 A 
ATOM     85  C   UNL A   1      43.388  24.090  27.694  1.00  0.00     0.002 A 
ATOM     86  C   UNL A   1      44.597  25.995  26.811  1.00  0.00     0.091 A 
ATOM     87  F   UNL A   1      44.417  28.100  27.922  1.00  0.00    -0.205 F 
ATOM     88  C   UNL A   1      44.266  24.633  26.761  1.00  0.00     0.022 A 
BRANCH  86  89
ATOM     89  S   UNL A   1      45.630  26.638  25.491  1.00  0.00     0.127 S 
ATOM     90  O   UNL A   1      45.776  25.469  24.628  1.00  0.00    -0.237 OA
ATOM     91  O   UNL A   1      44.790  27.706  24.946  1.00  0.00    -0.237 OA
ATOM     92  O   UNL A   1      46.850  27.105  26.135  1.00  0.00    -0.744 OA
ENDBRANCH  86  89
ENDBRANCH  58  82
BRANCH  70  93
ATOM     93  C   UNL A   1      45.201  27.982  35.217  1.00  0.00     0.023 A 
ATOM     94  C   UNL A   1      46.363  28.779  35.203  1.00  0.00     0.012 A 
ATOM     95  C   UNL A   1      45.139  26.868  36.078  1.00  0.00     0.148 A 
ATOM     96  C   UNL A   1      47.456  28.454  36.007  1.00  0.00     0.002 A 
ATOM     97  C   UNL A   1      46.209  26.581  36.915  1.00  0.00     0.091 A 
ATOM     98  F   UNL A   1      44.030  26.113  36.065  1.00  0.00    -0.205 F 
ATOM     99  C   UNL A   1      47.374  27.364  36.870  1.00  0.00     0.022 A 
BRANCH  97 100
ATOM    100  S   UNL A   1      46.160  25.258  38.129  1.00  0.00     0.127 S 
ATOM    101  O   UNL A   1      47.481  25.373  38.746  1.00  0.00    -0.237 OA
ATOM    102  O   UNL A   1      45.048  25.670  38.987  1.00  0.00    -0.237 OA
ATOM    103  O   UNL A   1      45.928  24.030  37.382  1.00  0.00    -0.744 OA
ENDBRANCH  97 100
ENDBRANCH  70  93
ENDBRANCH  44  45
ENDBRANCH  36  39
ENDBRANCH  34  35
ENDBRANCH  33  34
ENDBRANCH   1  33
TORSDOF 19
ENDMDL
