MODEL 1
REMARK VINA RESULT:     -10.9      0.000      0.000
REMARK SMILES NC(=O)CC[C@H](NC(=O)N[C@H]1CCOC1)C(=O)NCCCCCCNC(=O)c1ccc(-c2c3nc(c(-c4cccc(S(=O)(=O)[O-])c4F)c4ccc([nH]4)c(-c4cccc(S(=O)(=O)[O-])c4F)c4nc(c(-c5cccc(S(=O)(=O)[O-])c5F)c5ccc2[nH]5)C=C4)C=C3)cc1
REMARK SMILES IDX 21 1 20 2 19 3 18 4 16 5 17 6 6 8 5 9 4 10 2 11 1 12 3 15
REMARK SMILES IDX 7 16 8 17 9 19 10 20 11 22 12 23 15 24 13 25 14 26 22 27
REMARK SMILES IDX 23 28 24 29 25 30 26 31 27 33 28 34 29 35 90 36 30 37 89 38
REMARK SMILES IDX 31 39 32 40 33 41 83 42 34 43 88 44 82 45 84 46 35 47 87 48
REMARK SMILES IDX 81 49 80 50 36 52 68 53 48 54 67 55 49 56 52 57 66 58 85 59
REMARK SMILES IDX 50 60 51 61 65 63 86 64 53 65 37 66 38 67 46 68 39 69 41 70
REMARK SMILES IDX 47 71 40 72 42 73 43 74 44 75 45 76 69 77 70 78 78 79 71 80
REMARK SMILES IDX 73 81 79 82 72 83 74 84 75 85 76 86 77 87 54 88 55 89 63 90
REMARK SMILES IDX 56 91 58 92 64 93 57 94 59 95 60 96 61 97 62 98
REMARK H PARENT 18 7 1 13 1 14 7 18 10 21 25 32 84 51 52 62
REMARK Flexibility Score: inf
ROOT
ATOM      1  C   UNL A   1      37.436  22.052  24.692  1.00  0.00     0.002 C 
ENDROOT
BRANCH   1   2
ATOM      2  C   UNL A   1      36.837  22.583  23.384  1.00  0.00     0.021 C 
BRANCH   2   3
ATOM      3  C   UNL A   1      35.487  23.279  23.524  1.00  0.00     0.116 C 
BRANCH   3   4
ATOM      4  N   UNL A   1      34.400  22.349  23.737  1.00  0.00    -0.354 N 
ATOM      5  C   UNL A   1      33.078  22.479  23.476  1.00  0.00     0.242 C 
ATOM      6  O   UNL A   1      32.432  21.434  23.333  1.00  0.00    -0.273 OA
ATOM      7  H   UNL A   1      34.663  21.486  24.133  1.00  0.00     0.163 HD
BRANCH   5   8
ATOM      8  C   UNL A   1      32.418  23.841  23.174  1.00  0.00     0.173 C 
BRANCH   8   9
ATOM      9  C   UNL A   1      30.943  23.744  23.621  1.00  0.00     0.045 C 
BRANCH   9  10
ATOM     10  C   UNL A   1      30.674  24.524  24.907  1.00  0.00     0.102 C 
BRANCH  10  11
ATOM     11  C   UNL A   1      30.500  23.602  26.092  1.00  0.00     0.217 C 
ATOM     12  N   UNL A   1      30.842  22.299  25.901  1.00  0.00    -0.370 N 
ATOM     13  H   UNL A   1      30.750  21.653  26.638  1.00  0.00     0.159 HD
ATOM     14  H   UNL A   1      31.182  22.002  25.026  1.00  0.00     0.159 HD
ATOM     15  O   UNL A   1      30.076  23.981  27.177  1.00  0.00    -0.275 OA
ENDBRANCH  10  11
ENDBRANCH   9  10
ENDBRANCH   8   9
BRANCH   8  16
ATOM     16  N   UNL A   1      32.507  24.286  21.787  1.00  0.00    -0.326 N 
ATOM     17  C   UNL A   1      32.808  25.430  21.181  1.00  0.00     0.315 C 
ATOM     18  H   UNL A   1      32.293  23.569  21.149  1.00  0.00     0.166 HD
ATOM     19  O   UNL A   1      32.954  25.398  19.957  1.00  0.00    -0.249 OA
ATOM     20  N   UNL A   1      32.971  26.607  21.778  1.00  0.00    -0.333 N 
ATOM     21  H   UNL A   1      33.392  27.264  21.176  1.00  0.00     0.165 HD
BRANCH  20  22
ATOM     22  C   UNL A   1      32.691  27.182  23.086  1.00  0.00     0.112 C 
ATOM     23  C   UNL A   1      33.850  27.173  24.052  1.00  0.00     0.056 C 
ATOM     24  C   UNL A   1      32.417  28.687  22.988  1.00  0.00     0.185 C 
ATOM     25  C   UNL A   1      33.579  28.349  24.962  1.00  0.00     0.162 C 
ATOM     26  O   UNL A   1      32.776  29.281  24.239  1.00  0.00    -0.379 OA
ENDBRANCH  20  22
ENDBRANCH   8  16
ENDBRANCH   5   8
ENDBRANCH   3   4
ENDBRANCH   2   3
ENDBRANCH   1   2
BRANCH   1  27
ATOM     27  C   UNL A   1      37.141  20.584  25.021  1.00  0.00     0.002 C 
BRANCH  27  28
ATOM     28  C   UNL A   1      38.358  19.661  25.072  1.00  0.00     0.021 C 
BRANCH  28  29
ATOM     29  C   UNL A   1      39.497  20.160  25.946  1.00  0.00     0.116 C 
BRANCH  29  30
ATOM     30  N   UNL A   1      40.544  19.166  26.091  1.00  0.00    -0.352 N 
ATOM     31  C   UNL A   1      41.897  19.357  26.222  1.00  0.00     0.251 C 
ATOM     32  H   UNL A   1      40.244  18.229  26.097  1.00  0.00     0.163 HD
ATOM     33  O   UNL A   1      42.662  18.403  26.131  1.00  0.00    -0.269 OA
BRANCH  31  34
ATOM     34  C   UNL A   1      42.423  20.720  26.456  1.00  0.00     0.039 A 
ATOM     35  C   UNL A   1      42.691  21.536  25.356  1.00  0.00     0.014 A 
ATOM     36  C   UNL A   1      42.655  21.189  27.754  1.00  0.00     0.014 A 
ATOM     37  C   UNL A   1      43.158  22.835  25.559  1.00  0.00     0.010 A 
ATOM     38  C   UNL A   1      43.035  22.513  27.955  1.00  0.00     0.010 A 
ATOM     39  C   UNL A   1      43.312  23.343  26.861  1.00  0.00    -0.014 A 
BRANCH  39  40
ATOM     40  C   UNL A   1      43.777  24.735  27.083  1.00  0.00     0.031 A 
ATOM     41  C   UNL A   1      42.833  25.777  27.620  1.00  0.00     0.074 A 
ATOM     42  C   UNL A   1      45.039  25.073  26.752  1.00  0.00     0.049 A 
ATOM     43  N   UNL A   1      43.065  27.036  27.892  1.00  0.00    -0.248 NA
ATOM     44  C   UNL A   1      41.440  25.364  27.856  1.00  0.00     0.031 C 
ATOM     45  C   UNL A   1      46.022  24.176  26.139  1.00  0.00     0.029 A 
ATOM     46  N   UNL A   1      45.707  26.266  26.869  1.00  0.00    -0.354 N 
ATOM     47  C   UNL A   1      41.848  27.569  28.300  1.00  0.00     0.074 A 
ATOM     48  C   UNL A   1      40.869  26.509  28.199  1.00  0.00     0.031 C 
ATOM     49  C   UNL A   1      47.171  24.845  25.953  1.00  0.00     0.029 A 
ATOM     50  C   UNL A   1      47.000  26.222  26.403  1.00  0.00     0.049 A 
ATOM     51  H   UNL A   1      45.299  27.076  27.251  1.00  0.00     0.167 HD
ATOM     52  C   UNL A   1      41.574  28.815  28.750  1.00  0.00     0.034 A 
ATOM     53  C   UNL A   1      47.943  27.183  26.346  1.00  0.00     0.034 A 
ATOM     54  C   UNL A   1      42.559  29.855  28.884  1.00  0.00     0.049 A 
ATOM     55  C   UNL A   1      47.628  28.546  26.900  1.00  0.00     0.074 A 
ATOM     56  C   UNL A   1      42.405  31.124  29.411  1.00  0.00     0.029 A 
ATOM     57  N   UNL A   1      43.881  29.749  28.477  1.00  0.00    -0.354 N 
ATOM     58  N   UNL A   1      46.515  28.982  27.437  1.00  0.00    -0.248 NA
ATOM     59  C   UNL A   1      48.713  29.538  26.878  1.00  0.00     0.031 C 
ATOM     60  C   UNL A   1      43.625  31.798  29.295  1.00  0.00     0.029 A 
ATOM     61  C   UNL A   1      44.550  30.934  28.731  1.00  0.00     0.049 A 
ATOM     62  H   UNL A   1      44.283  28.949  28.068  1.00  0.00     0.167 HD
ATOM     63  C   UNL A   1      46.774  30.282  27.852  1.00  0.00     0.074 A 
ATOM     64  C   UNL A   1      48.159  30.555  27.524  1.00  0.00     0.031 C 
ATOM     65  C   UNL A   1      45.942  31.175  28.442  1.00  0.00     0.034 A 
BRANCH  52  66
ATOM     66  C   UNL A   1      40.159  29.114  29.175  1.00  0.00     0.023 A 
ATOM     67  C   UNL A   1      39.177  29.381  28.198  1.00  0.00     0.012 A 
ATOM     68  C   UNL A   1      39.786  29.073  30.533  1.00  0.00     0.148 A 
ATOM     69  C   UNL A   1      37.858  29.641  28.567  1.00  0.00     0.002 A 
ATOM     70  C   UNL A   1      38.459  29.285  30.889  1.00  0.00     0.091 A 
ATOM     71  F   UNL A   1      40.736  28.838  31.450  1.00  0.00    -0.205 F 
ATOM     72  C   UNL A   1      37.497  29.582  29.910  1.00  0.00     0.022 A 
BRANCH  70  73
ATOM     73  S   UNL A   1      37.877  29.148  32.583  1.00  0.00     0.127 S 
ATOM     74  O   UNL A   1      38.031  27.716  32.833  1.00  0.00    -0.237 OA
ATOM     75  O   UNL A   1      38.825  29.999  33.304  1.00  0.00    -0.237 OA
ATOM     76  O   UNL A   1      36.504  29.636  32.578  1.00  0.00    -0.744 OA
ENDBRANCH  70  73
ENDBRANCH  52  66
BRANCH  53  77
ATOM     77  C   UNL A   1      49.296  26.868  25.808  1.00  0.00     0.023 A 
ATOM     78  C   UNL A   1      50.226  26.184  26.615  1.00  0.00     0.012 A 
ATOM     79  C   UNL A   1      49.657  27.219  24.493  1.00  0.00     0.148 A 
ATOM     80  C   UNL A   1      51.502  25.888  26.137  1.00  0.00     0.002 A 
ATOM     81  C   UNL A   1      50.909  26.870  24.002  1.00  0.00     0.091 A 
ATOM     82  F   UNL A   1      48.761  27.877  23.743  1.00  0.00    -0.205 F 
ATOM     83  C   UNL A   1      51.841  26.222  24.828  1.00  0.00     0.022 A 
BRANCH  81  84
ATOM     84  S   UNL A   1      51.381  27.140  22.290  1.00  0.00     0.127 S 
ATOM     85  O   UNL A   1      50.257  26.545  21.573  1.00  0.00    -0.237 OA
ATOM     86  O   UNL A   1      51.452  28.600  22.224  1.00  0.00    -0.237 OA
ATOM     87  O   UNL A   1      52.663  26.469  22.125  1.00  0.00    -0.744 OA
ENDBRANCH  81  84
ENDBRANCH  53  77
BRANCH  65  88
ATOM     88  C   UNL A   1      46.510  32.519  28.816  1.00  0.00     0.023 A 
ATOM     89  C   UNL A   1      47.122  32.704  30.072  1.00  0.00     0.012 A 
ATOM     90  C   UNL A   1      46.487  33.585  27.895  1.00  0.00     0.148 A 
ATOM     91  C   UNL A   1      47.666  33.940  30.420  1.00  0.00     0.002 A 
ATOM     92  C   UNL A   1      47.078  34.797  28.228  1.00  0.00     0.091 A 
ATOM     93  F   UNL A   1      45.883  33.397  26.713  1.00  0.00    -0.205 F 
ATOM     94  C   UNL A   1      47.655  34.981  29.496  1.00  0.00     0.022 A 
BRANCH  92  95
ATOM     95  S   UNL A   1      47.200  36.159  27.063  1.00  0.00     0.127 S 
ATOM     96  O   UNL A   1      47.901  35.531  25.945  1.00  0.00    -0.237 OA
ATOM     97  O   UNL A   1      45.794  36.472  26.803  1.00  0.00    -0.237 OA
ATOM     98  O   UNL A   1      47.935  37.212  27.752  1.00  0.00    -0.744 OA
ENDBRANCH  92  95
ENDBRANCH  65  88
ENDBRANCH  39  40
ENDBRANCH  31  34
ENDBRANCH  29  30
ENDBRANCH  28  29
ENDBRANCH  27  28
ENDBRANCH   1  27
TORSDOF 21
ENDMDL
MODEL 2
REMARK VINA RESULT:     -10.8      5.625      9.127
REMARK SMILES NC(=O)CC[C@H](NC(=O)N[C@H]1CCOC1)C(=O)NCCCCCCNC(=O)c1ccc(-c2c3nc(c(-c4cccc(S(=O)(=O)[O-])c4F)c4ccc([nH]4)c(-c4cccc(S(=O)(=O)[O-])c4F)c4nc(c(-c5cccc(S(=O)(=O)[O-])c5F)c5ccc2[nH]5)C=C4)C=C3)cc1
REMARK SMILES IDX 21 1 20 2 19 3 18 4 16 5 17 6 6 8 5 9 4 10 2 11 1 12 3 15
REMARK SMILES IDX 7 16 8 17 9 19 10 20 11 22 12 23 15 24 13 25 14 26 22 27
REMARK SMILES IDX 23 28 24 29 25 30 26 31 27 33 28 34 29 35 90 36 30 37 89 38
REMARK SMILES IDX 31 39 32 40 33 41 83 42 34 43 88 44 82 45 84 46 35 47 87 48
REMARK SMILES IDX 81 49 80 50 36 52 68 53 48 54 67 55 49 56 52 57 66 58 85 59
REMARK SMILES IDX 50 60 51 61 65 63 86 64 53 65 37 66 38 67 46 68 39 69 41 70
REMARK SMILES IDX 47 71 40 72 42 73 43 74 44 75 45 76 69 77 70 78 78 79 71 80
REMARK SMILES IDX 73 81 79 82 72 83 74 84 75 85 76 86 77 87 54 88 55 89 63 90
REMARK SMILES IDX 56 91 58 92 64 93 57 94 59 95 60 96 61 97 62 98
REMARK H PARENT 18 7 1 13 1 14 7 18 10 21 25 32 84 51 52 62
REMARK Flexibility Score: inf
ROOT
ATOM      1  C   UNL A   1      31.845  27.635  23.683  1.00  0.00     0.002 C 
ENDROOT
BRANCH   1   2
ATOM      2  C   UNL A   1      32.607  27.025  22.500  1.00  0.00     0.021 C 
BRANCH   2   3
ATOM      3  C   UNL A   1      32.559  25.503  22.412  1.00  0.00     0.116 C 
BRANCH   3   4
ATOM      4  N   UNL A   1      33.875  24.907  22.355  1.00  0.00    -0.354 N 
ATOM      5  C   UNL A   1      34.451  23.989  23.167  1.00  0.00     0.242 C 
ATOM      6  O   UNL A   1      35.378  23.325  22.688  1.00  0.00    -0.273 OA
ATOM      7  H   UNL A   1      34.440  25.217  21.611  1.00  0.00     0.163 HD
BRANCH   5   8
ATOM      8  C   UNL A   1      33.880  23.628  24.555  1.00  0.00     0.173 C 
BRANCH   8   9
ATOM      9  C   UNL A   1      34.831  24.231  25.612  1.00  0.00     0.045 C 
BRANCH   9  10
ATOM     10  C   UNL A   1      35.802  23.195  26.178  1.00  0.00     0.102 C 
BRANCH  10  11
ATOM     11  C   UNL A   1      37.235  23.524  25.827  1.00  0.00     0.217 C 
ATOM     12  N   UNL A   1      37.742  22.917  24.720  1.00  0.00    -0.370 N 
ATOM     13  H   UNL A   1      38.670  23.094  24.443  1.00  0.00     0.159 HD
ATOM     14  H   UNL A   1      37.181  22.300  24.195  1.00  0.00     0.159 HD
ATOM     15  O   UNL A   1      37.925  24.292  26.486  1.00  0.00    -0.275 OA
ENDBRANCH  10  11
ENDBRANCH   9  10
ENDBRANCH   8   9
BRANCH   8  16
ATOM     16  N   UNL A   1      33.679  22.204  24.797  1.00  0.00    -0.326 N 
ATOM     17  C   UNL A   1      32.701  21.463  25.309  1.00  0.00     0.315 C 
ATOM     18  H   UNL A   1      34.451  21.663  24.516  1.00  0.00     0.166 HD
ATOM     19  O   UNL A   1      32.804  20.239  25.199  1.00  0.00    -0.249 OA
ATOM     20  N   UNL A   1      31.616  21.924  25.924  1.00  0.00    -0.333 N 
ATOM     21  H   UNL A   1      30.933  21.222  26.032  1.00  0.00     0.165 HD
BRANCH  20  22
ATOM     22  C   UNL A   1      31.170  23.194  26.482  1.00  0.00     0.112 C 
ATOM     23  C   UNL A   1      30.878  24.273  25.468  1.00  0.00     0.056 C 
ATOM     24  C   UNL A   1      29.800  23.059  27.153  1.00  0.00     0.185 C 
ATOM     25  C   UNL A   1      29.845  25.143  26.145  1.00  0.00     0.162 C 
ATOM     26  O   UNL A   1      29.157  24.336  27.101  1.00  0.00    -0.379 OA
ENDBRANCH  20  22
ENDBRANCH   8  16
ENDBRANCH   5   8
ENDBRANCH   3   4
ENDBRANCH   2   3
ENDBRANCH   1   2
BRANCH   1  27
ATOM     27  C   UNL A   1      32.446  28.909  24.287  1.00  0.00     0.002 C 
BRANCH  27  28
ATOM     28  C   UNL A   1      31.528  29.693  25.225  1.00  0.00     0.021 C 
BRANCH  28  29
ATOM     29  C   UNL A   1      32.195  30.190  26.496  1.00  0.00     0.116 C 
BRANCH  29  30
ATOM     30  N   UNL A   1      32.119  31.634  26.619  1.00  0.00    -0.352 N 
ATOM     31  C   UNL A   1      32.916  32.477  27.353  1.00  0.00     0.251 C 
ATOM     32  H   UNL A   1      31.399  32.067  26.107  1.00  0.00     0.163 HD
ATOM     33  O   UNL A   1      32.590  33.649  27.507  1.00  0.00    -0.269 OA
BRANCH  31  34
ATOM     34  C   UNL A   1      34.157  31.957  27.968  1.00  0.00     0.039 A 
ATOM     35  C   UNL A   1      35.231  32.828  28.155  1.00  0.00     0.014 A 
ATOM     36  C   UNL A   1      34.261  30.617  28.356  1.00  0.00     0.014 A 
ATOM     37  C   UNL A   1      36.398  32.363  28.763  1.00  0.00     0.010 A 
ATOM     38  C   UNL A   1      35.391  30.180  29.042  1.00  0.00     0.010 A 
ATOM     39  C   UNL A   1      36.479  31.040  29.232  1.00  0.00    -0.014 A 
BRANCH  39  40
ATOM     40  C   UNL A   1      37.706  30.549  29.910  1.00  0.00     0.031 A 
ATOM     41  C   UNL A   1      38.043  31.007  31.303  1.00  0.00     0.074 A 
ATOM     42  C   UNL A   1      38.545  29.727  29.247  1.00  0.00     0.049 A 
ATOM     43  N   UNL A   1      39.058  30.673  32.057  1.00  0.00    -0.248 NA
ATOM     44  C   UNL A   1      37.139  31.989  31.925  1.00  0.00     0.031 C 
ATOM     45  C   UNL A   1      38.376  29.284  27.862  1.00  0.00     0.029 A 
ATOM     46  N   UNL A   1      39.715  29.132  29.645  1.00  0.00    -0.354 N 
ATOM     47  C   UNL A   1      38.933  31.422  33.221  1.00  0.00     0.074 A 
ATOM     48  C   UNL A   1      37.767  32.261  33.059  1.00  0.00     0.031 C 
ATOM     49  C   UNL A   1      39.393  28.473  27.532  1.00  0.00     0.029 A 
ATOM     50  C   UNL A   1      40.301  28.361  28.669  1.00  0.00     0.049 A 
ATOM     51  H   UNL A   1      40.099  29.245  30.544  1.00  0.00     0.167 HD
ATOM     52  C   UNL A   1      39.698  31.392  34.337  1.00  0.00     0.034 A 
ATOM     53  C   UNL A   1      41.441  27.643  28.688  1.00  0.00     0.034 A 
ATOM     54  C   UNL A   1      40.836  30.528  34.508  1.00  0.00     0.049 A 
ATOM     55  C   UNL A   1      42.245  27.586  29.958  1.00  0.00     0.074 A 
ATOM     56  C   UNL A   1      41.625  30.356  35.630  1.00  0.00     0.029 A 
ATOM     57  N   UNL A   1      41.353  29.699  33.525  1.00  0.00    -0.354 N 
ATOM     58  N   UNL A   1      42.016  28.174  31.107  1.00  0.00    -0.248 NA
ATOM     59  C   UNL A   1      43.443  26.733  29.948  1.00  0.00     0.031 C 
ATOM     60  C   UNL A   1      42.640  29.446  35.317  1.00  0.00     0.029 A 
ATOM     61  C   UNL A   1      42.458  29.021  34.011  1.00  0.00     0.049 A 
ATOM     62  H   UNL A   1      40.989  29.606  32.615  1.00  0.00     0.167 HD
ATOM     63  C   UNL A   1      43.015  27.734  31.967  1.00  0.00     0.074 A 
ATOM     64  C   UNL A   1      43.838  26.811  31.211  1.00  0.00     0.031 C 
ATOM     65  C   UNL A   1      43.239  28.069  33.261  1.00  0.00     0.034 A 
BRANCH  52  66
ATOM     66  C   UNL A   1      39.303  32.289  35.483  1.00  0.00     0.023 A 
ATOM     67  C   UNL A   1      38.493  31.781  36.520  1.00  0.00     0.012 A 
ATOM     68  C   UNL A   1      39.778  33.612  35.565  1.00  0.00     0.148 A 
ATOM     69  C   UNL A   1      38.131  32.586  37.599  1.00  0.00     0.002 A 
ATOM     70  C   UNL A   1      39.453  34.393  36.668  1.00  0.00     0.091 A 
ATOM     71  F   UNL A   1      40.530  34.085  34.560  1.00  0.00    -0.205 F 
ATOM     72  C   UNL A   1      38.619  33.887  37.679  1.00  0.00     0.022 A 
BRANCH  70  73
ATOM     73  S   UNL A   1      40.100  36.052  36.906  1.00  0.00     0.127 S 
ATOM     74  O   UNL A   1      41.527  35.789  37.084  1.00  0.00    -0.237 OA
ATOM     75  O   UNL A   1      39.752  36.702  35.642  1.00  0.00    -0.237 OA
ATOM     76  O   UNL A   1      39.414  36.588  38.074  1.00  0.00    -0.744 OA
ENDBRANCH  70  73
ENDBRANCH  52  66
BRANCH  53  77
ATOM     77  C   UNL A   1      41.850  26.863  27.486  1.00  0.00     0.023 A 
ATOM     78  C   UNL A   1      42.442  27.527  26.393  1.00  0.00     0.012 A 
ATOM     79  C   UNL A   1      41.679  25.467  27.430  1.00  0.00     0.148 A 
ATOM     80  C   UNL A   1      42.823  26.819  25.252  1.00  0.00     0.002 A 
ATOM     81  C   UNL A   1      42.113  24.760  26.315  1.00  0.00     0.091 A 
ATOM     82  F   UNL A   1      41.106  24.855  28.476  1.00  0.00    -0.205 F 
ATOM     83  C   UNL A   1      42.667  25.436  25.217  1.00  0.00     0.022 A 
BRANCH  81  84
ATOM     84  S   UNL A   1      42.077  22.967  26.239  1.00  0.00     0.127 S 
ATOM     85  O   UNL A   1      40.644  22.694  26.297  1.00  0.00    -0.237 OA
ATOM     86  O   UNL A   1      42.702  22.708  24.941  1.00  0.00    -0.237 OA
ATOM     87  O   UNL A   1      42.856  22.508  27.381  1.00  0.00    -0.744 OA
ENDBRANCH  81  84
ENDBRANCH  53  77
BRANCH  65  88
ATOM     88  C   UNL A   1      44.393  27.404  33.966  1.00  0.00     0.023 A 
ATOM     89  C   UNL A   1      45.678  27.979  33.914  1.00  0.00     0.012 A 
ATOM     90  C   UNL A   1      44.188  26.237  34.728  1.00  0.00     0.148 A 
ATOM     91  C   UNL A   1      46.750  27.380  34.577  1.00  0.00     0.002 A 
ATOM     92  C   UNL A   1      45.248  25.676  35.430  1.00  0.00     0.091 A 
ATOM     93  F   UNL A   1      42.962  25.694  34.750  1.00  0.00    -0.205 F 
ATOM     94  C   UNL A   1      46.533  26.238  35.343  1.00  0.00     0.022 A 
BRANCH  92  95
ATOM     95  S   UNL A   1      45.038  24.266  36.521  1.00  0.00     0.127 S 
ATOM     96  O   UNL A   1      44.093  24.790  37.506  1.00  0.00    -0.237 OA
ATOM     97  O   UNL A   1      44.482  23.256  35.620  1.00  0.00    -0.237 OA
ATOM     98  O   UNL A   1      46.366  23.953  37.032  1.00  0.00    -0.744 OA
ENDBRANCH  92  95
ENDBRANCH  65  88
ENDBRANCH  39  40
ENDBRANCH  31  34
ENDBRANCH  29  30
ENDBRANCH  28  29
ENDBRANCH  27  28
ENDBRANCH   1  27
TORSDOF 21
ENDMDL
MODEL 3
REMARK VINA RESULT:     -10.8      5.748      8.813
REMARK SMILES NC(=O)CC[C@H](NC(=O)N[C@H]1CCOC1)C(=O)NCCCCCCNC(=O)c1ccc(-c2c3nc(c(-c4cccc(S(=O)(=O)[O-])c4F)c4ccc([nH]4)c(-c4cccc(S(=O)(=O)[O-])c4F)c4nc(c(-c5cccc(S(=O)(=O)[O-])c5F)c5ccc2[nH]5)C=C4)C=C3)cc1
REMARK SMILES IDX 21 1 20 2 19 3 18 4 16 5 17 6 6 8 5 9 4 10 2 11 1 12 3 15
REMARK SMILES IDX 7 16 8 17 9 19 10 20 11 22 12 23 15 24 13 25 14 26 22 27
REMARK SMILES IDX 23 28 24 29 25 30 26 31 27 33 28 34 29 35 90 36 30 37 89 38
REMARK SMILES IDX 31 39 32 40 33 41 83 42 34 43 88 44 82 45 84 46 35 47 87 48
REMARK SMILES IDX 81 49 80 50 36 52 68 53 48 54 67 55 49 56 52 57 66 58 85 59
REMARK SMILES IDX 50 60 51 61 65 63 86 64 53 65 37 66 38 67 46 68 39 69 41 70
REMARK SMILES IDX 47 71 40 72 42 73 43 74 44 75 45 76 69 77 70 78 78 79 71 80
REMARK SMILES IDX 73 81 79 82 72 83 74 84 75 85 76 86 77 87 54 88 55 89 63 90
REMARK SMILES IDX 56 91 58 92 64 93 57 94 59 95 60 96 61 97 62 98
REMARK H PARENT 18 7 1 13 1 14 7 18 10 21 25 32 84 51 52 62
REMARK Flexibility Score: inf
ROOT
ATOM      1  C   UNL A   1      31.101  29.221  24.274  1.00  0.00     0.002 C 
ENDROOT
BRANCH   1   2
ATOM      2  C   UNL A   1      31.798  28.741  22.995  1.00  0.00     0.021 C 
BRANCH   2   3
ATOM      3  C   UNL A   1      31.289  27.417  22.436  1.00  0.00     0.116 C 
BRANCH   3   4
ATOM      4  N   UNL A   1      32.253  26.768  21.576  1.00  0.00    -0.354 N 
ATOM      5  C   UNL A   1      32.848  25.557  21.692  1.00  0.00     0.242 C 
ATOM      6  O   UNL A   1      33.282  25.047  20.651  1.00  0.00    -0.273 OA
ATOM      7  H   UNL A   1      32.520  27.288  20.783  1.00  0.00     0.163 HD
BRANCH   5   8
ATOM      8  C   UNL A   1      32.829  24.741  23.001  1.00  0.00     0.173 C 
BRANCH   8   9
ATOM      9  C   UNL A   1      31.433  24.088  23.114  1.00  0.00     0.045 C 
BRANCH   9  10
ATOM     10  C   UNL A   1      30.732  24.441  24.425  1.00  0.00     0.102 C 
BRANCH  10  11
ATOM     11  C   UNL A   1      30.775  23.291  25.406  1.00  0.00     0.217 C 
ATOM     12  N   UNL A   1      30.071  23.452  26.559  1.00  0.00    -0.370 N 
ATOM     13  H   UNL A   1      30.062  22.736  27.234  1.00  0.00     0.159 HD
ATOM     14  H   UNL A   1      29.571  24.286  26.719  1.00  0.00     0.159 HD
ATOM     15  O   UNL A   1      31.401  22.259  25.198  1.00  0.00    -0.275 OA
ENDBRANCH  10  11
ENDBRANCH   9  10
ENDBRANCH   8   9
BRANCH   8  16
ATOM     16  N   UNL A   1      33.146  25.491  24.212  1.00  0.00    -0.326 N 
ATOM     17  C   UNL A   1      34.158  25.510  25.072  1.00  0.00     0.315 C 
ATOM     18  H   UNL A   1      32.441  26.136  24.448  1.00  0.00     0.166 HD
ATOM     19  O   UNL A   1      34.171  26.417  25.907  1.00  0.00    -0.249 OA
ATOM     20  N   UNL A   1      35.164  24.640  25.109  1.00  0.00    -0.333 N 
ATOM     21  H   UNL A   1      35.900  24.961  25.679  1.00  0.00     0.165 HD
BRANCH  20  22
ATOM     22  C   UNL A   1      35.464  23.338  24.531  1.00  0.00     0.112 C 
ATOM     23  C   UNL A   1      36.923  22.954  24.536  1.00  0.00     0.056 C 
ATOM     24  C   UNL A   1      34.871  22.203  25.371  1.00  0.00     0.185 C 
ATOM     25  C   UNL A   1      36.906  21.444  24.569  1.00  0.00     0.162 C 
ATOM     26  O   UNL A   1      35.674  21.037  25.165  1.00  0.00    -0.379 OA
ENDBRANCH  20  22
ENDBRANCH   8  16
ENDBRANCH   5   8
ENDBRANCH   3   4
ENDBRANCH   2   3
ENDBRANCH   1   2
BRANCH   1  27
ATOM     27  C   UNL A   1      31.296  28.345  25.517  1.00  0.00     0.002 C 
BRANCH  27  28
ATOM     28  C   UNL A   1      32.069  28.991  26.666  1.00  0.00     0.021 C 
BRANCH  28  29
ATOM     29  C   UNL A   1      33.254  29.839  26.236  1.00  0.00     0.116 C 
BRANCH  29  30
ATOM     30  N   UNL A   1      33.084  31.233  26.602  1.00  0.00    -0.352 N 
ATOM     31  C   UNL A   1      33.782  31.970  27.525  1.00  0.00     0.251 C 
ATOM     32  H   UNL A   1      32.372  31.715  26.123  1.00  0.00     0.163 HD
ATOM     33  O   UNL A   1      33.378  33.079  27.857  1.00  0.00    -0.269 OA
BRANCH  31  34
ATOM     34  C   UNL A   1      35.012  31.410  28.128  1.00  0.00     0.039 A 
ATOM     35  C   UNL A   1      36.175  32.181  28.125  1.00  0.00     0.014 A 
ATOM     36  C   UNL A   1      35.018  30.129  28.691  1.00  0.00     0.014 A 
ATOM     37  C   UNL A   1      37.335  31.681  28.718  1.00  0.00     0.010 A 
ATOM     38  C   UNL A   1      36.150  29.671  29.359  1.00  0.00     0.010 A 
ATOM     39  C   UNL A   1      37.327  30.431  29.360  1.00  0.00    -0.014 A 
BRANCH  39  40
ATOM     40  C   UNL A   1      38.549  29.908  30.021  1.00  0.00     0.031 A 
ATOM     41  C   UNL A   1      38.937  30.387  31.394  1.00  0.00     0.074 A 
ATOM     42  C   UNL A   1      39.339  29.038  29.360  1.00  0.00     0.049 A 
ATOM     43  N   UNL A   1      39.957  30.031  32.132  1.00  0.00    -0.248 NA
ATOM     44  C   UNL A   1      38.088  31.419  32.011  1.00  0.00     0.031 C 
ATOM     45  C   UNL A   1      39.120  28.568  27.991  1.00  0.00     0.029 A 
ATOM     46  N   UNL A   1      40.495  28.407  29.746  1.00  0.00    -0.354 N 
ATOM     47  C   UNL A   1      39.890  30.813  33.279  1.00  0.00     0.074 A 
ATOM     48  C   UNL A   1      38.753  31.693  33.123  1.00  0.00     0.031 C 
ATOM     49  C   UNL A   1      40.096  27.709  27.659  1.00  0.00     0.029 A 
ATOM     50  C   UNL A   1      41.026  27.589  28.776  1.00  0.00     0.049 A 
ATOM     51  H   UNL A   1      40.904  28.527  30.633  1.00  0.00     0.167 HD
ATOM     52  C   UNL A   1      40.680  30.781  34.377  1.00  0.00     0.034 A 
ATOM     53  C   UNL A   1      42.137  26.827  28.787  1.00  0.00     0.034 A 
ATOM     54  C   UNL A   1      41.786  29.877  34.544  1.00  0.00     0.049 A 
ATOM     55  C   UNL A   1      42.969  26.770  30.039  1.00  0.00     0.074 A 
ATOM     56  C   UNL A   1      42.595  29.701  35.652  1.00  0.00     0.029 A 
ATOM     57  N   UNL A   1      42.247  29.003  33.571  1.00  0.00    -0.354 N 
ATOM     58  N   UNL A   1      42.791  27.395  31.178  1.00  0.00    -0.248 NA
ATOM     59  C   UNL A   1      44.132  25.870  30.023  1.00  0.00     0.031 C 
ATOM     60  C   UNL A   1      43.566  28.744  35.338  1.00  0.00     0.029 A 
ATOM     61  C   UNL A   1      43.336  28.295  34.048  1.00  0.00     0.049 A 
ATOM     62  H   UNL A   1      41.858  28.903  32.672  1.00  0.00     0.167 HD
ATOM     63  C   UNL A   1      43.793  26.937  32.026  1.00  0.00     0.074 A 
ATOM     64  C   UNL A   1      44.561  25.964  31.275  1.00  0.00     0.031 C 
ATOM     65  C   UNL A   1      44.061  27.294  33.305  1.00  0.00     0.034 A 
BRANCH  52  66
ATOM     66  C   UNL A   1      40.348  31.720  35.509  1.00  0.00     0.023 A 
ATOM     67  C   UNL A   1      41.158  32.852  35.737  1.00  0.00     0.012 A 
ATOM     68  C   UNL A   1      39.207  31.516  36.309  1.00  0.00     0.148 A 
ATOM     69  C   UNL A   1      40.859  33.744  36.766  1.00  0.00     0.002 A 
ATOM     70  C   UNL A   1      38.889  32.436  37.302  1.00  0.00     0.091 A 
ATOM     71  F   UNL A   1      38.460  30.423  36.093  1.00  0.00    -0.205 F 
ATOM     72  C   UNL A   1      39.721  33.543  37.540  1.00  0.00     0.022 A 
BRANCH  70  73
ATOM     73  S   UNL A   1      37.399  32.312  38.298  1.00  0.00     0.127 S 
ATOM     74  O   UNL A   1      36.442  33.068  37.491  1.00  0.00    -0.237 OA
ATOM     75  O   UNL A   1      37.167  30.868  38.325  1.00  0.00    -0.237 OA
ATOM     76  O   UNL A   1      37.728  32.900  39.590  1.00  0.00    -0.744 OA
ENDBRANCH  70  73
ENDBRANCH  52  66
BRANCH  53  77
ATOM     77  C   UNL A   1      42.486  26.003  27.596  1.00  0.00     0.023 A 
ATOM     78  C   UNL A   1      43.278  26.558  26.572  1.00  0.00     0.012 A 
ATOM     79  C   UNL A   1      42.061  24.665  27.486  1.00  0.00     0.148 A 
ATOM     80  C   UNL A   1      43.607  25.809  25.442  1.00  0.00     0.002 A 
ATOM     81  C   UNL A   1      42.441  23.905  26.386  1.00  0.00     0.091 A 
ATOM     82  F   UNL A   1      41.302  24.157  28.468  1.00  0.00    -0.205 F 
ATOM     83  C   UNL A   1      43.198  24.481  25.353  1.00  0.00     0.022 A 
BRANCH  81  84
ATOM     84  S   UNL A   1      42.075  22.153  26.253  1.00  0.00     0.127 S 
ATOM     85  O   UNL A   1      40.620  22.160  26.129  1.00  0.00    -0.237 OA
ATOM     86  O   UNL A   1      42.796  21.786  25.034  1.00  0.00    -0.237 OA
ATOM     87  O   UNL A   1      42.603  21.547  27.468  1.00  0.00    -0.744 OA
ENDBRANCH  81  84
ENDBRANCH  53  77
BRANCH  65  88
ATOM     88  C   UNL A   1      45.205  26.602  33.999  1.00  0.00     0.023 A 
ATOM     89  C   UNL A   1      46.504  27.144  33.934  1.00  0.00     0.012 A 
ATOM     90  C   UNL A   1      44.978  25.442  34.766  1.00  0.00     0.148 A 
ATOM     91  C   UNL A   1      47.567  26.520  34.587  1.00  0.00     0.002 A 
ATOM     92  C   UNL A   1      46.031  24.855  35.458  1.00  0.00     0.091 A 
ATOM     93  F   UNL A   1      43.740  24.929  34.801  1.00  0.00    -0.205 F 
ATOM     94  C   UNL A   1      47.328  25.384  35.358  1.00  0.00     0.022 A 
BRANCH  92  95
ATOM     95  S   UNL A   1      45.796  23.452  36.554  1.00  0.00     0.127 S 
ATOM     96  O   UNL A   1      44.981  22.563  35.728  1.00  0.00    -0.237 OA
ATOM     97  O   UNL A   1      47.169  22.994  36.771  1.00  0.00    -0.237 OA
ATOM     98  O   UNL A   1      45.141  23.977  37.745  1.00  0.00    -0.744 OA
ENDBRANCH  92  95
ENDBRANCH  65  88
ENDBRANCH  39  40
ENDBRANCH  31  34
ENDBRANCH  29  30
ENDBRANCH  28  29
ENDBRANCH  27  28
ENDBRANCH   1  27
TORSDOF 21
ENDMDL
