MODEL 1
REMARK VINA RESULT:     -10.7      0.000      0.000
REMARK SMILES CC[C@@](C)(NS(=O)(=O)c1ccc(F)c(F)c1)C(=O)NCCCCCCNC(=O)c1ccc(-c2c3nc(c(-c4cccc(S(=O)(=O)[O-])c4F)c4ccc([nH]4)c(-c4cccc(S(=O)(=O)[O-])c4F)c4nc(c(-c5cccc(S(=O)(=O)[O-])c5F)c5ccc2[nH]5)C=C4)C=C3)cc1
REMARK SMILES IDX 22 1 21 2 20 3 19 4 17 5 18 6 3 8 4 9 2 10 1 11 5 12 6 14
REMARK SMILES IDX 7 15 8 16 9 17 10 18 16 19 11 20 14 21 12 22 15 23 13 24
REMARK SMILES IDX 23 25 24 26 25 27 26 28 27 29 28 31 29 32 30 33 91 34 31 35
REMARK SMILES IDX 90 36 32 37 33 38 34 39 84 40 35 41 89 42 83 43 85 44 36 45
REMARK SMILES IDX 88 46 82 47 81 48 37 50 69 51 49 52 68 53 50 54 53 55 67 56
REMARK SMILES IDX 86 57 51 58 52 59 66 61 87 62 54 63 38 64 39 65 47 66 40 67
REMARK SMILES IDX 42 68 48 69 41 70 43 71 44 72 45 73 46 74 70 75 71 76 79 77
REMARK SMILES IDX 72 78 74 79 80 80 73 81 75 82 76 83 77 84 78 85 55 86 56 87
REMARK SMILES IDX 64 88 57 89 59 90 65 91 58 92 60 93 61 94 62 95 63 96
REMARK H PARENT 19 7 5 13 26 30 85 49 53 60
REMARK Flexibility Score: inf
ROOT
ATOM      1  C   UNL A   1      35.565  22.946  23.491  1.00  0.00     0.002 C 
ENDROOT
BRANCH   1   2
ATOM      2  C   UNL A   1      34.810  24.229  23.851  1.00  0.00     0.021 C 
BRANCH   2   3
ATOM      3  C   UNL A   1      33.889  24.941  22.830  1.00  0.00     0.116 C 
BRANCH   3   4
ATOM      4  N   UNL A   1      33.595  26.365  22.994  1.00  0.00    -0.354 N 
ATOM      5  C   UNL A   1      32.688  27.156  23.644  1.00  0.00     0.241 C 
ATOM      6  O   UNL A   1      32.918  28.369  23.517  1.00  0.00    -0.273 OA
ATOM      7  H   UNL A   1      34.236  26.914  22.488  1.00  0.00     0.163 HD
BRANCH   5   8
ATOM      8  C   UNL A   1      31.424  26.704  24.413  1.00  0.00     0.108 C 
ATOM      9  C   UNL A   1      31.196  27.585  25.649  1.00  0.00     0.040 C 
BRANCH   8  10
ATOM     10  C   UNL A   1      30.131  26.851  23.500  1.00  0.00     0.030 C 
ATOM     11  C   UNL A   1      28.789  26.326  23.991  1.00  0.00     0.006 C 
ENDBRANCH   8  10
BRANCH   8  12
ATOM     12  N   UNL A   1      31.292  25.278  24.788  1.00  0.00    -0.196 NA
ATOM     13  H   UNL A   1      31.742  24.792  24.012  1.00  0.00     0.142 HD
BRANCH  12  14
ATOM     14  S   UNL A   1      31.753  24.390  26.100  1.00  0.00     0.241 S 
ATOM     15  O   UNL A   1      32.938  24.998  26.660  1.00  0.00    -0.207 OA
ATOM     16  O   UNL A   1      30.548  24.318  26.892  1.00  0.00    -0.207 OA
BRANCH  14  17
ATOM     17  C   UNL A   1      32.164  22.714  25.662  1.00  0.00     0.085 A 
ATOM     18  C   UNL A   1      33.041  21.958  26.443  1.00  0.00     0.025 A 
ATOM     19  C   UNL A   1      31.866  22.249  24.388  1.00  0.00     0.064 A 
ATOM     20  C   UNL A   1      33.573  20.757  25.937  1.00  0.00     0.044 A 
ATOM     21  C   UNL A   1      32.373  21.061  23.886  1.00  0.00     0.160 A 
ATOM     22  C   UNL A   1      33.234  20.314  24.660  1.00  0.00     0.158 A 
ATOM     23  F   UNL A   1      32.069  20.696  22.633  1.00  0.00    -0.204 F 
ATOM     24  F   UNL A   1      33.774  19.191  24.171  1.00  0.00    -0.204 F 
ENDBRANCH  14  17
ENDBRANCH  12  14
ENDBRANCH   8  12
ENDBRANCH   5   8
ENDBRANCH   3   4
ENDBRANCH   2   3
ENDBRANCH   1   2
BRANCH   1  25
ATOM     25  C   UNL A   1      37.011  22.851  23.962  1.00  0.00     0.002 C 
BRANCH  25  26
ATOM     26  C   UNL A   1      37.311  21.615  24.804  1.00  0.00     0.021 C 
BRANCH  26  27
ATOM     27  C   UNL A   1      38.503  21.755  25.744  1.00  0.00     0.116 C 
BRANCH  27  28
ATOM     28  N   UNL A   1      39.275  20.523  25.879  1.00  0.00    -0.352 N 
ATOM     29  C   UNL A   1      40.601  20.416  26.231  1.00  0.00     0.251 C 
ATOM     30  H   UNL A   1      38.796  19.681  25.699  1.00  0.00     0.163 HD
ATOM     31  O   UNL A   1      41.201  19.350  26.192  1.00  0.00    -0.269 OA
BRANCH  29  32
ATOM     32  C   UNL A   1      41.282  21.656  26.644  1.00  0.00     0.039 A 
ATOM     33  C   UNL A   1      41.711  22.560  25.674  1.00  0.00     0.014 A 
ATOM     34  C   UNL A   1      41.313  21.980  28.005  1.00  0.00     0.014 A 
ATOM     35  C   UNL A   1      42.131  23.828  26.072  1.00  0.00     0.010 A 
ATOM     36  C   UNL A   1      41.648  23.271  28.385  1.00  0.00     0.010 A 
ATOM     37  C   UNL A   1      42.071  24.205  27.426  1.00  0.00    -0.014 A 
BRANCH  37  38
ATOM     38  C   UNL A   1      42.450  25.574  27.851  1.00  0.00     0.031 A 
ATOM     39  C   UNL A   1      43.878  26.029  27.732  1.00  0.00     0.074 A 
ATOM     40  C   UNL A   1      41.522  26.383  28.400  1.00  0.00     0.049 A 
ATOM     41  N   UNL A   1      44.394  27.199  28.003  1.00  0.00    -0.248 NA
ATOM     42  C   UNL A   1      44.864  25.031  27.282  1.00  0.00     0.031 C 
ATOM     43  C   UNL A   1      40.129  26.015  28.670  1.00  0.00     0.029 A 
ATOM     44  N   UNL A   1      41.611  27.679  28.838  1.00  0.00    -0.354 N 
ATOM     45  C   UNL A   1      45.761  27.066  27.794  1.00  0.00     0.074 A 
ATOM     46  C   UNL A   1      46.002  25.691  27.423  1.00  0.00     0.031 C 
ATOM     47  C   UNL A   1      39.488  27.072  29.193  1.00  0.00     0.029 A 
ATOM     48  C   UNL A   1      40.423  28.185  29.314  1.00  0.00     0.049 A 
ATOM     49  H   UNL A   1      42.447  28.200  28.814  1.00  0.00     0.167 HD
ATOM     50  C   UNL A   1      46.727  28.013  27.864  1.00  0.00     0.034 A 
ATOM     51  C   UNL A   1      40.121  29.414  29.776  1.00  0.00     0.034 A 
ATOM     52  C   UNL A   1      46.468  29.389  28.184  1.00  0.00     0.049 A 
ATOM     53  C   UNL A   1      41.194  30.471  29.775  1.00  0.00     0.074 A 
ATOM     54  C   UNL A   1      47.347  30.457  28.173  1.00  0.00     0.029 A 
ATOM     55  N   UNL A   1      45.238  29.886  28.588  1.00  0.00    -0.354 N 
ATOM     56  N   UNL A   1      42.444  30.378  29.384  1.00  0.00    -0.248 NA
ATOM     57  C   UNL A   1      40.807  31.809  30.240  1.00  0.00     0.031 C 
ATOM     58  C   UNL A   1      46.653  31.595  28.601  1.00  0.00     0.029 A 
ATOM     59  C   UNL A   1      45.336  31.241  28.848  1.00  0.00     0.049 A 
ATOM     60  H   UNL A   1      44.415  29.353  28.677  1.00  0.00     0.167 HD
ATOM     61  C   UNL A   1      42.984  31.651  29.529  1.00  0.00     0.074 A 
ATOM     62  C   UNL A   1      41.915  32.502  30.014  1.00  0.00     0.031 C 
ATOM     63  C   UNL A   1      44.251  32.077  29.299  1.00  0.00     0.034 A 
BRANCH  50  64
ATOM     64  C   UNL A   1      48.137  27.593  27.539  1.00  0.00     0.023 A 
ATOM     65  C   UNL A   1      48.960  27.058  28.553  1.00  0.00     0.012 A 
ATOM     66  C   UNL A   1      48.644  27.708  26.231  1.00  0.00     0.148 A 
ATOM     67  C   UNL A   1      50.277  26.691  28.283  1.00  0.00     0.002 A 
ATOM     68  C   UNL A   1      49.942  27.291  25.957  1.00  0.00     0.091 A 
ATOM     69  F   UNL A   1      47.858  28.240  25.284  1.00  0.00    -0.205 F 
ATOM     70  C   UNL A   1      50.764  26.798  26.983  1.00  0.00     0.022 A 
BRANCH  68  71
ATOM     71  S   UNL A   1      50.634  27.311  24.299  1.00  0.00     0.127 S 
ATOM     72  O   UNL A   1      51.860  26.535  24.483  1.00  0.00    -0.237 OA
ATOM     73  O   UNL A   1      49.594  26.634  23.524  1.00  0.00    -0.237 OA
ATOM     74  O   UNL A   1      50.824  28.715  23.963  1.00  0.00    -0.744 OA
ENDBRANCH  68  71
ENDBRANCH  50  64
BRANCH  51  75
ATOM     75  C   UNL A   1      38.722  29.740  30.175  1.00  0.00     0.023 A 
ATOM     76  C   UNL A   1      38.322  29.538  31.511  1.00  0.00     0.012 A 
ATOM     77  C   UNL A   1      37.800  30.281  29.258  1.00  0.00     0.148 A 
ATOM     78  C   UNL A   1      37.023  29.840  31.921  1.00  0.00     0.002 A 
ATOM     79  C   UNL A   1      36.524  30.631  29.685  1.00  0.00     0.091 A 
ATOM     80  F   UNL A   1      38.197  30.458  27.990  1.00  0.00    -0.205 F 
ATOM     81  C   UNL A   1      36.127  30.396  31.011  1.00  0.00     0.022 A 
BRANCH  79  82
ATOM     82  S   UNL A   1      35.346  31.471  28.620  1.00  0.00     0.127 S 
ATOM     83  O   UNL A   1      34.462  32.107  29.593  1.00  0.00    -0.237 OA
ATOM     84  O   UNL A   1      36.211  32.391  27.881  1.00  0.00    -0.237 OA
ATOM     85  O   UNL A   1      34.740  30.429  27.802  1.00  0.00    -0.744 OA
ENDBRANCH  79  82
ENDBRANCH  51  75
BRANCH  63  86
ATOM     86  C   UNL A   1      44.549  33.531  29.557  1.00  0.00     0.023 A 
ATOM     87  C   UNL A   1      45.036  33.933  30.817  1.00  0.00     0.012 A 
ATOM     88  C   UNL A   1      44.400  34.490  28.535  1.00  0.00     0.148 A 
ATOM     89  C   UNL A   1      45.328  35.272  31.070  1.00  0.00     0.002 A 
ATOM     90  C   UNL A   1      44.745  35.814  28.778  1.00  0.00     0.091 A 
ATOM     91  F   UNL A   1      43.919  34.093  27.348  1.00  0.00    -0.205 F 
ATOM     92  C   UNL A   1      45.194  36.209  30.049  1.00  0.00     0.022 A 
BRANCH  90  93
ATOM     93  S   UNL A   1      44.699  37.067  27.493  1.00  0.00     0.127 S 
ATOM     94  O   UNL A   1      45.073  38.270  28.235  1.00  0.00    -0.237 OA
ATOM     95  O   UNL A   1      45.715  36.588  26.554  1.00  0.00    -0.237 OA
ATOM     96  O   UNL A   1      43.341  37.050  26.967  1.00  0.00    -0.744 OA
ENDBRANCH  90  93
ENDBRANCH  63  86
ENDBRANCH  37  38
ENDBRANCH  29  32
ENDBRANCH  27  28
ENDBRANCH  26  27
ENDBRANCH  25  26
ENDBRANCH   1  25
TORSDOF 20
ENDMDL
MODEL 2
REMARK VINA RESULT:     -10.3      9.077     13.289
REMARK SMILES CC[C@@](C)(NS(=O)(=O)c1ccc(F)c(F)c1)C(=O)NCCCCCCNC(=O)c1ccc(-c2c3nc(c(-c4cccc(S(=O)(=O)[O-])c4F)c4ccc([nH]4)c(-c4cccc(S(=O)(=O)[O-])c4F)c4nc(c(-c5cccc(S(=O)(=O)[O-])c5F)c5ccc2[nH]5)C=C4)C=C3)cc1
REMARK SMILES IDX 22 1 21 2 20 3 19 4 17 5 18 6 3 8 4 9 2 10 1 11 5 12 6 14
REMARK SMILES IDX 7 15 8 16 9 17 10 18 16 19 11 20 14 21 12 22 15 23 13 24
REMARK SMILES IDX 23 25 24 26 25 27 26 28 27 29 28 31 29 32 30 33 91 34 31 35
REMARK SMILES IDX 90 36 32 37 33 38 34 39 84 40 35 41 89 42 83 43 85 44 36 45
REMARK SMILES IDX 88 46 82 47 81 48 37 50 69 51 49 52 68 53 50 54 53 55 67 56
REMARK SMILES IDX 86 57 51 58 52 59 66 61 87 62 54 63 38 64 39 65 47 66 40 67
REMARK SMILES IDX 42 68 48 69 41 70 43 71 44 72 45 73 46 74 70 75 71 76 79 77
REMARK SMILES IDX 72 78 74 79 80 80 73 81 75 82 76 83 77 84 78 85 55 86 56 87
REMARK SMILES IDX 64 88 57 89 59 90 65 91 58 92 60 93 61 94 62 95 63 96
REMARK H PARENT 19 7 5 13 26 30 85 49 53 60
REMARK Flexibility Score: inf
ROOT
ATOM      1  C   UNL A   1      45.398  23.373  38.999  1.00  0.00     0.002 C 
ENDROOT
BRANCH   1   2
ATOM      2  C   UNL A   1      46.112  22.066  38.634  1.00  0.00     0.021 C 
BRANCH   2   3
ATOM      3  C   UNL A   1      46.732  21.152  39.718  1.00  0.00     0.116 C 
BRANCH   3   4
ATOM      4  N   UNL A   1      45.863  20.512  40.706  1.00  0.00    -0.354 N 
ATOM      5  C   UNL A   1      45.486  19.251  41.076  1.00  0.00     0.241 C 
ATOM      6  O   UNL A   1      44.742  19.234  42.070  1.00  0.00    -0.273 OA
ATOM      7  H   UNL A   1      45.420  21.187  41.268  1.00  0.00     0.163 HD
BRANCH   5   8
ATOM      8  C   UNL A   1      45.815  17.921  40.359  1.00  0.00     0.108 C 
ATOM      9  C   UNL A   1      45.951  18.137  38.845  1.00  0.00     0.040 C 
BRANCH   8  10
ATOM     10  C   UNL A   1      47.206  17.341  40.865  1.00  0.00     0.030 C 
ATOM     11  C   UNL A   1      48.506  18.026  40.471  1.00  0.00     0.006 C 
ENDBRANCH   8  10
BRANCH   8  12
ATOM     12  N   UNL A   1      44.956  16.742  40.617  1.00  0.00    -0.196 NA
ATOM     13  H   UNL A   1      44.772  16.806  41.619  1.00  0.00     0.142 HD
BRANCH  12  14
ATOM     14  S   UNL A   1      43.516  16.218  40.007  1.00  0.00     0.241 S 
ATOM     15  O   UNL A   1      42.694  17.374  39.737  1.00  0.00    -0.207 OA
ATOM     16  O   UNL A   1      43.912  15.356  38.917  1.00  0.00    -0.207 OA
BRANCH  14  17
ATOM     17  C   UNL A   1      42.635  15.188  41.163  1.00  0.00     0.085 A 
ATOM     18  C   UNL A   1      43.004  15.136  42.509  1.00  0.00     0.025 A 
ATOM     19  C   UNL A   1      41.782  14.203  40.686  1.00  0.00     0.064 A 
ATOM     20  C   UNL A   1      42.494  14.119  43.337  1.00  0.00     0.044 A 
ATOM     21  C   UNL A   1      41.264  13.205  41.496  1.00  0.00     0.160 A 
ATOM     22  C   UNL A   1      41.624  13.158  42.824  1.00  0.00     0.158 A 
ATOM     23  F   UNL A   1      40.475  12.265  40.955  1.00  0.00    -0.204 F 
ATOM     24  F   UNL A   1      41.174  12.170  43.608  1.00  0.00    -0.204 F 
ENDBRANCH  14  17
ENDBRANCH  12  14
ENDBRANCH   8  12
ENDBRANCH   5   8
ENDBRANCH   3   4
ENDBRANCH   2   3
ENDBRANCH   1   2
BRANCH   1  25
ATOM     25  C   UNL A   1      46.232  24.427  39.716  1.00  0.00     0.002 C 
BRANCH  25  26
ATOM     26  C   UNL A   1      46.069  25.836  39.155  1.00  0.00     0.021 C 
BRANCH  26  27
ATOM     27  C   UNL A   1      47.267  26.353  38.367  1.00  0.00     0.116 C 
BRANCH  27  28
ATOM     28  N   UNL A   1      47.816  25.365  37.444  1.00  0.00    -0.352 N 
ATOM     29  C   UNL A   1      47.349  25.064  36.185  1.00  0.00     0.251 C 
ATOM     30  H   UNL A   1      48.603  24.860  37.754  1.00  0.00     0.163 HD
ATOM     31  O   UNL A   1      47.792  24.129  35.531  1.00  0.00    -0.269 OA
BRANCH  29  32
ATOM     32  C   UNL A   1      46.267  25.914  35.656  1.00  0.00     0.039 A 
ATOM     33  C   UNL A   1      46.584  27.111  35.016  1.00  0.00     0.014 A 
ATOM     34  C   UNL A   1      44.963  25.406  35.646  1.00  0.00     0.014 A 
ATOM     35  C   UNL A   1      45.587  27.784  34.312  1.00  0.00     0.010 A 
ATOM     36  C   UNL A   1      43.999  26.034  34.870  1.00  0.00     0.010 A 
ATOM     37  C   UNL A   1      44.297  27.234  34.205  1.00  0.00    -0.014 A 
BRANCH  37  38
ATOM     38  C   UNL A   1      43.248  27.908  33.400  1.00  0.00     0.031 A 
ATOM     39  C   UNL A   1      43.102  27.585  31.939  1.00  0.00     0.074 A 
ATOM     40  C   UNL A   1      42.474  28.852  33.970  1.00  0.00     0.049 A 
ATOM     41  N   UNL A   1      42.219  28.030  31.084  1.00  0.00    -0.248 NA
ATOM     42  C   UNL A   1      44.095  26.671  31.351  1.00  0.00     0.031 C 
ATOM     43  C   UNL A   1      42.595  29.329  35.350  1.00  0.00     0.029 A 
ATOM     44  N   UNL A   1      41.434  29.585  33.458  1.00  0.00    -0.354 N 
ATOM     45  C   UNL A   1      42.573  27.482  29.857  1.00  0.00     0.074 A 
ATOM     46  C   UNL A   1      43.778  26.714  30.067  1.00  0.00     0.031 C 
ATOM     47  C   UNL A   1      41.645  30.249  35.583  1.00  0.00     0.029 A 
ATOM     48  C   UNL A   1      40.859  30.440  34.370  1.00  0.00     0.049 A 
ATOM     49  H   UNL A   1      41.128  29.507  32.525  1.00  0.00     0.167 HD
ATOM     50  C   UNL A   1      41.931  27.575  28.668  1.00  0.00     0.034 A 
ATOM     51  C   UNL A   1      39.804  31.269  34.243  1.00  0.00     0.034 A 
ATOM     52  C   UNL A   1      40.705  28.300  28.482  1.00  0.00     0.049 A 
ATOM     53  C   UNL A   1      39.062  31.300  32.933  1.00  0.00     0.074 A 
ATOM     54  C   UNL A   1      39.907  28.369  27.355  1.00  0.00     0.029 A 
ATOM     55  N   UNL A   1      40.106  29.095  29.447  1.00  0.00    -0.354 N 
ATOM     56  N   UNL A   1      39.295  30.619  31.836  1.00  0.00    -0.248 NA
ATOM     57  C   UNL A   1      37.889  32.180  32.857  1.00  0.00     0.031 C 
ATOM     58  C   UNL A   1      38.840  29.233  27.630  1.00  0.00     0.029 A 
ATOM     59  C   UNL A   1      38.958  29.676  28.939  1.00  0.00     0.049 A 
ATOM     60  H   UNL A   1      40.448  29.228  30.361  1.00  0.00     0.167 HD
ATOM     61  C   UNL A   1      38.283  30.967  30.948  1.00  0.00     0.074 A 
ATOM     62  C   UNL A   1      37.418  31.895  31.651  1.00  0.00     0.031 C 
ATOM     63  C   UNL A   1      38.093  30.571  29.665  1.00  0.00     0.034 A 
BRANCH  50  64
ATOM     64  C   UNL A   1      42.523  26.832  27.498  1.00  0.00     0.023 A 
ATOM     65  C   UNL A   1      43.385  27.504  26.606  1.00  0.00     0.012 A 
ATOM     66  C   UNL A   1      42.245  25.468  27.291  1.00  0.00     0.148 A 
ATOM     67  C   UNL A   1      43.921  26.845  25.500  1.00  0.00     0.002 A 
ATOM     68  C   UNL A   1      42.824  24.804  26.215  1.00  0.00     0.091 A 
ATOM     69  F   UNL A   1      41.405  24.850  28.133  1.00  0.00    -0.205 F 
ATOM     70  C   UNL A   1      43.648  25.493  25.311  1.00  0.00     0.022 A 
BRANCH  68  71
ATOM     71  S   UNL A   1      42.601  23.044  25.932  1.00  0.00     0.127 S 
ATOM     72  O   UNL A   1      43.118  22.897  24.572  1.00  0.00    -0.237 OA
ATOM     73  O   UNL A   1      43.445  22.456  26.973  1.00  0.00    -0.237 OA
ATOM     74  O   UNL A   1      41.177  22.790  26.092  1.00  0.00    -0.744 OA
ENDBRANCH  68  71
ENDBRANCH  50  64
BRANCH  51  75
ATOM     75  C   UNL A   1      39.325  32.054  35.417  1.00  0.00     0.023 A 
ATOM     76  C   UNL A   1      38.440  31.453  36.334  1.00  0.00     0.012 A 
ATOM     77  C   UNL A   1      39.768  33.370  35.653  1.00  0.00     0.148 A 
ATOM     78  C   UNL A   1      37.980  32.157  37.447  1.00  0.00     0.002 A 
ATOM     79  C   UNL A   1      39.348  34.047  36.793  1.00  0.00     0.091 A 
ATOM     80  F   UNL A   1      40.603  33.927  34.765  1.00  0.00    -0.205 F 
ATOM     81  C   UNL A   1      38.441  33.449  37.683  1.00  0.00     0.022 A 
BRANCH  79  82
ATOM     82  S   UNL A   1      39.989  35.662  37.248  1.00  0.00     0.127 S 
ATOM     83  O   UNL A   1      39.259  35.939  38.482  1.00  0.00    -0.237 OA
ATOM     84  O   UNL A   1      41.415  35.382  37.425  1.00  0.00    -0.237 OA
ATOM     85  O   UNL A   1      39.685  36.538  36.124  1.00  0.00    -0.744 OA
ENDBRANCH  79  82
ENDBRANCH  51  75
BRANCH  63  86
ATOM     86  C   UNL A   1      36.896  31.129  28.940  1.00  0.00     0.023 A 
ATOM     87  C   UNL A   1      36.808  32.515  28.698  1.00  0.00     0.012 A 
ATOM     88  C   UNL A   1      35.888  30.277  28.449  1.00  0.00     0.148 A 
ATOM     89  C   UNL A   1      35.715  33.048  28.018  1.00  0.00     0.002 A 
ATOM     90  C   UNL A   1      34.828  30.809  27.725  1.00  0.00     0.091 A 
ATOM     91  F   UNL A   1      35.979  28.963  28.704  1.00  0.00    -0.205 F 
ATOM     92  C   UNL A   1      34.732  32.195  27.523  1.00  0.00     0.022 A 
BRANCH  90  93
ATOM     93  S   UNL A   1      33.572  29.775  26.964  1.00  0.00     0.127 S 
ATOM     94  O   UNL A   1      34.348  29.060  25.952  1.00  0.00    -0.237 OA
ATOM     95  O   UNL A   1      33.126  28.950  28.087  1.00  0.00    -0.237 OA
ATOM     96  O   UNL A   1      32.560  30.688  26.451  1.00  0.00    -0.744 OA
ENDBRANCH  90  93
ENDBRANCH  63  86
ENDBRANCH  37  38
ENDBRANCH  29  32
ENDBRANCH  27  28
ENDBRANCH  26  27
ENDBRANCH  25  26
ENDBRANCH   1  25
TORSDOF 20
ENDMDL
MODEL 3
REMARK VINA RESULT:     -10.2      1.976      2.239
REMARK SMILES CC[C@@](C)(NS(=O)(=O)c1ccc(F)c(F)c1)C(=O)NCCCCCCNC(=O)c1ccc(-c2c3nc(c(-c4cccc(S(=O)(=O)[O-])c4F)c4ccc([nH]4)c(-c4cccc(S(=O)(=O)[O-])c4F)c4nc(c(-c5cccc(S(=O)(=O)[O-])c5F)c5ccc2[nH]5)C=C4)C=C3)cc1
REMARK SMILES IDX 22 1 21 2 20 3 19 4 17 5 18 6 3 8 4 9 2 10 1 11 5 12 6 14
REMARK SMILES IDX 7 15 8 16 9 17 10 18 16 19 11 20 14 21 12 22 15 23 13 24
REMARK SMILES IDX 23 25 24 26 25 27 26 28 27 29 28 31 29 32 30 33 91 34 31 35
REMARK SMILES IDX 90 36 32 37 33 38 34 39 84 40 35 41 89 42 83 43 85 44 36 45
REMARK SMILES IDX 88 46 82 47 81 48 37 50 69 51 49 52 68 53 50 54 53 55 67 56
REMARK SMILES IDX 86 57 51 58 52 59 66 61 87 62 54 63 38 64 39 65 47 66 40 67
REMARK SMILES IDX 42 68 48 69 41 70 43 71 44 72 45 73 46 74 70 75 71 76 79 77
REMARK SMILES IDX 72 78 74 79 80 80 73 81 75 82 76 83 77 84 78 85 55 86 56 87
REMARK SMILES IDX 64 88 57 89 59 90 65 91 58 92 60 93 61 94 62 95 63 96
REMARK H PARENT 19 7 5 13 26 30 85 49 53 60
REMARK Flexibility Score: inf
ROOT
ATOM      1  C   UNL A   1      35.697  22.895  23.437  1.00  0.00     0.002 C 
ENDROOT
BRANCH   1   2
ATOM      2  C   UNL A   1      34.767  24.062  23.786  1.00  0.00     0.021 C 
BRANCH   2   3
ATOM      3  C   UNL A   1      33.595  24.469  22.860  1.00  0.00     0.116 C 
BRANCH   3   4
ATOM      4  N   UNL A   1      33.080  25.838  22.907  1.00  0.00    -0.354 N 
ATOM      5  C   UNL A   1      32.098  26.542  23.547  1.00  0.00     0.241 C 
ATOM      6  O   UNL A   1      32.116  27.756  23.284  1.00  0.00    -0.273 OA
ATOM      7  H   UNL A   1      33.588  26.422  22.300  1.00  0.00     0.163 HD
BRANCH   5   8
ATOM      8  C   UNL A   1      30.978  25.985  24.456  1.00  0.00     0.108 C 
ATOM      9  C   UNL A   1      30.697  26.941  25.623  1.00  0.00     0.040 C 
BRANCH   8  10
ATOM     10  C   UNL A   1      29.619  25.840  23.645  1.00  0.00     0.030 C 
ATOM     11  C   UNL A   1      28.545  26.912  23.759  1.00  0.00     0.006 C 
ENDBRANCH   8  10
BRANCH   8  12
ATOM     12  N   UNL A   1      31.100  24.600  24.967  1.00  0.00    -0.196 NA
ATOM     13  H   UNL A   1      31.490  24.094  24.172  1.00  0.00     0.142 HD
BRANCH  12  14
ATOM     14  S   UNL A   1      31.872  23.919  26.257  1.00  0.00     0.241 S 
ATOM     15  O   UNL A   1      33.009  24.745  26.589  1.00  0.00    -0.207 OA
ATOM     16  O   UNL A   1      30.812  23.744  27.223  1.00  0.00    -0.207 OA
BRANCH  14  17
ATOM     17  C   UNL A   1      32.482  22.287  25.885  1.00  0.00     0.085 A 
ATOM     18  C   UNL A   1      33.628  21.786  26.507  1.00  0.00     0.025 A 
ATOM     19  C   UNL A   1      32.012  21.624  24.760  1.00  0.00     0.064 A 
ATOM     20  C   UNL A   1      34.252  20.631  26.000  1.00  0.00     0.044 A 
ATOM     21  C   UNL A   1      32.612  20.478  24.261  1.00  0.00     0.160 A 
ATOM     22  C   UNL A   1      33.738  19.982  24.879  1.00  0.00     0.158 A 
ATOM     23  F   UNL A   1      32.122  19.913  23.148  1.00  0.00    -0.204 F 
ATOM     24  F   UNL A   1      34.360  18.907  24.379  1.00  0.00    -0.204 F 
ENDBRANCH  14  17
ENDBRANCH  12  14
ENDBRANCH   8  12
ENDBRANCH   5   8
ENDBRANCH   3   4
ENDBRANCH   2   3
ENDBRANCH   1   2
BRANCH   1  25
ATOM     25  C   UNL A   1      37.070  22.898  24.095  1.00  0.00     0.002 C 
BRANCH  25  26
ATOM     26  C   UNL A   1      37.465  21.563  24.717  1.00  0.00     0.021 C 
BRANCH  26  27
ATOM     27  C   UNL A   1      38.602  21.640  25.730  1.00  0.00     0.116 C 
BRANCH  27  28
ATOM     28  N   UNL A   1      39.393  20.415  25.799  1.00  0.00    -0.352 N 
ATOM     29  C   UNL A   1      40.726  20.312  26.126  1.00  0.00     0.251 C 
ATOM     30  H   UNL A   1      38.924  19.575  25.589  1.00  0.00     0.163 HD
ATOM     31  O   UNL A   1      41.340  19.257  26.032  1.00  0.00    -0.269 OA
BRANCH  29  32
ATOM     32  C   UNL A   1      41.396  21.542  26.584  1.00  0.00     0.039 A 
ATOM     33  C   UNL A   1      41.831  22.477  25.645  1.00  0.00     0.014 A 
ATOM     34  C   UNL A   1      41.411  21.826  27.953  1.00  0.00     0.014 A 
ATOM     35  C   UNL A   1      42.240  23.734  26.085  1.00  0.00     0.010 A 
ATOM     36  C   UNL A   1      41.734  23.107  28.376  1.00  0.00     0.010 A 
ATOM     37  C   UNL A   1      42.163  24.071  27.449  1.00  0.00    -0.014 A 
BRANCH  37  38
ATOM     38  C   UNL A   1      42.530  25.429  27.919  1.00  0.00     0.031 A 
ATOM     39  C   UNL A   1      43.968  25.869  27.893  1.00  0.00     0.074 A 
ATOM     40  C   UNL A   1      41.579  26.239  28.425  1.00  0.00     0.049 A 
ATOM     41  N   UNL A   1      44.478  27.029  28.214  1.00  0.00    -0.248 NA
ATOM     42  C   UNL A   1      44.968  24.868  27.486  1.00  0.00     0.031 C 
ATOM     43  C   UNL A   1      40.169  25.883  28.605  1.00  0.00     0.029 A 
ATOM     44  N   UNL A   1      41.656  27.527  28.889  1.00  0.00    -0.354 N 
ATOM     45  C   UNL A   1      45.854  26.884  28.084  1.00  0.00     0.074 A 
ATOM     46  C   UNL A   1      46.103  25.512  27.706  1.00  0.00     0.031 C 
ATOM     47  C   UNL A   1      39.509  26.939  29.107  1.00  0.00     0.029 A 
ATOM     48  C   UNL A   1      40.447  28.039  29.302  1.00  0.00     0.049 A 
ATOM     49  H   UNL A   1      42.497  28.039  28.924  1.00  0.00     0.167 HD
ATOM     50  C   UNL A   1      46.824  27.818  28.227  1.00  0.00     0.034 A 
ATOM     51  C   UNL A   1      40.131  29.264  29.765  1.00  0.00     0.034 A 
ATOM     52  C   UNL A   1      46.561  29.192  28.555  1.00  0.00     0.049 A 
ATOM     53  C   UNL A   1      41.213  30.308  29.846  1.00  0.00     0.074 A 
ATOM     54  C   UNL A   1      47.450  30.249  28.614  1.00  0.00     0.029 A 
ATOM     55  N   UNL A   1      45.314  29.696  28.893  1.00  0.00    -0.354 N 
ATOM     56  N   UNL A   1      42.483  30.208  29.529  1.00  0.00    -0.248 NA
ATOM     57  C   UNL A   1      40.812  31.643  30.309  1.00  0.00     0.031 C 
ATOM     58  C   UNL A   1      46.744  31.388  29.019  1.00  0.00     0.029 A 
ATOM     59  C   UNL A   1      45.410  31.046  29.181  1.00  0.00     0.049 A 
ATOM     60  H   UNL A   1      44.482  29.171  28.924  1.00  0.00     0.167 HD
ATOM     61  C   UNL A   1      43.026  31.472  29.727  1.00  0.00     0.074 A 
ATOM     62  C   UNL A   1      41.939  32.326  30.161  1.00  0.00     0.031 C 
ATOM     63  C   UNL A   1      44.309  31.887  29.580  1.00  0.00     0.034 A 
BRANCH  50  64
ATOM     64  C   UNL A   1      48.247  27.387  27.981  1.00  0.00     0.023 A 
ATOM     65  C   UNL A   1      48.733  27.299  26.659  1.00  0.00     0.012 A 
ATOM     66  C   UNL A   1      49.109  27.089  29.052  1.00  0.00     0.148 A 
ATOM     67  C   UNL A   1      50.036  26.875  26.405  1.00  0.00     0.002 A 
ATOM     68  C   UNL A   1      50.423  26.716  28.794  1.00  0.00     0.091 A 
ATOM     69  F   UNL A   1      48.625  27.153  30.301  1.00  0.00    -0.205 F 
ATOM     70  C   UNL A   1      50.884  26.593  27.473  1.00  0.00     0.022 A 
BRANCH  68  71
ATOM     71  S   UNL A   1      51.617  26.413  30.102  1.00  0.00     0.127 S 
ATOM     72  O   UNL A   1      51.056  25.225  30.743  1.00  0.00    -0.237 OA
ATOM     73  O   UNL A   1      52.847  26.174  29.346  1.00  0.00    -0.237 OA
ATOM     74  O   UNL A   1      51.631  27.619  30.917  1.00  0.00    -0.744 OA
ENDBRANCH  68  71
ENDBRANCH  50  64
BRANCH  51  75
ATOM     75  C   UNL A   1      38.714  29.599  30.086  1.00  0.00     0.023 A 
ATOM     76  C   UNL A   1      38.223  29.350  31.383  1.00  0.00     0.012 A 
ATOM     77  C   UNL A   1      37.863  30.195  29.135  1.00  0.00     0.148 A 
ATOM     78  C   UNL A   1      36.905  29.659  31.719  1.00  0.00     0.002 A 
ATOM     79  C   UNL A   1      36.567  30.551  29.491  1.00  0.00     0.091 A 
ATOM     80  F   UNL A   1      38.345  30.416  27.903  1.00  0.00    -0.205 F 
ATOM     81  C   UNL A   1      36.080  30.268  30.777  1.00  0.00     0.022 A 
BRANCH  79  82
ATOM     82  S   UNL A   1      35.476  31.456  28.388  1.00  0.00     0.127 S 
ATOM     83  O   UNL A   1      34.420  31.889  29.299  1.00  0.00    -0.237 OA
ATOM     84  O   UNL A   1      36.352  32.526  27.909  1.00  0.00    -0.237 OA
ATOM     85  O   UNL A   1      35.074  30.504  27.362  1.00  0.00    -0.744 OA
ENDBRANCH  79  82
ENDBRANCH  51  75
BRANCH  63  86
ATOM     86  C   UNL A   1      44.606  33.333  29.879  1.00  0.00     0.023 A 
ATOM     87  C   UNL A   1      44.506  34.295  28.854  1.00  0.00     0.012 A 
ATOM     88  C   UNL A   1      44.929  33.747  31.186  1.00  0.00     0.148 A 
ATOM     89  C   UNL A   1      44.765  35.639  29.114  1.00  0.00     0.002 A 
ATOM     90  C   UNL A   1      45.133  35.097  31.450  1.00  0.00     0.091 A 
ATOM     91  F   UNL A   1      45.037  32.817  32.146  1.00  0.00    -0.205 F 
ATOM     92  C   UNL A   1      45.068  36.041  30.413  1.00  0.00     0.022 A 
BRANCH  90  93
ATOM     93  S   UNL A   1      45.427  35.714  33.111  1.00  0.00     0.127 S 
ATOM     94  O   UNL A   1      44.231  35.255  33.815  1.00  0.00    -0.237 OA
ATOM     95  O   UNL A   1      46.660  35.022  33.487  1.00  0.00    -0.237 OA
ATOM     96  O   UNL A   1      45.564  37.158  32.981  1.00  0.00    -0.744 OA
ENDBRANCH  90  93
ENDBRANCH  63  86
ENDBRANCH  37  38
ENDBRANCH  29  32
ENDBRANCH  27  28
ENDBRANCH  26  27
ENDBRANCH  25  26
ENDBRANCH   1  25
TORSDOF 20
ENDMDL
