MODEL 1
REMARK VINA RESULT:     -10.6      0.000      0.000
REMARK SMILES O=C(CCNC(=O)CCc1nc2ccccc2[nH]1)NCCCCCCNC(=O)c1ccc(-c2c3nc(c(-c4cccc(S(=O)(=O)[O-])c4F)c4ccc([nH]4)c(-c4cccc(S(=O)(=O)[O-])c4F)c4nc(c(-c5cccc(S(=O)(=O)[O-])c5F)c5ccc2[nH]5)C=C4)C=C3)cc1
REMARK SMILES IDX 21 1 20 2 19 3 1 4 2 5 3 7 4 8 5 9 6 10 7 12 8 13 9 14 10 15
REMARK SMILES IDX 11 16 18 17 12 18 17 19 13 21 16 22 14 23 15 24 22 25 23 26
REMARK SMILES IDX 24 27 25 28 26 29 27 30 28 32 29 33 30 34 91 35 31 36 90 37
REMARK SMILES IDX 32 38 33 39 34 40 84 41 35 42 89 43 83 44 85 45 36 46 88 47
REMARK SMILES IDX 82 48 81 49 37 51 69 52 49 53 68 54 50 55 53 56 67 57 86 58
REMARK SMILES IDX 51 59 52 60 66 62 87 63 54 64 38 65 39 66 47 67 40 68 42 69
REMARK SMILES IDX 48 70 41 71 43 72 44 73 45 74 46 75 70 76 71 77 79 78 72 79
REMARK SMILES IDX 74 80 80 81 73 82 75 83 76 84 77 85 78 86 55 87 56 88 64 89
REMARK SMILES IDX 57 90 59 91 65 92 58 93 60 94 61 95 62 96 63 97
REMARK H PARENT 19 6 5 11 18 20 26 31 85 50 53 61
REMARK Flexibility Score: inf
ROOT
ATOM      1  C   UNL A   1      33.556  25.751  22.356  1.00  0.00     0.021 C 
ENDROOT
BRANCH   1   2
ATOM      2  C   UNL A   1      34.271  25.414  23.664  1.00  0.00     0.116 C 
BRANCH   2   3
ATOM      3  N   UNL A   1      34.744  24.051  23.668  1.00  0.00    -0.356 N 
ATOM      4  O   UNL A   1      35.643  24.081  25.787  1.00  0.00    -0.275 OA
ATOM      5  C   UNL A   1      35.432  23.509  24.725  1.00  0.00     0.221 C 
ATOM      6  H   UNL A   1      34.566  23.486  22.881  1.00  0.00     0.163 HD
BRANCH   5   7
ATOM      7  C   UNL A   1      35.950  22.128  24.429  1.00  0.00     0.121 C 
BRANCH   7   8
ATOM      8  C   UNL A   1      35.591  21.091  25.474  1.00  0.00     0.125 C 
BRANCH   8   9
ATOM      9  N   UNL A   1      35.162  19.835  24.872  1.00  0.00    -0.356 N 
ATOM     10  C   UNL A   1      33.916  19.334  24.646  1.00  0.00     0.220 C 
ATOM     11  H   UNL A   1      35.898  19.249  24.579  1.00  0.00     0.163 HD
ATOM     12  O   UNL A   1      33.818  18.169  24.257  1.00  0.00    -0.275 OA
BRANCH  10  13
ATOM     13  C   UNL A   1      32.679  20.198  24.801  1.00  0.00     0.108 C 
BRANCH  13  14
ATOM     14  C   UNL A   1      32.499  21.210  23.669  1.00  0.00     0.085 C 
BRANCH  14  15
ATOM     15  C   UNL A   1      31.764  22.432  24.110  1.00  0.00     0.107 A 
ATOM     16  N   UNL A   1      31.856  23.019  25.284  1.00  0.00    -0.233 NA
ATOM     17  N   UNL A   1      30.928  23.141  23.280  1.00  0.00    -0.342 N 
ATOM     18  C   UNL A   1      31.245  24.241  25.133  1.00  0.00     0.089 A 
ATOM     19  C   UNL A   1      30.686  24.358  23.867  1.00  0.00     0.065 A 
ATOM     20  H   UNL A   1      30.567  22.832  22.418  1.00  0.00     0.168 HD
ATOM     21  C   UNL A   1      31.251  25.351  25.991  1.00  0.00     0.030 A 
ATOM     22  C   UNL A   1      30.108  25.537  23.389  1.00  0.00     0.028 A 
ATOM     23  C   UNL A   1      30.734  26.563  25.514  1.00  0.00     0.002 A 
ATOM     24  C   UNL A   1      30.172  26.650  24.238  1.00  0.00     0.002 A 
ENDBRANCH  14  15
ENDBRANCH  13  14
ENDBRANCH  10  13
ENDBRANCH   8   9
ENDBRANCH   7   8
ENDBRANCH   5   7
ENDBRANCH   2   3
ENDBRANCH   1   2
BRANCH   1  25
ATOM     25  C   UNL A   1      33.243  27.241  22.154  1.00  0.00     0.002 C 
BRANCH  25  26
ATOM     26  C   UNL A   1      33.908  28.191  23.154  1.00  0.00     0.002 C 
BRANCH  26  27
ATOM     27  C   UNL A   1      32.952  29.146  23.866  1.00  0.00     0.021 C 
BRANCH  27  28
ATOM     28  C   UNL A   1      33.206  29.298  25.360  1.00  0.00     0.116 C 
BRANCH  28  29
ATOM     29  N   UNL A   1      32.756  30.584  25.866  1.00  0.00    -0.352 N 
ATOM     30  C   UNL A   1      33.241  31.306  26.930  1.00  0.00     0.251 C 
ATOM     31  H   UNL A   1      32.004  30.994  25.381  1.00  0.00     0.163 HD
ATOM     32  O   UNL A   1      32.635  32.287  27.339  1.00  0.00    -0.269 OA
BRANCH  30  33
ATOM     33  C   UNL A   1      34.493  30.871  27.590  1.00  0.00     0.039 A 
ATOM     34  C   UNL A   1      35.540  31.786  27.722  1.00  0.00     0.014 A 
ATOM     35  C   UNL A   1      34.627  29.572  28.086  1.00  0.00     0.014 A 
ATOM     36  C   UNL A   1      36.703  31.410  28.397  1.00  0.00     0.010 A 
ATOM     37  C   UNL A   1      35.752  29.226  28.829  1.00  0.00     0.010 A 
ATOM     38  C   UNL A   1      36.809  30.137  28.982  1.00  0.00    -0.014 A 
BRANCH  38  39
ATOM     39  C   UNL A   1      38.020  29.734  29.742  1.00  0.00     0.031 A 
ATOM     40  C   UNL A   1      38.278  30.308  31.110  1.00  0.00     0.074 A 
ATOM     41  C   UNL A   1      38.923  28.907  29.175  1.00  0.00     0.049 A 
ATOM     42  N   UNL A   1      39.307  30.133  31.898  1.00  0.00    -0.248 NA
ATOM     43  C   UNL A   1      37.258  31.219  31.656  1.00  0.00     0.031 C 
ATOM     44  C   UNL A   1      38.825  28.340  27.828  1.00  0.00     0.029 A 
ATOM     45  N   UNL A   1      40.116  28.422  29.651  1.00  0.00    -0.354 N 
ATOM     46  C   UNL A   1      39.073  30.928  33.014  1.00  0.00     0.074 A 
ATOM     47  C   UNL A   1      37.824  31.621  32.785  1.00  0.00     0.031 C 
ATOM     48  C   UNL A   1      39.911  27.586  27.587  1.00  0.00     0.029 A 
ATOM     49  C   UNL A   1      40.797  27.642  28.744  1.00  0.00     0.049 A 
ATOM     50  H   UNL A   1      40.452  28.612  30.557  1.00  0.00     0.167 HD
ATOM     51  C   UNL A   1      39.810  31.046  34.143  1.00  0.00     0.034 A 
ATOM     52  C   UNL A   1      42.006  27.052  28.830  1.00  0.00     0.034 A 
ATOM     53  C   UNL A   1      41.032  30.329  34.385  1.00  0.00     0.049 A 
ATOM     54  C   UNL A   1      42.793  27.185  30.107  1.00  0.00     0.074 A 
ATOM     55  C   UNL A   1      41.820  30.333  35.522  1.00  0.00     0.029 A 
ATOM     56  N   UNL A   1      41.644  29.479  33.476  1.00  0.00    -0.354 N 
ATOM     57  N   UNL A   1      42.485  27.832  31.204  1.00  0.00    -0.248 NA
ATOM     58  C   UNL A   1      44.079  26.472  30.173  1.00  0.00     0.031 C 
ATOM     59  C   UNL A   1      42.923  29.504  35.293  1.00  0.00     0.029 A 
ATOM     60  C   UNL A   1      42.800  28.955  34.027  1.00  0.00     0.049 A 
ATOM     61  H   UNL A   1      41.307  29.280  32.574  1.00  0.00     0.167 HD
ATOM     62  C   UNL A   1      43.512  27.568  32.104  1.00  0.00     0.074 A 
ATOM     63  C   UNL A   1      44.441  26.685  31.430  1.00  0.00     0.031 C 
ATOM     64  C   UNL A   1      43.681  28.025  33.369  1.00  0.00     0.034 A 
BRANCH  51  65
ATOM     65  C   UNL A   1      39.286  31.939  35.237  1.00  0.00     0.023 A 
ATOM     66  C   UNL A   1      38.350  31.428  36.160  1.00  0.00     0.012 A 
ATOM     67  C   UNL A   1      39.776  33.249  35.405  1.00  0.00     0.148 A 
ATOM     68  C   UNL A   1      37.890  32.213  37.215  1.00  0.00     0.002 A 
ATOM     69  C   UNL A   1      39.348  34.009  36.487  1.00  0.00     0.091 A 
ATOM     70  F   UNL A   1      40.654  33.723  34.509  1.00  0.00    -0.205 F 
ATOM     71  C   UNL A   1      38.397  33.497  37.385  1.00  0.00     0.022 A 
BRANCH  69  72
ATOM     72  S   UNL A   1      39.999  35.645  36.846  1.00  0.00     0.127 S 
ATOM     73  O   UNL A   1      41.433  35.377  36.941  1.00  0.00    -0.237 OA
ATOM     74  O   UNL A   1      39.598  36.400  35.659  1.00  0.00    -0.237 OA
ATOM     75  O   UNL A   1      39.363  36.070  38.085  1.00  0.00    -0.744 OA
ENDBRANCH  69  72
ENDBRANCH  51  65
BRANCH  52  76
ATOM     76  C   UNL A   1      42.538  26.250  27.691  1.00  0.00     0.023 A 
ATOM     77  C   UNL A   1      43.412  26.850  26.763  1.00  0.00     0.012 A 
ATOM     78  C   UNL A   1      42.168  24.903  27.511  1.00  0.00     0.148 A 
ATOM     79  C   UNL A   1      43.868  26.141  25.651  1.00  0.00     0.002 A 
ATOM     80  C   UNL A   1      42.674  24.184  26.434  1.00  0.00     0.091 A 
ATOM     81  F   UNL A   1      41.327  24.351  28.396  1.00  0.00    -0.205 F 
ATOM     82  C   UNL A   1      43.505  24.806  25.490  1.00  0.00     0.022 A 
BRANCH  80  83
ATOM     83  S   UNL A   1      42.362  22.428  26.223  1.00  0.00     0.127 S 
ATOM     84  O   UNL A   1      40.907  22.395  26.105  1.00  0.00    -0.237 OA
ATOM     85  O   UNL A   1      43.088  22.137  24.987  1.00  0.00    -0.237 OA
ATOM     86  O   UNL A   1      42.919  21.788  27.408  1.00  0.00    -0.744 OA
ENDBRANCH  80  83
ENDBRANCH  52  76
BRANCH  64  87
ATOM     87  C   UNL A   1      44.878  27.534  34.139  1.00  0.00     0.023 A 
ATOM     88  C   UNL A   1      46.077  28.273  34.133  1.00  0.00     0.012 A 
ATOM     89  C   UNL A   1      44.785  26.371  34.931  1.00  0.00     0.148 A 
ATOM     90  C   UNL A   1      47.178  27.843  34.872  1.00  0.00     0.002 A 
ATOM     91  C   UNL A   1      45.867  25.979  35.708  1.00  0.00     0.091 A 
ATOM     92  F   UNL A   1      43.640  25.673  34.911  1.00  0.00    -0.205 F 
ATOM     93  C   UNL A   1      47.070  26.704  35.668  1.00  0.00     0.022 A 
BRANCH  91  94
ATOM     94  S   UNL A   1      45.787  24.586  36.840  1.00  0.00     0.127 S 
ATOM     95  O   UNL A   1      44.692  24.983  37.723  1.00  0.00    -0.237 OA
ATOM     96  O   UNL A   1      45.473  23.476  35.939  1.00  0.00    -0.237 OA
ATOM     97  O   UNL A   1      47.097  24.502  37.470  1.00  0.00    -0.744 OA
ENDBRANCH  91  94
ENDBRANCH  64  87
ENDBRANCH  38  39
ENDBRANCH  30  33
ENDBRANCH  28  29
ENDBRANCH  27  28
ENDBRANCH  26  27
ENDBRANCH  25  26
ENDBRANCH   1  25
TORSDOF 21
ENDMDL
MODEL 2
REMARK VINA RESULT:     -10.4      1.545      2.148
REMARK SMILES O=C(CCNC(=O)CCc1nc2ccccc2[nH]1)NCCCCCCNC(=O)c1ccc(-c2c3nc(c(-c4cccc(S(=O)(=O)[O-])c4F)c4ccc([nH]4)c(-c4cccc(S(=O)(=O)[O-])c4F)c4nc(c(-c5cccc(S(=O)(=O)[O-])c5F)c5ccc2[nH]5)C=C4)C=C3)cc1
REMARK SMILES IDX 21 1 20 2 19 3 1 4 2 5 3 7 4 8 5 9 6 10 7 12 8 13 9 14 10 15
REMARK SMILES IDX 11 16 18 17 12 18 17 19 13 21 16 22 14 23 15 24 22 25 23 26
REMARK SMILES IDX 24 27 25 28 26 29 27 30 28 32 29 33 30 34 91 35 31 36 90 37
REMARK SMILES IDX 32 38 33 39 34 40 84 41 35 42 89 43 83 44 85 45 36 46 88 47
REMARK SMILES IDX 82 48 81 49 37 51 69 52 49 53 68 54 50 55 53 56 67 57 86 58
REMARK SMILES IDX 51 59 52 60 66 62 87 63 54 64 38 65 39 66 47 67 40 68 42 69
REMARK SMILES IDX 48 70 41 71 43 72 44 73 45 74 46 75 70 76 71 77 79 78 72 79
REMARK SMILES IDX 74 80 80 81 73 82 75 83 76 84 77 85 78 86 55 87 56 88 64 89
REMARK SMILES IDX 57 90 59 91 65 92 58 93 60 94 61 95 62 96 63 97
REMARK H PARENT 19 6 5 11 18 20 26 31 85 50 53 61
REMARK Flexibility Score: inf
ROOT
ATOM      1  C   UNL A   1      32.196  25.750  26.472  1.00  0.00     0.021 C 
ENDROOT
BRANCH   1   2
ATOM      2  C   UNL A   1      31.768  24.287  26.576  1.00  0.00     0.116 C 
BRANCH   2   3
ATOM      3  N   UNL A   1      32.905  23.401  26.501  1.00  0.00    -0.356 N 
ATOM      4  O   UNL A   1      32.464  22.227  28.431  1.00  0.00    -0.275 OA
ATOM      5  C   UNL A   1      33.179  22.465  27.466  1.00  0.00     0.221 C 
ATOM      6  H   UNL A   1      33.508  23.470  25.726  1.00  0.00     0.163 HD
BRANCH   5   7
ATOM      7  C   UNL A   1      34.495  21.773  27.241  1.00  0.00     0.121 C 
BRANCH   7   8
ATOM      8  C   UNL A   1      34.883  21.630  25.783  1.00  0.00     0.125 C 
BRANCH   8   9
ATOM      9  N   UNL A   1      34.615  20.289  25.275  1.00  0.00    -0.356 N 
ATOM     10  C   UNL A   1      33.494  19.756  24.716  1.00  0.00     0.220 C 
ATOM     11  H   UNL A   1      35.373  19.665  25.350  1.00  0.00     0.163 HD
ATOM     12  O   UNL A   1      33.470  18.541  24.506  1.00  0.00    -0.275 OA
BRANCH  10  13
ATOM     13  C   UNL A   1      32.328  20.630  24.297  1.00  0.00     0.108 C 
BRANCH  13  14
ATOM     14  C   UNL A   1      32.564  21.367  22.978  1.00  0.00     0.085 C 
BRANCH  14  15
ATOM     15  C   UNL A   1      32.475  22.849  23.130  1.00  0.00     0.107 A 
ATOM     16  N   UNL A   1      33.478  23.679  23.318  1.00  0.00    -0.233 NA
ATOM     17  N   UNL A   1      31.290  23.540  23.023  1.00  0.00    -0.342 N 
ATOM     18  C   UNL A   1      32.961  24.935  23.105  1.00  0.00     0.089 A 
ATOM     19  C   UNL A   1      31.592  24.871  22.880  1.00  0.00     0.065 A 
ATOM     20  H   UNL A   1      30.386  23.150  23.044  1.00  0.00     0.168 HD
ATOM     21  C   UNL A   1      33.630  26.159  22.955  1.00  0.00     0.030 A 
ATOM     22  C   UNL A   1      30.823  25.978  22.514  1.00  0.00     0.028 A 
ATOM     23  C   UNL A   1      32.894  27.272  22.528  1.00  0.00     0.002 A 
ATOM     24  C   UNL A   1      31.515  27.180  22.315  1.00  0.00     0.002 A 
ENDBRANCH  14  15
ENDBRANCH  13  14
ENDBRANCH  10  13
ENDBRANCH   8   9
ENDBRANCH   7   8
ENDBRANCH   5   7
ENDBRANCH   2   3
ENDBRANCH   1   2
BRANCH   1  25
ATOM     25  C   UNL A   1      31.066  26.732  26.124  1.00  0.00     0.002 C 
BRANCH  25  26
ATOM     26  C   UNL A   1      31.455  28.212  26.149  1.00  0.00     0.002 C 
BRANCH  26  27
ATOM     27  C   UNL A   1      32.864  28.498  26.665  1.00  0.00     0.021 C 
BRANCH  27  28
ATOM     28  C   UNL A   1      33.609  29.585  25.903  1.00  0.00     0.116 C 
BRANCH  28  29
ATOM     29  N   UNL A   1      33.333  30.912  26.428  1.00  0.00    -0.352 N 
ATOM     30  C   UNL A   1      33.972  31.585  27.442  1.00  0.00     0.251 C 
ATOM     31  H   UNL A   1      32.591  31.394  25.998  1.00  0.00     0.163 HD
ATOM     32  O   UNL A   1      33.503  32.624  27.886  1.00  0.00    -0.269 OA
BRANCH  30  33
ATOM     33  C   UNL A   1      35.222  31.027  28.006  1.00  0.00     0.039 A 
ATOM     34  C   UNL A   1      36.399  31.771  27.907  1.00  0.00     0.014 A 
ATOM     35  C   UNL A   1      35.227  29.782  28.642  1.00  0.00     0.014 A 
ATOM     36  C   UNL A   1      37.573  31.287  28.490  1.00  0.00     0.010 A 
ATOM     37  C   UNL A   1      36.377  29.341  29.291  1.00  0.00     0.010 A 
ATOM     38  C   UNL A   1      37.566  30.082  29.211  1.00  0.00    -0.014 A 
BRANCH  38  39
ATOM     39  C   UNL A   1      38.794  29.572  29.875  1.00  0.00     0.031 A 
ATOM     40  C   UNL A   1      39.238  30.158  31.190  1.00  0.00     0.074 A 
ATOM     41  C   UNL A   1      39.545  28.634  29.265  1.00  0.00     0.049 A 
ATOM     42  N   UNL A   1      40.312  29.896  31.889  1.00  0.00    -0.248 NA
ATOM     43  C   UNL A   1      38.376  31.192  31.787  1.00  0.00     0.031 C 
ATOM     44  C   UNL A   1      39.262  28.039  27.956  1.00  0.00     0.029 A 
ATOM     45  N   UNL A   1      40.719  28.036  29.651  1.00  0.00    -0.354 N 
ATOM     46  C   UNL A   1      40.269  30.746  32.987  1.00  0.00     0.074 A 
ATOM     47  C   UNL A   1      39.086  31.564  32.843  1.00  0.00     0.031 C 
ATOM     48  C   UNL A   1      40.234  27.163  27.650  1.00  0.00     0.029 A 
ATOM     49  C   UNL A   1      41.225  27.158  28.720  1.00  0.00     0.049 A 
ATOM     50  H   UNL A   1      41.157  28.216  30.515  1.00  0.00     0.167 HD
ATOM     51  C   UNL A   1      41.118  30.818  34.040  1.00  0.00     0.034 A 
ATOM     52  C   UNL A   1      42.368  26.442  28.721  1.00  0.00     0.034 A 
ATOM     53  C   UNL A   1      42.274  29.979  34.200  1.00  0.00     0.049 A 
ATOM     54  C   UNL A   1      43.281  26.527  29.916  1.00  0.00     0.074 A 
ATOM     55  C   UNL A   1      43.161  29.933  35.261  1.00  0.00     0.029 A 
ATOM     56  N   UNL A   1      42.704  29.039  33.277  1.00  0.00    -0.354 N 
ATOM     57  N   UNL A   1      43.148  27.238  31.009  1.00  0.00    -0.248 NA
ATOM     58  C   UNL A   1      44.483  25.680  29.895  1.00  0.00     0.031 C 
ATOM     59  C   UNL A   1      44.143  28.980  34.968  1.00  0.00     0.029 A 
ATOM     60  C   UNL A   1      43.844  28.409  33.742  1.00  0.00     0.049 A 
ATOM     61  H   UNL A   1      42.264  28.850  32.417  1.00  0.00     0.167 HD
ATOM     62  C   UNL A   1      44.221  26.892  31.822  1.00  0.00     0.074 A 
ATOM     63  C   UNL A   1      44.983  25.891  31.104  1.00  0.00     0.031 C 
ATOM     64  C   UNL A   1      44.555  27.367  33.047  1.00  0.00     0.034 A 
BRANCH  51  65
ATOM     65  C   UNL A   1      40.797  31.798  35.139  1.00  0.00     0.023 A 
ATOM     66  C   UNL A   1      41.462  33.041  35.174  1.00  0.00     0.012 A 
ATOM     67  C   UNL A   1      39.787  31.528  36.082  1.00  0.00     0.148 A 
ATOM     68  C   UNL A   1      41.147  33.989  36.145  1.00  0.00     0.002 A 
ATOM     69  C   UNL A   1      39.446  32.497  37.018  1.00  0.00     0.091 A 
ATOM     70  F   UNL A   1      39.177  30.335  36.042  1.00  0.00    -0.205 F 
ATOM     71  C   UNL A   1      40.131  33.722  37.058  1.00  0.00     0.022 A 
BRANCH  69  72
ATOM     72  S   UNL A   1      38.097  32.288  38.188  1.00  0.00     0.127 S 
ATOM     73  O   UNL A   1      37.316  33.503  37.957  1.00  0.00    -0.237 OA
ATOM     74  O   UNL A   1      37.466  31.058  37.709  1.00  0.00    -0.237 OA
ATOM     75  O   UNL A   1      38.714  32.188  39.503  1.00  0.00    -0.744 OA
ENDBRANCH  69  72
ENDBRANCH  51  65
BRANCH  52  76
ATOM     76  C   UNL A   1      42.702  25.550  27.573  1.00  0.00     0.023 A 
ATOM     77  C   UNL A   1      43.512  26.034  26.527  1.00  0.00     0.012 A 
ATOM     78  C   UNL A   1      42.207  24.234  27.503  1.00  0.00     0.148 A 
ATOM     79  C   UNL A   1      43.781  25.243  25.410  1.00  0.00     0.002 A 
ATOM     80  C   UNL A   1      42.528  23.430  26.415  1.00  0.00     0.091 A 
ATOM     81  F   UNL A   1      41.428  23.793  28.501  1.00  0.00    -0.205 F 
ATOM     82  C   UNL A   1      43.296  23.939  25.356  1.00  0.00     0.022 A 
BRANCH  80  83
ATOM     83  S   UNL A   1      42.054  21.700  26.329  1.00  0.00     0.127 S 
ATOM     84  O   UNL A   1      42.892  21.215  25.235  1.00  0.00    -0.237 OA
ATOM     85  O   UNL A   1      42.432  21.215  27.657  1.00  0.00    -0.237 OA
ATOM     86  O   UNL A   1      40.619  21.701  26.078  1.00  0.00    -0.744 OA
ENDBRANCH  80  83
ENDBRANCH  52  76
BRANCH  64  87
ATOM     87  C   UNL A   1      45.760  26.772  33.726  1.00  0.00     0.023 A 
ATOM     88  C   UNL A   1      47.032  27.350  33.548  1.00  0.00     0.012 A 
ATOM     89  C   UNL A   1      45.613  25.678  34.603  1.00  0.00     0.148 A 
ATOM     90  C   UNL A   1      48.146  26.826  34.202  1.00  0.00     0.002 A 
ATOM     91  C   UNL A   1      46.718  25.196  35.294  1.00  0.00     0.091 A 
ATOM     92  F   UNL A   1      44.397  25.132  34.747  1.00  0.00    -0.205 F 
ATOM     93  C   UNL A   1      47.987  25.758  35.082  1.00  0.00     0.022 A 
BRANCH  91  94
ATOM     94  S   UNL A   1      46.592  23.891  36.523  1.00  0.00     0.127 S 
ATOM     95  O   UNL A   1      46.029  24.612  37.664  1.00  0.00    -0.237 OA
ATOM     96  O   UNL A   1      45.672  22.952  35.881  1.00  0.00    -0.237 OA
ATOM     97  O   UNL A   1      47.943  23.383  36.711  1.00  0.00    -0.744 OA
ENDBRANCH  91  94
ENDBRANCH  64  87
ENDBRANCH  38  39
ENDBRANCH  30  33
ENDBRANCH  28  29
ENDBRANCH  27  28
ENDBRANCH  26  27
ENDBRANCH  25  26
ENDBRANCH   1  25
TORSDOF 21
ENDMDL
MODEL 3
REMARK VINA RESULT:     -10.3      4.747      9.926
REMARK SMILES O=C(CCNC(=O)CCc1nc2ccccc2[nH]1)NCCCCCCNC(=O)c1ccc(-c2c3nc(c(-c4cccc(S(=O)(=O)[O-])c4F)c4ccc([nH]4)c(-c4cccc(S(=O)(=O)[O-])c4F)c4nc(c(-c5cccc(S(=O)(=O)[O-])c5F)c5ccc2[nH]5)C=C4)C=C3)cc1
REMARK SMILES IDX 21 1 20 2 19 3 1 4 2 5 3 7 4 8 5 9 6 10 7 12 8 13 9 14 10 15
REMARK SMILES IDX 11 16 18 17 12 18 17 19 13 21 16 22 14 23 15 24 22 25 23 26
REMARK SMILES IDX 24 27 25 28 26 29 27 30 28 32 29 33 30 34 91 35 31 36 90 37
REMARK SMILES IDX 32 38 33 39 34 40 84 41 35 42 89 43 83 44 85 45 36 46 88 47
REMARK SMILES IDX 82 48 81 49 37 51 69 52 49 53 68 54 50 55 53 56 67 57 86 58
REMARK SMILES IDX 51 59 52 60 66 62 87 63 54 64 38 65 39 66 47 67 40 68 42 69
REMARK SMILES IDX 48 70 41 71 43 72 44 73 45 74 46 75 70 76 71 77 79 78 72 79
REMARK SMILES IDX 74 80 80 81 73 82 75 83 76 84 77 85 78 86 55 87 56 88 64 89
REMARK SMILES IDX 57 90 59 91 65 92 58 93 60 94 61 95 62 96 63 97
REMARK H PARENT 19 6 5 11 18 20 26 31 85 50 53 61
REMARK Flexibility Score: inf
ROOT
ATOM      1  C   UNL A   1      34.478  25.888  25.894  1.00  0.00     0.021 C 
ENDROOT
BRANCH   1   2
ATOM      2  C   UNL A   1      33.259  26.765  25.613  1.00  0.00     0.116 C 
BRANCH   2   3
ATOM      3  N   UNL A   1      32.136  25.976  25.167  1.00  0.00    -0.356 N 
ATOM      4  O   UNL A   1      31.758  27.123  23.207  1.00  0.00    -0.275 OA
ATOM      5  C   UNL A   1      31.451  26.252  24.010  1.00  0.00     0.221 C 
ATOM      6  H   UNL A   1      31.850  25.209  25.713  1.00  0.00     0.163 HD
BRANCH   5   7
ATOM      7  C   UNL A   1      30.231  25.386  23.842  1.00  0.00     0.121 C 
BRANCH   7   8
ATOM      8  C   UNL A   1      30.492  24.076  23.126  1.00  0.00     0.125 C 
BRANCH   8   9
ATOM      9  N   UNL A   1      31.815  24.042  22.514  1.00  0.00    -0.356 N 
ATOM     10  C   UNL A   1      32.732  23.039  22.429  1.00  0.00     0.220 C 
ATOM     11  H   UNL A   1      32.092  24.887  22.090  1.00  0.00     0.163 HD
ATOM     12  O   UNL A   1      33.851  23.308  21.989  1.00  0.00    -0.275 OA
BRANCH  10  13
ATOM     13  C   UNL A   1      32.376  21.611  22.799  1.00  0.00     0.108 C 
BRANCH  13  14
ATOM     14  C   UNL A   1      32.274  21.382  24.308  1.00  0.00     0.085 C 
BRANCH  14  15
ATOM     15  C   UNL A   1      32.775  20.036  24.713  1.00  0.00     0.107 A 
ATOM     16  N   UNL A   1      32.153  19.169  25.482  1.00  0.00    -0.233 NA
ATOM     17  N   UNL A   1      33.961  19.512  24.255  1.00  0.00    -0.342 N 
ATOM     18  C   UNL A   1      32.842  17.988  25.337  1.00  0.00     0.089 A 
ATOM     19  C   UNL A   1      33.964  18.168  24.538  1.00  0.00     0.065 A 
ATOM     20  H   UNL A   1      34.681  20.010  23.804  1.00  0.00     0.168 HD
ATOM     21  C   UNL A   1      32.488  16.694  25.748  1.00  0.00     0.030 A 
ATOM     22  C   UNL A   1      34.783  17.118  24.118  1.00  0.00     0.028 A 
ATOM     23  C   UNL A   1      33.256  15.616  25.290  1.00  0.00     0.002 A 
ATOM     24  C   UNL A   1      34.384  15.829  24.493  1.00  0.00     0.002 A 
ENDBRANCH  14  15
ENDBRANCH  13  14
ENDBRANCH  10  13
ENDBRANCH   8   9
ENDBRANCH   7   8
ENDBRANCH   5   7
ENDBRANCH   2   3
ENDBRANCH   1   2
BRANCH   1  25
ATOM     25  C   UNL A   1      34.355  24.435  25.411  1.00  0.00     0.002 C 
BRANCH  25  26
ATOM     26  C   UNL A   1      35.288  23.436  26.099  1.00  0.00     0.002 C 
BRANCH  26  27
ATOM     27  C   UNL A   1      35.632  22.201  25.268  1.00  0.00     0.021 C 
BRANCH  27  28
ATOM     28  C   UNL A   1      37.073  22.148  24.779  1.00  0.00     0.116 C 
BRANCH  28  29
ATOM     29  N   UNL A   1      37.818  21.052  25.377  1.00  0.00    -0.352 N 
ATOM     30  C   UNL A   1      38.990  21.099  26.092  1.00  0.00     0.251 C 
ATOM     31  H   UNL A   1      37.429  20.156  25.255  1.00  0.00     0.163 HD
ATOM     32  O   UNL A   1      39.585  20.068  26.374  1.00  0.00    -0.269 OA
BRANCH  30  33
ATOM     33  C   UNL A   1      39.538  22.413  26.499  1.00  0.00     0.039 A 
ATOM     34  C   UNL A   1      40.591  22.452  27.416  1.00  0.00     0.014 A 
ATOM     35  C   UNL A   1      39.023  23.599  25.968  1.00  0.00     0.014 A 
ATOM     36  C   UNL A   1      41.160  23.680  27.762  1.00  0.00     0.010 A 
ATOM     37  C   UNL A   1      39.645  24.812  26.251  1.00  0.00     0.010 A 
ATOM     38  C   UNL A   1      40.711  24.868  27.161  1.00  0.00    -0.014 A 
BRANCH  38  39
ATOM     39  C   UNL A   1      41.333  26.179  27.483  1.00  0.00     0.031 A 
ATOM     40  C   UNL A   1      42.762  26.452  27.091  1.00  0.00     0.074 A 
ATOM     41  C   UNL A   1      40.638  27.095  28.187  1.00  0.00     0.049 A 
ATOM     42  N   UNL A   1      43.499  27.502  27.342  1.00  0.00    -0.248 NA
ATOM     43  C   UNL A   1      43.463  25.397  26.340  1.00  0.00     0.031 C 
ATOM     44  C   UNL A   1      39.272  26.923  28.689  1.00  0.00     0.029 A 
ATOM     45  N   UNL A   1      40.996  28.345  28.629  1.00  0.00    -0.354 N 
ATOM     46  C   UNL A   1      44.751  27.226  26.807  1.00  0.00     0.074 A 
ATOM     47  C   UNL A   1      44.690  25.891  26.255  1.00  0.00     0.031 C 
ATOM     48  C   UNL A   1      38.910  28.023  29.368  1.00  0.00     0.029 A 
ATOM     49  C   UNL A   1      40.024  28.964  29.381  1.00  0.00     0.049 A 
ATOM     50  H   UNL A   1      41.866  28.759  28.426  1.00  0.00     0.167 HD
ATOM     51  C   UNL A   1      45.845  28.022  26.748  1.00  0.00     0.034 A 
ATOM     52  C   UNL A   1      40.036  30.151  30.023  1.00  0.00     0.034 A 
ATOM     53  C   UNL A   1      45.893  29.362  27.264  1.00  0.00     0.049 A 
ATOM     54  C   UNL A   1      41.260  31.022  29.921  1.00  0.00     0.074 A 
ATOM     55  C   UNL A   1      46.935  30.271  27.199  1.00  0.00     0.029 A 
ATOM     56  N   UNL A   1      44.858  29.987  27.941  1.00  0.00    -0.354 N 
ATOM     57  N   UNL A   1      42.386  30.796  29.290  1.00  0.00    -0.248 NA
ATOM     58  C   UNL A   1      41.200  32.333  30.587  1.00  0.00     0.031 C 
ATOM     59  C   UNL A   1      46.538  31.439  27.857  1.00  0.00     0.029 A 
ATOM     60  C   UNL A   1      45.236  31.269  28.300  1.00  0.00     0.049 A 
ATOM     61  H   UNL A   1      43.985  29.579  28.139  1.00  0.00     0.167 HD
ATOM     62  C   UNL A   1      43.148  31.948  29.444  1.00  0.00     0.074 A 
ATOM     63  C   UNL A   1      42.347  32.880  30.210  1.00  0.00     0.031 C 
ATOM     64  C   UNL A   1      44.404  32.209  29.004  1.00  0.00     0.034 A 
BRANCH  51  65
ATOM     65  C   UNL A   1      47.067  27.490  26.045  1.00  0.00     0.023 A 
ATOM     66  C   UNL A   1      47.255  27.770  24.675  1.00  0.00     0.012 A 
ATOM     67  C   UNL A   1      48.065  26.790  26.750  1.00  0.00     0.148 A 
ATOM     68  C   UNL A   1      48.402  27.338  24.012  1.00  0.00     0.002 A 
ATOM     69  C   UNL A   1      49.228  26.404  26.093  1.00  0.00     0.091 A 
ATOM     70  F   UNL A   1      47.862  26.521  28.047  1.00  0.00    -0.205 F 
ATOM     71  C   UNL A   1      49.392  26.668  24.723  1.00  0.00     0.022 A 
BRANCH  69  72
ATOM     72  S   UNL A   1      50.602  25.607  26.932  1.00  0.00     0.127 S 
ATOM     73  O   UNL A   1      51.490  25.294  25.813  1.00  0.00    -0.237 OA
ATOM     74  O   UNL A   1      51.082  26.674  27.811  1.00  0.00    -0.237 OA
ATOM     75  O   UNL A   1      50.041  24.453  27.620  1.00  0.00    -0.744 OA
ENDBRANCH  69  72
ENDBRANCH  51  65
BRANCH  52  76
ATOM     76  C   UNL A   1      38.841  30.608  30.789  1.00  0.00     0.023 A 
ATOM     77  C   UNL A   1      38.761  30.354  32.172  1.00  0.00     0.012 A 
ATOM     78  C   UNL A   1      37.776  31.274  30.152  1.00  0.00     0.148 A 
ATOM     79  C   UNL A   1      37.623  30.710  32.897  1.00  0.00     0.002 A 
ATOM     80  C   UNL A   1      36.671  31.679  30.892  1.00  0.00     0.091 A 
ATOM     81  F   UNL A   1      37.864  31.497  28.833  1.00  0.00    -0.205 F 
ATOM     82  C   UNL A   1      36.581  31.378  32.259  1.00  0.00     0.022 A 
BRANCH  80  83
ATOM     83  S   UNL A   1      35.347  32.659  30.177  1.00  0.00     0.127 S 
ATOM     84  O   UNL A   1      36.069  33.836  29.702  1.00  0.00    -0.237 OA
ATOM     85  O   UNL A   1      34.850  31.774  29.123  1.00  0.00    -0.237 OA
ATOM     86  O   UNL A   1      34.401  32.887  31.261  1.00  0.00    -0.744 OA
ENDBRANCH  80  83
ENDBRANCH  52  76
BRANCH  64  87
ATOM     87  C   UNL A   1      44.974  33.576  29.278  1.00  0.00     0.023 A 
ATOM     88  C   UNL A   1      45.655  33.831  30.485  1.00  0.00     0.012 A 
ATOM     89  C   UNL A   1      44.894  34.589  28.300  1.00  0.00     0.148 A 
ATOM     90  C   UNL A   1      46.216  35.084  30.730  1.00  0.00     0.002 A 
ATOM     91  C   UNL A   1      45.503  35.816  28.529  1.00  0.00     0.091 A 
ATOM     92  F   UNL A   1      44.228  34.331  27.166  1.00  0.00    -0.205 F 
ATOM     93  C   UNL A   1      46.150  36.070  29.749  1.00  0.00     0.022 A 
BRANCH  91  94
ATOM     94  S   UNL A   1      45.558  37.111  27.285  1.00  0.00     0.127 S 
ATOM     95  O   UNL A   1      44.137  37.404  27.098  1.00  0.00    -0.237 OA
ATOM     96  O   UNL A   1      46.313  38.162  27.968  1.00  0.00    -0.237 OA
ATOM     97  O   UNL A   1      46.232  36.533  26.131  1.00  0.00    -0.744 OA
ENDBRANCH  91  94
ENDBRANCH  64  87
ENDBRANCH  38  39
ENDBRANCH  30  33
ENDBRANCH  28  29
ENDBRANCH  27  28
ENDBRANCH  26  27
ENDBRANCH  25  26
ENDBRANCH   1  25
TORSDOF 21
ENDMDL
