MODEL 1
REMARK VINA RESULT:     -11.1      0.000      0.000
REMARK SMILES C[C@@H]1CN(C(=O)NC[C@@H]2CC[C@H](C(=O)NCCCCCCNC(=O)c3ccc(-c4c5nc(c(-c6cccc(S(=O)(=O)[O-])c6F)c6ccc([nH]6)c(-c6cccc(S(=O)(=O)[O-])c6F)c6nc(c(-c7cccc(S(=O)(=O)[O-])c7F)c7ccc4[nH]7)C=C6)C=C5)cc3)O2)CC(C)(C)O1
REMARK SMILES IDX 18 1 17 2 16 3 15 4 13 5 14 6 12 8 9 9 10 10 88 11 11 12
REMARK SMILES IDX 8 13 7 14 5 15 6 16 4 18 1 19 2 20 3 21 93 22 90 23 89 24
REMARK SMILES IDX 91 25 92 26 19 27 20 28 21 29 22 30 23 31 24 33 25 34 26 35
REMARK SMILES IDX 87 36 27 37 86 38 28 39 29 40 30 41 80 42 31 43 85 44 79 45
REMARK SMILES IDX 81 46 32 47 84 48 78 49 77 50 33 52 65 53 45 54 64 55 46 56
REMARK SMILES IDX 49 57 63 58 82 59 47 60 48 61 62 63 83 64 50 65 34 66 35 67
REMARK SMILES IDX 43 68 36 69 38 70 44 71 37 72 39 73 40 74 41 75 42 76 66 77
REMARK SMILES IDX 67 78 75 79 68 80 70 81 76 82 69 83 71 84 72 85 73 86 74 87
REMARK SMILES IDX 51 88 52 89 60 90 53 91 55 92 61 93 54 94 56 95 57 96 58 97
REMARK SMILES IDX 59 98
REMARK H PARENT 15 7 7 17 22 32 81 51 49 62
REMARK Flexibility Score: inf
ROOT
ATOM      1  C   UNL A   1      35.079  31.367  27.974  1.00  0.00     0.002 C 
ENDROOT
BRANCH   1   2
ATOM      2  C   UNL A   1      33.743  30.767  27.506  1.00  0.00     0.021 C 
BRANCH   2   3
ATOM      3  C   UNL A   1      33.850  29.361  26.913  1.00  0.00     0.116 C 
BRANCH   3   4
ATOM      4  N   UNL A   1      34.015  29.390  25.479  1.00  0.00    -0.354 N 
ATOM      5  C   UNL A   1      33.116  29.082  24.495  1.00  0.00     0.249 C 
ATOM      6  O   UNL A   1      33.513  29.149  23.326  1.00  0.00    -0.272 OA
ATOM      7  H   UNL A   1      34.902  29.673  25.162  1.00  0.00     0.163 HD
BRANCH   5   8
ATOM      8  C   UNL A   1      31.664  28.651  24.810  1.00  0.00     0.207 C 
ATOM      9  C   UNL A   1      30.256  26.803  24.596  1.00  0.00     0.138 C 
ATOM     10  C   UNL A   1      29.965  27.685  23.393  1.00  0.00     0.037 C 
ATOM     11  O   UNL A   1      31.522  27.259  25.109  1.00  0.00    -0.363 OA
ATOM     12  C   UNL A   1      30.635  29.001  23.742  1.00  0.00     0.045 C 
BRANCH   9  13
ATOM     13  C   UNL A   1      30.348  25.285  24.363  1.00  0.00     0.149 C 
BRANCH  13  14
ATOM     14  N   UNL A   1      30.129  24.473  25.546  1.00  0.00    -0.335 N 
ATOM     15  C   UNL A   1      30.855  23.633  26.310  1.00  0.00     0.317 C 
ATOM     16  O   UNL A   1      30.331  23.339  27.387  1.00  0.00    -0.249 OA
ATOM     17  H   UNL A   1      29.206  24.560  25.879  1.00  0.00     0.165 HD
BRANCH  15  18
ATOM     18  N   UNL A   1      32.062  23.133  25.936  1.00  0.00    -0.319 N 
ATOM     19  C   UNL A   1      32.273  22.484  22.920  1.00  0.00     0.040 C 
ATOM     20  C   UNL A   1      33.106  21.946  24.076  1.00  0.00     0.135 C 
ATOM     21  C   UNL A   1      32.383  21.827  25.415  1.00  0.00     0.153 C 
ATOM     22  O   UNL A   1      34.339  22.645  24.263  1.00  0.00    -0.369 OA
ATOM     23  C   UNL A   1      34.265  23.910  24.966  1.00  0.00     0.081 C 
ATOM     24  C   UNL A   1      33.281  23.921  26.178  1.00  0.00     0.156 C 
ATOM     25  C   UNL A   1      33.931  25.033  23.981  1.00  0.00     0.044 C 
ATOM     26  C   UNL A   1      35.694  24.120  25.485  1.00  0.00     0.044 C 
ENDBRANCH  15  18
ENDBRANCH  13  14
ENDBRANCH   9  13
ENDBRANCH   5   8
ENDBRANCH   3   4
ENDBRANCH   2   3
ENDBRANCH   1   2
BRANCH   1  27
ATOM     27  C   UNL A   1      35.148  32.901  28.040  1.00  0.00     0.002 C 
BRANCH  27  28
ATOM     28  C   UNL A   1      33.804  33.610  28.210  1.00  0.00     0.021 C 
BRANCH  28  29
ATOM     29  C   UNL A   1      33.850  35.104  28.483  1.00  0.00     0.116 C 
BRANCH  29  30
ATOM     30  N   UNL A   1      33.164  35.447  29.711  1.00  0.00    -0.352 N 
ATOM     31  C   UNL A   1      33.327  35.005  31.002  1.00  0.00     0.251 C 
ATOM     32  H   UNL A   1      32.452  36.118  29.602  1.00  0.00     0.163 HD
ATOM     33  O   UNL A   1      32.434  35.269  31.809  1.00  0.00    -0.269 OA
BRANCH  31  34
ATOM     34  C   UNL A   1      34.519  34.238  31.464  1.00  0.00     0.039 A 
ATOM     35  C   UNL A   1      35.782  34.808  31.255  1.00  0.00     0.014 A 
ATOM     36  C   UNL A   1      34.453  32.946  31.992  1.00  0.00     0.014 A 
ATOM     37  C   UNL A   1      36.948  34.103  31.576  1.00  0.00     0.010 A 
ATOM     38  C   UNL A   1      35.616  32.285  32.411  1.00  0.00     0.010 A 
ATOM     39  C   UNL A   1      36.883  32.838  32.181  1.00  0.00    -0.014 A 
BRANCH  39  40
ATOM     40  C   UNL A   1      38.129  32.099  32.549  1.00  0.00     0.031 A 
ATOM     41  C   UNL A   1      38.887  32.426  33.816  1.00  0.00     0.074 A 
ATOM     42  C   UNL A   1      38.609  31.142  31.728  1.00  0.00     0.049 A 
ATOM     43  N   UNL A   1      39.961  31.857  34.304  1.00  0.00    -0.248 NA
ATOM     44  C   UNL A   1      38.390  33.546  34.632  1.00  0.00     0.031 C 
ATOM     45  C   UNL A   1      38.025  30.763  30.440  1.00  0.00     0.029 A 
ATOM     46  N   UNL A   1      39.708  30.324  31.841  1.00  0.00    -0.354 N 
ATOM     47  C   UNL A   1      40.280  32.561  35.461  1.00  0.00     0.074 A 
ATOM     48  C   UNL A   1      39.313  33.629  35.580  1.00  0.00     0.031 C 
ATOM     49  C   UNL A   1      38.766  29.795  29.883  1.00  0.00     0.029 A 
ATOM     50  C   UNL A   1      39.886  29.484  30.765  1.00  0.00     0.049 A 
ATOM     51  H   UNL A   1      40.310  30.337  32.619  1.00  0.00     0.167 HD
ATOM     52  C   UNL A   1      41.261  32.322  36.365  1.00  0.00     0.034 A 
ATOM     53  C   UNL A   1      40.833  28.561  30.513  1.00  0.00     0.034 A 
ATOM     54  C   UNL A   1      42.198  31.232  36.277  1.00  0.00     0.049 A 
ATOM     55  C   UNL A   1      41.887  28.288  31.549  1.00  0.00     0.074 A 
ATOM     56  C   UNL A   1      43.160  30.848  37.195  1.00  0.00     0.029 A 
ATOM     57  N   UNL A   1      42.301  30.360  35.204  1.00  0.00    -0.354 N 
ATOM     58  N   UNL A   1      42.056  28.848  32.721  1.00  0.00    -0.248 NA
ATOM     59  C   UNL A   1      42.854  27.220  31.249  1.00  0.00     0.031 C 
ATOM     60  C   UNL A   1      43.868  29.765  36.661  1.00  0.00     0.029 A 
ATOM     61  C   UNL A   1      43.323  29.452  35.427  1.00  0.00     0.049 A 
ATOM     62  H   UNL A   1      41.732  30.384  34.401  1.00  0.00     0.167 HD
ATOM     63  C   UNL A   1      43.124  28.182  33.312  1.00  0.00     0.074 A 
ATOM     64  C   UNL A   1      43.542  27.157  32.380  1.00  0.00     0.031 C 
ATOM     65  C   UNL A   1      43.713  28.409  34.512  1.00  0.00     0.034 A 
BRANCH  52  66
ATOM     66  C   UNL A   1      41.343  33.226  37.572  1.00  0.00     0.023 A 
ATOM     67  C   UNL A   1      40.582  32.924  38.721  1.00  0.00     0.012 A 
ATOM     68  C   UNL A   1      42.221  34.329  37.597  1.00  0.00     0.148 A 
ATOM     69  C   UNL A   1      40.665  33.725  39.860  1.00  0.00     0.002 A 
ATOM     70  C   UNL A   1      42.332  35.094  38.752  1.00  0.00     0.091 A 
ATOM     71  F   UNL A   1      42.924  34.610  36.491  1.00  0.00    -0.205 F 
ATOM     72  C   UNL A   1      41.546  34.802  39.879  1.00  0.00     0.022 A 
BRANCH  70  73
ATOM     73  S   UNL A   1      43.498  36.453  38.906  1.00  0.00     0.127 S 
ATOM     74  O   UNL A   1      44.766  35.786  38.606  1.00  0.00    -0.237 OA
ATOM     75  O   UNL A   1      43.036  37.374  37.864  1.00  0.00    -0.237 OA
ATOM     76  O   UNL A   1      43.361  36.952  40.263  1.00  0.00    -0.744 OA
ENDBRANCH  70  73
ENDBRANCH  52  66
BRANCH  53  77
ATOM     77  C   UNL A   1      40.783  27.772  29.248  1.00  0.00     0.023 A 
ATOM     78  C   UNL A   1      39.815  26.760  29.096  1.00  0.00     0.012 A 
ATOM     79  C   UNL A   1      41.667  28.041  28.187  1.00  0.00     0.148 A 
ATOM     80  C   UNL A   1      39.752  26.007  27.923  1.00  0.00     0.002 A 
ATOM     81  C   UNL A   1      41.561  27.326  26.999  1.00  0.00     0.091 A 
ATOM     82  F   UNL A   1      42.588  29.001  28.356  1.00  0.00    -0.205 F 
ATOM     83  C   UNL A   1      40.618  26.297  26.872  1.00  0.00     0.022 A 
BRANCH  81  84
ATOM     84  S   UNL A   1      42.541  27.726  25.548  1.00  0.00     0.127 S 
ATOM     85  O   UNL A   1      41.945  28.989  25.123  1.00  0.00    -0.237 OA
ATOM     86  O   UNL A   1      43.886  27.839  26.114  1.00  0.00    -0.237 OA
ATOM     87  O   UNL A   1      42.369  26.602  24.638  1.00  0.00    -0.744 OA
ENDBRANCH  81  84
ENDBRANCH  53  77
BRANCH  65  88
ATOM     88  C   UNL A   1      44.864  27.519  34.902  1.00  0.00     0.023 A 
ATOM     89  C   UNL A   1      46.187  27.929  34.640  1.00  0.00     0.012 A 
ATOM     90  C   UNL A   1      44.639  26.298  35.569  1.00  0.00     0.148 A 
ATOM     91  C   UNL A   1      47.265  27.118  34.996  1.00  0.00     0.002 A 
ATOM     92  C   UNL A   1      45.721  25.520  35.968  1.00  0.00     0.091 A 
ATOM     93  F   UNL A   1      43.374  25.915  35.794  1.00  0.00    -0.205 F 
ATOM     94  C   UNL A   1      47.033  25.922  35.667  1.00  0.00     0.022 A 
BRANCH  92  95
ATOM     95  S   UNL A   1      45.522  24.012  36.922  1.00  0.00     0.127 S 
ATOM     96  O   UNL A   1      46.911  23.634  37.176  1.00  0.00    -0.237 OA
ATOM     97  O   UNL A   1      44.793  24.484  38.100  1.00  0.00    -0.237 OA
ATOM     98  O   UNL A   1      44.768  23.098  36.074  1.00  0.00    -0.744 OA
ENDBRANCH  92  95
ENDBRANCH  65  88
ENDBRANCH  39  40
ENDBRANCH  31  34
ENDBRANCH  29  30
ENDBRANCH  28  29
ENDBRANCH  27  28
ENDBRANCH   1  27
TORSDOF 19
ENDMDL
MODEL 2
REMARK VINA RESULT:     -11.0      3.633      5.017
REMARK SMILES C[C@@H]1CN(C(=O)NC[C@@H]2CC[C@H](C(=O)NCCCCCCNC(=O)c3ccc(-c4c5nc(c(-c6cccc(S(=O)(=O)[O-])c6F)c6ccc([nH]6)c(-c6cccc(S(=O)(=O)[O-])c6F)c6nc(c(-c7cccc(S(=O)(=O)[O-])c7F)c7ccc4[nH]7)C=C6)C=C5)cc3)O2)CC(C)(C)O1
REMARK SMILES IDX 18 1 17 2 16 3 15 4 13 5 14 6 12 8 9 9 10 10 88 11 11 12
REMARK SMILES IDX 8 13 7 14 5 15 6 16 4 18 1 19 2 20 3 21 93 22 90 23 89 24
REMARK SMILES IDX 91 25 92 26 19 27 20 28 21 29 22 30 23 31 24 33 25 34 26 35
REMARK SMILES IDX 87 36 27 37 86 38 28 39 29 40 30 41 80 42 31 43 85 44 79 45
REMARK SMILES IDX 81 46 32 47 84 48 78 49 77 50 33 52 65 53 45 54 64 55 46 56
REMARK SMILES IDX 49 57 63 58 82 59 47 60 48 61 62 63 83 64 50 65 34 66 35 67
REMARK SMILES IDX 43 68 36 69 38 70 44 71 37 72 39 73 40 74 41 75 42 76 66 77
REMARK SMILES IDX 67 78 75 79 68 80 70 81 76 82 69 83 71 84 72 85 73 86 74 87
REMARK SMILES IDX 51 88 52 89 60 90 53 91 55 92 61 93 54 94 56 95 57 96 58 97
REMARK SMILES IDX 59 98
REMARK H PARENT 15 7 7 17 22 32 81 51 49 62
REMARK Flexibility Score: inf
ROOT
ATOM      1  C   UNL A   1      34.055  27.616  23.760  1.00  0.00     0.002 C 
ENDROOT
BRANCH   1   2
ATOM      2  C   UNL A   1      33.398  28.296  22.548  1.00  0.00     0.021 C 
BRANCH   2   3
ATOM      3  C   UNL A   1      32.644  29.588  22.874  1.00  0.00     0.116 C 
BRANCH   3   4
ATOM      4  N   UNL A   1      31.468  29.750  22.051  1.00  0.00    -0.354 N 
ATOM      5  C   UNL A   1      30.202  29.270  22.243  1.00  0.00     0.249 C 
ATOM      6  O   UNL A   1      29.366  29.514  21.366  1.00  0.00    -0.272 OA
ATOM      7  H   UNL A   1      31.595  30.282  21.234  1.00  0.00     0.163 HD
BRANCH   5   8
ATOM      8  C   UNL A   1      29.814  28.442  23.492  1.00  0.00     0.207 C 
ATOM      9  C   UNL A   1      29.953  26.262  24.310  1.00  0.00     0.138 C 
ATOM     10  C   UNL A   1      28.569  26.384  23.692  1.00  0.00     0.037 C 
ATOM     11  O   UNL A   1      30.710  27.363  23.775  1.00  0.00    -0.363 OA
ATOM     12  C   UNL A   1      28.400  27.877  23.484  1.00  0.00     0.045 C 
BRANCH   9  13
ATOM     13  C   UNL A   1      30.739  24.964  24.052  1.00  0.00     0.149 C 
BRANCH  13  14
ATOM     14  N   UNL A   1      31.683  25.034  22.952  1.00  0.00    -0.335 N 
ATOM     15  C   UNL A   1      32.701  24.285  22.482  1.00  0.00     0.317 C 
ATOM     16  O   UNL A   1      33.086  24.599  21.353  1.00  0.00    -0.249 OA
ATOM     17  H   UNL A   1      31.543  25.840  22.404  1.00  0.00     0.165 HD
BRANCH  15  18
ATOM     18  N   UNL A   1      33.273  23.272  23.183  1.00  0.00    -0.319 N 
ATOM     19  C   UNL A   1      33.825  23.954  26.149  1.00  0.00     0.040 C 
ATOM     20  C   UNL A   1      34.464  22.880  25.277  1.00  0.00     0.135 C 
ATOM     21  C   UNL A   1      34.579  23.213  23.793  1.00  0.00     0.153 C 
ATOM     22  O   UNL A   1      33.865  21.591  25.430  1.00  0.00    -0.369 OA
ATOM     23  C   UNL A   1      32.623  21.367  24.715  1.00  0.00     0.081 C 
ATOM     24  C   UNL A   1      32.585  21.974  23.278  1.00  0.00     0.156 C 
ATOM     25  C   UNL A   1      31.444  21.869  25.552  1.00  0.00     0.044 C 
ATOM     26  C   UNL A   1      32.537  19.839  24.610  1.00  0.00     0.044 C 
ENDBRANCH  15  18
ENDBRANCH  13  14
ENDBRANCH   9  13
ENDBRANCH   5   8
ENDBRANCH   3   4
ENDBRANCH   2   3
ENDBRANCH   1   2
BRANCH   1  27
ATOM     27  C   UNL A   1      33.961  28.373  25.095  1.00  0.00     0.002 C 
BRANCH  27  28
ATOM     28  C   UNL A   1      33.332  27.589  26.248  1.00  0.00     0.021 C 
BRANCH  28  29
ATOM     29  C   UNL A   1      33.029  28.368  27.517  1.00  0.00     0.116 C 
BRANCH  29  30
ATOM     30  N   UNL A   1      33.249  29.789  27.340  1.00  0.00    -0.352 N 
ATOM     31  C   UNL A   1      34.307  30.597  27.677  1.00  0.00     0.251 C 
ATOM     32  H   UNL A   1      32.506  30.261  26.899  1.00  0.00     0.163 HD
ATOM     33  O   UNL A   1      34.123  31.816  27.647  1.00  0.00    -0.269 OA
BRANCH  31  34
ATOM     34  C   UNL A   1      35.650  30.077  28.065  1.00  0.00     0.039 A 
ATOM     35  C   UNL A   1      35.820  29.631  29.382  1.00  0.00     0.014 A 
ATOM     36  C   UNL A   1      36.766  30.111  27.226  1.00  0.00     0.014 A 
ATOM     37  C   UNL A   1      37.077  29.219  29.842  1.00  0.00     0.010 A 
ATOM     38  C   UNL A   1      37.999  29.600  27.655  1.00  0.00     0.010 A 
ATOM     39  C   UNL A   1      38.183  29.176  28.979  1.00  0.00    -0.014 A 
BRANCH  39  40
ATOM     40  C   UNL A   1      39.517  28.710  29.465  1.00  0.00     0.031 A 
ATOM     41  C   UNL A   1      40.235  29.426  30.586  1.00  0.00     0.074 A 
ATOM     42  C   UNL A   1      40.112  27.649  28.879  1.00  0.00     0.049 A 
ATOM     43  N   UNL A   1      41.378  29.130  31.154  1.00  0.00    -0.248 NA
ATOM     44  C   UNL A   1      39.602  30.639  31.129  1.00  0.00     0.031 C 
ATOM     45  C   UNL A   1      39.572  26.899  27.743  1.00  0.00     0.029 A 
ATOM     46  N   UNL A   1      41.308  27.026  29.142  1.00  0.00    -0.354 N 
ATOM     47  C   UNL A   1      41.611  30.127  32.096  1.00  0.00     0.074 A 
ATOM     48  C   UNL A   1      40.514  31.064  31.992  1.00  0.00     0.031 C 
ATOM     49  C   UNL A   1      40.428  25.925  27.406  1.00  0.00     0.029 A 
ATOM     50  C   UNL A   1      41.586  25.980  28.293  1.00  0.00     0.049 A 
ATOM     51  H   UNL A   1      41.909  27.303  29.870  1.00  0.00     0.167 HD
ATOM     52  C   UNL A   1      42.621  30.239  32.993  1.00  0.00     0.034 A 
ATOM     53  C   UNL A   1      42.644  25.148  28.232  1.00  0.00     0.034 A 
ATOM     54  C   UNL A   1      43.691  29.286  33.131  1.00  0.00     0.049 A 
ATOM     55  C   UNL A   1      43.732  25.269  29.262  1.00  0.00     0.074 A 
ATOM     56  C   UNL A   1      44.702  29.259  34.077  1.00  0.00     0.029 A 
ATOM     57  N   UNL A   1      43.899  28.200  32.296  1.00  0.00    -0.354 N 
ATOM     58  N   UNL A   1      43.835  26.113  30.259  1.00  0.00    -0.248 NA
ATOM     59  C   UNL A   1      44.827  24.288  29.189  1.00  0.00     0.031 C 
ATOM     60  C   UNL A   1      45.541  28.176  33.791  1.00  0.00     0.029 A 
ATOM     61  C   UNL A   1      45.033  27.508  32.690  1.00  0.00     0.049 A 
ATOM     62  H   UNL A   1      43.326  27.957  31.533  1.00  0.00     0.167 HD
ATOM     63  C   UNL A   1      44.984  25.748  30.950  1.00  0.00     0.074 A 
ATOM     64  C   UNL A   1      45.526  24.587  30.275  1.00  0.00     0.031 C 
ATOM     65  C   UNL A   1      45.548  26.331  32.037  1.00  0.00     0.034 A 
BRANCH  52  66
ATOM     66  C   UNL A   1      42.594  31.412  33.944  1.00  0.00     0.023 A 
ATOM     67  C   UNL A   1      43.189  32.632  33.562  1.00  0.00     0.012 A 
ATOM     68  C   UNL A   1      41.921  31.330  35.180  1.00  0.00     0.148 A 
ATOM     69  C   UNL A   1      43.149  33.740  34.409  1.00  0.00     0.002 A 
ATOM     70  C   UNL A   1      41.846  32.452  35.998  1.00  0.00     0.091 A 
ATOM     71  F   UNL A   1      41.375  30.158  35.534  1.00  0.00    -0.205 F 
ATOM     72  C   UNL A   1      42.469  33.652  35.620  1.00  0.00     0.022 A 
BRANCH  70  73
ATOM     73  S   UNL A   1      40.924  32.467  37.540  1.00  0.00     0.127 S 
ATOM     74  O   UNL A   1      41.801  31.686  38.414  1.00  0.00    -0.237 OA
ATOM     75  O   UNL A   1      40.872  33.897  37.853  1.00  0.00    -0.237 OA
ATOM     76  O   UNL A   1      39.636  31.861  37.248  1.00  0.00    -0.744 OA
ENDBRANCH  70  73
ENDBRANCH  52  66
BRANCH  53  77
ATOM     77  C   UNL A   1      42.687  24.076  27.197  1.00  0.00     0.023 A 
ATOM     78  C   UNL A   1      43.414  24.283  26.008  1.00  0.00     0.012 A 
ATOM     79  C   UNL A   1      42.038  22.843  27.399  1.00  0.00     0.148 A 
ATOM     80  C   UNL A   1      43.465  23.294  25.025  1.00  0.00     0.002 A 
ATOM     81  C   UNL A   1      42.142  21.841  26.441  1.00  0.00     0.091 A 
ATOM     82  F   UNL A   1      41.343  22.670  28.532  1.00  0.00    -0.205 F 
ATOM     83  C   UNL A   1      42.837  22.071  25.245  1.00  0.00     0.022 A 
BRANCH  81  84
ATOM     84  S   UNL A   1      41.484  20.191  26.703  1.00  0.00     0.127 S 
ATOM     85  O   UNL A   1      40.060  20.461  26.885  1.00  0.00    -0.237 OA
ATOM     86  O   UNL A   1      41.830  19.525  25.447  1.00  0.00    -0.237 OA
ATOM     87  O   UNL A   1      42.186  19.670  27.868  1.00  0.00    -0.744 OA
ENDBRANCH  81  84
ENDBRANCH  53  77
BRANCH  65  88
ATOM     88  C   UNL A   1      46.808  25.712  32.583  1.00  0.00     0.023 A 
ATOM     89  C   UNL A   1      46.739  24.843  33.691  1.00  0.00     0.012 A 
ATOM     90  C   UNL A   1      48.055  25.952  31.971  1.00  0.00     0.148 A 
ATOM     91  C   UNL A   1      47.896  24.259  34.209  1.00  0.00     0.002 A 
ATOM     92  C   UNL A   1      49.196  25.325  32.460  1.00  0.00     0.091 A 
ATOM     93  F   UNL A   1      48.105  26.794  30.929  1.00  0.00    -0.205 F 
ATOM     94  C   UNL A   1      49.120  24.492  33.588  1.00  0.00     0.022 A 
BRANCH  92  95
ATOM     95  S   UNL A   1      50.798  25.489  31.666  1.00  0.00     0.127 S 
ATOM     96  O   UNL A   1      51.103  26.899  31.897  1.00  0.00    -0.237 OA
ATOM     97  O   UNL A   1      51.622  24.553  32.434  1.00  0.00    -0.237 OA
ATOM     98  O   UNL A   1      50.597  25.111  30.274  1.00  0.00    -0.744 OA
ENDBRANCH  92  95
ENDBRANCH  65  88
ENDBRANCH  39  40
ENDBRANCH  31  34
ENDBRANCH  29  30
ENDBRANCH  28  29
ENDBRANCH  27  28
ENDBRANCH   1  27
TORSDOF 19
ENDMDL
MODEL 3
REMARK VINA RESULT:     -10.9      6.200     10.052
REMARK SMILES C[C@@H]1CN(C(=O)NC[C@@H]2CC[C@H](C(=O)NCCCCCCNC(=O)c3ccc(-c4c5nc(c(-c6cccc(S(=O)(=O)[O-])c6F)c6ccc([nH]6)c(-c6cccc(S(=O)(=O)[O-])c6F)c6nc(c(-c7cccc(S(=O)(=O)[O-])c7F)c7ccc4[nH]7)C=C6)C=C5)cc3)O2)CC(C)(C)O1
REMARK SMILES IDX 18 1 17 2 16 3 15 4 13 5 14 6 12 8 9 9 10 10 88 11 11 12
REMARK SMILES IDX 8 13 7 14 5 15 6 16 4 18 1 19 2 20 3 21 93 22 90 23 89 24
REMARK SMILES IDX 91 25 92 26 19 27 20 28 21 29 22 30 23 31 24 33 25 34 26 35
REMARK SMILES IDX 87 36 27 37 86 38 28 39 29 40 30 41 80 42 31 43 85 44 79 45
REMARK SMILES IDX 81 46 32 47 84 48 78 49 77 50 33 52 65 53 45 54 64 55 46 56
REMARK SMILES IDX 49 57 63 58 82 59 47 60 48 61 62 63 83 64 50 65 34 66 35 67
REMARK SMILES IDX 43 68 36 69 38 70 44 71 37 72 39 73 40 74 41 75 42 76 66 77
REMARK SMILES IDX 67 78 75 79 68 80 70 81 76 82 69 83 71 84 72 85 73 86 74 87
REMARK SMILES IDX 51 88 52 89 60 90 53 91 55 92 61 93 54 94 56 95 57 96 58 97
REMARK SMILES IDX 59 98
REMARK H PARENT 15 7 7 17 22 32 81 51 49 62
REMARK Flexibility Score: inf
ROOT
ATOM      1  C   UNL A   1      37.223  23.450  25.984  1.00  0.00     0.002 C 
ENDROOT
BRANCH   1   2
ATOM      2  C   UNL A   1      35.962  24.086  25.376  1.00  0.00     0.021 C 
BRANCH   2   3
ATOM      3  C   UNL A   1      34.645  23.584  25.970  1.00  0.00     0.116 C 
BRANCH   3   4
ATOM      4  N   UNL A   1      34.511  22.151  25.854  1.00  0.00    -0.354 N 
ATOM      5  C   UNL A   1      33.380  21.383  25.839  1.00  0.00     0.249 C 
ATOM      6  O   UNL A   1      33.529  20.158  25.768  1.00  0.00    -0.272 OA
ATOM      7  H   UNL A   1      35.357  21.654  25.774  1.00  0.00     0.163 HD
BRANCH   5   8
ATOM      8  C   UNL A   1      31.963  22.000  25.920  1.00  0.00     0.207 C 
ATOM      9  C   UNL A   1      30.741  23.799  25.074  1.00  0.00     0.138 C 
ATOM     10  C   UNL A   1      31.252  24.249  26.433  1.00  0.00     0.037 C 
ATOM     11  O   UNL A   1      31.547  22.659  24.720  1.00  0.00    -0.363 OA
ATOM     12  C   UNL A   1      31.739  22.965  27.077  1.00  0.00     0.045 C 
BRANCH   9  13
ATOM     13  C   UNL A   1      30.802  24.811  23.917  1.00  0.00     0.149 C 
BRANCH  13  14
ATOM     14  N   UNL A   1      29.703  25.759  23.880  1.00  0.00    -0.335 N 
ATOM     15  C   UNL A   1      29.556  27.086  23.694  1.00  0.00     0.317 C 
ATOM     16  O   UNL A   1      28.393  27.448  23.496  1.00  0.00    -0.249 OA
ATOM     17  H   UNL A   1      28.837  25.315  24.029  1.00  0.00     0.165 HD
BRANCH  15  18
ATOM     18  N   UNL A   1      30.588  27.967  23.727  1.00  0.00    -0.319 N 
ATOM     19  C   UNL A   1      32.074  28.058  26.438  1.00  0.00     0.040 C 
ATOM     20  C   UNL A   1      32.030  29.106  25.334  1.00  0.00     0.135 C 
ATOM     21  C   UNL A   1      30.740  29.161  24.523  1.00  0.00     0.153 C 
ATOM     22  O   UNL A   1      33.148  29.044  24.445  1.00  0.00    -0.369 OA
ATOM     23  C   UNL A   1      33.098  28.025  23.415  1.00  0.00     0.081 C 
ATOM     24  C   UNL A   1      31.693  27.830  22.764  1.00  0.00     0.156 C 
ATOM     25  C   UNL A   1      33.632  26.701  23.968  1.00  0.00     0.044 C 
ATOM     26  C   UNL A   1      34.072  28.541  22.348  1.00  0.00     0.044 C 
ENDBRANCH  15  18
ENDBRANCH  13  14
ENDBRANCH   9  13
ENDBRANCH   5   8
ENDBRANCH   3   4
ENDBRANCH   2   3
ENDBRANCH   1   2
BRANCH   1  27
ATOM     27  C   UNL A   1      37.907  22.361  25.142  1.00  0.00     0.002 C 
BRANCH  27  28
ATOM     28  C   UNL A   1      38.148  21.032  25.859  1.00  0.00     0.021 C 
BRANCH  28  29
ATOM     29  C   UNL A   1      38.719  19.899  25.023  1.00  0.00     0.116 C 
BRANCH  29  30
ATOM     30  N   UNL A   1      39.723  19.150  25.750  1.00  0.00    -0.352 N 
ATOM     31  C   UNL A   1      40.903  19.538  26.339  1.00  0.00     0.251 C 
ATOM     32  H   UNL A   1      39.526  18.190  25.837  1.00  0.00     0.163 HD
ATOM     33  O   UNL A   1      41.693  18.650  26.664  1.00  0.00    -0.269 OA
BRANCH  31  34
ATOM     34  C   UNL A   1      41.261  20.960  26.605  1.00  0.00     0.039 A 
ATOM     35  C   UNL A   1      41.750  21.720  25.534  1.00  0.00     0.014 A 
ATOM     36  C   UNL A   1      41.240  21.540  27.876  1.00  0.00     0.014 A 
ATOM     37  C   UNL A   1      42.195  23.033  25.732  1.00  0.00     0.010 A 
ATOM     38  C   UNL A   1      41.587  22.887  28.053  1.00  0.00     0.010 A 
ATOM     39  C   UNL A   1      42.100  23.645  26.991  1.00  0.00    -0.014 A 
BRANCH  39  40
ATOM     40  C   UNL A   1      42.550  25.056  27.194  1.00  0.00     0.031 A 
ATOM     41  C   UNL A   1      41.646  26.080  27.841  1.00  0.00     0.074 A 
ATOM     42  C   UNL A   1      43.773  25.438  26.769  1.00  0.00     0.049 A 
ATOM     43  N   UNL A   1      41.894  27.334  28.127  1.00  0.00    -0.248 NA
ATOM     44  C   UNL A   1      40.283  25.652  28.195  1.00  0.00     0.031 C 
ATOM     45  C   UNL A   1      44.730  24.579  26.068  1.00  0.00     0.029 A 
ATOM     46  N   UNL A   1      44.417  26.649  26.846  1.00  0.00    -0.354 N 
ATOM     47  C   UNL A   1      40.719  27.847  28.668  1.00  0.00     0.074 A 
ATOM     48  C   UNL A   1      39.741  26.782  28.628  1.00  0.00     0.031 C 
ATOM     49  C   UNL A   1      45.832  25.285  25.778  1.00  0.00     0.029 A 
ATOM     50  C   UNL A   1      45.663  26.652  26.262  1.00  0.00     0.049 A 
ATOM     51  H   UNL A   1      44.024  27.441  27.279  1.00  0.00     0.167 HD
ATOM     52  C   UNL A   1      40.480  29.076  29.187  1.00  0.00     0.034 A 
ATOM     53  C   UNL A   1      46.577  27.633  26.133  1.00  0.00     0.034 A 
ATOM     54  C   UNL A   1      41.462  30.126  29.271  1.00  0.00     0.049 A 
ATOM     55  C   UNL A   1      46.304  28.976  26.751  1.00  0.00     0.074 A 
ATOM     56  C   UNL A   1      41.345  31.368  29.872  1.00  0.00     0.029 A 
ATOM     57  N   UNL A   1      42.737  30.065  28.730  1.00  0.00    -0.354 N 
ATOM     58  N   UNL A   1      45.251  29.377  27.419  1.00  0.00    -0.248 NA
ATOM     59  C   UNL A   1      47.367  29.986  26.640  1.00  0.00     0.031 C 
ATOM     60  C   UNL A   1      42.537  32.070  29.662  1.00  0.00     0.029 A 
ATOM     61  C   UNL A   1      43.409  31.253  28.963  1.00  0.00     0.049 A 
ATOM     62  H   UNL A   1      43.108  29.291  28.248  1.00  0.00     0.167 HD
ATOM     63  C   UNL A   1      45.535  30.673  27.836  1.00  0.00     0.074 A 
ATOM     64  C   UNL A   1      46.872  30.976  27.370  1.00  0.00     0.031 C 
ATOM     65  C   UNL A   1      44.754  31.537  28.529  1.00  0.00     0.034 A 
BRANCH  52  66
ATOM     66  C   UNL A   1      39.110  29.345  29.762  1.00  0.00     0.023 A 
ATOM     67  C   UNL A   1      38.845  29.024  31.109  1.00  0.00     0.012 A 
ATOM     68  C   UNL A   1      38.110  29.977  28.994  1.00  0.00     0.148 A 
ATOM     69  C   UNL A   1      37.597  29.292  31.673  1.00  0.00     0.002 A 
ATOM     70  C   UNL A   1      36.886  30.283  29.577  1.00  0.00     0.091 A 
ATOM     71  F   UNL A   1      38.373  30.261  27.711  1.00  0.00    -0.205 F 
ATOM     72  C   UNL A   1      36.623  29.930  30.911  1.00  0.00     0.022 A 
BRANCH  70  73
ATOM     73  S   UNL A   1      35.593  31.177  28.706  1.00  0.00     0.127 S 
ATOM     74  O   UNL A   1      34.960  30.104  27.938  1.00  0.00    -0.237 OA
ATOM     75  O   UNL A   1      34.780  31.694  29.809  1.00  0.00    -0.237 OA
ATOM     76  O   UNL A   1      36.266  32.194  27.918  1.00  0.00    -0.744 OA
ENDBRANCH  70  73
ENDBRANCH  52  66
BRANCH  53  77
ATOM     77  C   UNL A   1      47.873  27.356  25.450  1.00  0.00     0.023 A 
ATOM     78  C   UNL A   1      48.936  26.782  26.174  1.00  0.00     0.012 A 
ATOM     79  C   UNL A   1      48.045  27.630  24.080  1.00  0.00     0.148 A 
ATOM     80  C   UNL A   1      50.158  26.518  25.555  1.00  0.00     0.002 A 
ATOM     81  C   UNL A   1      49.246  27.310  23.455  1.00  0.00     0.091 A 
ATOM     82  F   UNL A   1      47.025  28.185  23.410  1.00  0.00    -0.205 F 
ATOM     83  C   UNL A   1      50.309  26.773  24.195  1.00  0.00     0.022 A 
BRANCH  81  84
ATOM     84  S   UNL A   1      49.479  27.475  21.682  1.00  0.00     0.127 S 
ATOM     85  O   UNL A   1      50.834  26.960  21.509  1.00  0.00    -0.237 OA
ATOM     86  O   UNL A   1      48.420  26.612  21.157  1.00  0.00    -0.237 OA
ATOM     87  O   UNL A   1      49.294  28.891  21.393  1.00  0.00    -0.744 OA
ENDBRANCH  81  84
ENDBRANCH  53  77
BRANCH  65  88
ATOM     88  C   UNL A   1      45.329  32.893  28.849  1.00  0.00     0.023 A 
ATOM     89  C   UNL A   1      46.024  33.092  30.060  1.00  0.00     0.012 A 
ATOM     90  C   UNL A   1      45.225  33.957  27.931  1.00  0.00     0.148 A 
ATOM     91  C   UNL A   1      46.565  34.339  30.371  1.00  0.00     0.002 A 
ATOM     92  C   UNL A   1      45.813  35.182  28.224  1.00  0.00     0.091 A 
ATOM     93  F   UNL A   1      44.546  33.755  26.792  1.00  0.00    -0.205 F 
ATOM     94  C   UNL A   1      46.469  35.379  29.450  1.00  0.00     0.022 A 
BRANCH  92  95
ATOM     95  S   UNL A   1      45.823  36.548  27.059  1.00  0.00     0.127 S 
ATOM     96  O   UNL A   1      46.765  37.471  27.689  1.00  0.00    -0.237 OA
ATOM     97  O   UNL A   1      46.318  35.911  25.838  1.00  0.00    -0.237 OA
ATOM     98  O   UNL A   1      44.446  37.017  26.979  1.00  0.00    -0.744 OA
ENDBRANCH  92  95
ENDBRANCH  65  88
ENDBRANCH  39  40
ENDBRANCH  31  34
ENDBRANCH  29  30
ENDBRANCH  28  29
ENDBRANCH  27  28
ENDBRANCH   1  27
TORSDOF 19
ENDMDL
