MODEL 1
REMARK VINA RESULT:     -11.6      0.000      0.000
REMARK SMILES Cc1ccc(-c2ncccc2C(=O)NCCCCCCNC(=O)c2ccc(-c3c4nc(c(-c5cccc(S(=O)(=O)[O-])c5F)c5ccc([nH]5)c(-c5cccc(S(=O)(=O)[O-])c5F)c5nc(c(-c6cccc(S(=O)(=O)[O-])c6F)c6ccc3[nH]6)C=C5)C=C4)cc2)c(C)c1
REMARK SMILES IDX 18 1 17 2 16 3 15 4 14 5 12 6 13 7 11 9 6 10 7 11 8 12 10 13
REMARK SMILES IDX 9 14 5 15 1 16 2 17 3 18 89 19 4 20 87 21 88 22 19 23 20 24
REMARK SMILES IDX 21 25 22 26 23 28 24 29 25 30 86 31 26 32 85 33 27 34 28 35
REMARK SMILES IDX 29 36 79 37 30 38 84 39 78 40 80 41 31 42 83 43 77 44 76 45
REMARK SMILES IDX 32 47 64 48 44 49 63 50 45 51 48 52 62 53 81 54 46 55 47 56
REMARK SMILES IDX 61 58 82 59 49 60 33 61 34 62 42 63 35 64 37 65 43 66 36 67
REMARK SMILES IDX 38 68 39 69 40 70 41 71 65 72 66 73 74 74 67 75 69 76 75 77
REMARK SMILES IDX 68 78 70 79 71 80 72 81 73 82 50 83 51 84 59 85 52 86 54 87
REMARK SMILES IDX 60 88 53 89 55 90 56 91 57 92 58 93
REMARK H PARENT 14 8 21 27 80 46 48 57
REMARK Flexibility Score: inf
ROOT
ATOM      1  C   UNL A   1      31.476  30.711  25.768  1.00  0.00     0.002 C 
ENDROOT
BRANCH   1   2
ATOM      2  C   UNL A   1      31.685  29.380  26.504  1.00  0.00     0.002 C 
BRANCH   2   3
ATOM      3  C   UNL A   1      33.145  29.055  26.858  1.00  0.00     0.021 C 
BRANCH   3   4
ATOM      4  C   UNL A   1      33.629  27.728  26.276  1.00  0.00     0.116 C 
BRANCH   4   5
ATOM      5  N   UNL A   1      32.720  26.659  26.628  1.00  0.00    -0.352 N 
ATOM      6  C   UNL A   1      32.296  25.473  26.095  1.00  0.00     0.253 C 
ATOM      7  O   UNL A   1      31.467  24.908  26.810  1.00  0.00    -0.269 OA
ATOM      8  H   UNL A   1      32.285  26.834  27.494  1.00  0.00     0.163 HD
BRANCH   6   9
ATOM      9  C   UNL A   1      32.771  24.841  24.815  1.00  0.00     0.066 A 
ATOM     10  C   UNL A   1      32.256  25.267  23.570  1.00  0.00     0.083 A 
ATOM     11  N   UNL A   1      32.550  24.643  22.384  1.00  0.00    -0.255 NA
ATOM     12  C   UNL A   1      33.373  23.582  22.408  1.00  0.00     0.112 A 
ATOM     13  C   UNL A   1      33.686  23.783  24.758  1.00  0.00     0.018 A 
ATOM     14  C   UNL A   1      33.975  23.131  23.559  1.00  0.00     0.021 A 
BRANCH  10  15
ATOM     15  C   UNL A   1      31.384  26.441  23.361  1.00  0.00     0.004 A 
ATOM     16  C   UNL A   1      28.682  29.756  22.670  1.00  0.00     0.044 C 
ATOM     17  C   UNL A   1      29.609  28.610  22.937  1.00  0.00    -0.051 A 
ATOM     18  C   UNL A   1      29.126  27.390  23.410  1.00  0.00     0.004 A 
ATOM     19  C   UNL A   1      30.985  28.754  22.710  1.00  0.00     0.007 A 
ATOM     20  C   UNL A   1      30.004  26.328  23.633  1.00  0.00     0.011 A 
ATOM     21  C   UNL A   1      31.877  27.683  22.906  1.00  0.00    -0.041 A 
ATOM     22  C   UNL A   1      33.339  27.929  22.644  1.00  0.00     0.045 C 
ENDBRANCH  10  15
ENDBRANCH   6   9
ENDBRANCH   4   5
ENDBRANCH   3   4
ENDBRANCH   2   3
ENDBRANCH   1   2
BRANCH   1  23
ATOM     23  C   UNL A   1      31.379  31.941  26.674  1.00  0.00     0.021 C 
BRANCH  23  24
ATOM     24  C   UNL A   1      32.719  32.598  26.977  1.00  0.00     0.116 C 
BRANCH  24  25
ATOM     25  N   UNL A   1      32.547  33.955  27.475  1.00  0.00    -0.352 N 
ATOM     26  C   UNL A   1      33.144  34.560  28.552  1.00  0.00     0.251 C 
ATOM     27  H   UNL A   1      31.915  34.515  26.969  1.00  0.00     0.163 HD
ATOM     28  O   UNL A   1      32.713  35.624  28.979  1.00  0.00    -0.269 OA
BRANCH  26  29
ATOM     29  C   UNL A   1      34.308  33.913  29.196  1.00  0.00     0.039 A 
ATOM     30  C   UNL A   1      35.594  34.331  28.850  1.00  0.00     0.014 A 
ATOM     31  C   UNL A   1      34.125  32.892  30.133  1.00  0.00     0.014 A 
ATOM     32  C   UNL A   1      36.699  33.755  29.481  1.00  0.00     0.010 A 
ATOM     33  C   UNL A   1      35.221  32.376  30.816  1.00  0.00     0.010 A 
ATOM     34  C   UNL A   1      36.520  32.791  30.488  1.00  0.00    -0.014 A 
BRANCH  34  35
ATOM     35  C   UNL A   1      37.678  32.202  31.206  1.00  0.00     0.031 A 
ATOM     36  C   UNL A   1      38.441  31.057  30.594  1.00  0.00     0.074 A 
ATOM     37  C   UNL A   1      37.996  32.647  32.437  1.00  0.00     0.049 A 
ATOM     38  N   UNL A   1      39.439  30.373  31.091  1.00  0.00    -0.248 NA
ATOM     39  C   UNL A   1      38.011  30.603  29.260  1.00  0.00     0.031 C 
ATOM     40  C   UNL A   1      37.289  33.705  33.164  1.00  0.00     0.029 A 
ATOM     41  N   UNL A   1      38.980  32.249  33.307  1.00  0.00    -0.354 N 
ATOM     42  C   UNL A   1      39.737  29.396  30.147  1.00  0.00     0.074 A 
ATOM     43  C   UNL A   1      38.786  29.546  29.069  1.00  0.00     0.031 C 
ATOM     44  C   UNL A   1      37.866  33.877  34.363  1.00  0.00     0.029 A 
ATOM     45  C   UNL A   1      38.961  32.922  34.507  1.00  0.00     0.049 A 
ATOM     46  H   UNL A   1      39.637  31.547  33.094  1.00  0.00     0.167 HD
ATOM     47  C   UNL A   1      40.732  28.478  30.161  1.00  0.00     0.034 A 
ATOM     48  C   UNL A   1      39.732  32.778  35.602  1.00  0.00     0.034 A 
ATOM     49  C   UNL A   1      41.697  28.354  31.221  1.00  0.00     0.049 A 
ATOM     50  C   UNL A   1      40.839  31.758  35.585  1.00  0.00     0.074 A 
ATOM     51  C   UNL A   1      42.782  27.501  31.300  1.00  0.00     0.029 A 
ATOM     52  N   UNL A   1      41.689  29.101  32.388  1.00  0.00    -0.354 N 
ATOM     53  N   UNL A   1      41.193  30.938  34.624  1.00  0.00    -0.248 NA
ATOM     54  C   UNL A   1      41.676  31.667  36.790  1.00  0.00     0.031 C 
ATOM     55  C   UNL A   1      43.417  27.715  32.528  1.00  0.00     0.029 A 
ATOM     56  C   UNL A   1      42.747  28.725  33.198  1.00  0.00     0.049 A 
ATOM     57  H   UNL A   1      41.029  29.798  32.609  1.00  0.00     0.167 HD
ATOM     58  C   UNL A   1      42.318  30.268  35.090  1.00  0.00     0.074 A 
ATOM     59  C   UNL A   1      42.597  30.790  36.412  1.00  0.00     0.031 C 
ATOM     60  C   UNL A   1      43.045  29.297  34.485  1.00  0.00     0.034 A 
BRANCH  47  61
ATOM     61  C   UNL A   1      40.862  27.569  28.966  1.00  0.00     0.023 A 
ATOM     62  C   UNL A   1      39.992  26.466  28.835  1.00  0.00     0.012 A 
ATOM     63  C   UNL A   1      41.797  27.834  27.946  1.00  0.00     0.148 A 
ATOM     64  C   UNL A   1      40.077  25.620  27.730  1.00  0.00     0.002 A 
ATOM     65  C   UNL A   1      41.842  27.014  26.824  1.00  0.00     0.091 A 
ATOM     66  F   UNL A   1      42.627  28.876  28.095  1.00  0.00    -0.205 F 
ATOM     67  C   UNL A   1      40.993  25.900  26.721  1.00  0.00     0.022 A 
BRANCH  65  68
ATOM     68  S   UNL A   1      42.931  27.333  25.431  1.00  0.00     0.127 S 
ATOM     69  O   UNL A   1      42.873  26.060  24.714  1.00  0.00    -0.237 OA
ATOM     70  O   UNL A   1      42.253  28.442  24.760  1.00  0.00    -0.237 OA
ATOM     71  O   UNL A   1      44.228  27.668  26.002  1.00  0.00    -0.744 OA
ENDBRANCH  65  68
ENDBRANCH  47  61
BRANCH  48  72
ATOM     72  C   UNL A   1      39.529  33.660  36.787  1.00  0.00     0.023 A 
ATOM     73  C   UNL A   1      39.965  34.999  36.736  1.00  0.00     0.012 A 
ATOM     74  C   UNL A   1      38.907  33.186  37.958  1.00  0.00     0.148 A 
ATOM     75  C   UNL A   1      39.825  35.836  37.843  1.00  0.00     0.002 A 
ATOM     76  C   UNL A   1      38.719  34.042  39.037  1.00  0.00     0.091 A 
ATOM     77  F   UNL A   1      38.507  31.906  37.992  1.00  0.00    -0.205 F 
ATOM     78  C   UNL A   1      39.195  35.361  38.990  1.00  0.00     0.022 A 
BRANCH  76  79
ATOM     79  S   UNL A   1      37.804  33.553  40.504  1.00  0.00     0.127 S 
ATOM     80  O   UNL A   1      37.730  34.810  41.243  1.00  0.00    -0.237 OA
ATOM     81  O   UNL A   1      36.537  33.096  39.932  1.00  0.00    -0.237 OA
ATOM     82  O   UNL A   1      38.594  32.498  41.124  1.00  0.00    -0.744 OA
ENDBRANCH  76  79
ENDBRANCH  48  72
BRANCH  60  83
ATOM     83  C   UNL A   1      44.250  28.768  35.220  1.00  0.00     0.023 A 
ATOM     84  C   UNL A   1      45.518  29.343  35.003  1.00  0.00     0.012 A 
ATOM     85  C   UNL A   1      44.109  27.746  36.181  1.00  0.00     0.148 A 
ATOM     86  C   UNL A   1      46.632  28.885  35.703  1.00  0.00     0.002 A 
ATOM     87  C   UNL A   1      45.214  27.333  36.913  1.00  0.00     0.091 A 
ATOM     88  F   UNL A   1      42.897  27.201  36.361  1.00  0.00    -0.205 F 
ATOM     89  C   UNL A   1      46.478  27.890  36.667  1.00  0.00     0.022 A 
BRANCH  87  90
ATOM     90  S   UNL A   1      45.094  26.130  38.242  1.00  0.00     0.127 S 
ATOM     91  O   UNL A   1      46.490  25.729  38.407  1.00  0.00    -0.237 OA
ATOM     92  O   UNL A   1      44.557  26.935  39.340  1.00  0.00    -0.237 OA
ATOM     93  O   UNL A   1      44.198  25.086  37.762  1.00  0.00    -0.744 OA
ENDBRANCH  87  90
ENDBRANCH  60  83
ENDBRANCH  34  35
ENDBRANCH  26  29
ENDBRANCH  24  25
ENDBRANCH  23  24
ENDBRANCH   1  23
TORSDOF 17
ENDMDL
MODEL 2
REMARK VINA RESULT:     -11.5      2.091      8.265
REMARK SMILES Cc1ccc(-c2ncccc2C(=O)NCCCCCCNC(=O)c2ccc(-c3c4nc(c(-c5cccc(S(=O)(=O)[O-])c5F)c5ccc([nH]5)c(-c5cccc(S(=O)(=O)[O-])c5F)c5nc(c(-c6cccc(S(=O)(=O)[O-])c6F)c6ccc3[nH]6)C=C5)C=C4)cc2)c(C)c1
REMARK SMILES IDX 18 1 17 2 16 3 15 4 14 5 12 6 13 7 11 9 6 10 7 11 8 12 10 13
REMARK SMILES IDX 9 14 5 15 1 16 2 17 3 18 89 19 4 20 87 21 88 22 19 23 20 24
REMARK SMILES IDX 21 25 22 26 23 28 24 29 25 30 86 31 26 32 85 33 27 34 28 35
REMARK SMILES IDX 29 36 79 37 30 38 84 39 78 40 80 41 31 42 83 43 77 44 76 45
REMARK SMILES IDX 32 47 64 48 44 49 63 50 45 51 48 52 62 53 81 54 46 55 47 56
REMARK SMILES IDX 61 58 82 59 49 60 33 61 34 62 42 63 35 64 37 65 43 66 36 67
REMARK SMILES IDX 38 68 39 69 40 70 41 71 65 72 66 73 74 74 67 75 69 76 75 77
REMARK SMILES IDX 68 78 70 79 71 80 72 81 73 82 50 83 51 84 59 85 52 86 54 87
REMARK SMILES IDX 60 88 53 89 55 90 56 91 57 92 58 93
REMARK H PARENT 14 8 21 27 80 46 48 57
REMARK Flexibility Score: inf
ROOT
ATOM      1  C   UNL A   1      31.860  29.428  25.441  1.00  0.00     0.002 C 
ENDROOT
BRANCH   1   2
ATOM      2  C   UNL A   1      33.163  29.324  24.636  1.00  0.00     0.002 C 
BRANCH   2   3
ATOM      3  C   UNL A   1      32.980  29.196  23.115  1.00  0.00     0.021 C 
BRANCH   3   4
ATOM      4  C   UNL A   1      33.959  28.219  22.467  1.00  0.00     0.116 C 
BRANCH   4   5
ATOM      5  N   UNL A   1      33.248  27.246  21.665  1.00  0.00    -0.352 N 
ATOM      6  C   UNL A   1      32.231  26.347  21.829  1.00  0.00     0.253 C 
ATOM      7  O   UNL A   1      31.991  25.718  20.798  1.00  0.00    -0.269 OA
ATOM      8  H   UNL A   1      33.593  27.226  20.743  1.00  0.00     0.163 HD
BRANCH   6   9
ATOM      9  C   UNL A   1      31.419  26.124  23.076  1.00  0.00     0.066 A 
ATOM     10  C   UNL A   1      31.842  25.192  24.051  1.00  0.00     0.083 A 
ATOM     11  N   UNL A   1      31.081  24.850  25.140  1.00  0.00    -0.255 NA
ATOM     12  C   UNL A   1      29.882  25.437  25.291  1.00  0.00     0.112 A 
ATOM     13  C   UNL A   1      30.199  26.759  23.338  1.00  0.00     0.018 A 
ATOM     14  C   UNL A   1      29.410  26.402  24.433  1.00  0.00     0.021 A 
BRANCH  10  15
ATOM     15  C   UNL A   1      33.146  24.499  24.064  1.00  0.00     0.004 A 
ATOM     16  C   UNL A   1      36.870  22.286  24.100  1.00  0.00     0.044 C 
ATOM     17  C   UNL A   1      35.585  23.056  24.059  1.00  0.00    -0.051 A 
ATOM     18  C   UNL A   1      34.515  22.628  23.274  1.00  0.00     0.004 A 
ATOM     19  C   UNL A   1      35.446  24.226  24.818  1.00  0.00     0.007 A 
ATOM     20  C   UNL A   1      33.320  23.349  23.266  1.00  0.00     0.011 A 
ATOM     21  C   UNL A   1      34.237  24.948  24.839  1.00  0.00    -0.041 A 
ATOM     22  C   UNL A   1      34.178  26.196  25.678  1.00  0.00     0.045 C 
ENDBRANCH  10  15
ENDBRANCH   6   9
ENDBRANCH   4   5
ENDBRANCH   3   4
ENDBRANCH   2   3
ENDBRANCH   1   2
BRANCH   1  23
ATOM     23  C   UNL A   1      31.624  30.781  26.115  1.00  0.00     0.021 C 
BRANCH  23  24
ATOM     24  C   UNL A   1      32.690  31.163  27.133  1.00  0.00     0.116 C 
BRANCH  24  25
ATOM     25  N   UNL A   1      32.894  32.604  27.175  1.00  0.00    -0.352 N 
ATOM     26  C   UNL A   1      33.858  33.318  27.842  1.00  0.00     0.251 C 
ATOM     27  H   UNL A   1      32.253  33.138  26.655  1.00  0.00     0.163 HD
ATOM     28  O   UNL A   1      33.747  34.531  27.970  1.00  0.00    -0.269 OA
BRANCH  26  29
ATOM     29  C   UNL A   1      35.026  32.610  28.409  1.00  0.00     0.039 A 
ATOM     30  C   UNL A   1      36.295  33.173  28.268  1.00  0.00     0.014 A 
ATOM     31  C   UNL A   1      34.864  31.389  29.071  1.00  0.00     0.014 A 
ATOM     32  C   UNL A   1      37.400  32.533  28.834  1.00  0.00     0.010 A 
ATOM     33  C   UNL A   1      35.952  30.794  29.700  1.00  0.00     0.010 A 
ATOM     34  C   UNL A   1      37.233  31.352  29.578  1.00  0.00    -0.014 A 
BRANCH  34  35
ATOM     35  C   UNL A   1      38.387  30.682  30.229  1.00  0.00     0.031 A 
ATOM     36  C   UNL A   1      38.799  31.077  31.622  1.00  0.00     0.074 A 
ATOM     37  C   UNL A   1      39.106  29.775  29.541  1.00  0.00     0.049 A 
ATOM     38  N   UNL A   1      39.811  30.652  32.334  1.00  0.00    -0.248 NA
ATOM     39  C   UNL A   1      37.984  32.103  32.295  1.00  0.00     0.031 C 
ATOM     40  C   UNL A   1      38.846  29.358  28.161  1.00  0.00     0.029 A 
ATOM     41  N   UNL A   1      40.218  29.055  29.900  1.00  0.00    -0.354 N 
ATOM     42  C   UNL A   1      39.770  31.374  33.522  1.00  0.00     0.074 A 
ATOM     43  C   UNL A   1      38.662  32.296  33.417  1.00  0.00     0.031 C 
ATOM     44  C   UNL A   1      39.766  28.452  27.793  1.00  0.00     0.029 A 
ATOM     45  C   UNL A   1      40.700  28.247  28.896  1.00  0.00     0.049 A 
ATOM     46  H   UNL A   1      40.633  29.111  30.791  1.00  0.00     0.167 HD
ATOM     47  C   UNL A   1      40.563  31.258  34.613  1.00  0.00     0.034 A 
ATOM     48  C   UNL A   1      41.779  27.441  28.865  1.00  0.00     0.034 A 
ATOM     49  C   UNL A   1      41.644  30.316  34.726  1.00  0.00     0.049 A 
ATOM     50  C   UNL A   1      42.636  27.322  30.097  1.00  0.00     0.074 A 
ATOM     51  C   UNL A   1      42.465  30.074  35.811  1.00  0.00     0.029 A 
ATOM     52  N   UNL A   1      42.057  29.464  33.713  1.00  0.00    -0.354 N 
ATOM     53  N   UNL A   1      42.496  27.910  31.261  1.00  0.00    -0.248 NA
ATOM     54  C   UNL A   1      43.779  26.400  30.024  1.00  0.00     0.031 C 
ATOM     55  C   UNL A   1      43.391  29.092  35.448  1.00  0.00     0.029 A 
ATOM     56  C   UNL A   1      43.126  28.699  34.147  1.00  0.00     0.049 A 
ATOM     57  H   UNL A   1      41.650  29.410  32.818  1.00  0.00     0.167 HD
ATOM     58  C   UNL A   1      43.503  27.398  32.070  1.00  0.00     0.074 A 
ATOM     59  C   UNL A   1      44.234  26.438  31.270  1.00  0.00     0.031 C 
ATOM     60  C   UNL A   1      43.805  27.705  33.356  1.00  0.00     0.034 A 
BRANCH  47  61
ATOM     61  C   UNL A   1      40.254  32.137  35.798  1.00  0.00     0.023 A 
ATOM     62  C   UNL A   1      41.029  33.293  36.025  1.00  0.00     0.012 A 
ATOM     63  C   UNL A   1      39.168  31.857  36.650  1.00  0.00     0.148 A 
ATOM     64  C   UNL A   1      40.754  34.134  37.102  1.00  0.00     0.002 A 
ATOM     65  C   UNL A   1      38.870  32.727  37.693  1.00  0.00     0.091 A 
ATOM     66  F   UNL A   1      38.453  30.745  36.430  1.00  0.00    -0.205 F 
ATOM     67  C   UNL A   1      39.669  33.858  37.929  1.00  0.00     0.022 A 
BRANCH  65  68
ATOM     68  S   UNL A   1      37.447  32.505  38.767  1.00  0.00     0.127 S 
ATOM     69  O   UNL A   1      37.734  33.458  39.838  1.00  0.00    -0.237 OA
ATOM     70  O   UNL A   1      36.339  32.887  37.892  1.00  0.00    -0.237 OA
ATOM     71  O   UNL A   1      37.455  31.103  39.162  1.00  0.00    -0.744 OA
ENDBRANCH  65  68
ENDBRANCH  47  61
BRANCH  48  72
ATOM     72  C   UNL A   1      42.081  26.634  27.648  1.00  0.00     0.023 A 
ATOM     73  C   UNL A   1      42.686  27.255  26.538  1.00  0.00     0.012 A 
ATOM     74  C   UNL A   1      41.778  25.260  27.584  1.00  0.00     0.148 A 
ATOM     75  C   UNL A   1      42.944  26.535  25.372  1.00  0.00     0.002 A 
ATOM     76  C   UNL A   1      42.090  24.535  26.440  1.00  0.00     0.091 A 
ATOM     77  F   UNL A   1      41.194  24.687  28.647  1.00  0.00    -0.205 F 
ATOM     78  C   UNL A   1      42.654  25.174  25.325  1.00  0.00     0.022 A 
BRANCH  76  79
ATOM     79  S   UNL A   1      41.870  22.755  26.339  1.00  0.00     0.127 S 
ATOM     80  O   UNL A   1      42.504  22.446  25.060  1.00  0.00    -0.237 OA
ATOM     81  O   UNL A   1      42.601  22.293  27.519  1.00  0.00    -0.237 OA
ATOM     82  O   UNL A   1      40.431  22.534  26.404  1.00  0.00    -0.744 OA
ENDBRANCH  76  79
ENDBRANCH  48  72
BRANCH  60  83
ATOM     83  C   UNL A   1      44.943  26.959  34.002  1.00  0.00     0.023 A 
ATOM     84  C   UNL A   1      46.245  27.495  33.975  1.00  0.00     0.012 A 
ATOM     85  C   UNL A   1      44.704  25.757  34.701  1.00  0.00     0.148 A 
ATOM     86  C   UNL A   1      47.299  26.830  34.600  1.00  0.00     0.002 A 
ATOM     87  C   UNL A   1      45.748  25.129  35.366  1.00  0.00     0.091 A 
ATOM     88  F   UNL A   1      43.461  25.254  34.700  1.00  0.00    -0.205 F 
ATOM     89  C   UNL A   1      47.048  25.655  35.306  1.00  0.00     0.022 A 
BRANCH  87  90
ATOM     90  S   UNL A   1      45.502  23.668  36.382  1.00  0.00     0.127 S 
ATOM     91  O   UNL A   1      44.677  22.834  35.510  1.00  0.00    -0.237 OA
ATOM     92  O   UNL A   1      46.872  23.187  36.568  1.00  0.00    -0.237 OA
ATOM     93  O   UNL A   1      44.852  24.129  37.601  1.00  0.00    -0.744 OA
ENDBRANCH  87  90
ENDBRANCH  60  83
ENDBRANCH  34  35
ENDBRANCH  26  29
ENDBRANCH  24  25
ENDBRANCH  23  24
ENDBRANCH   1  23
TORSDOF 17
ENDMDL
MODEL 3
REMARK VINA RESULT:     -11.5      5.750     10.731
REMARK SMILES Cc1ccc(-c2ncccc2C(=O)NCCCCCCNC(=O)c2ccc(-c3c4nc(c(-c5cccc(S(=O)(=O)[O-])c5F)c5ccc([nH]5)c(-c5cccc(S(=O)(=O)[O-])c5F)c5nc(c(-c6cccc(S(=O)(=O)[O-])c6F)c6ccc3[nH]6)C=C5)C=C4)cc2)c(C)c1
REMARK SMILES IDX 18 1 17 2 16 3 15 4 14 5 12 6 13 7 11 9 6 10 7 11 8 12 10 13
REMARK SMILES IDX 9 14 5 15 1 16 2 17 3 18 89 19 4 20 87 21 88 22 19 23 20 24
REMARK SMILES IDX 21 25 22 26 23 28 24 29 25 30 86 31 26 32 85 33 27 34 28 35
REMARK SMILES IDX 29 36 79 37 30 38 84 39 78 40 80 41 31 42 83 43 77 44 76 45
REMARK SMILES IDX 32 47 64 48 44 49 63 50 45 51 48 52 62 53 81 54 46 55 47 56
REMARK SMILES IDX 61 58 82 59 49 60 33 61 34 62 42 63 35 64 37 65 43 66 36 67
REMARK SMILES IDX 38 68 39 69 40 70 41 71 65 72 66 73 74 74 67 75 69 76 75 77
REMARK SMILES IDX 68 78 70 79 71 80 72 81 73 82 50 83 51 84 59 85 52 86 54 87
REMARK SMILES IDX 60 88 53 89 55 90 56 91 57 92 58 93
REMARK H PARENT 14 8 21 27 80 46 48 57
REMARK Flexibility Score: inf
ROOT
ATOM      1  C   UNL A   1      35.163  23.123  23.478  1.00  0.00     0.002 C 
ENDROOT
BRANCH   1   2
ATOM      2  C   UNL A   1      34.253  24.315  23.148  1.00  0.00     0.002 C 
BRANCH   2   3
ATOM      3  C   UNL A   1      33.409  24.155  21.873  1.00  0.00     0.021 C 
BRANCH   3   4
ATOM      4  C   UNL A   1      32.776  25.461  21.398  1.00  0.00     0.116 C 
BRANCH   4   5
ATOM      5  N   UNL A   1      33.269  26.577  22.176  1.00  0.00    -0.352 N 
ATOM      6  C   UNL A   1      32.754  27.659  22.833  1.00  0.00     0.253 C 
ATOM      7  O   UNL A   1      33.630  28.349  23.358  1.00  0.00    -0.269 OA
ATOM      8  H   UNL A   1      34.250  26.548  22.255  1.00  0.00     0.163 HD
BRANCH   6   9
ATOM      9  C   UNL A   1      31.300  28.013  22.983  1.00  0.00     0.066 A 
ATOM     10  C   UNL A   1      30.434  27.188  23.736  1.00  0.00     0.083 A 
ATOM     11  N   UNL A   1      29.077  27.386  23.799  1.00  0.00    -0.255 NA
ATOM     12  C   UNL A   1      28.550  28.418  23.121  1.00  0.00     0.112 A 
ATOM     13  C   UNL A   1      30.697  29.118  22.369  1.00  0.00     0.018 A 
ATOM     14  C   UNL A   1      29.316  29.314  22.413  1.00  0.00     0.021 A 
BRANCH  10  15
ATOM     15  C   UNL A   1      30.853  26.048  24.576  1.00  0.00     0.004 A 
ATOM     16  C   UNL A   1      31.912  22.605  26.983  1.00  0.00     0.044 C 
ATOM     17  C   UNL A   1      31.564  23.787  26.130  1.00  0.00    -0.051 A 
ATOM     18  C   UNL A   1      30.995  23.620  24.868  1.00  0.00     0.004 A 
ATOM     19  C   UNL A   1      31.810  25.085  26.598  1.00  0.00     0.007 A 
ATOM     20  C   UNL A   1      30.660  24.735  24.097  1.00  0.00     0.011 A 
ATOM     21  C   UNL A   1      31.453  26.218  25.843  1.00  0.00    -0.041 A 
ATOM     22  C   UNL A   1      31.759  27.574  26.421  1.00  0.00     0.045 C 
ENDBRANCH  10  15
ENDBRANCH   6   9
ENDBRANCH   4   5
ENDBRANCH   3   4
ENDBRANCH   2   3
ENDBRANCH   1   2
BRANCH   1  23
ATOM     23  C   UNL A   1      34.709  22.274  24.668  1.00  0.00     0.021 C 
BRANCH  23  24
ATOM     24  C   UNL A   1      35.725  22.196  25.800  1.00  0.00     0.116 C 
BRANCH  24  25
ATOM     25  N   UNL A   1      36.643  21.083  25.615  1.00  0.00    -0.352 N 
ATOM     26  C   UNL A   1      38.016  21.091  25.602  1.00  0.00     0.251 C 
ATOM     27  H   UNL A   1      36.222  20.204  25.480  1.00  0.00     0.163 HD
ATOM     28  O   UNL A   1      38.634  20.114  25.196  1.00  0.00    -0.269 OA
BRANCH  26  29
ATOM     29  C   UNL A   1      38.740  22.290  26.077  1.00  0.00     0.039 A 
ATOM     30  C   UNL A   1      39.886  22.126  26.856  1.00  0.00     0.014 A 
ATOM     31  C   UNL A   1      38.281  23.571  25.755  1.00  0.00     0.014 A 
ATOM     32  C   UNL A   1      40.600  23.251  27.276  1.00  0.00     0.010 A 
ATOM     33  C   UNL A   1      39.036  24.684  26.107  1.00  0.00     0.010 A 
ATOM     34  C   UNL A   1      40.196  24.538  26.882  1.00  0.00    -0.014 A 
BRANCH  34  35
ATOM     35  C   UNL A   1      40.968  25.743  27.276  1.00  0.00     0.031 A 
ATOM     36  C   UNL A   1      40.308  26.831  28.081  1.00  0.00     0.074 A 
ATOM     37  C   UNL A   1      42.236  25.891  26.847  1.00  0.00     0.049 A 
ATOM     38  N   UNL A   1      40.797  27.981  28.468  1.00  0.00    -0.248 NA
ATOM     39  C   UNL A   1      38.907  26.612  28.481  1.00  0.00     0.031 C 
ATOM     40  C   UNL A   1      42.963  24.937  26.005  1.00  0.00     0.029 A 
ATOM     41  N   UNL A   1      43.133  26.912  27.039  1.00  0.00    -0.354 N 
ATOM     42  C   UNL A   1      39.761  28.631  29.131  1.00  0.00     0.074 A 
ATOM     43  C   UNL A   1      38.604  27.767  29.054  1.00  0.00     0.031 C 
ATOM     44  C   UNL A   1      44.194  25.413  25.761  1.00  0.00     0.029 A 
ATOM     45  C   UNL A   1      44.335  26.719  26.398  1.00  0.00     0.049 A 
ATOM     46  H   UNL A   1      42.936  27.708  27.585  1.00  0.00     0.167 HD
ATOM     47  C   UNL A   1      39.780  29.822  29.773  1.00  0.00     0.034 A 
ATOM     48  C   UNL A   1      45.423  27.509  26.325  1.00  0.00     0.034 A 
ATOM     49  C   UNL A   1      40.942  30.663  29.875  1.00  0.00     0.049 A 
ATOM     50  C   UNL A   1      45.421  28.824  27.058  1.00  0.00     0.074 A 
ATOM     51  C   UNL A   1      41.083  31.857  30.558  1.00  0.00     0.029 A 
ATOM     52  N   UNL A   1      42.163  30.399  29.273  1.00  0.00    -0.354 N 
ATOM     53  N   UNL A   1      44.477  29.355  27.798  1.00  0.00    -0.248 NA
ATOM     54  C   UNL A   1      46.646  29.631  26.978  1.00  0.00     0.031 C 
ATOM     55  C   UNL A   1      42.383  32.329  30.348  1.00  0.00     0.029 A 
ATOM     56  C   UNL A   1      43.061  31.412  29.563  1.00  0.00     0.049 A 
ATOM     57  H   UNL A   1      42.362  29.609  28.720  1.00  0.00     0.167 HD
ATOM     58  C   UNL A   1      45.009  30.534  28.306  1.00  0.00     0.074 A 
ATOM     59  C   UNL A   1      46.365  30.630  27.804  1.00  0.00     0.031 C 
ATOM     60  C   UNL A   1      44.425  31.462  29.103  1.00  0.00     0.034 A 
BRANCH  47  61
ATOM     61  C   UNL A   1      38.515  30.263  30.465  1.00  0.00     0.023 A 
ATOM     62  C   UNL A   1      38.316  29.935  31.822  1.00  0.00     0.012 A 
ATOM     63  C   UNL A   1      37.555  31.049  29.797  1.00  0.00     0.148 A 
ATOM     64  C   UNL A   1      37.165  30.347  32.492  1.00  0.00     0.002 A 
ATOM     65  C   UNL A   1      36.434  31.497  30.486  1.00  0.00     0.091 A 
ATOM     66  F   UNL A   1      37.753  31.337  28.503  1.00  0.00    -0.205 F 
ATOM     67  C   UNL A   1      36.230  31.136  31.829  1.00  0.00     0.022 A 
BRANCH  65  68
ATOM     68  S   UNL A   1      35.210  32.584  29.747  1.00  0.00     0.127 S 
ATOM     69  O   UNL A   1      34.291  32.798  30.865  1.00  0.00    -0.237 OA
ATOM     70  O   UNL A   1      36.013  33.752  29.387  1.00  0.00    -0.237 OA
ATOM     71  O   UNL A   1      34.654  31.855  28.616  1.00  0.00    -0.744 OA
ENDBRANCH  65  68
ENDBRANCH  47  61
BRANCH  48  72
ATOM     72  C   UNL A   1      46.633  27.058  25.578  1.00  0.00     0.023 A 
ATOM     73  C   UNL A   1      47.501  26.120  26.169  1.00  0.00     0.012 A 
ATOM     74  C   UNL A   1      46.925  27.547  24.289  1.00  0.00     0.148 A 
ATOM     75  C   UNL A   1      48.660  25.709  25.511  1.00  0.00     0.002 A 
ATOM     76  C   UNL A   1      48.052  27.090  23.615  1.00  0.00     0.091 A 
ATOM     77  F   UNL A   1      46.092  28.446  23.747  1.00  0.00    -0.205 F 
ATOM     78  C   UNL A   1      48.932  26.187  24.231  1.00  0.00     0.022 A 
BRANCH  76  79
ATOM     79  S   UNL A   1      48.409  27.553  21.917  1.00  0.00     0.127 S 
ATOM     80  O   UNL A   1      48.658  26.254  21.298  1.00  0.00    -0.237 OA
ATOM     81  O   UNL A   1      47.163  28.203  21.512  1.00  0.00    -0.237 OA
ATOM     82  O   UNL A   1      49.555  28.451  21.989  1.00  0.00    -0.744 OA
ENDBRANCH  76  79
ENDBRANCH  48  72
BRANCH  60  83
ATOM     83  C   UNL A   1      45.262  32.640  29.532  1.00  0.00     0.023 A 
ATOM     84  C   UNL A   1      46.046  32.561  30.699  1.00  0.00     0.012 A 
ATOM     85  C   UNL A   1      45.324  33.800  28.733  1.00  0.00     0.148 A 
ATOM     86  C   UNL A   1      46.850  33.632  31.085  1.00  0.00     0.002 A 
ATOM     87  C   UNL A   1      46.168  34.841  29.096  1.00  0.00     0.091 A 
ATOM     88  F   UNL A   1      44.557  33.862  27.635  1.00  0.00    -0.205 F 
ATOM     89  C   UNL A   1      46.922  34.766  30.278  1.00  0.00     0.022 A 
BRANCH  87  90
ATOM     90  S   UNL A   1      46.401  36.296  28.068  1.00  0.00     0.127 S 
ATOM     91  O   UNL A   1      47.504  36.969  28.751  1.00  0.00    -0.237 OA
ATOM     92  O   UNL A   1      46.752  35.708  26.775  1.00  0.00    -0.237 OA
ATOM     93  O   UNL A   1      45.131  37.008  28.084  1.00  0.00    -0.744 OA
ENDBRANCH  87  90
ENDBRANCH  60  83
ENDBRANCH  34  35
ENDBRANCH  26  29
ENDBRANCH  24  25
ENDBRANCH  23  24
ENDBRANCH   1  23
TORSDOF 17
ENDMDL
