MODEL 1
REMARK VINA RESULT:     -11.4      0.000      0.000
REMARK SMILES Cc1cccc([C@H]([NH3+])[C@H](O)C(=O)NCCCCCCNC(=O)c2ccc(-c3c4nc(c(-c5cccc(S(=O)(=O)[O-])c5F)c5ccc([nH]5)c(-c5cccc(S(=O)(=O)[O-])c5F)c5nc(c(-c6cccc(S(=O)(=O)[O-])c6F)c6ccc3[nH]6)C=C5)C=C4)cc2)c1
REMARK SMILES IDX 17 1 16 2 15 3 14 4 13 5 11 6 12 7 9 9 7 10 6 11 1 12 2 13
REMARK SMILES IDX 3 14 86 15 4 16 5 17 8 18 10 22 18 24 19 25 20 26 21 27
REMARK SMILES IDX 22 29 23 30 24 31 85 32 25 33 84 34 26 35 27 36 28 37 78 38
REMARK SMILES IDX 29 39 83 40 77 41 79 42 30 43 82 44 76 45 75 46 31 48 63 49
REMARK SMILES IDX 43 50 62 51 44 52 47 53 61 54 80 55 45 56 46 57 60 59 81 60
REMARK SMILES IDX 48 61 32 62 33 63 41 64 34 65 36 66 42 67 35 68 37 69 38 70
REMARK SMILES IDX 39 71 40 72 64 73 65 74 73 75 66 76 68 77 74 78 67 79 69 80
REMARK SMILES IDX 70 81 71 82 72 83 49 84 50 85 58 86 51 87 53 88 59 89 52 90
REMARK SMILES IDX 54 91 55 92 56 93 57 94
REMARK H PARENT 13 8 8 19 8 20 8 21 10 23 20 28 79 47 47 58
REMARK Flexibility Score: inf
ROOT
ATOM      1  C   UNL A   1      36.488  20.778  25.003  1.00  0.00     0.002 C 
ENDROOT
BRANCH   1   2
ATOM      2  C   UNL A   1      35.581  21.868  25.597  1.00  0.00     0.002 C 
BRANCH   2   3
ATOM      3  C   UNL A   1      35.185  23.015  24.663  1.00  0.00     0.021 C 
BRANCH   3   4
ATOM      4  C   UNL A   1      35.125  24.390  25.313  1.00  0.00     0.116 C 
BRANCH   4   5
ATOM      5  N   UNL A   1      34.290  25.334  24.615  1.00  0.00    -0.354 N 
ATOM      6  C   UNL A   1      33.023  25.740  24.895  1.00  0.00     0.255 C 
ATOM      7  O   UNL A   1      32.617  26.743  24.297  1.00  0.00    -0.272 OA
ATOM      8  H   UNL A   1      34.695  25.745  23.817  1.00  0.00     0.163 HD
BRANCH   6   9
ATOM      9  C   UNL A   1      32.062  24.947  25.825  1.00  0.00     0.266 C 
BRANCH   9  10
ATOM     10  C   UNL A   1      31.032  23.982  25.117  1.00  0.00     0.250 C 
BRANCH  10  11
ATOM     11  C   UNL A   1      31.485  22.677  24.434  1.00  0.00     0.013 A 
ATOM     12  C   UNL A   1      32.794  19.263  25.613  1.00  0.00     0.044 C 
ATOM     13  C   UNL A   1      32.393  20.401  24.722  1.00  0.00    -0.051 A 
ATOM     14  C   UNL A   1      32.523  20.273  23.339  1.00  0.00     0.003 A 
ATOM     15  C   UNL A   1      31.895  21.602  25.255  1.00  0.00     0.013 A 
ATOM     16  C   UNL A   1      32.115  21.308  22.506  1.00  0.00     0.001 A 
ATOM     17  C   UNL A   1      31.584  22.483  23.047  1.00  0.00     0.010 A 
ENDBRANCH  10  11
BRANCH  10  18
ATOM     18  N   UNL A   1      30.217  24.749  24.134  1.00  0.00    -0.349 N 
ATOM     19  H   UNL A   1      29.874  25.604  24.571  1.00  0.00     0.345 HD
ATOM     20  H   UNL A   1      29.426  24.181  23.832  1.00  0.00     0.345 HD
ATOM     21  H   UNL A   1      30.794  24.987  23.327  1.00  0.00     0.345 HD
ENDBRANCH  10  18
ENDBRANCH   9  10
BRANCH   9  22
ATOM     22  O   UNL A   1      31.535  25.716  26.899  1.00  0.00    -0.378 OA
ATOM     23  H   UNL A   1      32.093  26.497  27.041  1.00  0.00     0.211 HD
ENDBRANCH   9  22
ENDBRANCH   6   9
ENDBRANCH   4   5
ENDBRANCH   3   4
ENDBRANCH   2   3
ENDBRANCH   1   2
BRANCH   1  24
ATOM     24  C   UNL A   1      37.988  21.079  24.962  1.00  0.00     0.021 C 
BRANCH  24  25
ATOM     25  C   UNL A   1      38.424  22.240  25.840  1.00  0.00     0.116 C 
BRANCH  25  26
ATOM     26  N   UNL A   1      39.840  22.203  26.170  1.00  0.00    -0.352 N 
ATOM     27  C   UNL A   1      40.705  23.253  26.417  1.00  0.00     0.251 C 
ATOM     28  H   UNL A   1      40.237  21.305  26.226  1.00  0.00     0.163 HD
ATOM     29  O   UNL A   1      41.917  23.044  26.429  1.00  0.00    -0.269 OA
BRANCH  27  30
ATOM     30  C   UNL A   1      40.148  24.568  26.805  1.00  0.00     0.039 A 
ATOM     31  C   UNL A   1      40.684  25.697  26.173  1.00  0.00     0.014 A 
ATOM     32  C   UNL A   1      39.361  24.705  27.945  1.00  0.00     0.014 A 
ATOM     33  C   UNL A   1      40.669  26.922  26.829  1.00  0.00     0.010 A 
ATOM     34  C   UNL A   1      39.415  25.892  28.638  1.00  0.00     0.010 A 
ATOM     35  C   UNL A   1      40.134  26.971  28.111  1.00  0.00    -0.014 A 
BRANCH  35  36
ATOM     36  C   UNL A   1      40.310  28.080  29.028  1.00  0.00     0.031 A 
ATOM     37  C   UNL A   1      39.412  29.239  28.959  1.00  0.00     0.074 A 
ATOM     38  C   UNL A   1      41.168  27.931  30.061  1.00  0.00     0.049 A 
ATOM     39  N   UNL A   1      39.670  30.371  29.513  1.00  0.00    -0.248 NA
ATOM     40  C   UNL A   1      38.142  29.208  28.244  1.00  0.00     0.031 C 
ATOM     41  C   UNL A   1      41.196  28.693  31.303  1.00  0.00     0.029 A 
ATOM     42  N   UNL A   1      42.331  27.157  30.108  1.00  0.00    -0.354 N 
ATOM     43  C   UNL A   1      38.512  31.111  29.481  1.00  0.00     0.074 A 
ATOM     44  C   UNL A   1      37.616  30.380  28.613  1.00  0.00     0.031 C 
ATOM     45  C   UNL A   1      42.413  28.572  31.853  1.00  0.00     0.029 A 
ATOM     46  C   UNL A   1      43.250  27.878  30.892  1.00  0.00     0.049 A 
ATOM     47  H   UNL A   1      42.479  26.284  29.678  1.00  0.00     0.167 HD
ATOM     48  C   UNL A   1      38.387  32.175  30.322  1.00  0.00     0.034 A 
ATOM     49  C   UNL A   1      44.456  28.318  30.424  1.00  0.00     0.034 A 
ATOM     50  C   UNL A   1      39.602  32.355  31.132  1.00  0.00     0.049 A 
ATOM     51  C   UNL A   1      44.604  29.834  30.479  1.00  0.00     0.074 A 
ATOM     52  C   UNL A   1      39.959  32.007  32.426  1.00  0.00     0.029 A 
ATOM     53  N   UNL A   1      40.779  32.717  30.499  1.00  0.00    -0.354 N 
ATOM     54  N   UNL A   1      43.739  30.659  31.007  1.00  0.00    -0.248 NA
ATOM     55  C   UNL A   1      45.711  30.542  29.840  1.00  0.00     0.031 C 
ATOM     56  C   UNL A   1      41.369  32.167  32.561  1.00  0.00     0.029 A 
ATOM     57  C   UNL A   1      41.866  32.632  31.358  1.00  0.00     0.049 A 
ATOM     58  H   UNL A   1      40.838  32.999  29.558  1.00  0.00     0.167 HD
ATOM     59  C   UNL A   1      44.040  31.951  30.635  1.00  0.00     0.074 A 
ATOM     60  C   UNL A   1      45.312  31.821  29.942  1.00  0.00     0.031 C 
ATOM     61  C   UNL A   1      43.181  33.002  30.848  1.00  0.00     0.034 A 
BRANCH  48  62
ATOM     62  C   UNL A   1      37.067  32.853  30.632  1.00  0.00     0.023 A 
ATOM     63  C   UNL A   1      36.572  32.741  31.950  1.00  0.00     0.012 A 
ATOM     64  C   UNL A   1      36.248  33.553  29.716  1.00  0.00     0.148 A 
ATOM     65  C   UNL A   1      35.301  33.189  32.318  1.00  0.00     0.002 A 
ATOM     66  C   UNL A   1      34.946  33.935  30.061  1.00  0.00     0.091 A 
ATOM     67  F   UNL A   1      36.746  33.921  28.529  1.00  0.00    -0.205 F 
ATOM     68  C   UNL A   1      34.470  33.751  31.363  1.00  0.00     0.022 A 
BRANCH  66  69
ATOM     69  S   UNL A   1      33.769  34.569  28.854  1.00  0.00     0.127 S 
ATOM     70  O   UNL A   1      34.490  35.713  28.291  1.00  0.00    -0.237 OA
ATOM     71  O   UNL A   1      33.614  33.442  27.937  1.00  0.00    -0.237 OA
ATOM     72  O   UNL A   1      32.579  34.938  29.612  1.00  0.00    -0.744 OA
ENDBRANCH  66  69
ENDBRANCH  48  62
BRANCH  49  73
ATOM     73  C   UNL A   1      45.034  27.424  29.375  1.00  0.00     0.023 A 
ATOM     74  C   UNL A   1      45.432  26.129  29.785  1.00  0.00     0.012 A 
ATOM     75  C   UNL A   1      44.821  27.664  28.007  1.00  0.00     0.148 A 
ATOM     76  C   UNL A   1      45.472  25.069  28.877  1.00  0.00     0.002 A 
ATOM     77  C   UNL A   1      44.868  26.603  27.106  1.00  0.00     0.091 A 
ATOM     78  F   UNL A   1      44.489  28.900  27.615  1.00  0.00    -0.205 F 
ATOM     79  C   UNL A   1      45.153  25.300  27.544  1.00  0.00     0.022 A 
BRANCH  77  80
ATOM     80  S   UNL A   1      44.427  26.829  25.378  1.00  0.00     0.127 S 
ATOM     81  O   UNL A   1      43.532  27.979  25.457  1.00  0.00    -0.237 OA
ATOM     82  O   UNL A   1      45.721  27.098  24.756  1.00  0.00    -0.237 OA
ATOM     83  O   UNL A   1      43.826  25.564  24.983  1.00  0.00    -0.744 OA
ENDBRANCH  77  80
ENDBRANCH  49  73
BRANCH  61  84
ATOM     84  C   UNL A   1      43.444  34.470  30.496  1.00  0.00     0.023 A 
ATOM     85  C   UNL A   1      43.708  35.445  31.475  1.00  0.00     0.012 A 
ATOM     86  C   UNL A   1      43.368  34.951  29.158  1.00  0.00     0.148 A 
ATOM     87  C   UNL A   1      44.043  36.766  31.144  1.00  0.00     0.002 A 
ATOM     88  C   UNL A   1      43.705  36.260  28.825  1.00  0.00     0.091 A 
ATOM     89  F   UNL A   1      42.887  34.168  28.187  1.00  0.00    -0.205 F 
ATOM     90  C   UNL A   1      44.074  37.166  29.816  1.00  0.00     0.022 A 
BRANCH  88  91
ATOM     91  S   UNL A   1      43.686  36.843  27.123  1.00  0.00     0.127 S 
ATOM     92  O   UNL A   1      44.309  38.160  27.256  1.00  0.00    -0.237 OA
ATOM     93  O   UNL A   1      44.516  35.843  26.449  1.00  0.00    -0.237 OA
ATOM     94  O   UNL A   1      42.289  36.840  26.716  1.00  0.00    -0.744 OA
ENDBRANCH  88  91
ENDBRANCH  61  84
ENDBRANCH  35  36
ENDBRANCH  27  30
ENDBRANCH  25  26
ENDBRANCH  24  25
ENDBRANCH   1  24
TORSDOF 20
ENDMDL
MODEL 2
REMARK VINA RESULT:     -11.3      2.021      2.665
REMARK SMILES Cc1cccc([C@H]([NH3+])[C@H](O)C(=O)NCCCCCCNC(=O)c2ccc(-c3c4nc(c(-c5cccc(S(=O)(=O)[O-])c5F)c5ccc([nH]5)c(-c5cccc(S(=O)(=O)[O-])c5F)c5nc(c(-c6cccc(S(=O)(=O)[O-])c6F)c6ccc3[nH]6)C=C5)C=C4)cc2)c1
REMARK SMILES IDX 17 1 16 2 15 3 14 4 13 5 11 6 12 7 9 9 7 10 6 11 1 12 2 13
REMARK SMILES IDX 3 14 86 15 4 16 5 17 8 18 10 22 18 24 19 25 20 26 21 27
REMARK SMILES IDX 22 29 23 30 24 31 85 32 25 33 84 34 26 35 27 36 28 37 78 38
REMARK SMILES IDX 29 39 83 40 77 41 79 42 30 43 82 44 76 45 75 46 31 48 63 49
REMARK SMILES IDX 43 50 62 51 44 52 47 53 61 54 80 55 45 56 46 57 60 59 81 60
REMARK SMILES IDX 48 61 32 62 33 63 41 64 34 65 36 66 42 67 35 68 37 69 38 70
REMARK SMILES IDX 39 71 40 72 64 73 65 74 73 75 66 76 68 77 74 78 67 79 69 80
REMARK SMILES IDX 70 81 71 82 72 83 49 84 50 85 58 86 51 87 53 88 59 89 52 90
REMARK SMILES IDX 54 91 55 92 56 93 57 94
REMARK H PARENT 13 8 8 19 8 20 8 21 10 23 20 28 79 47 47 58
REMARK Flexibility Score: inf
ROOT
ATOM      1  C   UNL A   1      37.456  21.088  25.101  1.00  0.00     0.002 C 
ENDROOT
BRANCH   1   2
ATOM      2  C   UNL A   1      36.982  21.845  23.849  1.00  0.00     0.002 C 
BRANCH   2   3
ATOM      3  C   UNL A   1      36.380  23.234  24.074  1.00  0.00     0.021 C 
BRANCH   3   4
ATOM      4  C   UNL A   1      34.939  23.399  23.613  1.00  0.00     0.116 C 
BRANCH   4   5
ATOM      5  N   UNL A   1      34.032  23.811  24.653  1.00  0.00    -0.354 N 
ATOM      6  C   UNL A   1      33.712  23.186  25.817  1.00  0.00     0.255 C 
ATOM      7  O   UNL A   1      33.104  23.859  26.659  1.00  0.00    -0.272 OA
ATOM      8  H   UNL A   1      33.576  24.670  24.499  1.00  0.00     0.163 HD
BRANCH   6   9
ATOM      9  C   UNL A   1      33.974  21.675  26.072  1.00  0.00     0.266 C 
BRANCH   9  10
ATOM     10  C   UNL A   1      32.757  20.697  25.834  1.00  0.00     0.250 C 
BRANCH  10  11
ATOM     11  C   UNL A   1      32.841  19.532  24.829  1.00  0.00     0.013 A 
ATOM     12  C   UNL A   1      34.661  16.152  24.678  1.00  0.00     0.044 C 
ATOM     13  C   UNL A   1      33.835  17.340  24.285  1.00  0.00    -0.051 A 
ATOM     14  C   UNL A   1      33.254  17.387  23.018  1.00  0.00     0.003 A 
ATOM     15  C   UNL A   1      33.639  18.415  25.168  1.00  0.00     0.013 A 
ATOM     16  C   UNL A   1      32.454  18.465  22.661  1.00  0.00     0.001 A 
ATOM     17  C   UNL A   1      32.234  19.511  23.564  1.00  0.00     0.010 A 
ENDBRANCH  10  11
BRANCH  10  18
ATOM     18  N   UNL A   1      31.534  21.484  25.514  1.00  0.00    -0.349 N 
ATOM     19  H   UNL A   1      30.707  20.949  25.778  1.00  0.00     0.345 HD
ATOM     20  H   UNL A   1      31.507  21.678  24.513  1.00  0.00     0.345 HD
ATOM     21  H   UNL A   1      31.550  22.363  26.032  1.00  0.00     0.345 HD
ENDBRANCH  10  18
ENDBRANCH   9  10
BRANCH   9  22
ATOM     22  O   UNL A   1      34.745  21.413  27.238  1.00  0.00    -0.378 OA
ATOM     23  H   UNL A   1      34.793  22.216  27.782  1.00  0.00     0.211 HD
ENDBRANCH   9  22
ENDBRANCH   6   9
ENDBRANCH   4   5
ENDBRANCH   3   4
ENDBRANCH   2   3
ENDBRANCH   1   2
BRANCH   1  24
ATOM     24  C   UNL A   1      38.866  21.404  25.603  1.00  0.00     0.021 C 
BRANCH  24  25
ATOM     25  C   UNL A   1      38.970  22.665  26.445  1.00  0.00     0.116 C 
BRANCH  25  26
ATOM     26  N   UNL A   1      40.194  22.727  27.228  1.00  0.00    -0.352 N 
ATOM     27  C   UNL A   1      40.892  23.835  27.668  1.00  0.00     0.251 C 
ATOM     28  H   UNL A   1      40.578  21.857  27.481  1.00  0.00     0.163 HD
ATOM     29  O   UNL A   1      42.037  23.695  28.097  1.00  0.00    -0.269 OA
BRANCH  27  30
ATOM     30  C   UNL A   1      40.197  25.139  27.749  1.00  0.00     0.039 A 
ATOM     31  C   UNL A   1      40.597  26.131  26.844  1.00  0.00     0.014 A 
ATOM     32  C   UNL A   1      39.411  25.465  28.850  1.00  0.00     0.014 A 
ATOM     33  C   UNL A   1      40.451  27.470  27.186  1.00  0.00     0.010 A 
ATOM     34  C   UNL A   1      39.338  26.784  29.235  1.00  0.00     0.010 A 
ATOM     35  C   UNL A   1      39.928  27.771  28.438  1.00  0.00    -0.014 A 
BRANCH  35  36
ATOM     36  C   UNL A   1      39.988  29.082  29.054  1.00  0.00     0.031 A 
ATOM     37  C   UNL A   1      38.949  30.078  28.764  1.00  0.00     0.074 A 
ATOM     38  C   UNL A   1      40.886  29.289  30.042  1.00  0.00     0.049 A 
ATOM     39  N   UNL A   1      39.078  31.333  29.018  1.00  0.00    -0.248 NA
ATOM     40  C   UNL A   1      37.674  29.729  28.151  1.00  0.00     0.031 C 
ATOM     41  C   UNL A   1      40.852  30.327  31.064  1.00  0.00     0.029 A 
ATOM     42  N   UNL A   1      42.138  28.689  30.205  1.00  0.00    -0.354 N 
ATOM     43  C   UNL A   1      37.835  31.904  28.878  1.00  0.00     0.074 A 
ATOM     44  C   UNL A   1      37.014  30.886  28.262  1.00  0.00     0.031 C 
ATOM     45  C   UNL A   1      42.090  30.484  31.557  1.00  0.00     0.029 A 
ATOM     46  C   UNL A   1      42.981  29.680  30.741  1.00  0.00     0.049 A 
ATOM     47  H   UNL A   1      42.383  27.760  29.986  1.00  0.00     0.167 HD
ATOM     48  C   UNL A   1      37.600  33.118  29.449  1.00  0.00     0.034 A 
ATOM     49  C   UNL A   1      44.108  30.130  30.114  1.00  0.00     0.034 A 
ATOM     50  C   UNL A   1      38.805  33.629  30.123  1.00  0.00     0.049 A 
ATOM     51  C   UNL A   1      44.065  31.621  29.799  1.00  0.00     0.074 A 
ATOM     52  C   UNL A   1      39.239  33.648  31.440  1.00  0.00     0.029 A 
ATOM     53  N   UNL A   1      39.909  33.960  29.355  1.00  0.00    -0.354 N 
ATOM     54  N   UNL A   1      43.118  32.443  30.166  1.00  0.00    -0.248 NA
ATOM     55  C   UNL A   1      45.055  32.276  28.948  1.00  0.00     0.031 C 
ATOM     56  C   UNL A   1      40.621  33.998  31.451  1.00  0.00     0.029 A 
ATOM     57  C   UNL A   1      41.021  34.212  30.146  1.00  0.00     0.049 A 
ATOM     58  H   UNL A   1      39.905  34.011  28.372  1.00  0.00     0.167 HD
ATOM     59  C   UNL A   1      43.243  33.632  29.481  1.00  0.00     0.074 A 
ATOM     60  C   UNL A   1      44.502  33.486  28.767  1.00  0.00     0.031 C 
ATOM     61  C   UNL A   1      42.265  34.597  29.488  1.00  0.00     0.034 A 
BRANCH  48  62
ATOM     62  C   UNL A   1      36.215  33.694  29.665  1.00  0.00     0.023 A 
ATOM     63  C   UNL A   1      35.574  34.281  28.552  1.00  0.00     0.012 A 
ATOM     64  C   UNL A   1      35.510  33.748  30.890  1.00  0.00     0.148 A 
ATOM     65  C   UNL A   1      34.368  34.977  28.659  1.00  0.00     0.002 A 
ATOM     66  C   UNL A   1      34.342  34.508  31.015  1.00  0.00     0.091 A 
ATOM     67  F   UNL A   1      35.923  33.006  31.925  1.00  0.00    -0.205 F 
ATOM     68  C   UNL A   1      33.770  35.127  29.899  1.00  0.00     0.022 A 
BRANCH  66  69
ATOM     69  S   UNL A   1      33.566  34.842  32.607  1.00  0.00     0.127 S 
ATOM     70  O   UNL A   1      34.516  35.773  33.223  1.00  0.00    -0.237 OA
ATOM     71  O   UNL A   1      32.293  35.446  32.222  1.00  0.00    -0.237 OA
ATOM     72  O   UNL A   1      33.479  33.555  33.287  1.00  0.00    -0.744 OA
ENDBRANCH  66  69
ENDBRANCH  48  62
BRANCH  49  73
ATOM     73  C   UNL A   1      44.765  29.081  29.275  1.00  0.00     0.023 A 
ATOM     74  C   UNL A   1      45.317  27.969  29.955  1.00  0.00     0.012 A 
ATOM     75  C   UNL A   1      44.499  28.969  27.900  1.00  0.00     0.148 A 
ATOM     76  C   UNL A   1      45.461  26.736  29.317  1.00  0.00     0.002 A 
ATOM     77  C   UNL A   1      44.651  27.736  27.268  1.00  0.00     0.091 A 
ATOM     78  F   UNL A   1      44.020  30.035  27.247  1.00  0.00    -0.205 F 
ATOM     79  C   UNL A   1      45.091  26.611  27.982  1.00  0.00     0.022 A 
BRANCH  77  80
ATOM     80  S   UNL A   1      44.153  27.501  25.557  1.00  0.00     0.127 S 
ATOM     81  O   UNL A   1      45.361  27.905  24.845  1.00  0.00    -0.237 OA
ATOM     82  O   UNL A   1      43.859  26.070  25.509  1.00  0.00    -0.237 OA
ATOM     83  O   UNL A   1      42.986  28.356  25.392  1.00  0.00    -0.744 OA
ENDBRANCH  77  80
ENDBRANCH  49  73
BRANCH  61  84
ATOM     84  C   UNL A   1      42.330  35.956  28.784  1.00  0.00     0.023 A 
ATOM     85  C   UNL A   1      41.790  36.170  27.503  1.00  0.00     0.012 A 
ATOM     86  C   UNL A   1      43.006  37.072  29.357  1.00  0.00     0.148 A 
ATOM     87  C   UNL A   1      41.766  37.436  26.902  1.00  0.00     0.002 A 
ATOM     88  C   UNL A   1      42.979  38.332  28.766  1.00  0.00     0.091 A 
ATOM     89  F   UNL A   1      43.758  36.915  30.451  1.00  0.00    -0.205 F 
ATOM     90  C   UNL A   1      42.331  38.525  27.548  1.00  0.00     0.022 A 
BRANCH  88  91
ATOM     91  S   UNL A   1      43.763  39.759  29.533  1.00  0.00     0.127 S 
ATOM     92  O   UNL A   1      43.317  40.844  28.660  1.00  0.00    -0.237 OA
ATOM     93  O   UNL A   1      43.158  39.760  30.865  1.00  0.00    -0.237 OA
ATOM     94  O   UNL A   1      45.192  39.482  29.521  1.00  0.00    -0.744 OA
ENDBRANCH  88  91
ENDBRANCH  61  84
ENDBRANCH  35  36
ENDBRANCH  27  30
ENDBRANCH  25  26
ENDBRANCH  24  25
ENDBRANCH   1  24
TORSDOF 20
ENDMDL
MODEL 3
REMARK VINA RESULT:     -11.2      4.044      9.375
REMARK SMILES Cc1cccc([C@H]([NH3+])[C@H](O)C(=O)NCCCCCCNC(=O)c2ccc(-c3c4nc(c(-c5cccc(S(=O)(=O)[O-])c5F)c5ccc([nH]5)c(-c5cccc(S(=O)(=O)[O-])c5F)c5nc(c(-c6cccc(S(=O)(=O)[O-])c6F)c6ccc3[nH]6)C=C5)C=C4)cc2)c1
REMARK SMILES IDX 17 1 16 2 15 3 14 4 13 5 11 6 12 7 9 9 7 10 6 11 1 12 2 13
REMARK SMILES IDX 3 14 86 15 4 16 5 17 8 18 10 22 18 24 19 25 20 26 21 27
REMARK SMILES IDX 22 29 23 30 24 31 85 32 25 33 84 34 26 35 27 36 28 37 78 38
REMARK SMILES IDX 29 39 83 40 77 41 79 42 30 43 82 44 76 45 75 46 31 48 63 49
REMARK SMILES IDX 43 50 62 51 44 52 47 53 61 54 80 55 45 56 46 57 60 59 81 60
REMARK SMILES IDX 48 61 32 62 33 63 41 64 34 65 36 66 42 67 35 68 37 69 38 70
REMARK SMILES IDX 39 71 40 72 64 73 65 74 73 75 66 76 68 77 74 78 67 79 69 80
REMARK SMILES IDX 70 81 71 82 72 83 49 84 50 85 58 86 51 87 53 88 59 89 52 90
REMARK SMILES IDX 54 91 55 92 56 93 57 94
REMARK H PARENT 13 8 8 19 8 20 8 21 10 23 20 28 79 47 47 58
REMARK Flexibility Score: inf
ROOT
ATOM      1  C   UNL A   1      32.984  28.308  26.311  1.00  0.00     0.002 C 
ENDROOT
BRANCH   1   2
ATOM      2  C   UNL A   1      31.541  28.229  25.785  1.00  0.00     0.002 C 
BRANCH   2   3
ATOM      3  C   UNL A   1      31.162  29.212  24.674  1.00  0.00     0.021 C 
BRANCH   3   4
ATOM      4  C   UNL A   1      31.208  28.646  23.262  1.00  0.00     0.116 C 
BRANCH   4   5
ATOM      5  N   UNL A   1      32.526  28.257  22.829  1.00  0.00    -0.354 N 
ATOM      6  C   UNL A   1      32.902  27.224  22.028  1.00  0.00     0.255 C 
ATOM      7  O   UNL A   1      34.061  27.250  21.598  1.00  0.00    -0.272 OA
ATOM      8  H   UNL A   1      33.262  28.819  23.161  1.00  0.00     0.163 HD
BRANCH   6   9
ATOM      9  C   UNL A   1      31.992  25.998  21.737  1.00  0.00     0.266 C 
BRANCH   9  10
ATOM     10  C   UNL A   1      32.473  24.609  22.316  1.00  0.00     0.250 C 
BRANCH  10  11
ATOM     11  C   UNL A   1      33.534  24.522  23.430  1.00  0.00     0.013 A 
ATOM     12  C   UNL A   1      36.864  22.672  23.923  1.00  0.00     0.044 C 
ATOM     13  C   UNL A   1      35.652  23.512  24.193  1.00  0.00    -0.051 A 
ATOM     14  C   UNL A   1      35.487  24.103  25.445  1.00  0.00     0.003 A 
ATOM     15  C   UNL A   1      34.671  23.711  23.207  1.00  0.00     0.013 A 
ATOM     16  C   UNL A   1      34.388  24.916  25.689  1.00  0.00     0.001 A 
ATOM     17  C   UNL A   1      33.437  25.139  24.687  1.00  0.00     0.010 A 
ENDBRANCH  10  11
BRANCH  10  18
ATOM     18  N   UNL A   1      32.912  23.724  21.202  1.00  0.00    -0.349 N 
ATOM     19  H   UNL A   1      32.098  23.429  20.661  1.00  0.00     0.345 HD
ATOM     20  H   UNL A   1      33.381  22.903  21.585  1.00  0.00     0.345 HD
ATOM     21  H   UNL A   1      33.555  24.234  20.596  1.00  0.00     0.345 HD
ENDBRANCH  10  18
ENDBRANCH   9  10
BRANCH   9  22
ATOM     22  O   UNL A   1      31.484  25.960  20.410  1.00  0.00    -0.378 OA
ATOM     23  H   UNL A   1      30.856  25.225  20.324  1.00  0.00     0.211 HD
ENDBRANCH   9  22
ENDBRANCH   6   9
ENDBRANCH   4   5
ENDBRANCH   3   4
ENDBRANCH   2   3
ENDBRANCH   1   2
BRANCH   1  24
ATOM     24  C   UNL A   1      33.552  29.709  26.549  1.00  0.00     0.021 C 
BRANCH  24  25
ATOM     25  C   UNL A   1      33.470  30.188  27.989  1.00  0.00     0.116 C 
BRANCH  25  26
ATOM     26  N   UNL A   1      34.275  31.373  28.242  1.00  0.00    -0.352 N 
ATOM     27  C   UNL A   1      35.555  31.464  28.754  1.00  0.00     0.251 C 
ATOM     28  H   UNL A   1      33.847  32.230  28.015  1.00  0.00     0.163 HD
ATOM     29  O   UNL A   1      35.975  32.556  29.134  1.00  0.00    -0.269 OA
BRANCH  27  30
ATOM     30  C   UNL A   1      36.438  30.279  28.699  1.00  0.00     0.039 A 
ATOM     31  C   UNL A   1      36.774  29.677  29.919  1.00  0.00     0.014 A 
ATOM     32  C   UNL A   1      37.141  29.962  27.540  1.00  0.00     0.014 A 
ATOM     33  C   UNL A   1      37.973  28.985  30.035  1.00  0.00     0.010 A 
ATOM     34  C   UNL A   1      38.368  29.351  27.665  1.00  0.00     0.010 A 
ATOM     35  C   UNL A   1      38.810  28.936  28.926  1.00  0.00    -0.014 A 
BRANCH  35  36
ATOM     36  C   UNL A   1      40.198  28.521  28.968  1.00  0.00     0.031 A 
ATOM     37  C   UNL A   1      40.551  27.114  28.739  1.00  0.00     0.074 A 
ATOM     38  C   UNL A   1      41.154  29.474  29.012  1.00  0.00     0.049 A 
ATOM     39  N   UNL A   1      41.695  26.610  29.048  1.00  0.00    -0.248 NA
ATOM     40  C   UNL A   1      39.626  26.158  28.145  1.00  0.00     0.031 C 
ATOM     41  C   UNL A   1      42.557  29.338  28.642  1.00  0.00     0.029 A 
ATOM     42  N   UNL A   1      41.077  30.744  29.594  1.00  0.00    -0.354 N 
ATOM     43  C   UNL A   1      41.766  25.374  28.450  1.00  0.00     0.074 A 
ATOM     44  C   UNL A   1      40.430  25.105  27.969  1.00  0.00     0.031 C 
ATOM     45  C   UNL A   1      43.254  30.321  29.229  1.00  0.00     0.029 A 
ATOM     46  C   UNL A   1      42.349  31.006  30.133  1.00  0.00     0.049 A 
ATOM     47  H   UNL A   1      40.289  31.334  29.622  1.00  0.00     0.167 HD
ATOM     48  C   UNL A   1      42.987  24.792  28.286  1.00  0.00     0.034 A 
ATOM     49  C   UNL A   1      42.571  31.231  31.462  1.00  0.00     0.034 A 
ATOM     50  C   UNL A   1      44.056  25.637  28.842  1.00  0.00     0.049 A 
ATOM     51  C   UNL A   1      43.514  30.213  32.093  1.00  0.00     0.074 A 
ATOM     52  C   UNL A   1      44.961  26.532  28.292  1.00  0.00     0.029 A 
ATOM     53  N   UNL A   1      44.097  25.848  30.210  1.00  0.00    -0.354 N 
ATOM     54  N   UNL A   1      44.149  29.271  31.449  1.00  0.00    -0.248 NA
ATOM     55  C   UNL A   1      43.727  30.124  33.536  1.00  0.00     0.031 C 
ATOM     56  C   UNL A   1      45.549  27.283  29.352  1.00  0.00     0.029 A 
ATOM     57  C   UNL A   1      45.018  26.831  30.545  1.00  0.00     0.049 A 
ATOM     58  H   UNL A   1      43.544  25.361  30.862  1.00  0.00     0.167 HD
ATOM     59  C   UNL A   1      44.676  28.367  32.344  1.00  0.00     0.074 A 
ATOM     60  C   UNL A   1      44.420  28.978  33.640  1.00  0.00     0.031 C 
ATOM     61  C   UNL A   1      45.199  27.157  31.956  1.00  0.00     0.034 A 
BRANCH  48  62
ATOM     62  C   UNL A   1      43.244  23.621  27.359  1.00  0.00     0.023 A 
ATOM     63  C   UNL A   1      44.090  23.843  26.250  1.00  0.00     0.012 A 
ATOM     64  C   UNL A   1      42.680  22.328  27.465  1.00  0.00     0.148 A 
ATOM     65  C   UNL A   1      44.279  22.891  25.246  1.00  0.00     0.002 A 
ATOM     66  C   UNL A   1      42.808  21.400  26.424  1.00  0.00     0.091 A 
ATOM     67  F   UNL A   1      42.079  21.958  28.602  1.00  0.00    -0.205 F 
ATOM     68  C   UNL A   1      43.605  21.682  25.311  1.00  0.00     0.022 A 
BRANCH  66  69
ATOM     69  S   UNL A   1      41.879  19.857  26.381  1.00  0.00     0.127 S 
ATOM     70  O   UNL A   1      40.499  20.330  26.246  1.00  0.00    -0.237 OA
ATOM     71  O   UNL A   1      42.411  19.198  25.190  1.00  0.00    -0.237 OA
ATOM     72  O   UNL A   1      42.152  19.190  27.649  1.00  0.00    -0.744 OA
ENDBRANCH  66  69
ENDBRANCH  48  62
BRANCH  49  73
ATOM     73  C   UNL A   1      41.412  31.884  32.144  1.00  0.00     0.023 A 
ATOM     74  C   UNL A   1      41.062  33.185  31.708  1.00  0.00     0.012 A 
ATOM     75  C   UNL A   1      40.465  31.134  32.862  1.00  0.00     0.148 A 
ATOM     76  C   UNL A   1      39.759  33.664  31.855  1.00  0.00     0.002 A 
ATOM     77  C   UNL A   1      39.168  31.622  33.008  1.00  0.00     0.091 A 
ATOM     78  F   UNL A   1      40.811  29.922  33.313  1.00  0.00    -0.205 F 
ATOM     79  C   UNL A   1      38.803  32.866  32.471  1.00  0.00     0.022 A 
BRANCH  77  80
ATOM     80  S   UNL A   1      37.878  30.621  33.760  1.00  0.00     0.127 S 
ATOM     81  O   UNL A   1      36.676  31.231  33.202  1.00  0.00    -0.237 OA
ATOM     82  O   UNL A   1      38.181  29.284  33.254  1.00  0.00    -0.237 OA
ATOM     83  O   UNL A   1      38.080  30.776  35.193  1.00  0.00    -0.744 OA
ENDBRANCH  77  80
ENDBRANCH  49  73
BRANCH  61  84
ATOM     84  C   UNL A   1      45.830  26.107  32.875  1.00  0.00     0.023 A 
ATOM     85  C   UNL A   1      47.206  25.814  32.853  1.00  0.00     0.012 A 
ATOM     86  C   UNL A   1      45.049  25.312  33.763  1.00  0.00     0.148 A 
ATOM     87  C   UNL A   1      47.796  24.923  33.761  1.00  0.00     0.002 A 
ATOM     88  C   UNL A   1      45.632  24.431  34.669  1.00  0.00     0.091 A 
ATOM     89  F   UNL A   1      43.714  25.335  33.690  1.00  0.00    -0.205 F 
ATOM     90  C   UNL A   1      47.013  24.256  34.692  1.00  0.00     0.022 A 
BRANCH  88  91
ATOM     91  S   UNL A   1      44.649  23.488  35.845  1.00  0.00     0.127 S 
ATOM     92  O   UNL A   1      43.864  22.634  34.953  1.00  0.00    -0.237 OA
ATOM     93  O   UNL A   1      45.679  22.785  36.610  1.00  0.00    -0.237 OA
ATOM     94  O   UNL A   1      43.894  24.469  36.610  1.00  0.00    -0.744 OA
ENDBRANCH  88  91
ENDBRANCH  61  84
ENDBRANCH  35  36
ENDBRANCH  27  30
ENDBRANCH  25  26
ENDBRANCH  24  25
ENDBRANCH   1  24
TORSDOF 20
ENDMDL
