MODEL 1
REMARK VINA RESULT:     -12.6      0.000      0.000
REMARK SMILES Cc1cc([N+](=O)[O-])ccc1NC(=O)[C@@H]1[C@@H](C(=O)NCCCCCCNC(=O)c2ccc(-c3c4nc(c(-c5cccc(S(=O)(=O)[O-])c5F)c5ccc([nH]5)c(-c5cccc(S(=O)(=O)[O-])c5F)c5nc(c(-c6cccc(S(=O)(=O)[O-])c6F)c6ccc3[nH]6)C=C5)C=C4)cc2)[C@H]2C=C[C@@H]1C2
REMARK SMILES IDX 21 1 20 2 19 3 18 4 16 5 17 6 15 8 14 9 94 10 91 11 93 12
REMARK SMILES IDX 95 13 92 14 12 15 11 16 13 18 10 19 1 20 2 21 3 22 4 23 9 24
REMARK SMILES IDX 8 25 5 26 6 27 7 28 22 29 23 30 24 31 25 32 26 33 27 35
REMARK SMILES IDX 28 36 29 37 90 38 30 39 89 40 31 41 32 42 33 43 83 44 34 45
REMARK SMILES IDX 88 46 82 47 84 48 35 49 87 50 81 51 80 52 36 54 68 55 48 56
REMARK SMILES IDX 67 57 49 58 52 59 66 60 85 61 50 62 51 63 65 65 86 66 53 67
REMARK SMILES IDX 37 68 38 69 46 70 39 71 41 72 47 73 40 74 42 75 43 76 44 77
REMARK SMILES IDX 45 78 69 79 70 80 78 81 71 82 73 83 79 84 72 85 74 86 75 87
REMARK SMILES IDX 76 88 77 89 54 90 55 91 63 92 56 93 58 94 64 95 57 96 59 97
REMARK SMILES IDX 60 98 61 99 62 100
REMARK H PARENT 18 7 11 17 25 34 84 53 52 64
REMARK Flexibility Score: inf
ROOT
ATOM      1  C   UNL A   1      38.817  21.052  25.388  1.00  0.00     0.002 C 
ENDROOT
BRANCH   1   2
ATOM      2  C   UNL A   1      37.350  21.495  25.335  1.00  0.00     0.021 C 
BRANCH   2   3
ATOM      3  C   UNL A   1      36.981  22.561  24.309  1.00  0.00     0.116 C 
BRANCH   3   4
ATOM      4  N   UNL A   1      36.303  23.699  24.885  1.00  0.00    -0.356 N 
ATOM      5  C   UNL A   1      35.079  24.212  24.590  1.00  0.00     0.224 C 
ATOM      6  O   UNL A   1      34.710  25.186  25.252  1.00  0.00    -0.275 OA
ATOM      7  H   UNL A   1      36.799  24.170  25.592  1.00  0.00     0.163 HD
BRANCH   5   8
ATOM      8  C   UNL A   1      34.249  23.649  23.436  1.00  0.00     0.098 C 
ATOM      9  C   UNL A   1      33.003  24.578  23.152  1.00  0.00     0.099 C 
ATOM     10  C   UNL A   1      31.823  23.571  23.150  1.00  0.00     0.025 C 
ATOM     11  C   UNL A   1      33.560  22.282  23.694  1.00  0.00     0.025 C 
ATOM     12  C   UNL A   1      31.617  23.135  24.583  1.00  0.00    -0.027 C 
ATOM     13  C   UNL A   1      32.480  22.302  22.610  1.00  0.00     0.017 C 
ATOM     14  C   UNL A   1      32.667  22.369  24.912  1.00  0.00    -0.027 C 
BRANCH   9  15
ATOM     15  C   UNL A   1      33.060  25.386  21.871  1.00  0.00     0.228 C 
ATOM     16  N   UNL A   1      32.983  26.758  21.880  1.00  0.00    -0.326 N 
ATOM     17  H   UNL A   1      33.030  27.154  20.980  1.00  0.00     0.169 HD
ATOM     18  O   UNL A   1      33.127  24.839  20.767  1.00  0.00    -0.274 OA
BRANCH  16  19
ATOM     19  C   UNL A   1      32.850  27.720  22.907  1.00  0.00     0.044 A 
ATOM     20  C   UNL A   1      30.318  27.949  22.428  1.00  0.00     0.047 C 
ATOM     21  C   UNL A   1      31.567  28.220  23.228  1.00  0.00    -0.021 A 
ATOM     22  C   UNL A   1      31.408  29.044  24.366  1.00  0.00     0.091 A 
ATOM     23  C   UNL A   1      32.507  29.386  25.159  1.00  0.00     0.269 A 
ATOM     24  C   UNL A   1      33.942  28.191  23.649  1.00  0.00     0.033 A 
ATOM     25  C   UNL A   1      33.784  28.990  24.784  1.00  0.00     0.088 A 
BRANCH  23  26
ATOM     26  N   UNL A   1      32.324  30.170  26.384  1.00  0.00     0.062 N 
ATOM     27  O   UNL A   1      31.551  31.137  26.339  1.00  0.00    -0.258 OA
ATOM     28  O   UNL A   1      32.943  29.811  27.396  1.00  0.00    -0.258 OA
ENDBRANCH  23  26
ENDBRANCH  16  19
ENDBRANCH   9  15
ENDBRANCH   5   8
ENDBRANCH   3   4
ENDBRANCH   2   3
ENDBRANCH   1   2
BRANCH   1  29
ATOM     29  C   UNL A   1      39.764  21.796  26.340  1.00  0.00     0.002 C 
BRANCH  29  30
ATOM     30  C   UNL A   1      41.238  21.877  25.948  1.00  0.00     0.021 C 
BRANCH  30  31
ATOM     31  C   UNL A   1      42.099  20.711  26.405  1.00  0.00     0.116 C 
BRANCH  31  32
ATOM     32  N   UNL A   1      43.017  20.188  25.410  1.00  0.00    -0.352 N 
ATOM     33  C   UNL A   1      44.037  20.856  24.749  1.00  0.00     0.251 C 
ATOM     34  H   UNL A   1      42.900  19.240  25.175  1.00  0.00     0.163 HD
ATOM     35  O   UNL A   1      44.557  20.336  23.766  1.00  0.00    -0.269 OA
BRANCH  33  36
ATOM     36  C   UNL A   1      44.557  22.131  25.309  1.00  0.00     0.039 A 
ATOM     37  C   UNL A   1      45.051  22.120  26.619  1.00  0.00     0.014 A 
ATOM     38  C   UNL A   1      44.340  23.343  24.660  1.00  0.00     0.014 A 
ATOM     39  C   UNL A   1      45.077  23.303  27.355  1.00  0.00     0.010 A 
ATOM     40  C   UNL A   1      44.259  24.495  25.411  1.00  0.00     0.010 A 
ATOM     41  C   UNL A   1      44.571  24.458  26.772  1.00  0.00    -0.014 A 
BRANCH  41  42
ATOM     42  C   UNL A   1      44.332  25.703  27.477  1.00  0.00     0.031 A 
ATOM     43  C   UNL A   1      42.981  26.285  27.483  1.00  0.00     0.074 A 
ATOM     44  C   UNL A   1      45.306  26.224  28.255  1.00  0.00     0.049 A 
ATOM     45  N   UNL A   1      42.743  27.533  27.684  1.00  0.00    -0.248 NA
ATOM     46  C   UNL A   1      41.786  25.490  27.235  1.00  0.00     0.031 C 
ATOM     47  C   UNL A   1      45.146  27.210  29.315  1.00  0.00     0.029 A 
ATOM     48  N   UNL A   1      46.690  26.099  28.105  1.00  0.00    -0.354 N 
ATOM     49  C   UNL A   1      41.382  27.666  27.859  1.00  0.00     0.074 A 
ATOM     50  C   UNL A   1      40.825  26.386  27.486  1.00  0.00     0.031 C 
ATOM     51  C   UNL A   1      46.329  27.799  29.539  1.00  0.00     0.029 A 
ATOM     52  C   UNL A   1      47.246  27.323  28.518  1.00  0.00     0.049 A 
ATOM     53  H   UNL A   1      47.179  25.311  27.776  1.00  0.00     0.167 HD
ATOM     54  C   UNL A   1      40.898  28.789  28.460  1.00  0.00     0.034 A 
ATOM     55  C   UNL A   1      48.041  28.109  27.737  1.00  0.00     0.034 A 
ATOM     56  C   UNL A   1      41.995  29.684  28.848  1.00  0.00     0.049 A 
ATOM     57  C   UNL A   1      47.490  29.509  27.552  1.00  0.00     0.074 A 
ATOM     58  C   UNL A   1      42.679  29.846  30.042  1.00  0.00     0.029 A 
ATOM     59  N   UNL A   1      42.719  30.364  27.880  1.00  0.00    -0.354 N 
ATOM     60  N   UNL A   1      46.302  29.881  27.937  1.00  0.00    -0.248 NA
ATOM     61  C   UNL A   1      48.216  30.594  26.899  1.00  0.00     0.031 C 
ATOM     62  C   UNL A   1      43.846  30.605  29.781  1.00  0.00     0.029 A 
ATOM     63  C   UNL A   1      43.861  30.924  28.433  1.00  0.00     0.049 A 
ATOM     64  H   UNL A   1      42.459  30.438  26.933  1.00  0.00     0.167 HD
ATOM     65  C   UNL A   1      46.037  31.154  27.496  1.00  0.00     0.074 A 
ATOM     66  C   UNL A   1      47.300  31.580  26.918  1.00  0.00     0.031 C 
ATOM     67  C   UNL A   1      44.783  31.702  27.610  1.00  0.00     0.034 A 
BRANCH  54  68
ATOM     68  C   UNL A   1      39.494  28.945  29.017  1.00  0.00     0.023 A 
ATOM     69  C   UNL A   1      38.448  29.122  28.080  1.00  0.00     0.012 A 
ATOM     70  C   UNL A   1      39.116  28.978  30.378  1.00  0.00     0.148 A 
ATOM     71  C   UNL A   1      37.140  29.433  28.457  1.00  0.00     0.002 A 
ATOM     72  C   UNL A   1      37.822  29.352  30.758  1.00  0.00     0.091 A 
ATOM     73  F   UNL A   1      39.980  28.572  31.315  1.00  0.00    -0.205 F 
ATOM     74  C   UNL A   1      36.833  29.586  29.798  1.00  0.00     0.022 A 
BRANCH  72  75
ATOM     75  S   UNL A   1      37.361  29.648  32.475  1.00  0.00     0.127 S 
ATOM     76  O   UNL A   1      38.426  30.546  32.930  1.00  0.00    -0.237 OA
ATOM     77  O   UNL A   1      36.050  30.280  32.346  1.00  0.00    -0.237 OA
ATOM     78  O   UNL A   1      37.372  28.343  33.125  1.00  0.00    -0.744 OA
ENDBRANCH  72  75
ENDBRANCH  54  68
BRANCH  55  79
ATOM     79  C   UNL A   1      48.831  27.343  26.731  1.00  0.00     0.023 A 
ATOM     80  C   UNL A   1      48.336  27.349  25.405  1.00  0.00     0.012 A 
ATOM     81  C   UNL A   1      50.182  27.030  26.953  1.00  0.00     0.148 A 
ATOM     82  C   UNL A   1      49.199  27.207  24.318  1.00  0.00     0.002 A 
ATOM     83  C   UNL A   1      51.038  26.892  25.862  1.00  0.00     0.091 A 
ATOM     84  F   UNL A   1      50.627  26.968  28.214  1.00  0.00    -0.205 F 
ATOM     85  C   UNL A   1      50.557  27.021  24.549  1.00  0.00     0.022 A 
BRANCH  83  86
ATOM     86  S   UNL A   1      52.812  26.702  26.085  1.00  0.00     0.127 S 
ATOM     87  O   UNL A   1      53.159  27.950  26.756  1.00  0.00    -0.237 OA
ATOM     88  O   UNL A   1      52.896  25.509  26.926  1.00  0.00    -0.237 OA
ATOM     89  O   UNL A   1      53.336  26.521  24.739  1.00  0.00    -0.744 OA
ENDBRANCH  83  86
ENDBRANCH  55  79
BRANCH  67  90
ATOM     90  C   UNL A   1      44.281  32.999  26.983  1.00  0.00     0.023 A 
ATOM     91  C   UNL A   1      44.148  33.176  25.594  1.00  0.00     0.012 A 
ATOM     92  C   UNL A   1      43.805  34.069  27.794  1.00  0.00     0.148 A 
ATOM     93  C   UNL A   1      43.613  34.346  25.036  1.00  0.00     0.002 A 
ATOM     94  C   UNL A   1      43.172  35.179  27.239  1.00  0.00     0.091 A 
ATOM     95  F   UNL A   1      43.992  34.045  29.121  1.00  0.00    -0.205 F 
ATOM     96  C   UNL A   1      43.099  35.336  25.857  1.00  0.00     0.022 A 
BRANCH  94  97
ATOM     97  S   UNL A   1      42.301  36.369  28.273  1.00  0.00     0.127 S 
ATOM     98  O   UNL A   1      43.330  36.738  29.243  1.00  0.00    -0.237 OA
ATOM     99  O   UNL A   1      41.960  37.423  27.316  1.00  0.00    -0.237 OA
ATOM    100  O   UNL A   1      41.150  35.646  28.796  1.00  0.00    -0.744 OA
ENDBRANCH  94  97
ENDBRANCH  67  90
ENDBRANCH  41  42
ENDBRANCH  33  36
ENDBRANCH  31  32
ENDBRANCH  30  31
ENDBRANCH  29  30
ENDBRANCH   1  29
TORSDOF 19
ENDMDL
MODEL 2
REMARK VINA RESULT:     -12.5      3.548      4.939
REMARK SMILES Cc1cc([N+](=O)[O-])ccc1NC(=O)[C@@H]1[C@@H](C(=O)NCCCCCCNC(=O)c2ccc(-c3c4nc(c(-c5cccc(S(=O)(=O)[O-])c5F)c5ccc([nH]5)c(-c5cccc(S(=O)(=O)[O-])c5F)c5nc(c(-c6cccc(S(=O)(=O)[O-])c6F)c6ccc3[nH]6)C=C5)C=C4)cc2)[C@H]2C=C[C@@H]1C2
REMARK SMILES IDX 21 1 20 2 19 3 18 4 16 5 17 6 15 8 14 9 94 10 91 11 93 12
REMARK SMILES IDX 95 13 92 14 12 15 11 16 13 18 10 19 1 20 2 21 3 22 4 23 9 24
REMARK SMILES IDX 8 25 5 26 6 27 7 28 22 29 23 30 24 31 25 32 26 33 27 35
REMARK SMILES IDX 28 36 29 37 90 38 30 39 89 40 31 41 32 42 33 43 83 44 34 45
REMARK SMILES IDX 88 46 82 47 84 48 35 49 87 50 81 51 80 52 36 54 68 55 48 56
REMARK SMILES IDX 67 57 49 58 52 59 66 60 85 61 50 62 51 63 65 65 86 66 53 67
REMARK SMILES IDX 37 68 38 69 46 70 39 71 41 72 47 73 40 74 42 75 43 76 44 77
REMARK SMILES IDX 45 78 69 79 70 80 78 81 71 82 73 83 79 84 72 85 74 86 75 87
REMARK SMILES IDX 76 88 77 89 54 90 55 91 63 92 56 93 58 94 64 95 57 96 59 97
REMARK SMILES IDX 60 98 61 99 62 100
REMARK H PARENT 18 7 11 17 25 34 84 53 52 64
REMARK Flexibility Score: inf
ROOT
ATOM      1  C   UNL A   1      35.413  19.673  25.003  1.00  0.00     0.002 C 
ENDROOT
BRANCH   1   2
ATOM      2  C   UNL A   1      33.883  19.613  25.084  1.00  0.00     0.021 C 
BRANCH   2   3
ATOM      3  C   UNL A   1      33.099  20.270  23.953  1.00  0.00     0.116 C 
BRANCH   3   4
ATOM      4  N   UNL A   1      31.972  21.046  24.413  1.00  0.00    -0.356 N 
ATOM      5  C   UNL A   1      31.869  22.389  24.598  1.00  0.00     0.224 C 
ATOM      6  O   UNL A   1      30.775  22.817  24.977  1.00  0.00    -0.275 OA
ATOM      7  H   UNL A   1      31.161  20.529  24.622  1.00  0.00     0.163 HD
BRANCH   5   8
ATOM      8  C   UNL A   1      33.083  23.302  24.422  1.00  0.00     0.098 C 
ATOM      9  C   UNL A   1      32.620  24.774  24.086  1.00  0.00     0.099 C 
ATOM     10  C   UNL A   1      33.456  25.114  22.825  1.00  0.00     0.025 C 
ATOM     11  C   UNL A   1      34.004  22.986  23.212  1.00  0.00     0.025 C 
ATOM     12  C   UNL A   1      32.885  24.297  21.688  1.00  0.00    -0.027 C 
ATOM     13  C   UNL A   1      34.739  24.320  23.063  1.00  0.00     0.017 C 
ATOM     14  C   UNL A   1      33.206  23.018  21.927  1.00  0.00    -0.027 C 
BRANCH   9  15
ATOM     15  C   UNL A   1      32.816  25.796  25.188  1.00  0.00     0.228 C 
ATOM     16  N   UNL A   1      32.149  26.997  25.187  1.00  0.00    -0.326 N 
ATOM     17  H   UNL A   1      32.372  27.564  25.959  1.00  0.00     0.169 HD
ATOM     18  O   UNL A   1      33.622  25.607  26.104  1.00  0.00    -0.274 OA
BRANCH  16  19
ATOM     19  C   UNL A   1      31.211  27.589  24.311  1.00  0.00     0.044 A 
ATOM     20  C   UNL A   1      29.376  25.939  25.087  1.00  0.00     0.047 C 
ATOM     21  C   UNL A   1      29.868  27.146  24.329  1.00  0.00    -0.021 A 
ATOM     22  C   UNL A   1      28.894  27.851  23.586  1.00  0.00     0.091 A 
ATOM     23  C   UNL A   1      29.249  28.965  22.819  1.00  0.00     0.269 A 
ATOM     24  C   UNL A   1      31.548  28.626  23.430  1.00  0.00     0.033 A 
ATOM     25  C   UNL A   1      30.583  29.336  22.711  1.00  0.00     0.088 A 
BRANCH  23  26
ATOM     26  N   UNL A   1      28.223  29.743  22.120  1.00  0.00     0.062 N 
ATOM     27  O   UNL A   1      28.490  30.159  20.983  1.00  0.00    -0.258 OA
ATOM     28  O   UNL A   1      27.144  29.929  22.701  1.00  0.00    -0.258 OA
ENDBRANCH  23  26
ENDBRANCH  16  19
ENDBRANCH   9  15
ENDBRANCH   5   8
ENDBRANCH   3   4
ENDBRANCH   2   3
ENDBRANCH   1   2
BRANCH   1  29
ATOM     29  C   UNL A   1      36.086  21.053  25.036  1.00  0.00     0.002 C 
BRANCH  29  30
ATOM     30  C   UNL A   1      37.610  21.096  24.944  1.00  0.00     0.021 C 
BRANCH  30  31
ATOM     31  C   UNL A   1      38.271  22.278  25.633  1.00  0.00     0.116 C 
BRANCH  31  32
ATOM     32  N   UNL A   1      39.691  22.129  25.894  1.00  0.00    -0.352 N 
ATOM     33  C   UNL A   1      40.614  23.117  26.206  1.00  0.00     0.251 C 
ATOM     34  H   UNL A   1      40.043  21.212  25.844  1.00  0.00     0.163 HD
ATOM     35  O   UNL A   1      41.813  22.856  26.157  1.00  0.00    -0.269 OA
BRANCH  33  36
ATOM     36  C   UNL A   1      40.134  24.432  26.704  1.00  0.00     0.039 A 
ATOM     37  C   UNL A   1      40.664  25.590  26.121  1.00  0.00     0.014 A 
ATOM     38  C   UNL A   1      39.376  24.528  27.868  1.00  0.00     0.014 A 
ATOM     39  C   UNL A   1      40.657  26.786  26.834  1.00  0.00     0.010 A 
ATOM     40  C   UNL A   1      39.461  25.675  28.625  1.00  0.00     0.010 A 
ATOM     41  C   UNL A   1      40.152  26.783  28.130  1.00  0.00    -0.014 A 
BRANCH  41  42
ATOM     42  C   UNL A   1      40.273  27.884  29.066  1.00  0.00     0.031 A 
ATOM     43  C   UNL A   1      39.315  29.000  29.000  1.00  0.00     0.074 A 
ATOM     44  C   UNL A   1      41.153  27.796  30.087  1.00  0.00     0.049 A 
ATOM     45  N   UNL A   1      39.561  30.179  29.453  1.00  0.00    -0.248 NA
ATOM     46  C   UNL A   1      38.001  28.867  28.386  1.00  0.00     0.031 C 
ATOM     47  C   UNL A   1      41.151  28.581  31.314  1.00  0.00     0.029 A 
ATOM     48  N   UNL A   1      42.358  27.090  30.129  1.00  0.00    -0.354 N 
ATOM     49  C   UNL A   1      38.373  30.877  29.441  1.00  0.00     0.074 A 
ATOM     50  C   UNL A   1      37.456  30.050  28.691  1.00  0.00     0.031 C 
ATOM     51  C   UNL A   1      42.378  28.541  31.853  1.00  0.00     0.029 A 
ATOM     52  C   UNL A   1      43.242  27.863  30.903  1.00  0.00     0.049 A 
ATOM     53  H   UNL A   1      42.550  26.225  29.702  1.00  0.00     0.167 HD
ATOM     54  C   UNL A   1      38.253  31.995  30.209  1.00  0.00     0.034 A 
ATOM     55  C   UNL A   1      44.452  28.318  30.466  1.00  0.00     0.034 A 
ATOM     56  C   UNL A   1      39.488  32.239  30.966  1.00  0.00     0.049 A 
ATOM     57  C   UNL A   1      44.577  29.826  30.537  1.00  0.00     0.074 A 
ATOM     58  C   UNL A   1      39.866  31.901  32.254  1.00  0.00     0.029 A 
ATOM     59  N   UNL A   1      40.637  32.659  30.312  1.00  0.00    -0.354 N 
ATOM     60  N   UNL A   1      43.586  30.628  30.810  1.00  0.00    -0.248 NA
ATOM     61  C   UNL A   1      45.815  30.557  30.283  1.00  0.00     0.031 C 
ATOM     62  C   UNL A   1      41.265  32.090  32.367  1.00  0.00     0.029 A 
ATOM     63  C   UNL A   1      41.736  32.563  31.154  1.00  0.00     0.049 A 
ATOM     64  H   UNL A   1      40.669  32.980  29.382  1.00  0.00     0.167 HD
ATOM     65  C   UNL A   1      43.975  31.935  30.650  1.00  0.00     0.074 A 
ATOM     66  C   UNL A   1      45.402  31.833  30.394  1.00  0.00     0.031 C 
ATOM     67  C   UNL A   1      43.063  32.960  30.694  1.00  0.00     0.034 A 
BRANCH  54  68
ATOM     68  C   UNL A   1      36.943  32.677  30.561  1.00  0.00     0.023 A 
ATOM     69  C   UNL A   1      36.461  32.498  31.880  1.00  0.00     0.012 A 
ATOM     70  C   UNL A   1      36.122  33.439  29.702  1.00  0.00     0.148 A 
ATOM     71  C   UNL A   1      35.200  32.935  32.290  1.00  0.00     0.002 A 
ATOM     72  C   UNL A   1      34.833  33.823  30.089  1.00  0.00     0.091 A 
ATOM     73  F   UNL A   1      36.607  33.870  28.532  1.00  0.00    -0.205 F 
ATOM     74  C   UNL A   1      34.367  33.566  31.383  1.00  0.00     0.022 A 
BRANCH  72  75
ATOM     75  S   UNL A   1      33.659  34.578  28.948  1.00  0.00     0.127 S 
ATOM     76  O   UNL A   1      34.432  35.701  28.409  1.00  0.00    -0.237 OA
ATOM     77  O   UNL A   1      33.409  33.501  27.993  1.00  0.00    -0.237 OA
ATOM     78  O   UNL A   1      32.516  34.983  29.757  1.00  0.00    -0.744 OA
ENDBRANCH  72  75
ENDBRANCH  54  68
BRANCH  55  79
ATOM     79  C   UNL A   1      45.083  27.437  29.442  1.00  0.00     0.023 A 
ATOM     80  C   UNL A   1      45.432  26.131  29.863  1.00  0.00     0.012 A 
ATOM     81  C   UNL A   1      44.930  27.692  28.070  1.00  0.00     0.148 A 
ATOM     82  C   UNL A   1      45.467  25.072  28.957  1.00  0.00     0.002 A 
ATOM     83  C   UNL A   1      44.964  26.628  27.170  1.00  0.00     0.091 A 
ATOM     84  F   UNL A   1      44.659  28.942  27.676  1.00  0.00    -0.205 F 
ATOM     85  C   UNL A   1      45.191  25.316  27.617  1.00  0.00     0.022 A 
BRANCH  83  86
ATOM     86  S   UNL A   1      44.565  26.861  25.433  1.00  0.00     0.127 S 
ATOM     87  O   UNL A   1      44.030  25.551  25.076  1.00  0.00    -0.237 OA
ATOM     88  O   UNL A   1      43.576  27.936  25.479  1.00  0.00    -0.237 OA
ATOM     89  O   UNL A   1      45.827  27.237  24.812  1.00  0.00    -0.744 OA
ENDBRANCH  83  86
ENDBRANCH  55  79
BRANCH  67  90
ATOM     90  C   UNL A   1      43.298  34.422  30.324  1.00  0.00     0.023 A 
ATOM     91  C   UNL A   1      43.544  35.424  31.279  1.00  0.00     0.012 A 
ATOM     92  C   UNL A   1      43.396  34.826  28.960  1.00  0.00     0.148 A 
ATOM     93  C   UNL A   1      43.834  36.748  30.919  1.00  0.00     0.002 A 
ATOM     94  C   UNL A   1      43.795  36.113  28.608  1.00  0.00     0.091 A 
ATOM     95  F   UNL A   1      43.069  33.974  27.979  1.00  0.00    -0.205 F 
ATOM     96  C   UNL A   1      43.987  37.087  29.585  1.00  0.00     0.022 A 
BRANCH  94  97
ATOM     97  S   UNL A   1      44.218  36.525  26.906  1.00  0.00     0.127 S 
ATOM     98  O   UNL A   1      42.914  36.477  26.250  1.00  0.00    -0.237 OA
ATOM     99  O   UNL A   1      44.782  37.870  27.043  1.00  0.00    -0.237 OA
ATOM    100  O   UNL A   1      45.184  35.514  26.501  1.00  0.00    -0.744 OA
ENDBRANCH  94  97
ENDBRANCH  67  90
ENDBRANCH  41  42
ENDBRANCH  33  36
ENDBRANCH  31  32
ENDBRANCH  30  31
ENDBRANCH  29  30
ENDBRANCH   1  29
TORSDOF 19
ENDMDL
MODEL 3
REMARK VINA RESULT:     -12.4      3.612      4.994
REMARK SMILES Cc1cc([N+](=O)[O-])ccc1NC(=O)[C@@H]1[C@@H](C(=O)NCCCCCCNC(=O)c2ccc(-c3c4nc(c(-c5cccc(S(=O)(=O)[O-])c5F)c5ccc([nH]5)c(-c5cccc(S(=O)(=O)[O-])c5F)c5nc(c(-c6cccc(S(=O)(=O)[O-])c6F)c6ccc3[nH]6)C=C5)C=C4)cc2)[C@H]2C=C[C@@H]1C2
REMARK SMILES IDX 21 1 20 2 19 3 18 4 16 5 17 6 15 8 14 9 94 10 91 11 93 12
REMARK SMILES IDX 95 13 92 14 12 15 11 16 13 18 10 19 1 20 2 21 3 22 4 23 9 24
REMARK SMILES IDX 8 25 5 26 6 27 7 28 22 29 23 30 24 31 25 32 26 33 27 35
REMARK SMILES IDX 28 36 29 37 90 38 30 39 89 40 31 41 32 42 33 43 83 44 34 45
REMARK SMILES IDX 88 46 82 47 84 48 35 49 87 50 81 51 80 52 36 54 68 55 48 56
REMARK SMILES IDX 67 57 49 58 52 59 66 60 85 61 50 62 51 63 65 65 86 66 53 67
REMARK SMILES IDX 37 68 38 69 46 70 39 71 41 72 47 73 40 74 42 75 43 76 44 77
REMARK SMILES IDX 45 78 69 79 70 80 78 81 71 82 73 83 79 84 72 85 74 86 75 87
REMARK SMILES IDX 76 88 77 89 54 90 55 91 63 92 56 93 58 94 64 95 57 96 59 97
REMARK SMILES IDX 60 98 61 99 62 100
REMARK H PARENT 18 7 11 17 25 34 84 53 52 64
REMARK Flexibility Score: inf
ROOT
ATOM      1  C   UNL A   1      35.230  19.984  24.620  1.00  0.00     0.002 C 
ENDROOT
BRANCH   1   2
ATOM      2  C   UNL A   1      33.995  19.568  25.430  1.00  0.00     0.021 C 
BRANCH   2   3
ATOM      3  C   UNL A   1      32.656  20.170  25.017  1.00  0.00     0.116 C 
BRANCH   3   4
ATOM      4  N   UNL A   1      32.160  21.156  25.948  1.00  0.00    -0.356 N 
ATOM      5  C   UNL A   1      32.173  22.512  25.855  1.00  0.00     0.224 C 
ATOM      6  O   UNL A   1      31.655  23.139  26.783  1.00  0.00    -0.275 OA
ATOM      7  H   UNL A   1      31.754  20.794  26.768  1.00  0.00     0.163 HD
BRANCH   5   8
ATOM      8  C   UNL A   1      32.873  23.213  24.690  1.00  0.00     0.098 C 
ATOM      9  C   UNL A   1      32.558  24.761  24.710  1.00  0.00     0.099 C 
ATOM     10  C   UNL A   1      32.085  25.029  23.258  1.00  0.00     0.025 C 
ATOM     11  C   UNL A   1      32.392  22.820  23.268  1.00  0.00     0.025 C 
ATOM     12  C   UNL A   1      30.720  24.394  23.118  1.00  0.00    -0.027 C 
ATOM     13  C   UNL A   1      32.900  24.015  22.458  1.00  0.00     0.017 C 
ATOM     14  C   UNL A   1      30.904  23.066  23.134  1.00  0.00    -0.027 C 
BRANCH   9  15
ATOM     15  C   UNL A   1      33.709  25.664  25.108  1.00  0.00     0.228 C 
ATOM     16  N   UNL A   1      33.656  27.024  24.921  1.00  0.00    -0.326 N 
ATOM     17  H   UNL A   1      34.471  27.488  25.221  1.00  0.00     0.169 HD
ATOM     18  O   UNL A   1      34.757  25.205  25.569  1.00  0.00    -0.274 OA
BRANCH  16  19
ATOM     19  C   UNL A   1      32.681  27.898  24.388  1.00  0.00     0.044 A 
ATOM     20  C   UNL A   1      34.061  28.193  22.221  1.00  0.00     0.047 C 
ATOM     21  C   UNL A   1      32.829  28.381  23.068  1.00  0.00    -0.021 A 
ATOM     22  C   UNL A   1      31.772  29.109  22.473  1.00  0.00     0.091 A 
ATOM     23  C   UNL A   1      30.597  29.371  23.183  1.00  0.00     0.269 A 
ATOM     24  C   UNL A   1      31.545  28.293  25.109  1.00  0.00     0.033 A 
ATOM     25  C   UNL A   1      30.492  28.994  24.515  1.00  0.00     0.088 A 
BRANCH  23  26
ATOM     26  N   UNL A   1      29.473  30.050  22.533  1.00  0.00     0.062 N 
ATOM     27  O   UNL A   1      28.880  29.446  21.628  1.00  0.00    -0.258 OA
ATOM     28  O   UNL A   1      29.173  31.184  22.935  1.00  0.00    -0.258 OA
ENDBRANCH  23  26
ENDBRANCH  16  19
ENDBRANCH   9  15
ENDBRANCH   5   8
ENDBRANCH   3   4
ENDBRANCH   2   3
ENDBRANCH   1   2
BRANCH   1  29
ATOM     29  C   UNL A   1      35.951  21.280  25.015  1.00  0.00     0.002 C 
BRANCH  29  30
ATOM     30  C   UNL A   1      37.470  21.225  25.162  1.00  0.00     0.021 C 
BRANCH  30  31
ATOM     31  C   UNL A   1      38.117  22.484  25.715  1.00  0.00     0.116 C 
BRANCH  31  32
ATOM     32  N   UNL A   1      39.381  22.283  26.401  1.00  0.00    -0.352 N 
ATOM     33  C   UNL A   1      40.251  23.243  26.894  1.00  0.00     0.251 C 
ATOM     34  H   UNL A   1      39.654  21.346  26.531  1.00  0.00     0.163 HD
ATOM     35  O   UNL A   1      41.386  22.911  27.228  1.00  0.00    -0.269 OA
BRANCH  33  36
ATOM     36  C   UNL A   1      39.759  24.627  27.119  1.00  0.00     0.039 A 
ATOM     37  C   UNL A   1      40.361  25.665  26.398  1.00  0.00     0.014 A 
ATOM     38  C   UNL A   1      38.907  24.924  28.180  1.00  0.00     0.014 A 
ATOM     39  C   UNL A   1      40.318  26.965  26.896  1.00  0.00     0.010 A 
ATOM     40  C   UNL A   1      38.951  26.182  28.737  1.00  0.00     0.010 A 
ATOM     41  C   UNL A   1      39.705  27.185  28.125  1.00  0.00    -0.014 A 
BRANCH  41  42
ATOM     42  C   UNL A   1      39.769  28.429  28.868  1.00  0.00     0.031 A 
ATOM     43  C   UNL A   1      38.756  29.469  28.630  1.00  0.00     0.074 A 
ATOM     44  C   UNL A   1      40.652  28.552  29.883  1.00  0.00     0.049 A 
ATOM     45  N   UNL A   1      38.941  30.717  28.884  1.00  0.00    -0.248 NA
ATOM     46  C   UNL A   1      37.450  29.172  28.056  1.00  0.00     0.031 C 
ATOM     47  C   UNL A   1      40.610  29.525  30.966  1.00  0.00     0.029 A 
ATOM     48  N   UNL A   1      41.892  27.925  30.030  1.00  0.00    -0.354 N 
ATOM     49  C   UNL A   1      37.718  31.343  28.767  1.00  0.00     0.074 A 
ATOM     50  C   UNL A   1      36.845  30.359  28.169  1.00  0.00     0.031 C 
ATOM     51  C   UNL A   1      41.837  29.635  31.494  1.00  0.00     0.029 A 
ATOM     52  C   UNL A   1      42.735  28.856  30.661  1.00  0.00     0.049 A 
ATOM     53  H   UNL A   1      42.128  27.012  29.747  1.00  0.00     0.167 HD
ATOM     54  C   UNL A   1      37.542  32.564  29.345  1.00  0.00     0.034 A 
ATOM     55  C   UNL A   1      43.920  29.294  30.146  1.00  0.00     0.034 A 
ATOM     56  C   UNL A   1      38.762  32.990  30.042  1.00  0.00     0.049 A 
ATOM     57  C   UNL A   1      43.968  30.799  29.970  1.00  0.00     0.074 A 
ATOM     58  C   UNL A   1      39.156  32.885  31.366  1.00  0.00     0.029 A 
ATOM     59  N   UNL A   1      39.889  33.355  29.320  1.00  0.00    -0.354 N 
ATOM     60  N   UNL A   1      42.938  31.583  30.117  1.00  0.00    -0.248 NA
ATOM     61  C   UNL A   1      45.167  31.540  29.591  1.00  0.00     0.031 C 
ATOM     62  C   UNL A   1      40.544  33.160  31.435  1.00  0.00     0.029 A 
ATOM     63  C   UNL A   1      40.990  33.452  30.157  1.00  0.00     0.049 A 
ATOM     64  H   UNL A   1      39.905  33.522  28.349  1.00  0.00     0.167 HD
ATOM     65  C   UNL A   1      43.259  32.865  29.744  1.00  0.00     0.074 A 
ATOM     66  C   UNL A   1      44.689  32.794  29.496  1.00  0.00     0.031 C 
ATOM     67  C   UNL A   1      42.296  33.836  29.628  1.00  0.00     0.034 A 
BRANCH  54  68
ATOM     68  C   UNL A   1      36.199  33.227  29.593  1.00  0.00     0.023 A 
ATOM     69  C   UNL A   1      35.556  33.812  28.476  1.00  0.00     0.012 A 
ATOM     70  C   UNL A   1      35.533  33.365  30.830  1.00  0.00     0.148 A 
ATOM     71  C   UNL A   1      34.400  34.586  28.588  1.00  0.00     0.002 A 
ATOM     72  C   UNL A   1      34.410  34.192  30.957  1.00  0.00     0.091 A 
ATOM     73  F   UNL A   1      35.928  32.637  31.880  1.00  0.00    -0.205 F 
ATOM     74  C   UNL A   1      33.846  34.810  29.836  1.00  0.00     0.022 A 
BRANCH  72  75
ATOM     75  S   UNL A   1      33.676  34.596  32.552  1.00  0.00     0.127 S 
ATOM     76  O   UNL A   1      34.723  35.409  33.177  1.00  0.00    -0.237 OA
ATOM     77  O   UNL A   1      32.478  35.340  32.170  1.00  0.00    -0.237 OA
ATOM     78  O   UNL A   1      33.441  33.322  33.221  1.00  0.00    -0.744 OA
ENDBRANCH  72  75
ENDBRANCH  54  68
BRANCH  55  79
ATOM     79  C   UNL A   1      44.596  28.292  29.274  1.00  0.00     0.023 A 
ATOM     80  C   UNL A   1      44.943  27.061  29.881  1.00  0.00     0.012 A 
ATOM     81  C   UNL A   1      44.488  28.355  27.875  1.00  0.00     0.148 A 
ATOM     82  C   UNL A   1      45.021  25.889  29.129  1.00  0.00     0.002 A 
ATOM     83  C   UNL A   1      44.564  27.179  27.131  1.00  0.00     0.091 A 
ATOM     84  F   UNL A   1      44.218  29.536  27.305  1.00  0.00    -0.205 F 
ATOM     85  C   UNL A   1      44.789  25.943  27.760  1.00  0.00     0.022 A 
BRANCH  83  86
ATOM     86  S   UNL A   1      44.224  27.166  25.366  1.00  0.00     0.127 S 
ATOM     87  O   UNL A   1      43.045  28.023  25.288  1.00  0.00    -0.237 OA
ATOM     88  O   UNL A   1      45.443  27.747  24.807  1.00  0.00    -0.237 OA
ATOM     89  O   UNL A   1      44.027  25.762  25.038  1.00  0.00    -0.744 OA
ENDBRANCH  83  86
ENDBRANCH  55  79
BRANCH  67  90
ATOM     90  C   UNL A   1      42.456  35.228  29.024  1.00  0.00     0.023 A 
ATOM     91  C   UNL A   1      41.769  35.645  27.870  1.00  0.00     0.012 A 
ATOM     92  C   UNL A   1      43.235  36.226  29.678  1.00  0.00     0.148 A 
ATOM     93  C   UNL A   1      41.867  36.951  27.370  1.00  0.00     0.002 A 
ATOM     94  C   UNL A   1      43.239  37.550  29.242  1.00  0.00     0.091 A 
ATOM     95  F   UNL A   1      44.016  35.900  30.717  1.00  0.00    -0.205 F 
ATOM     96  C   UNL A   1      42.579  37.912  28.071  1.00  0.00     0.022 A 
BRANCH  94  97
ATOM     97  S   UNL A   1      43.965  38.858  30.244  1.00  0.00     0.127 S 
ATOM     98  O   UNL A   1      45.339  38.892  29.748  1.00  0.00    -0.237 OA
ATOM     99  O   UNL A   1      43.155  40.020  29.873  1.00  0.00    -0.237 OA
ATOM    100  O   UNL A   1      43.786  38.424  31.622  1.00  0.00    -0.744 OA
ENDBRANCH  94  97
ENDBRANCH  67  90
ENDBRANCH  41  42
ENDBRANCH  33  36
ENDBRANCH  31  32
ENDBRANCH  30  31
ENDBRANCH  29  30
ENDBRANCH   1  29
TORSDOF 19
ENDMDL
