MODEL 1
REMARK VINA RESULT:     -11.7      0.000      0.000
REMARK SMILES Cc1ccc(NC(=O)c2cccnc2C(=O)NCCCCCCNC(=O)c2ccc(-c3c4nc(c(-c5cccc(S(=O)(=O)[O-])c5F)c5ccc([nH]5)c(-c5cccc(S(=O)(=O)[O-])c5F)c5nc(c(-c6cccc(S(=O)(=O)[O-])c6F)c6ccc3[nH]6)C=C5)C=C4)cc2)nc1
REMARK SMILES IDX 21 1 20 2 19 3 18 4 17 5 15 6 16 7 14 9 9 10 10 11 11 12
REMARK SMILES IDX 13 13 12 14 7 15 6 16 8 18 5 19 1 20 2 21 3 22 91 23 4 24
REMARK SMILES IDX 90 25 22 26 23 27 24 28 25 29 26 31 27 32 28 33 89 34 29 35
REMARK SMILES IDX 88 36 30 37 31 38 32 39 82 40 33 41 87 42 81 43 83 44 34 45
REMARK SMILES IDX 86 46 80 47 79 48 35 50 67 51 47 52 66 53 48 54 51 55 65 56
REMARK SMILES IDX 84 57 49 58 50 59 64 61 85 62 52 63 36 64 37 65 45 66 38 67
REMARK SMILES IDX 40 68 46 69 39 70 41 71 42 72 43 73 44 74 68 75 69 76 77 77
REMARK SMILES IDX 70 78 72 79 78 80 71 81 73 82 74 83 75 84 76 85 53 86 54 87
REMARK SMILES IDX 62 88 55 89 57 90 63 91 56 92 58 93 59 94 60 95 61 96
REMARK H PARENT 17 8 6 17 24 30 83 49 51 60
REMARK Flexibility Score: inf
ROOT
ATOM      1  C   UNL A   1      33.706  28.588  25.230  1.00  0.00     0.002 C 
ENDROOT
BRANCH   1   2
ATOM      2  C   UNL A   1      33.668  27.331  26.104  1.00  0.00     0.002 C 
BRANCH   2   3
ATOM      3  C   UNL A   1      32.342  26.566  26.070  1.00  0.00     0.021 C 
BRANCH   3   4
ATOM      4  C   UNL A   1      32.488  25.045  26.184  1.00  0.00     0.116 C 
BRANCH   4   5
ATOM      5  N   UNL A   1      33.879  24.672  26.020  1.00  0.00    -0.351 N 
ATOM      6  C   UNL A   1      34.519  23.515  25.643  1.00  0.00     0.270 C 
ATOM      7  O   UNL A   1      35.753  23.545  25.708  1.00  0.00    -0.267 OA
ATOM      8  H   UNL A   1      34.501  25.408  26.224  1.00  0.00     0.163 HD
BRANCH   6   9
ATOM      9  C   UNL A   1      33.851  22.305  25.045  1.00  0.00     0.140 A 
ATOM     10  C   UNL A   1      33.431  22.133  23.733  1.00  0.00     0.071 A 
ATOM     11  C   UNL A   1      32.809  20.917  23.380  1.00  0.00     0.018 A 
ATOM     12  C   UNL A   1      32.559  19.950  24.343  1.00  0.00     0.021 A 
ATOM     13  N   UNL A   1      33.633  21.330  25.990  1.00  0.00    -0.250 NA
ATOM     14  C   UNL A   1      32.966  20.213  25.633  1.00  0.00     0.112 A 
BRANCH  10  15
ATOM     15  C   UNL A   1      33.281  23.227  22.768  1.00  0.00     0.259 C 
ATOM     16  N   UNL A   1      31.983  23.553  22.427  1.00  0.00    -0.306 N 
ATOM     17  H   UNL A   1      31.421  22.905  21.943  1.00  0.00     0.171 HD
ATOM     18  O   UNL A   1      34.287  23.832  22.404  1.00  0.00    -0.269 OA
BRANCH  16  19
ATOM     19  C   UNL A   1      31.468  24.812  22.772  1.00  0.00     0.132 A 
ATOM     20  C   UNL A   1      29.396  28.474  23.300  1.00  0.00     0.046 C 
ATOM     21  C   UNL A   1      30.184  27.218  23.123  1.00  0.00    -0.033 A 
ATOM     22  C   UNL A   1      31.381  27.174  22.407  1.00  0.00     0.009 A 
ATOM     23  C   UNL A   1      29.708  26.023  23.640  1.00  0.00     0.117 A 
ATOM     24  C   UNL A   1      32.032  25.954  22.218  1.00  0.00     0.047 A 
ATOM     25  N   UNL A   1      30.322  24.837  23.478  1.00  0.00    -0.239 NA
ENDBRANCH  16  19
ENDBRANCH  10  15
ENDBRANCH   6   9
ENDBRANCH   4   5
ENDBRANCH   3   4
ENDBRANCH   2   3
ENDBRANCH   1   2
BRANCH   1  26
ATOM     26  C   UNL A   1      32.435  29.443  25.260  1.00  0.00     0.021 C 
BRANCH  26  27
ATOM     27  C   UNL A   1      32.107  30.057  26.619  1.00  0.00     0.116 C 
BRANCH  27  28
ATOM     28  N   UNL A   1      32.191  31.510  26.585  1.00  0.00    -0.352 N 
ATOM     29  C   UNL A   1      33.034  32.351  27.264  1.00  0.00     0.251 C 
ATOM     30  H   UNL A   1      31.547  31.953  25.986  1.00  0.00     0.163 HD
ATOM     31  O   UNL A   1      32.791  33.554  27.315  1.00  0.00    -0.269 OA
BRANCH  29  32
ATOM     32  C   UNL A   1      34.235  31.811  27.936  1.00  0.00     0.039 A 
ATOM     33  C   UNL A   1      35.351  32.635  28.102  1.00  0.00     0.014 A 
ATOM     34  C   UNL A   1      34.273  30.482  28.368  1.00  0.00     0.014 A 
ATOM     35  C   UNL A   1      36.491  32.139  28.742  1.00  0.00     0.010 A 
ATOM     36  C   UNL A   1      35.382  30.011  29.067  1.00  0.00     0.010 A 
ATOM     37  C   UNL A   1      36.506  30.830  29.250  1.00  0.00    -0.014 A 
BRANCH  37  38
ATOM     38  C   UNL A   1      37.691  30.292  29.967  1.00  0.00     0.031 A 
ATOM     39  C   UNL A   1      37.999  30.751  31.368  1.00  0.00     0.074 A 
ATOM     40  C   UNL A   1      38.535  29.457  29.328  1.00  0.00     0.049 A 
ATOM     41  N   UNL A   1      39.022  30.451  32.127  1.00  0.00    -0.248 NA
ATOM     42  C   UNL A   1      37.050  31.692  31.986  1.00  0.00     0.031 C 
ATOM     43  C   UNL A   1      38.384  28.998  27.946  1.00  0.00     0.029 A 
ATOM     44  N   UNL A   1      39.703  28.870  29.747  1.00  0.00    -0.354 N 
ATOM     45  C   UNL A   1      38.859  31.190  33.292  1.00  0.00     0.074 A 
ATOM     46  C   UNL A   1      37.657  31.979  33.129  1.00  0.00     0.031 C 
ATOM     47  C   UNL A   1      39.420  28.203  27.632  1.00  0.00     0.029 A 
ATOM     48  C   UNL A   1      40.321  28.117  28.777  1.00  0.00     0.049 A 
ATOM     49  H   UNL A   1      40.063  28.978  30.656  1.00  0.00     0.167 HD
ATOM     50  C   UNL A   1      39.621  31.190  34.412  1.00  0.00     0.034 A 
ATOM     51  C   UNL A   1      41.484  27.439  28.804  1.00  0.00     0.034 A 
ATOM     52  C   UNL A   1      40.786  30.367  34.591  1.00  0.00     0.049 A 
ATOM     53  C   UNL A   1      42.288  27.419  30.077  1.00  0.00     0.074 A 
ATOM     54  C   UNL A   1      41.579  30.233  35.717  1.00  0.00     0.029 A 
ATOM     55  N   UNL A   1      41.327  29.540  33.619  1.00  0.00    -0.354 N 
ATOM     56  N   UNL A   1      42.035  28.005  31.222  1.00  0.00    -0.248 NA
ATOM     57  C   UNL A   1      43.518  26.613  30.075  1.00  0.00     0.031 C 
ATOM     58  C   UNL A   1      42.610  29.336  35.419  1.00  0.00     0.029 A 
ATOM     59  C   UNL A   1      42.446  28.895  34.117  1.00  0.00     0.049 A 
ATOM     60  H   UNL A   1      40.968  29.429  32.710  1.00  0.00     0.167 HD
ATOM     61  C   UNL A   1      43.049  27.608  32.086  1.00  0.00     0.074 A 
ATOM     62  C   UNL A   1      43.910  26.715  31.338  1.00  0.00     0.031 C 
ATOM     63  C   UNL A   1      43.257  27.963  33.378  1.00  0.00     0.034 A 
BRANCH  50  64
ATOM     64  C   UNL A   1      39.186  32.065  35.559  1.00  0.00     0.023 A 
ATOM     65  C   UNL A   1      38.302  31.547  36.528  1.00  0.00     0.012 A 
ATOM     66  C   UNL A   1      39.700  33.367  35.718  1.00  0.00     0.148 A 
ATOM     67  C   UNL A   1      37.911  32.322  37.620  1.00  0.00     0.002 A 
ATOM     68  C   UNL A   1      39.341  34.116  36.832  1.00  0.00     0.091 A 
ATOM     69  F   UNL A   1      40.524  33.848  34.776  1.00  0.00    -0.205 F 
ATOM     70  C   UNL A   1      38.438  33.601  37.777  1.00  0.00     0.022 A 
BRANCH  68  71
ATOM     71  S   UNL A   1      40.026  35.742  37.170  1.00  0.00     0.127 S 
ATOM     72  O   UNL A   1      39.376  36.079  38.437  1.00  0.00    -0.237 OA
ATOM     73  O   UNL A   1      41.456  35.458  37.275  1.00  0.00    -0.237 OA
ATOM     74  O   UNL A   1      39.653  36.579  36.038  1.00  0.00    -0.744 OA
ENDBRANCH  68  71
ENDBRANCH  50  64
BRANCH  51  75
ATOM     75  C   UNL A   1      41.929  26.668  27.609  1.00  0.00     0.023 A 
ATOM     76  C   UNL A   1      42.608  27.334  26.570  1.00  0.00     0.012 A 
ATOM     77  C   UNL A   1      41.704  25.282  27.503  1.00  0.00     0.148 A 
ATOM     78  C   UNL A   1      43.022  26.642  25.431  1.00  0.00     0.002 A 
ATOM     79  C   UNL A   1      42.168  24.588  26.391  1.00  0.00     0.091 A 
ATOM     80  F   UNL A   1      41.044  24.667  28.494  1.00  0.00    -0.205 F 
ATOM     81  C   UNL A   1      42.811  25.268  25.345  1.00  0.00     0.022 A 
BRANCH  79  82
ATOM     82  S   UNL A   1      42.057  22.799  26.266  1.00  0.00     0.127 S 
ATOM     83  O   UNL A   1      42.801  22.368  27.447  1.00  0.00    -0.237 OA
ATOM     84  O   UNL A   1      40.612  22.577  26.332  1.00  0.00    -0.237 OA
ATOM     85  O   UNL A   1      42.653  22.459  24.981  1.00  0.00    -0.744 OA
ENDBRANCH  79  82
ENDBRANCH  51  75
BRANCH  63  86
ATOM     86  C   UNL A   1      44.441  27.357  34.087  1.00  0.00     0.023 A 
ATOM     87  C   UNL A   1      45.684  28.017  34.063  1.00  0.00     0.012 A 
ATOM     88  C   UNL A   1      44.297  26.176  34.841  1.00  0.00     0.148 A 
ATOM     89  C   UNL A   1      46.776  27.494  34.753  1.00  0.00     0.002 A 
ATOM     90  C   UNL A   1      45.377  25.687  35.567  1.00  0.00     0.091 A 
ATOM     91  F   UNL A   1      43.110  25.553  34.836  1.00  0.00    -0.205 F 
ATOM     92  C   UNL A   1      46.620  26.338  35.514  1.00  0.00     0.022 A 
BRANCH  90  93
ATOM     93  S   UNL A   1      45.241  24.260  36.649  1.00  0.00     0.127 S 
ATOM     94  O   UNL A   1      44.440  24.795  37.749  1.00  0.00    -0.237 OA
ATOM     95  O   UNL A   1      44.544  23.293  35.801  1.00  0.00    -0.237 OA
ATOM     96  O   UNL A   1      46.607  23.887  36.992  1.00  0.00    -0.744 OA
ENDBRANCH  90  93
ENDBRANCH  63  86
ENDBRANCH  37  38
ENDBRANCH  29  32
ENDBRANCH  27  28
ENDBRANCH  26  27
ENDBRANCH   1  26
TORSDOF 18
ENDMDL
MODEL 2
REMARK VINA RESULT:     -11.6      4.942     10.161
REMARK SMILES Cc1ccc(NC(=O)c2cccnc2C(=O)NCCCCCCNC(=O)c2ccc(-c3c4nc(c(-c5cccc(S(=O)(=O)[O-])c5F)c5ccc([nH]5)c(-c5cccc(S(=O)(=O)[O-])c5F)c5nc(c(-c6cccc(S(=O)(=O)[O-])c6F)c6ccc3[nH]6)C=C5)C=C4)cc2)nc1
REMARK SMILES IDX 21 1 20 2 19 3 18 4 17 5 15 6 16 7 14 9 9 10 10 11 11 12
REMARK SMILES IDX 13 13 12 14 7 15 6 16 8 18 5 19 1 20 2 21 3 22 91 23 4 24
REMARK SMILES IDX 90 25 22 26 23 27 24 28 25 29 26 31 27 32 28 33 89 34 29 35
REMARK SMILES IDX 88 36 30 37 31 38 32 39 82 40 33 41 87 42 81 43 83 44 34 45
REMARK SMILES IDX 86 46 80 47 79 48 35 50 67 51 47 52 66 53 48 54 51 55 65 56
REMARK SMILES IDX 84 57 49 58 50 59 64 61 85 62 52 63 36 64 37 65 45 66 38 67
REMARK SMILES IDX 40 68 46 69 39 70 41 71 42 72 43 73 44 74 68 75 69 76 77 77
REMARK SMILES IDX 70 78 72 79 78 80 71 81 73 82 74 83 75 84 76 85 53 86 54 87
REMARK SMILES IDX 62 88 55 89 57 90 63 91 56 92 58 93 59 94 60 95 61 96
REMARK H PARENT 17 8 6 17 24 30 83 49 51 60
REMARK Flexibility Score: inf
ROOT
ATOM      1  C   UNL A   1      35.423  22.158  25.923  1.00  0.00     0.002 C 
ENDROOT
BRANCH   1   2
ATOM      2  C   UNL A   1      35.054  23.350  25.037  1.00  0.00     0.002 C 
BRANCH   2   3
ATOM      3  C   UNL A   1      34.405  24.523  25.777  1.00  0.00     0.021 C 
BRANCH   3   4
ATOM      4  C   UNL A   1      34.073  25.725  24.886  1.00  0.00     0.116 C 
BRANCH   4   5
ATOM      5  N   UNL A   1      33.776  26.880  25.710  1.00  0.00    -0.351 N 
ATOM      6  C   UNL A   1      32.887  27.923  25.606  1.00  0.00     0.270 C 
ATOM      7  O   UNL A   1      32.986  28.794  26.478  1.00  0.00    -0.267 OA
ATOM      8  H   UNL A   1      34.333  26.927  26.521  1.00  0.00     0.163 HD
BRANCH   6   9
ATOM      9  C   UNL A   1      31.750  28.006  24.621  1.00  0.00     0.140 A 
ATOM     10  C   UNL A   1      30.583  27.256  24.613  1.00  0.00     0.071 A 
ATOM     11  C   UNL A   1      29.645  27.482  23.583  1.00  0.00     0.018 A 
ATOM     12  C   UNL A   1      29.924  28.382  22.565  1.00  0.00     0.021 A 
ATOM     13  N   UNL A   1      32.009  28.922  23.628  1.00  0.00    -0.250 NA
ATOM     14  C   UNL A   1      31.124  29.056  22.618  1.00  0.00     0.112 A 
BRANCH  10  15
ATOM     15  C   UNL A   1      30.391  26.025  25.388  1.00  0.00     0.259 C 
ATOM     16  N   UNL A   1      29.996  24.916  24.666  1.00  0.00    -0.306 N 
ATOM     17  H   UNL A   1      29.117  24.902  24.221  1.00  0.00     0.171 HD
ATOM     18  O   UNL A   1      30.676  26.033  26.583  1.00  0.00    -0.269 OA
BRANCH  16  19
ATOM     19  C   UNL A   1      30.853  23.809  24.567  1.00  0.00     0.132 A 
ATOM     20  C   UNL A   1      32.871  20.135  23.923  1.00  0.00     0.046 C 
ATOM     21  C   UNL A   1      32.190  21.433  24.210  1.00  0.00    -0.033 A 
ATOM     22  C   UNL A   1      31.671  21.749  25.466  1.00  0.00     0.009 A 
ATOM     23  C   UNL A   1      32.011  22.361  23.196  1.00  0.00     0.117 A 
ATOM     24  C   UNL A   1      30.983  22.951  25.650  1.00  0.00     0.047 A 
ATOM     25  N   UNL A   1      31.359  23.527  23.351  1.00  0.00    -0.239 NA
ENDBRANCH  16  19
ENDBRANCH  10  15
ENDBRANCH   6   9
ENDBRANCH   4   5
ENDBRANCH   3   4
ENDBRANCH   2   3
ENDBRANCH   1   2
BRANCH   1  26
ATOM     26  C   UNL A   1      36.444  21.187  25.320  1.00  0.00     0.021 C 
BRANCH  26  27
ATOM     27  C   UNL A   1      37.887  21.686  25.331  1.00  0.00     0.116 C 
BRANCH  27  28
ATOM     28  N   UNL A   1      38.778  20.735  25.979  1.00  0.00    -0.352 N 
ATOM     29  C   UNL A   1      39.992  20.948  26.581  1.00  0.00     0.251 C 
ATOM     30  H   UNL A   1      38.463  19.802  25.987  1.00  0.00     0.163 HD
ATOM     31  O   UNL A   1      40.723  19.997  26.842  1.00  0.00    -0.269 OA
BRANCH  29  32
ATOM     32  C   UNL A   1      40.420  22.323  26.917  1.00  0.00     0.039 A 
ATOM     33  C   UNL A   1      41.254  22.527  28.020  1.00  0.00     0.014 A 
ATOM     34  C   UNL A   1      39.970  23.414  26.166  1.00  0.00     0.014 A 
ATOM     35  C   UNL A   1      41.672  23.821  28.343  1.00  0.00     0.010 A 
ATOM     36  C   UNL A   1      40.444  24.692  26.447  1.00  0.00     0.010 A 
ATOM     37  C   UNL A   1      41.288  24.911  27.545  1.00  0.00    -0.014 A 
BRANCH  37  38
ATOM     38  C   UNL A   1      41.750  26.291  27.846  1.00  0.00     0.031 A 
ATOM     39  C   UNL A   1      43.163  26.701  27.525  1.00  0.00     0.074 A 
ATOM     40  C   UNL A   1      40.926  27.145  28.484  1.00  0.00     0.049 A 
ATOM     41  N   UNL A   1      43.770  27.833  27.776  1.00  0.00    -0.248 NA
ATOM     42  C   UNL A   1      44.015  25.701  26.860  1.00  0.00     0.031 C 
ATOM     43  C   UNL A   1      39.560  26.841  28.914  1.00  0.00     0.029 A 
ATOM     44  N   UNL A   1      41.128  28.435  28.909  1.00  0.00    -0.354 N 
ATOM     45  C   UNL A   1      45.078  27.669  27.336  1.00  0.00     0.074 A 
ATOM     46  C   UNL A   1      45.188  26.318  26.831  1.00  0.00     0.031 C 
ATOM     47  C   UNL A   1      39.048  27.912  29.542  1.00  0.00     0.029 A 
ATOM     48  C   UNL A   1      40.055  28.968  29.584  1.00  0.00     0.049 A 
ATOM     49  H   UNL A   1      41.962  28.932  28.746  1.00  0.00     0.167 HD
ATOM     50  C   UNL A   1      46.089  28.570  27.322  1.00  0.00     0.034 A 
ATOM     51  C   UNL A   1      39.901  30.168  30.175  1.00  0.00     0.034 A 
ATOM     52  C   UNL A   1      45.962  29.928  27.777  1.00  0.00     0.049 A 
ATOM     53  C   UNL A   1      41.025  31.167  30.104  1.00  0.00     0.074 A 
ATOM     54  C   UNL A   1      46.902  30.942  27.729  1.00  0.00     0.029 A 
ATOM     55  N   UNL A   1      44.826  30.462  28.365  1.00  0.00    -0.354 N 
ATOM     56  N   UNL A   1      42.205  31.043  29.545  1.00  0.00    -0.248 NA
ATOM     57  C   UNL A   1      40.784  32.485  30.709  1.00  0.00     0.031 C 
ATOM     58  C   UNL A   1      46.339  32.086  28.304  1.00  0.00     0.029 A 
ATOM     59  C   UNL A   1      45.041  31.790  28.688  1.00  0.00     0.049 A 
ATOM     60  H   UNL A   1      43.990  29.969  28.528  1.00  0.00     0.167 HD
ATOM     61  C   UNL A   1      42.830  32.275  29.697  1.00  0.00     0.074 A 
ATOM     62  C   UNL A   1      41.891  33.139  30.382  1.00  0.00     0.031 C 
ATOM     63  C   UNL A   1      44.075  32.653  29.316  1.00  0.00     0.034 A 
BRANCH  50  64
ATOM     64  C   UNL A   1      47.410  28.136  26.740  1.00  0.00     0.023 A 
ATOM     65  C   UNL A   1      48.471  27.799  27.604  1.00  0.00     0.012 A 
ATOM     66  C   UNL A   1      47.581  27.996  25.348  1.00  0.00     0.148 A 
ATOM     67  C   UNL A   1      49.692  27.360  27.094  1.00  0.00     0.002 A 
ATOM     68  C   UNL A   1      48.786  27.515  24.849  1.00  0.00     0.091 A 
ATOM     69  F   UNL A   1      46.567  28.340  24.541  1.00  0.00    -0.205 F 
ATOM     70  C   UNL A   1      49.845  27.208  25.719  1.00  0.00     0.022 A 
BRANCH  68  71
ATOM     71  S   UNL A   1      49.058  27.206  23.100  1.00  0.00     0.127 S 
ATOM     72  O   UNL A   1      50.507  27.008  23.058  1.00  0.00    -0.237 OA
ATOM     73  O   UNL A   1      48.270  25.995  22.875  1.00  0.00    -0.237 OA
ATOM     74  O   UNL A   1      48.570  28.388  22.403  1.00  0.00    -0.744 OA
ENDBRANCH  68  71
ENDBRANCH  50  64
BRANCH  51  75
ATOM     75  C   UNL A   1      38.609  30.519  30.830  1.00  0.00     0.023 A 
ATOM     76  C   UNL A   1      38.398  30.163  32.177  1.00  0.00     0.012 A 
ATOM     77  C   UNL A   1      37.601  31.218  30.140  1.00  0.00     0.148 A 
ATOM     78  C   UNL A   1      37.193  30.464  32.812  1.00  0.00     0.002 A 
ATOM     79  C   UNL A   1      36.424  31.564  30.795  1.00  0.00     0.091 A 
ATOM     80  F   UNL A   1      37.812  31.536  28.856  1.00  0.00    -0.205 F 
ATOM     81  C   UNL A   1      36.210  31.172  32.126  1.00  0.00     0.022 A 
BRANCH  79  82
ATOM     82  S   UNL A   1      35.167  32.590  30.025  1.00  0.00     0.127 S 
ATOM     83  O   UNL A   1      34.246  32.821  31.134  1.00  0.00    -0.237 OA
ATOM     84  O   UNL A   1      35.941  33.762  29.611  1.00  0.00    -0.237 OA
ATOM     85  O   UNL A   1      34.644  31.802  28.917  1.00  0.00    -0.744 OA
ENDBRANCH  79  82
ENDBRANCH  51  75
BRANCH  63  86
ATOM     86  C   UNL A   1      44.489  34.075  29.593  1.00  0.00     0.023 A 
ATOM     87  C   UNL A   1      44.986  34.425  30.864  1.00  0.00     0.012 A 
ATOM     88  C   UNL A   1      44.459  35.043  28.570  1.00  0.00     0.148 A 
ATOM     89  C   UNL A   1      45.417  35.725  31.121  1.00  0.00     0.002 A 
ATOM     90  C   UNL A   1      44.937  36.324  28.820  1.00  0.00     0.091 A 
ATOM     91  F   UNL A   1      43.965  34.695  27.373  1.00  0.00    -0.205 F 
ATOM     92  C   UNL A   1      45.404  36.670  30.098  1.00  0.00     0.022 A 
BRANCH  90  93
ATOM     93  S   UNL A   1      45.048  37.576  27.537  1.00  0.00     0.127 S 
ATOM     94  O   UNL A   1      45.883  36.908  26.540  1.00  0.00    -0.237 OA
ATOM     95  O   UNL A   1      43.648  37.744  27.146  1.00  0.00    -0.237 OA
ATOM     96  O   UNL A   1      45.641  38.746  28.170  1.00  0.00    -0.744 OA
ENDBRANCH  90  93
ENDBRANCH  63  86
ENDBRANCH  37  38
ENDBRANCH  29  32
ENDBRANCH  27  28
ENDBRANCH  26  27
ENDBRANCH   1  26
TORSDOF 18
ENDMDL
MODEL 3
REMARK VINA RESULT:     -11.5      2.435      8.005
REMARK SMILES Cc1ccc(NC(=O)c2cccnc2C(=O)NCCCCCCNC(=O)c2ccc(-c3c4nc(c(-c5cccc(S(=O)(=O)[O-])c5F)c5ccc([nH]5)c(-c5cccc(S(=O)(=O)[O-])c5F)c5nc(c(-c6cccc(S(=O)(=O)[O-])c6F)c6ccc3[nH]6)C=C5)C=C4)cc2)nc1
REMARK SMILES IDX 21 1 20 2 19 3 18 4 17 5 15 6 16 7 14 9 9 10 10 11 11 12
REMARK SMILES IDX 13 13 12 14 7 15 6 16 8 18 5 19 1 20 2 21 3 22 91 23 4 24
REMARK SMILES IDX 90 25 22 26 23 27 24 28 25 29 26 31 27 32 28 33 89 34 29 35
REMARK SMILES IDX 88 36 30 37 31 38 32 39 82 40 33 41 87 42 81 43 83 44 34 45
REMARK SMILES IDX 86 46 80 47 79 48 35 50 67 51 47 52 66 53 48 54 51 55 65 56
REMARK SMILES IDX 84 57 49 58 50 59 64 61 85 62 52 63 36 64 37 65 45 66 38 67
REMARK SMILES IDX 40 68 46 69 39 70 41 71 42 72 43 73 44 74 68 75 69 76 77 77
REMARK SMILES IDX 70 78 72 79 78 80 71 81 73 82 74 83 75 84 76 85 53 86 54 87
REMARK SMILES IDX 62 88 55 89 57 90 63 91 56 92 58 93 59 94 60 95 61 96
REMARK H PARENT 17 8 6 17 24 30 83 49 51 60
REMARK Flexibility Score: inf
ROOT
ATOM      1  C   UNL A   1      31.337  30.904  25.969  1.00  0.00     0.002 C 
ENDROOT
BRANCH   1   2
ATOM      2  C   UNL A   1      32.564  30.079  26.369  1.00  0.00     0.002 C 
BRANCH   2   3
ATOM      3  C   UNL A   1      32.247  28.686  26.920  1.00  0.00     0.021 C 
BRANCH   3   4
ATOM      4  C   UNL A   1      33.194  27.584  26.432  1.00  0.00     0.116 C 
BRANCH   4   5
ATOM      5  N   UNL A   1      32.611  26.284  26.694  1.00  0.00    -0.351 N 
ATOM      6  C   UNL A   1      32.122  25.279  25.893  1.00  0.00     0.270 C 
ATOM      7  O   UNL A   1      31.606  24.327  26.491  1.00  0.00    -0.267 OA
ATOM      8  H   UNL A   1      32.552  26.075  27.655  1.00  0.00     0.163 HD
BRANCH   6   9
ATOM      9  C   UNL A   1      32.290  25.194  24.399  1.00  0.00     0.140 A 
ATOM     10  C   UNL A   1      31.509  25.800  23.425  1.00  0.00     0.071 A 
ATOM     11  C   UNL A   1      31.833  25.579  22.069  1.00  0.00     0.018 A 
ATOM     12  C   UNL A   1      32.862  24.713  21.725  1.00  0.00     0.021 A 
ATOM     13  N   UNL A   1      33.331  24.364  24.055  1.00  0.00    -0.250 NA
ATOM     14  C   UNL A   1      33.561  24.114  22.749  1.00  0.00     0.112 A 
BRANCH  10  15
ATOM     15  C   UNL A   1      30.186  26.381  23.676  1.00  0.00     0.259 C 
ATOM     16  N   UNL A   1      30.166  27.736  23.943  1.00  0.00    -0.306 N 
ATOM     17  H   UNL A   1      30.594  28.086  24.758  1.00  0.00     0.171 HD
ATOM     18  O   UNL A   1      29.195  25.666  23.543  1.00  0.00    -0.269 OA
BRANCH  16  19
ATOM     19  C   UNL A   1      29.534  28.613  23.048  1.00  0.00     0.132 A 
ATOM     20  C   UNL A   1      27.943  31.799  20.746  1.00  0.00     0.046 C 
ATOM     21  C   UNL A   1      28.444  30.645  21.550  1.00  0.00    -0.033 A 
ATOM     22  C   UNL A   1      27.649  29.969  22.477  1.00  0.00     0.009 A 
ATOM     23  C   UNL A   1      29.762  30.234  21.424  1.00  0.00     0.117 A 
ATOM     24  C   UNL A   1      28.200  28.943  23.246  1.00  0.00     0.047 A 
ATOM     25  N   UNL A   1      30.313  29.244  22.149  1.00  0.00    -0.239 NA
ENDBRANCH  16  19
ENDBRANCH  10  15
ENDBRANCH   6   9
ENDBRANCH   4   5
ENDBRANCH   3   4
ENDBRANCH   2   3
ENDBRANCH   1   2
BRANCH   1  26
ATOM     26  C   UNL A   1      31.291  32.325  26.542  1.00  0.00     0.021 C 
BRANCH  26  27
ATOM     27  C   UNL A   1      32.559  32.764  27.271  1.00  0.00     0.116 C 
BRANCH  27  28
ATOM     28  N   UNL A   1      32.488  34.159  27.679  1.00  0.00    -0.352 N 
ATOM     29  C   UNL A   1      33.141  34.804  28.698  1.00  0.00     0.251 C 
ATOM     30  H   UNL A   1      31.882  34.722  27.145  1.00  0.00     0.163 HD
ATOM     31  O   UNL A   1      32.764  35.914  29.063  1.00  0.00    -0.269 OA
BRANCH  29  32
ATOM     32  C   UNL A   1      34.298  34.162  29.358  1.00  0.00     0.039 A 
ATOM     33  C   UNL A   1      35.589  34.472  28.922  1.00  0.00     0.014 A 
ATOM     34  C   UNL A   1      34.108  33.229  30.382  1.00  0.00     0.014 A 
ATOM     35  C   UNL A   1      36.692  33.878  29.543  1.00  0.00     0.010 A 
ATOM     36  C   UNL A   1      35.208  32.692  31.045  1.00  0.00     0.010 A 
ATOM     37  C   UNL A   1      36.510  33.001  30.624  1.00  0.00    -0.014 A 
BRANCH  37  38
ATOM     38  C   UNL A   1      37.668  32.386  31.325  1.00  0.00     0.031 A 
ATOM     39  C   UNL A   1      38.395  31.222  30.706  1.00  0.00     0.074 A 
ATOM     40  C   UNL A   1      38.008  32.819  32.555  1.00  0.00     0.049 A 
ATOM     41  N   UNL A   1      39.377  30.510  31.195  1.00  0.00    -0.248 NA
ATOM     42  C   UNL A   1      37.941  30.783  29.375  1.00  0.00     0.031 C 
ATOM     43  C   UNL A   1      37.333  33.889  33.292  1.00  0.00     0.029 A 
ATOM     44  N   UNL A   1      38.989  32.392  33.415  1.00  0.00    -0.354 N 
ATOM     45  C   UNL A   1      39.634  29.521  30.253  1.00  0.00     0.074 A 
ATOM     46  C   UNL A   1      38.683  29.703  29.178  1.00  0.00     0.031 C 
ATOM     47  C   UNL A   1      37.919  34.034  34.492  1.00  0.00     0.029 A 
ATOM     48  C   UNL A   1      38.991  33.052  34.622  1.00  0.00     0.049 A 
ATOM     49  H   UNL A   1      39.631  31.682  33.190  1.00  0.00     0.167 HD
ATOM     50  C   UNL A   1      40.595  28.566  30.264  1.00  0.00     0.034 A 
ATOM     51  C   UNL A   1      39.763  32.881  35.712  1.00  0.00     0.034 A 
ATOM     52  C   UNL A   1      41.571  28.421  31.309  1.00  0.00     0.049 A 
ATOM     53  C   UNL A   1      40.853  31.843  35.679  1.00  0.00     0.074 A 
ATOM     54  C   UNL A   1      42.636  27.539  31.375  1.00  0.00     0.029 A 
ATOM     55  N   UNL A   1      41.602  29.173  32.472  1.00  0.00    -0.354 N 
ATOM     56  N   UNL A   1      41.178  31.018  34.713  1.00  0.00    -0.248 NA
ATOM     57  C   UNL A   1      41.710  31.739  36.869  1.00  0.00     0.031 C 
ATOM     58  C   UNL A   1      43.301  27.749  32.587  1.00  0.00     0.029 A 
ATOM     59  C   UNL A   1      42.665  28.775  33.265  1.00  0.00     0.049 A 
ATOM     60  H   UNL A   1      40.963  29.886  32.701  1.00  0.00     0.167 HD
ATOM     61  C   UNL A   1      42.297  30.326  35.163  1.00  0.00     0.074 A 
ATOM     62  C   UNL A   1      42.607  30.843  36.480  1.00  0.00     0.031 C 
ATOM     63  C   UNL A   1      42.995  29.341  34.547  1.00  0.00     0.034 A 
BRANCH  50  64
ATOM     64  C   UNL A   1      40.679  27.639  29.079  1.00  0.00     0.023 A 
ATOM     65  C   UNL A   1      39.778  26.560  28.979  1.00  0.00     0.012 A 
ATOM     66  C   UNL A   1      41.597  27.872  28.036  1.00  0.00     0.148 A 
ATOM     67  C   UNL A   1      39.809  25.707  27.876  1.00  0.00     0.002 A 
ATOM     68  C   UNL A   1      41.593  27.044  26.919  1.00  0.00     0.091 A 
ATOM     69  F   UNL A   1      42.460  28.891  28.159  1.00  0.00    -0.205 F 
ATOM     70  C   UNL A   1      40.708  25.956  26.842  1.00  0.00     0.022 A 
BRANCH  68  71
ATOM     71  S   UNL A   1      42.655  27.326  25.498  1.00  0.00     0.127 S 
ATOM     72  O   UNL A   1      43.962  27.487  26.134  1.00  0.00    -0.237 OA
ATOM     73  O   UNL A   1      42.493  26.084  24.742  1.00  0.00    -0.237 OA
ATOM     74  O   UNL A   1      42.134  28.513  24.835  1.00  0.00    -0.744 OA
ENDBRANCH  68  71
ENDBRANCH  50  64
BRANCH  51  75
ATOM     75  C   UNL A   1      39.578  33.755  36.904  1.00  0.00     0.023 A 
ATOM     76  C   UNL A   1      40.029  35.089  36.860  1.00  0.00     0.012 A 
ATOM     77  C   UNL A   1      38.942  33.286  38.069  1.00  0.00     0.148 A 
ATOM     78  C   UNL A   1      39.885  35.927  37.966  1.00  0.00     0.002 A 
ATOM     79  C   UNL A   1      38.750  34.142  39.148  1.00  0.00     0.091 A 
ATOM     80  F   UNL A   1      38.531  32.010  38.100  1.00  0.00    -0.205 F 
ATOM     81  C   UNL A   1      39.237  35.458  39.106  1.00  0.00     0.022 A 
BRANCH  79  82
ATOM     82  S   UNL A   1      37.809  33.656  40.598  1.00  0.00     0.127 S 
ATOM     83  O   UNL A   1      36.553  33.206  40.005  1.00  0.00    -0.237 OA
ATOM     84  O   UNL A   1      38.642  32.593  41.162  1.00  0.00    -0.237 OA
ATOM     85  O   UNL A   1      37.727  34.851  41.429  1.00  0.00    -0.744 OA
ENDBRANCH  79  82
ENDBRANCH  51  75
BRANCH  63  86
ATOM     86  C   UNL A   1      44.193  28.777  35.268  1.00  0.00     0.023 A 
ATOM     87  C   UNL A   1      45.461  29.361  35.081  1.00  0.00     0.012 A 
ATOM     88  C   UNL A   1      44.044  27.721  36.188  1.00  0.00     0.148 A 
ATOM     89  C   UNL A   1      46.570  28.882  35.776  1.00  0.00     0.002 A 
ATOM     90  C   UNL A   1      45.145  27.281  36.914  1.00  0.00     0.091 A 
ATOM     91  F   UNL A   1      42.833  27.167  36.337  1.00  0.00    -0.205 F 
ATOM     92  C   UNL A   1      46.410  27.852  36.700  1.00  0.00     0.022 A 
BRANCH  90  93
ATOM     93  S   UNL A   1      45.014  26.027  38.193  1.00  0.00     0.127 S 
ATOM     94  O   UNL A   1      46.398  25.924  38.652  1.00  0.00    -0.237 OA
ATOM     95  O   UNL A   1      44.098  26.652  39.148  1.00  0.00    -0.237 OA
ATOM     96  O   UNL A   1      44.481  24.840  37.536  1.00  0.00    -0.744 OA
ENDBRANCH  90  93
ENDBRANCH  63  86
ENDBRANCH  37  38
ENDBRANCH  29  32
ENDBRANCH  27  28
ENDBRANCH  26  27
ENDBRANCH   1  26
TORSDOF 18
ENDMDL
