MODEL 1
REMARK VINA RESULT:     -10.5      0.000      0.000
REMARK SMILES COc1cccc(/C=C(/C#N)c2ccc(Br)cc2)c1O[C@@H](C)C(=O)NCCCCCCNC(=O)c1ccc(-c2c3nc(c(-c4cccc(S(=O)(=O)[O-])c4F)c4ccc([nH]4)c(-c4cccc(S(=O)(=O)[O-])c4F)c4nc(c(-c5cccc(S(=O)(=O)[O-])c5F)c5ccc2[nH]5)C=C4)C=C3)cc1
REMARK SMILES IDX 28 1 27 2 26 3 25 4 23 5 24 6 21 8 22 9 20 10 19 11 3 12
REMARK SMILES IDX 4 13 5 14 7 15 6 16 2 17 1 18 8 19 9 20 10 21 11 22 12 23
REMARK SMILES IDX 13 24 18 25 14 26 17 27 15 28 16 29 29 30 30 31 31 32 32 33
REMARK SMILES IDX 33 34 34 36 35 37 36 38 97 39 37 40 96 41 38 42 39 43 40 44
REMARK SMILES IDX 90 45 41 46 95 47 89 48 91 49 42 50 94 51 88 52 87 53 43 55
REMARK SMILES IDX 75 56 55 57 74 58 56 59 59 60 73 61 92 62 57 63 58 64 72 66
REMARK SMILES IDX 93 67 60 68 44 69 45 70 53 71 46 72 48 73 54 74 47 75 49 76
REMARK SMILES IDX 50 77 51 78 52 79 76 80 77 81 85 82 78 83 80 84 86 85 79 86
REMARK SMILES IDX 81 87 82 88 83 89 84 90 61 91 62 92 70 93 63 94 65 95 71 96
REMARK SMILES IDX 64 97 66 98 67 99 68 100 69 101
REMARK H PARENT 25 7 32 35 91 54 59 65
REMARK Flexibility Score: inf
ROOT
ATOM      1  C   UNL A   1      34.986  30.910  27.526  1.00  0.00     0.002 C 
ENDROOT
BRANCH   1   2
ATOM      2  C   UNL A   1      33.652  30.379  26.999  1.00  0.00     0.021 C 
BRANCH   2   3
ATOM      3  C   UNL A   1      33.160  29.098  27.668  1.00  0.00     0.116 C 
BRANCH   3   4
ATOM      4  N   UNL A   1      31.783  28.782  27.302  1.00  0.00    -0.353 N 
ATOM      5  C   UNL A   1      31.471  27.722  26.489  1.00  0.00     0.260 C 
ATOM      6  O   UNL A   1      31.122  26.679  27.054  1.00  0.00    -0.271 OA
ATOM      7  H   UNL A   1      31.057  29.347  27.650  1.00  0.00     0.163 HD
BRANCH   5   8
ATOM      8  C   UNL A   1      31.223  27.943  24.943  1.00  0.00     0.259 C 
ATOM      9  C   UNL A   1      30.806  29.398  24.658  1.00  0.00     0.064 C 
BRANCH   8  10
ATOM     10  O   UNL A   1      30.670  27.126  23.928  1.00  0.00    -0.476 OA
BRANCH  10  11
ATOM     11  C   UNL A   1      31.487  26.381  23.129  1.00  0.00     0.169 A 
ATOM     12  C   UNL A   1      32.501  26.938  22.324  1.00  0.00     0.161 A 
ATOM     13  C   UNL A   1      33.298  26.105  21.536  1.00  0.00     0.050 A 
ATOM     14  C   UNL A   1      33.011  24.747  21.463  1.00  0.00     0.005 A 
ATOM     15  C   UNL A   1      31.337  24.976  23.225  1.00  0.00     0.022 A 
ATOM     16  C   UNL A   1      32.008  24.201  22.268  1.00  0.00     0.012 A 
BRANCH  12  17
ATOM     17  O   UNL A   1      32.772  28.272  22.440  1.00  0.00    -0.493 OA
ATOM     18  C   UNL A   1      34.111  28.635  22.764  1.00  0.00     0.278 C 
ENDBRANCH  12  17
BRANCH  15  19
ATOM     19  C   UNL A   1      30.588  24.377  24.389  1.00  0.00     0.032 C 
ATOM     20  C   UNL A   1      31.073  23.621  25.402  1.00  0.00     0.060 C 
BRANCH  20  21
ATOM     21  C   UNL A   1      30.293  23.284  26.662  1.00  0.00     0.100 C 
ATOM     22  N   UNL A   1      29.645  23.005  27.708  1.00  0.00    -0.192 NA
ENDBRANCH  20  21
BRANCH  20  23
ATOM     23  C   UNL A   1      32.452  23.063  25.451  1.00  0.00    -0.008 A 
ATOM     24  C   UNL A   1      32.681  21.772  24.943  1.00  0.00     0.010 A 
ATOM     25  C   UNL A   1      33.540  23.800  25.948  1.00  0.00     0.010 A 
ATOM     26  C   UNL A   1      33.978  21.263  24.855  1.00  0.00     0.016 A 
ATOM     27  C   UNL A   1      34.842  23.301  25.829  1.00  0.00     0.016 A 
ATOM     28  C   UNL A   1      35.055  22.042  25.269  1.00  0.00     0.018 A 
ATOM     29  Br  UNL A   1      36.816  21.405  25.024  1.00  0.00    -0.051 Br
ENDBRANCH  20  23
ENDBRANCH  15  19
ENDBRANCH  10  11
ENDBRANCH   8  10
ENDBRANCH   5   8
ENDBRANCH   3   4
ENDBRANCH   2   3
ENDBRANCH   1   2
BRANCH   1  30
ATOM     30  C   UNL A   1      34.978  32.320  28.123  1.00  0.00     0.002 C 
BRANCH  30  31
ATOM     31  C   UNL A   1      33.662  33.100  28.040  1.00  0.00     0.021 C 
BRANCH  31  32
ATOM     32  C   UNL A   1      33.771  34.624  28.103  1.00  0.00     0.116 C 
BRANCH  32  33
ATOM     33  N   UNL A   1      33.172  35.176  29.308  1.00  0.00    -0.352 N 
ATOM     34  C   UNL A   1      33.421  34.918  30.633  1.00  0.00     0.251 C 
ATOM     35  H   UNL A   1      32.470  35.847  29.146  1.00  0.00     0.163 HD
ATOM     36  O   UNL A   1      32.654  35.367  31.484  1.00  0.00    -0.269 OA
BRANCH  34  37
ATOM     37  C   UNL A   1      34.586  34.107  31.054  1.00  0.00     0.039 A 
ATOM     38  C   UNL A   1      35.871  34.564  30.739  1.00  0.00     0.014 A 
ATOM     39  C   UNL A   1      34.427  32.876  31.697  1.00  0.00     0.014 A 
ATOM     40  C   UNL A   1      36.991  33.817  31.116  1.00  0.00     0.010 A 
ATOM     41  C   UNL A   1      35.547  32.164  32.128  1.00  0.00     0.010 A 
ATOM     42  C   UNL A   1      36.841  32.623  31.839  1.00  0.00    -0.014 A 
BRANCH  42  43
ATOM     43  C   UNL A   1      38.024  31.857  32.316  1.00  0.00     0.031 A 
ATOM     44  C   UNL A   1      38.692  32.208  33.619  1.00  0.00     0.074 A 
ATOM     45  C   UNL A   1      38.550  30.895  31.531  1.00  0.00     0.049 A 
ATOM     46  N   UNL A   1      39.762  31.687  34.164  1.00  0.00    -0.248 NA
ATOM     47  C   UNL A   1      38.093  33.301  34.402  1.00  0.00     0.031 C 
ATOM     48  C   UNL A   1      38.041  30.508  30.213  1.00  0.00     0.029 A 
ATOM     49  N   UNL A   1      39.646  30.087  31.713  1.00  0.00    -0.354 N 
ATOM     50  C   UNL A   1      39.987  32.408  35.330  1.00  0.00     0.074 A 
ATOM     51  C   UNL A   1      38.957  33.423  35.401  1.00  0.00     0.031 C 
ATOM     52  C   UNL A   1      38.823  29.542  29.706  1.00  0.00     0.029 A 
ATOM     53  C   UNL A   1      39.904  29.259  30.644  1.00  0.00     0.049 A 
ATOM     54  H   UNL A   1      40.195  30.098  32.529  1.00  0.00     0.167 HD
ATOM     55  C   UNL A   1      40.946  32.229  36.271  1.00  0.00     0.034 A 
ATOM     56  C   UNL A   1      40.904  28.379  30.436  1.00  0.00     0.034 A 
ATOM     57  C   UNL A   1      41.944  31.194  36.218  1.00  0.00     0.049 A 
ATOM     58  C   UNL A   1      41.934  28.174  31.513  1.00  0.00     0.074 A 
ATOM     59  C   UNL A   1      42.902  30.875  37.163  1.00  0.00     0.029 A 
ATOM     60  N   UNL A   1      42.121  30.317  35.159  1.00  0.00    -0.354 N 
ATOM     61  N   UNL A   1      42.033  28.757  32.682  1.00  0.00    -0.248 NA
ATOM     62  C   UNL A   1      42.969  27.161  31.258  1.00  0.00     0.031 C 
ATOM     63  C   UNL A   1      43.675  29.820  36.665  1.00  0.00     0.029 A 
ATOM     64  C   UNL A   1      43.180  29.463  35.422  1.00  0.00     0.049 A 
ATOM     65  H   UNL A   1      41.574  30.303  34.340  1.00  0.00     0.167 HD
ATOM     66  C   UNL A   1      43.116  28.159  33.317  1.00  0.00     0.074 A 
ATOM     67  C   UNL A   1      43.628  27.153  32.410  1.00  0.00     0.031 C 
ATOM     68  C   UNL A   1      43.647  28.430  34.535  1.00  0.00     0.034 A 
BRANCH  55  69
ATOM     69  C   UNL A   1      40.932  33.140  37.471  1.00  0.00     0.023 A 
ATOM     70  C   UNL A   1      40.044  32.877  38.535  1.00  0.00     0.012 A 
ATOM     71  C   UNL A   1      41.839  34.214  37.581  1.00  0.00     0.148 A 
ATOM     72  C   UNL A   1      40.033  33.685  39.671  1.00  0.00     0.002 A 
ATOM     73  C   UNL A   1      41.853  34.988  38.736  1.00  0.00     0.091 A 
ATOM     74  F   UNL A   1      42.664  34.461  36.554  1.00  0.00    -0.205 F 
ATOM     75  C   UNL A   1      40.943  34.734  39.775  1.00  0.00     0.022 A 
BRANCH  73  76
ATOM     76  S   UNL A   1      43.041  36.309  39.002  1.00  0.00     0.127 S 
ATOM     77  O   UNL A   1      42.513  37.360  38.131  1.00  0.00    -0.237 OA
ATOM     78  O   UNL A   1      42.888  36.575  40.434  1.00  0.00    -0.237 OA
ATOM     79  O   UNL A   1      44.335  35.771  38.618  1.00  0.00    -0.744 OA
ENDBRANCH  73  76
ENDBRANCH  55  69
BRANCH  56  80
ATOM     80  C   UNL A   1      40.940  27.580  29.179  1.00  0.00     0.023 A 
ATOM     81  C   UNL A   1      40.068  26.483  29.030  1.00  0.00     0.012 A 
ATOM     82  C   UNL A   1      41.807  27.915  28.121  1.00  0.00     0.148 A 
ATOM     83  C   UNL A   1      40.081  25.717  27.864  1.00  0.00     0.002 A 
ATOM     84  C   UNL A   1      41.774  27.184  26.939  1.00  0.00     0.091 A 
ATOM     85  F   UNL A   1      42.639  28.955  28.287  1.00  0.00    -0.205 F 
ATOM     86  C   UNL A   1      40.925  26.073  26.815  1.00  0.00     0.022 A 
BRANCH  84  87
ATOM     87  S   UNL A   1      42.726  27.661  25.491  1.00  0.00     0.127 S 
ATOM     88  O   UNL A   1      41.985  28.834  25.022  1.00  0.00    -0.237 OA
ATOM     89  O   UNL A   1      44.036  27.957  26.076  1.00  0.00    -0.237 OA
ATOM     90  O   UNL A   1      42.711  26.507  24.612  1.00  0.00    -0.744 OA
ENDBRANCH  84  87
ENDBRANCH  56  80
BRANCH  68  91
ATOM     91  C   UNL A   1      44.822  27.602  34.985  1.00  0.00     0.023 A 
ATOM     92  C   UNL A   1      46.134  28.080  34.792  1.00  0.00     0.012 A 
ATOM     93  C   UNL A   1      44.624  26.384  35.666  1.00  0.00     0.148 A 
ATOM     94  C   UNL A   1      47.230  27.344  35.241  1.00  0.00     0.002 A 
ATOM     95  C   UNL A   1      45.718  25.681  36.154  1.00  0.00     0.091 A 
ATOM     96  F   UNL A   1      43.369  25.936  35.822  1.00  0.00    -0.205 F 
ATOM     97  C   UNL A   1      47.021  26.152  35.933  1.00  0.00     0.022 A 
BRANCH  95  98
ATOM     98  S   UNL A   1      45.542  24.187  37.138  1.00  0.00     0.127 S 
ATOM     99  O   UNL A   1      44.706  24.654  38.242  1.00  0.00    -0.237 OA
ATOM    100  O   UNL A   1      44.872  23.280  36.205  1.00  0.00    -0.237 OA
ATOM    101  O   UNL A   1      46.894  23.787  37.503  1.00  0.00    -0.744 OA
ENDBRANCH  95  98
ENDBRANCH  68  91
ENDBRANCH  42  43
ENDBRANCH  34  37
ENDBRANCH  32  33
ENDBRANCH  31  32
ENDBRANCH  30  31
ENDBRANCH   1  30
TORSDOF 22
ENDMDL
MODEL 2
REMARK VINA RESULT:     -10.0      1.125      7.319
REMARK SMILES COc1cccc(/C=C(/C#N)c2ccc(Br)cc2)c1O[C@@H](C)C(=O)NCCCCCCNC(=O)c1ccc(-c2c3nc(c(-c4cccc(S(=O)(=O)[O-])c4F)c4ccc([nH]4)c(-c4cccc(S(=O)(=O)[O-])c4F)c4nc(c(-c5cccc(S(=O)(=O)[O-])c5F)c5ccc2[nH]5)C=C4)C=C3)cc1
REMARK SMILES IDX 28 1 27 2 26 3 25 4 23 5 24 6 21 8 22 9 20 10 19 11 3 12
REMARK SMILES IDX 4 13 5 14 7 15 6 16 2 17 1 18 8 19 9 20 10 21 11 22 12 23
REMARK SMILES IDX 13 24 18 25 14 26 17 27 15 28 16 29 29 30 30 31 31 32 32 33
REMARK SMILES IDX 33 34 34 36 35 37 36 38 97 39 37 40 96 41 38 42 39 43 40 44
REMARK SMILES IDX 90 45 41 46 95 47 89 48 91 49 42 50 94 51 88 52 87 53 43 55
REMARK SMILES IDX 75 56 55 57 74 58 56 59 59 60 73 61 92 62 57 63 58 64 72 66
REMARK SMILES IDX 93 67 60 68 44 69 45 70 53 71 46 72 48 73 54 74 47 75 49 76
REMARK SMILES IDX 50 77 51 78 52 79 76 80 77 81 85 82 78 83 80 84 86 85 79 86
REMARK SMILES IDX 81 87 82 88 83 89 84 90 61 91 62 92 70 93 63 94 65 95 71 96
REMARK SMILES IDX 64 97 66 98 67 99 68 100 69 101
REMARK H PARENT 25 7 32 35 91 54 59 65
REMARK Flexibility Score: inf
ROOT
ATOM      1  C   UNL A   1      35.247  32.079  27.971  1.00  0.00     0.002 C 
ENDROOT
BRANCH   1   2
ATOM      2  C   UNL A   1      35.115  30.555  28.013  1.00  0.00     0.021 C 
BRANCH   2   3
ATOM      3  C   UNL A   1      34.275  29.952  26.889  1.00  0.00     0.116 C 
BRANCH   3   4
ATOM      4  N   UNL A   1      33.734  28.646  27.250  1.00  0.00    -0.353 N 
ATOM      5  C   UNL A   1      33.286  27.757  26.306  1.00  0.00     0.260 C 
ATOM      6  O   UNL A   1      34.081  26.872  25.964  1.00  0.00    -0.271 OA
ATOM      7  H   UNL A   1      33.688  28.395  28.201  1.00  0.00     0.163 HD
BRANCH   5   8
ATOM      8  C   UNL A   1      31.747  27.659  25.961  1.00  0.00     0.259 C 
ATOM      9  C   UNL A   1      30.966  27.016  27.123  1.00  0.00     0.064 C 
BRANCH   8  10
ATOM     10  O   UNL A   1      31.041  27.391  24.764  1.00  0.00    -0.476 OA
BRANCH  10  11
ATOM     11  C   UNL A   1      31.660  26.738  23.737  1.00  0.00     0.169 A 
ATOM     12  C   UNL A   1      32.687  27.312  22.961  1.00  0.00     0.161 A 
ATOM     13  C   UNL A   1      33.272  26.576  21.929  1.00  0.00     0.050 A 
ATOM     14  C   UNL A   1      32.760  25.326  21.601  1.00  0.00     0.005 A 
ATOM     15  C   UNL A   1      31.287  25.385  23.548  1.00  0.00     0.022 A 
ATOM     16  C   UNL A   1      31.745  24.761  22.378  1.00  0.00     0.012 A 
BRANCH  12  17
ATOM     17  O   UNL A   1      33.183  28.531  23.328  1.00  0.00    -0.493 OA
ATOM     18  C   UNL A   1      34.461  28.892  22.811  1.00  0.00     0.278 C 
ENDBRANCH  12  17
BRANCH  15  19
ATOM     19  C   UNL A   1      30.542  24.650  24.633  1.00  0.00     0.032 C 
ATOM     20  C   UNL A   1      31.022  23.749  25.522  1.00  0.00     0.060 C 
BRANCH  20  21
ATOM     21  C   UNL A   1      30.254  23.261  26.739  1.00  0.00     0.100 C 
ATOM     22  N   UNL A   1      29.616  22.857  27.750  1.00  0.00    -0.192 NA
ENDBRANCH  20  21
BRANCH  20  23
ATOM     23  C   UNL A   1      32.385  23.154  25.465  1.00  0.00    -0.008 A 
ATOM     24  C   UNL A   1      32.600  22.026  24.653  1.00  0.00     0.010 A 
ATOM     25  C   UNL A   1      33.473  23.707  26.160  1.00  0.00     0.010 A 
ATOM     26  C   UNL A   1      33.887  21.515  24.473  1.00  0.00     0.016 A 
ATOM     27  C   UNL A   1      34.766  23.214  25.953  1.00  0.00     0.016 A 
ATOM     28  C   UNL A   1      34.968  22.131  25.099  1.00  0.00     0.018 A 
ATOM     29  Br  UNL A   1      36.721  21.522  24.747  1.00  0.00    -0.051 Br
ENDBRANCH  20  23
ENDBRANCH  15  19
ENDBRANCH  10  11
ENDBRANCH   8  10
ENDBRANCH   5   8
ENDBRANCH   3   4
ENDBRANCH   2   3
ENDBRANCH   1   2
BRANCH   1  30
ATOM     30  C   UNL A   1      34.440  32.868  29.006  1.00  0.00     0.002 C 
BRANCH  30  31
ATOM     31  C   UNL A   1      33.517  33.967  28.472  1.00  0.00     0.021 C 
BRANCH  31  32
ATOM     32  C   UNL A   1      33.717  35.366  29.058  1.00  0.00     0.116 C 
BRANCH  32  33
ATOM     33  N   UNL A   1      32.886  35.604  30.227  1.00  0.00    -0.352 N 
ATOM     34  C   UNL A   1      33.033  35.200  31.531  1.00  0.00     0.251 C 
ATOM     35  H   UNL A   1      32.082  36.147  30.055  1.00  0.00     0.163 HD
ATOM     36  O   UNL A   1      32.100  35.360  32.316  1.00  0.00    -0.269 OA
BRANCH  34  37
ATOM     37  C   UNL A   1      34.287  34.569  32.004  1.00  0.00     0.039 A 
ATOM     38  C   UNL A   1      34.208  33.349  32.686  1.00  0.00     0.014 A 
ATOM     39  C   UNL A   1      35.527  35.192  31.842  1.00  0.00     0.014 A 
ATOM     40  C   UNL A   1      35.372  32.731  33.153  1.00  0.00     0.010 A 
ATOM     41  C   UNL A   1      36.693  34.545  32.251  1.00  0.00     0.010 A 
ATOM     42  C   UNL A   1      36.630  33.310  32.915  1.00  0.00    -0.014 A 
BRANCH  42  43
ATOM     43  C   UNL A   1      37.883  32.628  33.335  1.00  0.00     0.031 A 
ATOM     44  C   UNL A   1      38.459  31.505  32.514  1.00  0.00     0.074 A 
ATOM     45  C   UNL A   1      38.460  32.965  34.506  1.00  0.00     0.049 A 
ATOM     46  N   UNL A   1      39.509  30.762  32.754  1.00  0.00    -0.248 NA
ATOM     47  C   UNL A   1      37.751  31.156  31.272  1.00  0.00     0.031 C 
ATOM     48  C   UNL A   1      37.961  33.987  35.430  1.00  0.00     0.029 A 
ATOM     49  N   UNL A   1      39.575  32.467  35.135  1.00  0.00    -0.354 N 
ATOM     50  C   UNL A   1      39.568  29.837  31.718  1.00  0.00     0.074 A 
ATOM     51  C   UNL A   1      38.431  30.094  30.861  1.00  0.00     0.031 C 
ATOM     52  C   UNL A   1      38.763  34.037  36.505  1.00  0.00     0.029 A 
ATOM     53  C   UNL A   1      39.815  33.035  36.365  1.00  0.00     0.049 A 
ATOM     54  H   UNL A   1      40.149  31.770  34.744  1.00  0.00     0.167 HD
ATOM     55  C   UNL A   1      40.497  28.877  31.486  1.00  0.00     0.034 A 
ATOM     56  C   UNL A   1      40.767  32.774  37.283  1.00  0.00     0.034 A 
ATOM     57  C   UNL A   1      41.647  28.649  32.318  1.00  0.00     0.049 A 
ATOM     58  C   UNL A   1      41.806  31.728  36.983  1.00  0.00     0.074 A 
ATOM     59  C   UNL A   1      42.690  27.762  32.120  1.00  0.00     0.029 A 
ATOM     60  N   UNL A   1      41.903  29.304  33.513  1.00  0.00    -0.354 N 
ATOM     61  N   UNL A   1      41.934  30.975  35.919  1.00  0.00    -0.248 NA
ATOM     62  C   UNL A   1      42.854  31.524  37.993  1.00  0.00     0.031 C 
ATOM     63  C   UNL A   1      43.565  27.862  33.207  1.00  0.00     0.029 A 
ATOM     64  C   UNL A   1      43.082  28.834  34.069  1.00  0.00     0.049 A 
ATOM     65  H   UNL A   1      41.332  30.001  33.908  1.00  0.00     0.167 HD
ATOM     66  C   UNL A   1      43.094  30.234  36.112  1.00  0.00     0.074 A 
ATOM     67  C   UNL A   1      43.643  30.644  37.388  1.00  0.00     0.031 C 
ATOM     68  C   UNL A   1      43.647  29.287  35.313  1.00  0.00     0.034 A 
BRANCH  55  69
ATOM     69  C   UNL A   1      40.337  28.030  30.250  1.00  0.00     0.023 A 
ATOM     70  C   UNL A   1      39.339  27.034  30.213  1.00  0.00     0.012 A 
ATOM     71  C   UNL A   1      41.124  28.259  29.103  1.00  0.00     0.148 A 
ATOM     72  C   UNL A   1      39.149  26.258  29.070  1.00  0.00     0.002 A 
ATOM     73  C   UNL A   1      40.899  27.511  27.952  1.00  0.00     0.091 A 
ATOM     74  F   UNL A   1      42.080  29.197  29.161  1.00  0.00    -0.205 F 
ATOM     75  C   UNL A   1      39.922  26.503  27.938  1.00  0.00     0.022 A 
BRANCH  73  76
ATOM     76  S   UNL A   1      41.784  27.805  26.417  1.00  0.00     0.127 S 
ATOM     77  O   UNL A   1      43.168  27.555  26.823  1.00  0.00    -0.237 OA
ATOM     78  O   UNL A   1      41.217  26.783  25.535  1.00  0.00    -0.237 OA
ATOM     79  O   UNL A   1      41.483  29.174  26.034  1.00  0.00    -0.744 OA
ENDBRANCH  73  76
ENDBRANCH  55  69
BRANCH  56  80
ATOM     80  C   UNL A   1      40.816  33.562  38.547  1.00  0.00     0.023 A 
ATOM     81  C   UNL A   1      40.139  33.086  39.687  1.00  0.00     0.012 A 
ATOM     82  C   UNL A   1      41.553  34.760  38.636  1.00  0.00     0.148 A 
ATOM     83  C   UNL A   1      40.168  33.805  40.883  1.00  0.00     0.002 A 
ATOM     84  C   UNL A   1      41.626  35.440  39.846  1.00  0.00     0.091 A 
ATOM     85  F   UNL A   1      42.180  35.202  37.536  1.00  0.00    -0.205 F 
ATOM     86  C   UNL A   1      40.920  34.974  40.966  1.00  0.00     0.022 A 
BRANCH  84  87
ATOM     87  S   UNL A   1      42.683  36.875  40.076  1.00  0.00     0.127 S 
ATOM     88  O   UNL A   1      42.088  37.835  39.144  1.00  0.00    -0.237 OA
ATOM     89  O   UNL A   1      42.470  37.182  41.493  1.00  0.00    -0.237 OA
ATOM     90  O   UNL A   1      44.027  36.429  39.757  1.00  0.00    -0.744 OA
ENDBRANCH  84  87
ENDBRANCH  56  80
BRANCH  68  91
ATOM     91  C   UNL A   1      44.935  28.653  35.769  1.00  0.00     0.023 A 
ATOM     92  C   UNL A   1      46.169  29.218  35.390  1.00  0.00     0.012 A 
ATOM     93  C   UNL A   1      44.920  27.540  36.634  1.00  0.00     0.148 A 
ATOM     94  C   UNL A   1      47.368  28.667  35.839  1.00  0.00     0.002 A 
ATOM     95  C   UNL A   1      46.118  27.027  37.116  1.00  0.00     0.091 A 
ATOM     96  F   UNL A   1      43.737  27.005  36.967  1.00  0.00    -0.205 F 
ATOM     97  C   UNL A   1      47.343  27.581  36.711  1.00  0.00     0.022 A 
BRANCH  95  98
ATOM     98  S   UNL A   1      46.178  25.692  38.317  1.00  0.00     0.127 S 
ATOM     99  O   UNL A   1      47.568  25.755  38.765  1.00  0.00    -0.237 OA
ATOM    100  O   UNL A   1      45.196  26.124  39.312  1.00  0.00    -0.237 OA
ATOM    101  O   UNL A   1      45.810  24.483  37.591  1.00  0.00    -0.744 OA
ENDBRANCH  95  98
ENDBRANCH  68  91
ENDBRANCH  42  43
ENDBRANCH  34  37
ENDBRANCH  32  33
ENDBRANCH  31  32
ENDBRANCH  30  31
ENDBRANCH   1  30
TORSDOF 22
ENDMDL
MODEL 3
REMARK VINA RESULT:     -10.0      2.007      2.428
REMARK SMILES COc1cccc(/C=C(/C#N)c2ccc(Br)cc2)c1O[C@@H](C)C(=O)NCCCCCCNC(=O)c1ccc(-c2c3nc(c(-c4cccc(S(=O)(=O)[O-])c4F)c4ccc([nH]4)c(-c4cccc(S(=O)(=O)[O-])c4F)c4nc(c(-c5cccc(S(=O)(=O)[O-])c5F)c5ccc2[nH]5)C=C4)C=C3)cc1
REMARK SMILES IDX 28 1 27 2 26 3 25 4 23 5 24 6 21 8 22 9 20 10 19 11 3 12
REMARK SMILES IDX 4 13 5 14 7 15 6 16 2 17 1 18 8 19 9 20 10 21 11 22 12 23
REMARK SMILES IDX 13 24 18 25 14 26 17 27 15 28 16 29 29 30 30 31 31 32 32 33
REMARK SMILES IDX 33 34 34 36 35 37 36 38 97 39 37 40 96 41 38 42 39 43 40 44
REMARK SMILES IDX 90 45 41 46 95 47 89 48 91 49 42 50 94 51 88 52 87 53 43 55
REMARK SMILES IDX 75 56 55 57 74 58 56 59 59 60 73 61 92 62 57 63 58 64 72 66
REMARK SMILES IDX 93 67 60 68 44 69 45 70 53 71 46 72 48 73 54 74 47 75 49 76
REMARK SMILES IDX 50 77 51 78 52 79 76 80 77 81 85 82 78 83 80 84 86 85 79 86
REMARK SMILES IDX 81 87 82 88 83 89 84 90 61 91 62 92 70 93 63 94 65 95 71 96
REMARK SMILES IDX 64 97 66 98 67 99 68 100 69 101
REMARK H PARENT 25 7 32 35 91 54 59 65
REMARK Flexibility Score: inf
ROOT
ATOM      1  C   UNL A   1      35.073  32.397  27.965  1.00  0.00     0.002 C 
ENDROOT
BRANCH   1   2
ATOM      2  C   UNL A   1      34.900  30.884  28.114  1.00  0.00     0.021 C 
BRANCH   2   3
ATOM      3  C   UNL A   1      34.131  30.211  26.979  1.00  0.00     0.116 C 
BRANCH   3   4
ATOM      4  N   UNL A   1      33.634  28.894  27.361  1.00  0.00    -0.353 N 
ATOM      5  C   UNL A   1      33.209  27.979  26.430  1.00  0.00     0.260 C 
ATOM      6  O   UNL A   1      34.028  27.115  26.094  1.00  0.00    -0.271 OA
ATOM      7  H   UNL A   1      33.601  28.654  28.314  1.00  0.00     0.163 HD
BRANCH   5   8
ATOM      8  C   UNL A   1      31.671  27.828  26.097  1.00  0.00     0.259 C 
ATOM      9  C   UNL A   1      30.944  27.047  27.209  1.00  0.00     0.064 C 
BRANCH   8  10
ATOM     10  O   UNL A   1      30.960  27.625  24.889  1.00  0.00    -0.476 OA
BRANCH  10  11
ATOM     11  C   UNL A   1      31.575  27.033  23.825  1.00  0.00     0.169 A 
ATOM     12  C   UNL A   1      32.564  27.669  23.048  1.00  0.00     0.161 A 
ATOM     13  C   UNL A   1      33.148  26.992  21.976  1.00  0.00     0.050 A 
ATOM     14  C   UNL A   1      32.671  25.738  21.614  1.00  0.00     0.005 A 
ATOM     15  C   UNL A   1      31.245  25.675  23.595  1.00  0.00     0.022 A 
ATOM     16  C   UNL A   1      31.696  25.110  22.393  1.00  0.00     0.012 A 
BRANCH  12  17
ATOM     17  O   UNL A   1      33.027  28.891  23.448  1.00  0.00    -0.493 OA
ATOM     18  C   UNL A   1      34.396  29.183  23.185  1.00  0.00     0.278 C 
ENDBRANCH  12  17
BRANCH  15  19
ATOM     19  C   UNL A   1      30.552  24.875  24.669  1.00  0.00     0.032 C 
ATOM     20  C   UNL A   1      31.066  23.904  25.460  1.00  0.00     0.060 C 
BRANCH  20  21
ATOM     21  C   UNL A   1      30.364  23.343  26.685  1.00  0.00     0.100 C 
ATOM     22  N   UNL A   1      29.780  22.877  27.702  1.00  0.00    -0.192 NA
ENDBRANCH  20  21
BRANCH  20  23
ATOM     23  C   UNL A   1      32.410  23.293  25.276  1.00  0.00    -0.008 A 
ATOM     24  C   UNL A   1      33.453  23.672  26.141  1.00  0.00     0.010 A 
ATOM     25  C   UNL A   1      32.662  22.319  24.297  1.00  0.00     0.010 A 
ATOM     26  C   UNL A   1      34.692  23.032  26.084  1.00  0.00     0.016 A 
ATOM     27  C   UNL A   1      33.894  21.656  24.262  1.00  0.00     0.016 A 
ATOM     28  C   UNL A   1      34.897  22.005  25.166  1.00  0.00     0.018 A 
ATOM     29  Br  UNL A   1      36.526  21.050  25.181  1.00  0.00    -0.051 Br
ENDBRANCH  20  23
ENDBRANCH  15  19
ENDBRANCH  10  11
ENDBRANCH   8  10
ENDBRANCH   5   8
ENDBRANCH   3   4
ENDBRANCH   2   3
ENDBRANCH   1   2
BRANCH   1  30
ATOM     30  C   UNL A   1      34.427  33.273  29.043  1.00  0.00     0.002 C 
BRANCH  30  31
ATOM     31  C   UNL A   1      33.354  34.262  28.580  1.00  0.00     0.021 C 
BRANCH  31  32
ATOM     32  C   UNL A   1      33.445  35.678  29.151  1.00  0.00     0.116 C 
BRANCH  32  33
ATOM     33  N   UNL A   1      32.613  35.859  30.330  1.00  0.00    -0.352 N 
ATOM     34  C   UNL A   1      32.759  35.389  31.611  1.00  0.00     0.251 C 
ATOM     35  H   UNL A   1      31.810  36.411  30.185  1.00  0.00     0.163 HD
ATOM     36  O   UNL A   1      31.826  35.511  32.403  1.00  0.00    -0.269 OA
BRANCH  34  37
ATOM     37  C   UNL A   1      34.011  34.733  32.053  1.00  0.00     0.039 A 
ATOM     38  C   UNL A   1      33.948  33.419  32.531  1.00  0.00     0.014 A 
ATOM     39  C   UNL A   1      35.231  35.415  32.063  1.00  0.00     0.014 A 
ATOM     40  C   UNL A   1      35.111  32.774  32.963  1.00  0.00     0.010 A 
ATOM     41  C   UNL A   1      36.400  34.750  32.434  1.00  0.00     0.010 A 
ATOM     42  C   UNL A   1      36.354  33.425  32.892  1.00  0.00    -0.014 A 
BRANCH  42  43
ATOM     43  C   UNL A   1      37.611  32.727  33.273  1.00  0.00     0.031 A 
ATOM     44  C   UNL A   1      38.263  32.993  34.605  1.00  0.00     0.074 A 
ATOM     45  C   UNL A   1      38.213  31.912  32.383  1.00  0.00     0.049 A 
ATOM     46  N   UNL A   1      39.386  32.519  35.082  1.00  0.00    -0.248 NA
ATOM     47  C   UNL A   1      37.577  33.930  35.508  1.00  0.00     0.031 C 
ATOM     48  C   UNL A   1      37.722  31.627  31.033  1.00  0.00     0.029 A 
ATOM     49  N   UNL A   1      39.383  31.197  32.468  1.00  0.00    -0.354 N 
ATOM     50  C   UNL A   1      39.560  33.124  36.321  1.00  0.00     0.074 A 
ATOM     51  C   UNL A   1      38.441  34.022  36.510  1.00  0.00     0.031 C 
ATOM     52  C   UNL A   1      38.584  30.803  30.417  1.00  0.00     0.029 A 
ATOM     53  C   UNL A   1      39.701  30.522  31.312  1.00  0.00     0.049 A 
ATOM     54  H   UNL A   1      39.941  31.170  33.278  1.00  0.00     0.167 HD
ATOM     55  C   UNL A   1      40.546  32.933  37.231  1.00  0.00     0.034 A 
ATOM     56  C   UNL A   1      40.776  29.770  31.002  1.00  0.00     0.034 A 
ATOM     57  C   UNL A   1      41.636  32.011  37.058  1.00  0.00     0.049 A 
ATOM     58  C   UNL A   1      41.838  29.545  32.044  1.00  0.00     0.074 A 
ATOM     59  C   UNL A   1      42.635  31.681  37.957  1.00  0.00     0.029 A 
ATOM     60  N   UNL A   1      41.878  31.278  35.906  1.00  0.00    -0.354 N 
ATOM     61  N   UNL A   1      41.900  30.002  33.270  1.00  0.00    -0.248 NA
ATOM     62  C   UNL A   1      42.960  28.670  31.672  1.00  0.00     0.031 C 
ATOM     63  C   UNL A   1      43.496  30.768  37.340  1.00  0.00     0.029 A 
ATOM     64  C   UNL A   1      43.017  30.505  36.066  1.00  0.00     0.049 A 
ATOM     65  H   UNL A   1      41.323  31.303  35.094  1.00  0.00     0.167 HD
ATOM     66  C   UNL A   1      43.043  29.443  33.829  1.00  0.00     0.074 A 
ATOM     67  C   UNL A   1      43.634  28.597  32.813  1.00  0.00     0.031 C 
ATOM     68  C   UNL A   1      43.566  29.626  35.067  1.00  0.00     0.034 A 
BRANCH  55  69
ATOM     69  C   UNL A   1      40.465  33.700  38.526  1.00  0.00     0.023 A 
ATOM     70  C   UNL A   1      41.358  34.766  38.760  1.00  0.00     0.012 A 
ATOM     71  C   UNL A   1      39.469  33.414  39.482  1.00  0.00     0.148 A 
ATOM     72  C   UNL A   1      41.285  35.513  39.935  1.00  0.00     0.002 A 
ATOM     73  C   UNL A   1      39.374  34.191  40.631  1.00  0.00     0.091 A 
ATOM     74  F   UNL A   1      38.640  32.386  39.252  1.00  0.00    -0.205 F 
ATOM     75  C   UNL A   1      40.288  35.232  40.865  1.00  0.00     0.022 A 
BRANCH  73  76
ATOM     76  S   UNL A   1      38.075  33.962  41.850  1.00  0.00     0.127 S 
ATOM     77  O   UNL A   1      37.045  33.288  41.059  1.00  0.00    -0.237 OA
ATOM     78  O   UNL A   1      38.732  33.110  42.843  1.00  0.00    -0.237 OA
ATOM     79  O   UNL A   1      37.728  35.292  42.324  1.00  0.00    -0.744 OA
ENDBRANCH  73  76
ENDBRANCH  55  69
BRANCH  56  80
ATOM     80  C   UNL A   1      40.868  29.122  29.663  1.00  0.00     0.023 A 
ATOM     81  C   UNL A   1      41.429  29.835  28.585  1.00  0.00     0.012 A 
ATOM     82  C   UNL A   1      40.434  27.798  29.457  1.00  0.00     0.148 A 
ATOM     83  C   UNL A   1      41.526  29.254  27.320  1.00  0.00     0.002 A 
ATOM     84  C   UNL A   1      40.587  27.204  28.209  1.00  0.00     0.091 A 
ATOM     85  F   UNL A   1      39.891  27.140  30.492  1.00  0.00    -0.205 F 
ATOM     86  C   UNL A   1      41.116  27.936  27.135  1.00  0.00     0.022 A 
BRANCH  84  87
ATOM     87  S   UNL A   1      40.216  25.469  27.923  1.00  0.00     0.127 S 
ATOM     88  O   UNL A   1      40.223  25.401  26.460  1.00  0.00    -0.237 OA
ATOM     89  O   UNL A   1      41.351  24.807  28.573  1.00  0.00    -0.237 OA
ATOM     90  O   UNL A   1      38.937  25.229  28.564  1.00  0.00    -0.744 OA
ENDBRANCH  84  87
ENDBRANCH  56  80
BRANCH  68  91
ATOM     91  C   UNL A   1      44.820  28.869  35.416  1.00  0.00     0.023 A 
ATOM     92  C   UNL A   1      46.077  29.493  35.285  1.00  0.00     0.012 A 
ATOM     93  C   UNL A   1      44.748  27.564  35.944  1.00  0.00     0.148 A 
ATOM     94  C   UNL A   1      47.244  28.820  35.644  1.00  0.00     0.002 A 
ATOM     95  C   UNL A   1      45.911  26.918  36.345  1.00  0.00     0.091 A 
ATOM     96  F   UNL A   1      43.545  26.980  36.041  1.00  0.00    -0.205 F 
ATOM     97  C   UNL A   1      47.160  27.538  36.185  1.00  0.00     0.022 A 
BRANCH  95  98
ATOM     98  S   UNL A   1      45.891  25.306  37.140  1.00  0.00     0.127 S 
ATOM     99  O   UNL A   1      45.018  25.549  38.286  1.00  0.00    -0.237 OA
ATOM    100  O   UNL A   1      45.310  24.455  36.100  1.00  0.00    -0.237 OA
ATOM    101  O   UNL A   1      47.278  25.002  37.463  1.00  0.00    -0.744 OA
ENDBRANCH  95  98
ENDBRANCH  68  91
ENDBRANCH  42  43
ENDBRANCH  34  37
ENDBRANCH  32  33
ENDBRANCH  31  32
ENDBRANCH  30  31
ENDBRANCH   1  30
TORSDOF 22
ENDMDL
