MODEL 1
REMARK VINA RESULT:     -11.6      0.000      0.000
REMARK SMILES O=C(CSc1nnnn1-c1ccc(C(=O)NCCCCCCNC(=O)c2ccc(-c3c4nc(c(-c5cccc(S(=O)(=O)[O-])c5F)c5ccc([nH]5)c(-c5cccc(S(=O)(=O)[O-])c5F)c5nc(c(-c6cccc(S(=O)(=O)[O-])c6F)c6ccc3[nH]6)C=C5)C=C4)cc2)cc1)Nc1nc(-c2ccccc2)cs1
REMARK SMILES IDX 18 1 17 2 16 3 14 4 15 5 13 7 10 8 11 9 90 10 12 11 89 12
REMARK SMILES IDX 9 13 5 14 6 15 7 16 8 17 4 18 3 19 2 20 1 21 91 22 92 24
REMARK SMILES IDX 93 25 102 26 94 27 101 28 95 29 96 30 100 31 97 32 99 33
REMARK SMILES IDX 98 34 19 35 20 36 21 37 22 38 23 39 24 40 25 42 26 43 27 44
REMARK SMILES IDX 88 45 28 46 87 47 29 48 30 49 31 50 81 51 32 52 86 53 80 54
REMARK SMILES IDX 82 55 33 56 85 57 79 58 78 59 34 61 66 62 46 63 65 64 47 65
REMARK SMILES IDX 50 66 64 67 83 68 48 69 49 70 63 72 84 73 51 74 35 75 36 76
REMARK SMILES IDX 44 77 37 78 39 79 45 80 38 81 40 82 41 83 42 84 43 85 67 86
REMARK SMILES IDX 68 87 76 88 69 89 71 90 77 91 70 92 72 93 73 94 74 95 75 96
REMARK SMILES IDX 52 97 53 98 61 99 54 100 56 101 62 102 55 103 57 104 58 105
REMARK SMILES IDX 59 106 60 107
REMARK H PARENT 16 6 91 23 23 41 82 60 50 71
REMARK Flexibility Score: inf
ROOT
ATOM      1  C   UNL A   1      31.251  26.823  27.127  1.00  0.00     0.021 C 
ENDROOT
BRANCH   1   2
ATOM      2  C   UNL A   1      30.741  25.847  26.065  1.00  0.00     0.116 C 
BRANCH   2   3
ATOM      3  N   UNL A   1      29.905  24.826  26.671  1.00  0.00    -0.352 N 
ATOM      4  C   UNL A   1      30.047  23.473  26.834  1.00  0.00     0.251 C 
ATOM      5  O   UNL A   1      29.150  22.883  27.440  1.00  0.00    -0.269 OA
ATOM      6  H   UNL A   1      29.064  25.179  27.040  1.00  0.00     0.163 HD
BRANCH   4   7
ATOM      7  C   UNL A   1      31.260  22.710  26.416  1.00  0.00     0.039 A 
ATOM      8  C   UNL A   1      33.719  21.622  25.617  1.00  0.00     0.069 A 
ATOM      9  C   UNL A   1      33.624  22.263  26.853  1.00  0.00     0.029 A 
ATOM     10  C   UNL A   1      32.575  21.413  24.842  1.00  0.00     0.029 A 
ATOM     11  C   UNL A   1      32.403  22.832  27.228  1.00  0.00     0.016 A 
ATOM     12  C   UNL A   1      31.343  21.906  25.278  1.00  0.00     0.016 A 
BRANCH   8  13
ATOM     13  N   UNL A   1      34.980  21.226  25.131  1.00  0.00    -0.187 N 
ATOM     14  C   UNL A   1      35.710  21.753  24.080  1.00  0.00     0.214 A 
ATOM     15  N   UNL A   1      36.854  21.117  23.993  1.00  0.00    -0.101 NA
ATOM     16  N   UNL A   1      36.867  20.235  25.044  1.00  0.00    -0.022 NA
ATOM     17  N   UNL A   1      35.784  20.370  25.799  1.00  0.00    -0.039 NA
BRANCH  14  18
ATOM     18  S   UNL A   1      35.322  23.245  23.277  1.00  0.00    -0.074 SA
BRANCH  18  19
ATOM     19  C   UNL A   1      35.516  24.427  24.644  1.00  0.00     0.178 C 
BRANCH  19  20
ATOM     20  C   UNL A   1      34.455  25.522  24.682  1.00  0.00     0.236 C 
ATOM     21  O   UNL A   1      34.085  25.971  25.765  1.00  0.00    -0.274 OA
ATOM     22  N   UNL A   1      34.059  25.984  23.444  1.00  0.00    -0.301 N 
ATOM     23  H   UNL A   1      34.395  25.529  22.637  1.00  0.00     0.172 HD
BRANCH  22  24
ATOM     24  C   UNL A   1      33.217  27.053  23.297  1.00  0.00     0.189 A 
ATOM     25  N   UNL A   1      31.922  27.077  23.111  1.00  0.00    -0.220 NA
ATOM     26  S   UNL A   1      33.993  28.572  23.393  1.00  0.00    -0.105 S 
ATOM     27  C   UNL A   1      31.504  28.385  22.948  1.00  0.00     0.084 A 
ATOM     28  C   UNL A   1      32.500  29.338  23.030  1.00  0.00     0.097 A 
BRANCH  27  29
ATOM     29  C   UNL A   1      30.106  28.719  22.745  1.00  0.00     0.001 A 
ATOM     30  C   UNL A   1      29.763  29.760  21.874  1.00  0.00     0.010 A 
ATOM     31  C   UNL A   1      29.095  28.013  23.407  1.00  0.00     0.010 A 
ATOM     32  C   UNL A   1      28.420  30.078  21.651  1.00  0.00     0.001 A 
ATOM     33  C   UNL A   1      27.754  28.339  23.191  1.00  0.00     0.001 A 
ATOM     34  C   UNL A   1      27.417  29.367  22.309  1.00  0.00     0.000 A 
ENDBRANCH  27  29
ENDBRANCH  22  24
ENDBRANCH  19  20
ENDBRANCH  18  19
ENDBRANCH  14  18
ENDBRANCH   8  13
ENDBRANCH   4   7
ENDBRANCH   2   3
ENDBRANCH   1   2
BRANCH   1  35
ATOM     35  C   UNL A   1      31.652  28.189  26.554  1.00  0.00     0.002 C 
BRANCH  35  36
ATOM     36  C   UNL A   1      33.008  28.733  27.035  1.00  0.00     0.002 C 
BRANCH  36  37
ATOM     37  C   UNL A   1      33.277  30.215  26.734  1.00  0.00     0.021 C 
BRANCH  37  38
ATOM     38  C   UNL A   1      34.584  30.714  27.332  1.00  0.00     0.116 C 
BRANCH  38  39
ATOM     39  N   UNL A   1      34.348  31.717  28.368  1.00  0.00    -0.352 N 
ATOM     40  C   UNL A   1      34.973  31.858  29.590  1.00  0.00     0.251 C 
ATOM     41  H   UNL A   1      33.650  32.382  28.166  1.00  0.00     0.163 HD
ATOM     42  O   UNL A   1      34.460  32.514  30.480  1.00  0.00    -0.269 OA
BRANCH  40  43
ATOM     43  C   UNL A   1      36.271  31.193  29.795  1.00  0.00     0.039 A 
ATOM     44  C   UNL A   1      36.346  29.803  29.918  1.00  0.00     0.014 A 
ATOM     45  C   UNL A   1      37.418  31.981  29.844  1.00  0.00     0.014 A 
ATOM     46  C   UNL A   1      37.598  29.205  30.020  1.00  0.00     0.010 A 
ATOM     47  C   UNL A   1      38.653  31.384  29.804  1.00  0.00     0.010 A 
ATOM     48  C   UNL A   1      38.749  30.002  29.946  1.00  0.00    -0.014 A 
BRANCH  48  49
ATOM     49  C   UNL A   1      40.072  29.391  29.909  1.00  0.00     0.031 A 
ATOM     50  C   UNL A   1      40.696  29.159  31.243  1.00  0.00     0.074 A 
ATOM     51  C   UNL A   1      40.584  28.858  28.779  1.00  0.00     0.049 A 
ATOM     52  N   UNL A   1      41.793  29.664  31.707  1.00  0.00    -0.248 NA
ATOM     53  C   UNL A   1      39.947  28.362  32.227  1.00  0.00     0.031 C 
ATOM     54  C   UNL A   1      39.928  28.717  27.471  1.00  0.00     0.029 A 
ATOM     55  N   UNL A   1      41.746  28.174  28.605  1.00  0.00    -0.354 N 
ATOM     56  C   UNL A   1      41.985  29.072  32.955  1.00  0.00     0.074 A 
ATOM     57  C   UNL A   1      40.740  28.439  33.297  1.00  0.00     0.031 C 
ATOM     58  C   UNL A   1      40.568  27.772  26.749  1.00  0.00     0.029 A 
ATOM     59  C   UNL A   1      41.768  27.383  27.461  1.00  0.00     0.049 A 
ATOM     60  H   UNL A   1      42.503  28.234  29.231  1.00  0.00     0.167 HD
ATOM     61  C   UNL A   1      43.225  28.949  33.506  1.00  0.00     0.034 A 
ATOM     62  C   UNL A   1      42.681  26.432  27.150  1.00  0.00     0.034 A 
ATOM     63  C   UNL A   1      44.184  29.790  32.835  1.00  0.00     0.049 A 
ATOM     64  C   UNL A   1      43.884  26.698  27.967  1.00  0.00     0.074 A 
ATOM     65  C   UNL A   1      44.306  31.146  32.611  1.00  0.00     0.029 A 
ATOM     66  N   UNL A   1      45.022  29.180  31.935  1.00  0.00    -0.354 N 
ATOM     67  N   UNL A   1      44.628  27.759  27.827  1.00  0.00    -0.248 NA
ATOM     68  C   UNL A   1      44.021  25.998  29.232  1.00  0.00     0.031 C 
ATOM     69  C   UNL A   1      44.821  31.248  31.285  1.00  0.00     0.029 A 
ATOM     70  C   UNL A   1      45.045  29.955  30.807  1.00  0.00     0.049 A 
ATOM     71  H   UNL A   1      45.516  28.340  32.075  1.00  0.00     0.167 HD
ATOM     72  C   UNL A   1      44.964  28.117  29.125  1.00  0.00     0.074 A 
ATOM     73  C   UNL A   1      44.668  26.934  29.931  1.00  0.00     0.031 C 
ATOM     74  C   UNL A   1      45.168  29.424  29.466  1.00  0.00     0.034 A 
BRANCH  61  75
ATOM     75  C   UNL A   1      43.672  27.827  34.418  1.00  0.00     0.023 A 
ATOM     76  C   UNL A   1      44.228  28.184  35.668  1.00  0.00     0.012 A 
ATOM     77  C   UNL A   1      43.824  26.481  34.016  1.00  0.00     0.148 A 
ATOM     78  C   UNL A   1      44.936  27.266  36.450  1.00  0.00     0.002 A 
ATOM     79  C   UNL A   1      44.454  25.550  34.834  1.00  0.00     0.091 A 
ATOM     80  F   UNL A   1      43.484  26.108  32.779  1.00  0.00    -0.205 F 
ATOM     81  C   UNL A   1      45.042  25.943  36.038  1.00  0.00     0.022 A 
BRANCH  79  82
ATOM     82  S   UNL A   1      44.562  23.816  34.375  1.00  0.00     0.127 S 
ATOM     83  O   UNL A   1      45.250  23.249  35.530  1.00  0.00    -0.237 OA
ATOM     84  O   UNL A   1      43.151  23.450  34.250  1.00  0.00    -0.237 OA
ATOM     85  O   UNL A   1      45.294  23.794  33.113  1.00  0.00    -0.744 OA
ENDBRANCH  79  82
ENDBRANCH  61  75
BRANCH  62  86
ATOM     86  C   UNL A   1      42.506  25.172  26.394  1.00  0.00     0.023 A 
ATOM     87  C   UNL A   1      43.437  24.821  25.398  1.00  0.00     0.012 A 
ATOM     88  C   UNL A   1      41.594  24.187  26.835  1.00  0.00     0.148 A 
ATOM     89  C   UNL A   1      43.484  23.520  24.883  1.00  0.00     0.002 A 
ATOM     90  C   UNL A   1      41.641  22.897  26.318  1.00  0.00     0.091 A 
ATOM     91  F   UNL A   1      40.747  24.491  27.828  1.00  0.00    -0.205 F 
ATOM     92  C   UNL A   1      42.593  22.555  25.349  1.00  0.00     0.022 A 
BRANCH  90  93
ATOM     93  S   UNL A   1      40.546  21.592  26.896  1.00  0.00     0.127 S 
ATOM     94  O   UNL A   1      40.996  20.446  26.106  1.00  0.00    -0.237 OA
ATOM     95  O   UNL A   1      40.879  21.527  28.317  1.00  0.00    -0.237 OA
ATOM     96  O   UNL A   1      39.194  22.041  26.586  1.00  0.00    -0.744 OA
ENDBRANCH  90  93
ENDBRANCH  62  86
BRANCH  74  97
ATOM     97  C   UNL A   1      45.263  30.444  28.355  1.00  0.00     0.023 A 
ATOM     98  C   UNL A   1      44.122  31.023  27.760  1.00  0.00     0.012 A 
ATOM     99  C   UNL A   1      46.529  30.961  28.033  1.00  0.00     0.148 A 
ATOM    100  C   UNL A   1      44.242  32.079  26.851  1.00  0.00     0.002 A 
ATOM    101  C   UNL A   1      46.642  32.042  27.168  1.00  0.00     0.091 A 
ATOM    102  F   UNL A   1      47.605  30.404  28.609  1.00  0.00    -0.205 F 
ATOM    103  C   UNL A   1      45.502  32.599  26.567  1.00  0.00     0.022 A 
BRANCH 101 104
ATOM    104  S   UNL A   1      48.222  32.840  26.871  1.00  0.00     0.127 S 
ATOM    105  O   UNL A   1      47.879  33.825  25.848  1.00  0.00    -0.237 OA
ATOM    106  O   UNL A   1      48.542  33.404  28.183  1.00  0.00    -0.237 OA
ATOM    107  O   UNL A   1      49.129  31.780  26.445  1.00  0.00    -0.744 OA
ENDBRANCH 101 104
ENDBRANCH  74  97
ENDBRANCH  48  49
ENDBRANCH  40  43
ENDBRANCH  38  39
ENDBRANCH  37  38
ENDBRANCH  36  37
ENDBRANCH  35  36
ENDBRANCH   1  35
TORSDOF 22
ENDMDL
MODEL 2
REMARK VINA RESULT:     -10.8      2.629      8.681
REMARK SMILES O=C(CSc1nnnn1-c1ccc(C(=O)NCCCCCCNC(=O)c2ccc(-c3c4nc(c(-c5cccc(S(=O)(=O)[O-])c5F)c5ccc([nH]5)c(-c5cccc(S(=O)(=O)[O-])c5F)c5nc(c(-c6cccc(S(=O)(=O)[O-])c6F)c6ccc3[nH]6)C=C5)C=C4)cc2)cc1)Nc1nc(-c2ccccc2)cs1
REMARK SMILES IDX 18 1 17 2 16 3 14 4 15 5 13 7 10 8 11 9 90 10 12 11 89 12
REMARK SMILES IDX 9 13 5 14 6 15 7 16 8 17 4 18 3 19 2 20 1 21 91 22 92 24
REMARK SMILES IDX 93 25 102 26 94 27 101 28 95 29 96 30 100 31 97 32 99 33
REMARK SMILES IDX 98 34 19 35 20 36 21 37 22 38 23 39 24 40 25 42 26 43 27 44
REMARK SMILES IDX 88 45 28 46 87 47 29 48 30 49 31 50 81 51 32 52 86 53 80 54
REMARK SMILES IDX 82 55 33 56 85 57 79 58 78 59 34 61 66 62 46 63 65 64 47 65
REMARK SMILES IDX 50 66 64 67 83 68 48 69 49 70 63 72 84 73 51 74 35 75 36 76
REMARK SMILES IDX 44 77 37 78 39 79 45 80 38 81 40 82 41 83 42 84 43 85 67 86
REMARK SMILES IDX 68 87 76 88 69 89 71 90 77 91 70 92 72 93 73 94 74 95 75 96
REMARK SMILES IDX 52 97 53 98 61 99 54 100 56 101 62 102 55 103 57 104 58 105
REMARK SMILES IDX 59 106 60 107
REMARK H PARENT 16 6 91 23 23 41 82 60 50 71
REMARK Flexibility Score: inf
ROOT
ATOM      1  C   UNL A   1      33.103  26.861  25.376  1.00  0.00     0.021 C 
ENDROOT
BRANCH   1   2
ATOM      2  C   UNL A   1      32.366  27.237  24.089  1.00  0.00     0.116 C 
BRANCH   2   3
ATOM      3  N   UNL A   1      30.934  27.056  24.252  1.00  0.00    -0.352 N 
ATOM      4  C   UNL A   1      30.129  25.949  24.310  1.00  0.00     0.251 C 
ATOM      5  O   UNL A   1      28.925  26.139  24.497  1.00  0.00    -0.269 OA
ATOM      6  H   UNL A   1      30.441  27.904  24.339  1.00  0.00     0.163 HD
BRANCH   4   7
ATOM      7  C   UNL A   1      30.641  24.548  24.265  1.00  0.00     0.039 A 
ATOM      8  C   UNL A   1      31.866  22.030  24.444  1.00  0.00     0.069 A 
ATOM      9  C   UNL A   1      31.222  22.558  25.563  1.00  0.00     0.029 A 
ATOM     10  C   UNL A   1      31.794  22.689  23.213  1.00  0.00     0.029 A 
ATOM     11  C   UNL A   1      30.644  23.828  25.475  1.00  0.00     0.016 A 
ATOM     12  C   UNL A   1      31.129  23.914  23.120  1.00  0.00     0.016 A 
BRANCH   8  13
ATOM     13  N   UNL A   1      32.629  20.854  24.568  1.00  0.00    -0.187 N 
ATOM     14  C   UNL A   1      33.834  20.664  25.221  1.00  0.00     0.214 A 
ATOM     15  N   UNL A   1      34.176  19.401  25.129  1.00  0.00    -0.101 NA
ATOM     16  N   UNL A   1      33.140  18.784  24.475  1.00  0.00    -0.022 NA
ATOM     17  N   UNL A   1      32.152  19.636  24.227  1.00  0.00    -0.039 NA
BRANCH  14  18
ATOM     18  S   UNL A   1      34.554  21.829  26.291  1.00  0.00    -0.074 SA
BRANCH  18  19
ATOM     19  C   UNL A   1      35.783  22.590  25.191  1.00  0.00     0.178 C 
BRANCH  19  20
ATOM     20  C   UNL A   1      37.189  22.013  25.324  1.00  0.00     0.236 C 
ATOM     21  O   UNL A   1      37.553  21.120  24.563  1.00  0.00    -0.274 OA
ATOM     22  N   UNL A   1      37.979  22.635  26.269  1.00  0.00    -0.301 N 
ATOM     23  H   UNL A   1      37.574  23.320  26.850  1.00  0.00     0.172 HD
BRANCH  22  24
ATOM     24  C   UNL A   1      39.305  22.334  26.426  1.00  0.00     0.189 A 
ATOM     25  N   UNL A   1      39.981  21.294  26.009  1.00  0.00    -0.220 NA
ATOM     26  S   UNL A   1      40.193  23.517  27.282  1.00  0.00    -0.105 S 
ATOM     27  C   UNL A   1      41.285  21.380  26.461  1.00  0.00     0.084 A 
ATOM     28  C   UNL A   1      41.579  22.505  27.207  1.00  0.00     0.097 A 
BRANCH  27  29
ATOM     29  C   UNL A   1      42.274  20.372  26.131  1.00  0.00     0.001 A 
ATOM     30  C   UNL A   1      43.417  20.733  25.407  1.00  0.00     0.010 A 
ATOM     31  C   UNL A   1      42.104  19.041  26.530  1.00  0.00     0.010 A 
ATOM     32  C   UNL A   1      44.389  19.777  25.102  1.00  0.00     0.001 A 
ATOM     33  C   UNL A   1      43.073  18.084  26.215  1.00  0.00     0.001 A 
ATOM     34  C   UNL A   1      44.217  18.454  25.507  1.00  0.00     0.000 A 
ENDBRANCH  27  29
ENDBRANCH  22  24
ENDBRANCH  19  20
ENDBRANCH  18  19
ENDBRANCH  14  18
ENDBRANCH   8  13
ENDBRANCH   4   7
ENDBRANCH   2   3
ENDBRANCH   1   2
BRANCH   1  35
ATOM     35  C   UNL A   1      33.156  28.003  26.400  1.00  0.00     0.002 C 
BRANCH  35  36
ATOM     36  C   UNL A   1      34.277  29.033  26.181  1.00  0.00     0.002 C 
BRANCH  36  37
ATOM     37  C   UNL A   1      34.453  30.074  27.297  1.00  0.00     0.021 C 
BRANCH  37  38
ATOM     38  C   UNL A   1      35.701  29.839  28.136  1.00  0.00     0.116 C 
BRANCH  38  39
ATOM     39  N   UNL A   1      35.529  30.339  29.498  1.00  0.00    -0.352 N 
ATOM     40  C   UNL A   1      36.331  30.128  30.601  1.00  0.00     0.251 C 
ATOM     41  H   UNL A   1      34.735  30.902  29.649  1.00  0.00     0.163 HD
ATOM     42  O   UNL A   1      35.904  30.316  31.727  1.00  0.00    -0.269 OA
BRANCH  40  43
ATOM     43  C   UNL A   1      37.713  29.667  30.386  1.00  0.00     0.039 A 
ATOM     44  C   UNL A   1      38.569  30.364  29.529  1.00  0.00     0.014 A 
ATOM     45  C   UNL A   1      38.147  28.534  31.068  1.00  0.00     0.014 A 
ATOM     46  C   UNL A   1      39.893  29.950  29.420  1.00  0.00     0.010 A 
ATOM     47  C   UNL A   1      39.481  28.212  31.069  1.00  0.00     0.010 A 
ATOM     48  C   UNL A   1      40.346  28.882  30.207  1.00  0.00    -0.014 A 
BRANCH  48  49
ATOM     49  C   UNL A   1      41.758  28.517  30.219  1.00  0.00     0.031 A 
ATOM     50  C   UNL A   1      42.171  27.565  29.148  1.00  0.00     0.074 A 
ATOM     51  C   UNL A   1      42.660  29.172  30.980  1.00  0.00     0.049 A 
ATOM     52  N   UNL A   1      42.661  26.377  29.286  1.00  0.00    -0.248 NA
ATOM     53  C   UNL A   1      41.895  27.935  27.751  1.00  0.00     0.031 C 
ATOM     54  C   UNL A   1      42.440  30.355  31.825  1.00  0.00     0.029 A 
ATOM     55  N   UNL A   1      44.011  29.020  31.028  1.00  0.00    -0.354 N 
ATOM     56  C   UNL A   1      42.961  25.937  27.997  1.00  0.00     0.074 A 
ATOM     57  C   UNL A   1      42.301  26.845  27.097  1.00  0.00     0.031 C 
ATOM     58  C   UNL A   1      43.622  30.961  32.064  1.00  0.00     0.029 A 
ATOM     59  C   UNL A   1      44.684  30.119  31.552  1.00  0.00     0.049 A 
ATOM     60  H   UNL A   1      44.471  28.205  30.721  1.00  0.00     0.167 HD
ATOM     61  C   UNL A   1      43.922  24.999  27.767  1.00  0.00     0.034 A 
ATOM     62  C   UNL A   1      46.018  30.347  31.514  1.00  0.00     0.034 A 
ATOM     63  C   UNL A   1      44.287  24.311  28.978  1.00  0.00     0.049 A 
ATOM     64  C   UNL A   1      46.675  29.046  31.263  1.00  0.00     0.074 A 
ATOM     65  C   UNL A   1      43.613  23.541  29.905  1.00  0.00     0.029 A 
ATOM     66  N   UNL A   1      45.455  24.699  29.586  1.00  0.00    -0.354 N 
ATOM     67  N   UNL A   1      46.654  28.054  32.107  1.00  0.00    -0.248 NA
ATOM     68  C   UNL A   1      46.994  28.695  29.890  1.00  0.00     0.031 C 
ATOM     69  C   UNL A   1      44.173  23.917  31.162  1.00  0.00     0.029 A 
ATOM     70  C   UNL A   1      45.195  24.838  30.923  1.00  0.00     0.049 A 
ATOM     71  H   UNL A   1      46.321  24.850  29.142  1.00  0.00     0.167 HD
ATOM     72  C   UNL A   1      46.496  26.929  31.311  1.00  0.00     0.074 A 
ATOM     73  C   UNL A   1      46.835  27.371  29.960  1.00  0.00     0.031 C 
ATOM     74  C   UNL A   1      45.825  25.830  31.768  1.00  0.00     0.034 A 
BRANCH  61  75
ATOM     75  C   UNL A   1      44.793  24.923  26.532  1.00  0.00     0.023 A 
ATOM     76  C   UNL A   1      45.034  23.642  25.981  1.00  0.00     0.012 A 
ATOM     77  C   UNL A   1      45.594  25.983  26.048  1.00  0.00     0.148 A 
ATOM     78  C   UNL A   1      46.045  23.422  25.039  1.00  0.00     0.002 A 
ATOM     79  C   UNL A   1      46.540  25.776  25.051  1.00  0.00     0.091 A 
ATOM     80  F   UNL A   1      45.549  27.179  26.640  1.00  0.00    -0.205 F 
ATOM     81  C   UNL A   1      46.794  24.492  24.565  1.00  0.00     0.022 A 
BRANCH  79  82
ATOM     82  S   UNL A   1      47.489  27.137  24.361  1.00  0.00     0.127 S 
ATOM     83  O   UNL A   1      48.209  26.473  23.279  1.00  0.00    -0.237 OA
ATOM     84  O   UNL A   1      46.433  28.055  23.934  1.00  0.00    -0.237 OA
ATOM     85  O   UNL A   1      48.303  27.639  25.463  1.00  0.00    -0.744 OA
ENDBRANCH  79  82
ENDBRANCH  61  75
BRANCH  62  86
ATOM     86  C   UNL A   1      46.751  31.629  31.428  1.00  0.00     0.023 A 
ATOM     87  C   UNL A   1      47.719  31.945  32.400  1.00  0.00     0.012 A 
ATOM     88  C   UNL A   1      46.704  32.409  30.251  1.00  0.00     0.148 A 
ATOM     89  C   UNL A   1      48.635  32.983  32.192  1.00  0.00     0.002 A 
ATOM     90  C   UNL A   1      47.615  33.441  30.050  1.00  0.00     0.091 A 
ATOM     91  F   UNL A   1      45.830  32.075  29.291  1.00  0.00    -0.205 F 
ATOM     92  C   UNL A   1      48.590  33.724  31.013  1.00  0.00     0.022 A 
BRANCH  90  93
ATOM     93  S   UNL A   1      47.637  34.418  28.539  1.00  0.00     0.127 S 
ATOM     94  O   UNL A   1      46.210  34.637  28.299  1.00  0.00    -0.237 OA
ATOM     95  O   UNL A   1      48.378  35.605  28.959  1.00  0.00    -0.237 OA
ATOM     96  O   UNL A   1      48.293  33.587  27.537  1.00  0.00    -0.744 OA
ENDBRANCH  90  93
ENDBRANCH  62  86
BRANCH  74  97
ATOM     97  C   UNL A   1      45.474  25.769  33.236  1.00  0.00     0.023 A 
ATOM     98  C   UNL A   1      46.410  25.394  34.223  1.00  0.00     0.012 A 
ATOM     99  C   UNL A   1      44.230  26.277  33.644  1.00  0.00     0.148 A 
ATOM    100  C   UNL A   1      46.105  25.504  35.583  1.00  0.00     0.002 A 
ATOM    101  C   UNL A   1      43.948  26.432  34.996  1.00  0.00     0.091 A 
ATOM    102  F   UNL A   1      43.349  26.633  32.696  1.00  0.00    -0.205 F 
ATOM    103  C   UNL A   1      44.879  26.038  35.970  1.00  0.00     0.022 A 
BRANCH 101 104
ATOM    104  S   UNL A   1      42.443  27.237  35.551  1.00  0.00     0.127 S 
ATOM    105  O   UNL A   1      42.426  28.448  34.735  1.00  0.00    -0.237 OA
ATOM    106  O   UNL A   1      41.414  26.253  35.209  1.00  0.00    -0.237 OA
ATOM    107  O   UNL A   1      42.608  27.446  36.985  1.00  0.00    -0.744 OA
ENDBRANCH 101 104
ENDBRANCH  74  97
ENDBRANCH  48  49
ENDBRANCH  40  43
ENDBRANCH  38  39
ENDBRANCH  37  38
ENDBRANCH  36  37
ENDBRANCH  35  36
ENDBRANCH   1  35
TORSDOF 22
ENDMDL
MODEL 3
REMARK VINA RESULT:     -10.6      3.755      7.534
REMARK SMILES O=C(CSc1nnnn1-c1ccc(C(=O)NCCCCCCNC(=O)c2ccc(-c3c4nc(c(-c5cccc(S(=O)(=O)[O-])c5F)c5ccc([nH]5)c(-c5cccc(S(=O)(=O)[O-])c5F)c5nc(c(-c6cccc(S(=O)(=O)[O-])c6F)c6ccc3[nH]6)C=C5)C=C4)cc2)cc1)Nc1nc(-c2ccccc2)cs1
REMARK SMILES IDX 18 1 17 2 16 3 14 4 15 5 13 7 10 8 11 9 90 10 12 11 89 12
REMARK SMILES IDX 9 13 5 14 6 15 7 16 8 17 4 18 3 19 2 20 1 21 91 22 92 24
REMARK SMILES IDX 93 25 102 26 94 27 101 28 95 29 96 30 100 31 97 32 99 33
REMARK SMILES IDX 98 34 19 35 20 36 21 37 22 38 23 39 24 40 25 42 26 43 27 44
REMARK SMILES IDX 88 45 28 46 87 47 29 48 30 49 31 50 81 51 32 52 86 53 80 54
REMARK SMILES IDX 82 55 33 56 85 57 79 58 78 59 34 61 66 62 46 63 65 64 47 65
REMARK SMILES IDX 50 66 64 67 83 68 48 69 49 70 63 72 84 73 51 74 35 75 36 76
REMARK SMILES IDX 44 77 37 78 39 79 45 80 38 81 40 82 41 83 42 84 43 85 67 86
REMARK SMILES IDX 68 87 76 88 69 89 71 90 77 91 70 92 72 93 73 94 74 95 75 96
REMARK SMILES IDX 52 97 53 98 61 99 54 100 56 101 62 102 55 103 57 104 58 105
REMARK SMILES IDX 59 106 60 107
REMARK H PARENT 16 6 91 23 23 41 82 60 50 71
REMARK Flexibility Score: inf
ROOT
ATOM      1  C   UNL A   1      33.282  26.691  24.159  1.00  0.00     0.021 C 
ENDROOT
BRANCH   1   2
ATOM      2  C   UNL A   1      32.245  27.207  23.160  1.00  0.00     0.116 C 
BRANCH   2   3
ATOM      3  N   UNL A   1      30.907  27.098  23.713  1.00  0.00    -0.352 N 
ATOM      4  C   UNL A   1      30.161  26.041  24.165  1.00  0.00     0.251 C 
ATOM      5  O   UNL A   1      29.044  26.294  24.618  1.00  0.00    -0.269 OA
ATOM      6  H   UNL A   1      30.440  27.963  23.778  1.00  0.00     0.163 HD
BRANCH   4   7
ATOM      7  C   UNL A   1      30.667  24.638  24.230  1.00  0.00     0.039 A 
ATOM      8  C   UNL A   1      31.929  22.151  24.533  1.00  0.00     0.069 A 
ATOM      9  C   UNL A   1      31.536  22.860  25.667  1.00  0.00     0.029 A 
ATOM     10  C   UNL A   1      31.586  22.612  23.259  1.00  0.00     0.029 A 
ATOM     11  C   UNL A   1      30.939  24.115  25.508  1.00  0.00     0.016 A 
ATOM     12  C   UNL A   1      30.903  23.823  23.121  1.00  0.00     0.016 A 
BRANCH   8  13
ATOM     13  N   UNL A   1      32.714  20.990  24.671  1.00  0.00    -0.187 N 
ATOM     14  C   UNL A   1      34.078  20.837  24.500  1.00  0.00     0.214 A 
ATOM     15  N   UNL A   1      34.408  19.597  24.772  1.00  0.00    -0.101 NA
ATOM     16  N   UNL A   1      33.249  18.990  25.187  1.00  0.00    -0.022 NA
ATOM     17  N   UNL A   1      32.242  19.853  25.231  1.00  0.00    -0.039 NA
BRANCH  14  18
ATOM     18  S   UNL A   1      35.191  22.162  24.326  1.00  0.00    -0.074 SA
BRANCH  18  19
ATOM     19  C   UNL A   1      36.391  21.771  25.633  1.00  0.00     0.178 C 
BRANCH  19  20
ATOM     20  C   UNL A   1      37.490  22.814  25.808  1.00  0.00     0.236 C 
ATOM     21  O   UNL A   1      37.346  23.935  25.325  1.00  0.00    -0.274 OA
ATOM     22  N   UNL A   1      38.546  22.410  26.600  1.00  0.00    -0.301 N 
ATOM     23  H   UNL A   1      38.577  21.475  26.909  1.00  0.00     0.172 HD
BRANCH  22  24
ATOM     24  C   UNL A   1      39.551  23.263  26.970  1.00  0.00     0.189 A 
ATOM     25  N   UNL A   1      39.547  24.568  27.063  1.00  0.00    -0.220 NA
ATOM     26  S   UNL A   1      41.013  22.482  27.384  1.00  0.00    -0.105 S 
ATOM     27  C   UNL A   1      40.811  25.010  27.409  1.00  0.00     0.084 A 
ATOM     28  C   UNL A   1      41.755  24.017  27.587  1.00  0.00     0.097 A 
BRANCH  27  29
ATOM     29  C   UNL A   1      41.099  26.418  27.606  1.00  0.00     0.001 A 
ATOM     30  C   UNL A   1      41.981  26.808  28.622  1.00  0.00     0.010 A 
ATOM     31  C   UNL A   1      40.511  27.393  26.792  1.00  0.00     0.010 A 
ATOM     32  C   UNL A   1      42.285  28.159  28.809  1.00  0.00     0.001 A 
ATOM     33  C   UNL A   1      40.809  28.744  26.988  1.00  0.00     0.001 A 
ATOM     34  C   UNL A   1      41.700  29.125  27.991  1.00  0.00     0.000 A 
ENDBRANCH  27  29
ENDBRANCH  22  24
ENDBRANCH  19  20
ENDBRANCH  18  19
ENDBRANCH  14  18
ENDBRANCH   8  13
ENDBRANCH   4   7
ENDBRANCH   2   3
ENDBRANCH   1   2
BRANCH   1  35
ATOM     35  C   UNL A   1      33.152  27.327  25.550  1.00  0.00     0.002 C 
BRANCH  35  36
ATOM     36  C   UNL A   1      33.967  28.614  25.765  1.00  0.00     0.002 C 
BRANCH  36  37
ATOM     37  C   UNL A   1      33.195  29.800  26.363  1.00  0.00     0.021 C 
BRANCH  37  38
ATOM     38  C   UNL A   1      33.887  30.407  27.575  1.00  0.00     0.116 C 
BRANCH  38  39
ATOM     39  N   UNL A   1      33.586  31.832  27.702  1.00  0.00    -0.352 N 
ATOM     40  C   UNL A   1      34.159  32.761  28.545  1.00  0.00     0.251 C 
ATOM     41  H   UNL A   1      32.880  32.173  27.106  1.00  0.00     0.163 HD
ATOM     42  O   UNL A   1      33.596  33.816  28.785  1.00  0.00    -0.269 OA
BRANCH  40  43
ATOM     43  C   UNL A   1      35.464  32.448  29.152  1.00  0.00     0.039 A 
ATOM     44  C   UNL A   1      36.582  32.210  28.348  1.00  0.00     0.014 A 
ATOM     45  C   UNL A   1      35.558  32.413  30.541  1.00  0.00     0.014 A 
ATOM     46  C   UNL A   1      37.816  32.006  28.958  1.00  0.00     0.010 A 
ATOM     47  C   UNL A   1      36.793  32.351  31.135  1.00  0.00     0.010 A 
ATOM     48  C   UNL A   1      37.916  32.094  30.354  1.00  0.00    -0.014 A 
BRANCH  48  49
ATOM     49  C   UNL A   1      39.217  32.025  31.009  1.00  0.00     0.031 A 
ATOM     50  C   UNL A   1      39.523  30.721  31.664  1.00  0.00     0.074 A 
ATOM     51  C   UNL A   1      40.161  32.973  30.829  1.00  0.00     0.049 A 
ATOM     52  N   UNL A   1      39.745  30.493  32.917  1.00  0.00    -0.248 NA
ATOM     53  C   UNL A   1      39.456  29.502  30.842  1.00  0.00     0.031 C 
ATOM     54  C   UNL A   1      40.110  34.139  29.935  1.00  0.00     0.029 A 
ATOM     55  N   UNL A   1      41.442  33.003  31.284  1.00  0.00    -0.354 N 
ATOM     56  C   UNL A   1      40.065  29.139  33.006  1.00  0.00     0.074 A 
ATOM     57  C   UNL A   1      39.689  28.551  31.748  1.00  0.00     0.031 C 
ATOM     58  C   UNL A   1      41.364  34.583  29.705  1.00  0.00     0.029 A 
ATOM     59  C   UNL A   1      42.274  33.858  30.569  1.00  0.00     0.049 A 
ATOM     60  H   UNL A   1      41.752  32.468  32.050  1.00  0.00     0.167 HD
ATOM     61  C   UNL A   1      40.832  28.650  34.021  1.00  0.00     0.034 A 
ATOM     62  C   UNL A   1      43.625  33.925  30.643  1.00  0.00     0.034 A 
ATOM     63  C   UNL A   1      40.937  29.595  35.103  1.00  0.00     0.049 A 
ATOM     64  C   UNL A   1      44.023  33.296  31.921  1.00  0.00     0.074 A 
ATOM     65  C   UNL A   1      40.040  30.220  35.945  1.00  0.00     0.029 A 
ATOM     66  N   UNL A   1      42.100  30.320  35.183  1.00  0.00    -0.354 N 
ATOM     67  N   UNL A   1      43.724  33.789  33.089  1.00  0.00    -0.248 NA
ATOM     68  C   UNL A   1      44.387  31.890  31.907  1.00  0.00     0.031 C 
ATOM     69  C   UNL A   1      40.547  31.544  36.096  1.00  0.00     0.029 A 
ATOM     70  C   UNL A   1      41.754  31.627  35.397  1.00  0.00     0.049 A 
ATOM     71  H   UNL A   1      43.015  29.966  35.103  1.00  0.00     0.167 HD
ATOM     72  C   UNL A   1      43.412  32.678  33.861  1.00  0.00     0.074 A 
ATOM     73  C   UNL A   1      43.956  31.540  33.122  1.00  0.00     0.031 C 
ATOM     74  C   UNL A   1      42.493  32.754  34.868  1.00  0.00     0.034 A 
BRANCH  61  75
ATOM     75  C   UNL A   1      41.777  27.473  33.916  1.00  0.00     0.023 A 
ATOM     76  C   UNL A   1      41.675  26.463  34.901  1.00  0.00     0.012 A 
ATOM     77  C   UNL A   1      42.918  27.433  33.082  1.00  0.00     0.148 A 
ATOM     78  C   UNL A   1      42.673  25.499  35.077  1.00  0.00     0.002 A 
ATOM     79  C   UNL A   1      43.866  26.423  33.203  1.00  0.00     0.091 A 
ATOM     80  F   UNL A   1      43.175  28.446  32.250  1.00  0.00    -0.205 F 
ATOM     81  C   UNL A   1      43.767  25.472  34.220  1.00  0.00     0.022 A 
BRANCH  79  82
ATOM     82  S   UNL A   1      45.264  26.309  32.081  1.00  0.00     0.127 S 
ATOM     83  O   UNL A   1      45.971  25.146  32.609  1.00  0.00    -0.237 OA
ATOM     84  O   UNL A   1      44.601  26.102  30.793  1.00  0.00    -0.237 OA
ATOM     85  O   UNL A   1      45.957  27.588  32.193  1.00  0.00    -0.744 OA
ENDBRANCH  79  82
ENDBRANCH  61  75
BRANCH  62  86
ATOM     86  C   UNL A   1      44.609  34.260  29.590  1.00  0.00     0.023 A 
ATOM     87  C   UNL A   1      45.395  35.421  29.714  1.00  0.00     0.012 A 
ATOM     88  C   UNL A   1      44.972  33.306  28.613  1.00  0.00     0.148 A 
ATOM     89  C   UNL A   1      46.529  35.610  28.916  1.00  0.00     0.002 A 
ATOM     90  C   UNL A   1      46.098  33.500  27.819  1.00  0.00     0.091 A 
ATOM     91  F   UNL A   1      44.269  32.168  28.531  1.00  0.00    -0.205 F 
ATOM     92  C   UNL A   1      46.886  34.646  27.975  1.00  0.00     0.022 A 
BRANCH  90  93
ATOM     93  S   UNL A   1      46.638  32.283  26.609  1.00  0.00     0.127 S 
ATOM     94  O   UNL A   1      47.812  32.934  26.029  1.00  0.00    -0.237 OA
ATOM     95  O   UNL A   1      46.931  31.128  27.455  1.00  0.00    -0.237 OA
ATOM     96  O   UNL A   1      45.523  32.119  25.684  1.00  0.00    -0.744 OA
ENDBRANCH  90  93
ENDBRANCH  62  86
BRANCH  74  97
ATOM     97  C   UNL A   1      42.005  34.122  35.286  1.00  0.00     0.023 A 
ATOM     98  C   UNL A   1      40.926  34.768  34.646  1.00  0.00     0.012 A 
ATOM     99  C   UNL A   1      42.527  34.683  36.463  1.00  0.00     0.148 A 
ATOM    100  C   UNL A   1      40.394  35.957  35.156  1.00  0.00     0.002 A 
ATOM    101  C   UNL A   1      41.964  35.837  36.995  1.00  0.00     0.091 A 
ATOM    102  F   UNL A   1      43.550  34.057  37.063  1.00  0.00    -0.205 F 
ATOM    103  C   UNL A   1      40.903  36.483  36.340  1.00  0.00     0.022 A 
BRANCH 101 104
ATOM    104  S   UNL A   1      42.488  36.485  38.585  1.00  0.00     0.127 S 
ATOM    105  O   UNL A   1      43.815  37.011  38.277  1.00  0.00    -0.237 OA
ATOM    106  O   UNL A   1      41.473  37.504  38.860  1.00  0.00    -0.237 OA
ATOM    107  O   UNL A   1      42.456  35.354  39.505  1.00  0.00    -0.744 OA
ENDBRANCH 101 104
ENDBRANCH  74  97
ENDBRANCH  48  49
ENDBRANCH  40  43
ENDBRANCH  38  39
ENDBRANCH  37  38
ENDBRANCH  36  37
ENDBRANCH  35  36
ENDBRANCH   1  35
TORSDOF 22
ENDMDL
