MODEL 1
REMARK VINA RESULT:     -12.6      0.000      0.000
REMARK SMILES COC(=O)c1ccc([C@H]2CC(=O)Nc3c(C(=O)NCCCCCCNC(=O)c4ccc(-c5c6nc(c(-c7cccc(S(=O)(=O)[O-])c7F)c7ccc([nH]7)c(-c7cccc(S(=O)(=O)[O-])c7F)c7nc(c(-c8cccc(S(=O)(=O)[O-])c8F)c8ccc5[nH]8)C=C7)C=C6)cc4)cn(-c4ccccc4)c32)cc1
REMARK SMILES IDX 21 1 20 2 19 3 18 4 16 5 17 6 15 8 9 9 10 10 99 11 11 12
REMARK SMILES IDX 14 13 92 14 12 15 13 16 91 17 8 19 5 20 6 21 101 22 7 23
REMARK SMILES IDX 100 24 3 25 4 26 2 27 1 28 93 29 94 30 98 31 95 32 97 33
REMARK SMILES IDX 96 34 22 35 23 36 24 37 25 38 26 39 27 41 28 42 29 43 90 44
REMARK SMILES IDX 30 45 89 46 31 47 32 48 33 49 83 50 34 51 88 52 82 53 84 54
REMARK SMILES IDX 35 55 87 56 81 57 80 58 36 60 68 61 48 62 67 63 49 64 52 65
REMARK SMILES IDX 66 66 85 67 50 68 51 69 65 71 86 72 53 73 37 74 38 75 46 76
REMARK SMILES IDX 39 77 41 78 47 79 40 80 42 81 43 82 44 83 45 84 69 85 70 86
REMARK SMILES IDX 78 87 71 88 73 89 79 90 72 91 74 92 75 93 76 94 77 95 54 96
REMARK SMILES IDX 55 97 63 98 56 99 58 100 64 101 57 102 59 103 60 104 61 105
REMARK SMILES IDX 62 106
REMARK H PARENT 18 7 13 18 25 40 84 59 52 70
REMARK Flexibility Score: inf
ROOT
ATOM      1  C   UNL A   1      36.315  30.348  28.219  1.00  0.00     0.002 C 
ENDROOT
BRANCH   1   2
ATOM      2  C   UNL A   1      35.607  29.138  27.604  1.00  0.00     0.021 C 
BRANCH   2   3
ATOM      3  C   UNL A   1      34.327  29.511  26.847  1.00  0.00     0.116 C 
BRANCH   3   4
ATOM      4  N   UNL A   1      33.166  29.083  27.583  1.00  0.00    -0.352 N 
ATOM      5  C   UNL A   1      32.302  28.035  27.447  1.00  0.00     0.254 C 
ATOM      6  O   UNL A   1      31.449  27.964  28.339  1.00  0.00    -0.269 OA
ATOM      7  H   UNL A   1      32.950  29.670  28.343  1.00  0.00     0.163 HD
BRANCH   5   8
ATOM      8  C   UNL A   1      32.366  27.011  26.395  1.00  0.00     0.081 A 
ATOM      9  C   UNL A   1      31.596  24.601  23.617  1.00  0.00     0.078 C 
ATOM     10  C   UNL A   1      30.103  24.899  23.420  1.00  0.00     0.115 C 
ATOM     11  C   UNL A   1      32.201  25.470  24.701  1.00  0.00     0.055 A 
ATOM     12  C   UNL A   1      29.674  26.283  23.819  1.00  0.00     0.225 C 
ATOM     13  C   UNL A   1      31.541  26.501  25.344  1.00  0.00     0.076 A 
ATOM     14  N   UNL A   1      33.464  25.365  25.254  1.00  0.00    -0.317 N 
ATOM     15  O   UNL A   1      28.732  26.867  23.284  1.00  0.00    -0.275 OA
ATOM     16  N   UNL A   1      30.295  26.850  24.893  1.00  0.00    -0.324 N 
ATOM     17  C   UNL A   1      33.513  26.223  26.324  1.00  0.00     0.107 A 
ATOM     18  H   UNL A   1      29.814  27.559  25.377  1.00  0.00     0.170 HD
BRANCH   9  19
ATOM     19  C   UNL A   1      31.740  23.088  23.791  1.00  0.00    -0.038 A 
ATOM     20  C   UNL A   1      32.239  20.324  24.046  1.00  0.00     0.060 A 
ATOM     21  C   UNL A   1      32.261  20.929  22.786  1.00  0.00     0.016 A 
ATOM     22  C   UNL A   1      31.866  21.077  25.161  1.00  0.00     0.016 A 
ATOM     23  C   UNL A   1      32.025  22.300  22.662  1.00  0.00     0.005 A 
ATOM     24  C   UNL A   1      31.578  22.437  25.023  1.00  0.00     0.005 A 
BRANCH  20  25
ATOM     25  C   UNL A   1      32.676  18.905  24.150  1.00  0.00     0.337 C 
ATOM     26  O   UNL A   1      32.770  18.155  23.198  1.00  0.00    -0.246 OA
BRANCH  25  27
ATOM     27  O   UNL A   1      33.024  18.610  25.431  1.00  0.00    -0.465 OA
ATOM     28  C   UNL A   1      32.725  17.271  25.817  1.00  0.00     0.282 C 
ENDBRANCH  25  27
ENDBRANCH  20  25
ENDBRANCH   9  19
BRANCH  14  29
ATOM     29  C   UNL A   1      34.507  24.473  24.904  1.00  0.00     0.045 A 
ATOM     30  C   UNL A   1      34.969  24.400  23.588  1.00  0.00     0.026 A 
ATOM     31  C   UNL A   1      34.981  23.576  25.873  1.00  0.00     0.026 A 
ATOM     32  C   UNL A   1      35.856  23.386  23.225  1.00  0.00     0.002 A 
ATOM     33  C   UNL A   1      35.840  22.546  25.494  1.00  0.00     0.002 A 
ATOM     34  C   UNL A   1      36.269  22.446  24.170  1.00  0.00     0.000 A 
ENDBRANCH  14  29
ENDBRANCH   5   8
ENDBRANCH   3   4
ENDBRANCH   2   3
ENDBRANCH   1   2
BRANCH   1  35
ATOM     35  C   UNL A   1      35.736  31.705  27.788  1.00  0.00     0.002 C 
BRANCH  35  36
ATOM     36  C   UNL A   1      36.028  32.884  28.731  1.00  0.00     0.021 C 
BRANCH  36  37
ATOM     37  C   UNL A   1      36.079  32.467  30.193  1.00  0.00     0.116 C 
BRANCH  37  38
ATOM     38  N   UNL A   1      36.873  33.415  30.971  1.00  0.00    -0.352 N 
ATOM     39  C   UNL A   1      38.095  33.238  31.576  1.00  0.00     0.251 C 
ATOM     40  H   UNL A   1      36.475  34.309  31.080  1.00  0.00     0.163 HD
ATOM     41  O   UNL A   1      38.475  34.015  32.444  1.00  0.00    -0.269 OA
BRANCH  39  42
ATOM     42  C   UNL A   1      38.934  32.102  31.169  1.00  0.00     0.039 A 
ATOM     43  C   UNL A   1      40.100  32.322  30.430  1.00  0.00     0.014 A 
ATOM     44  C   UNL A   1      38.553  30.815  31.544  1.00  0.00     0.014 A 
ATOM     45  C   UNL A   1      40.919  31.241  30.132  1.00  0.00     0.010 A 
ATOM     46  C   UNL A   1      39.422  29.767  31.359  1.00  0.00     0.010 A 
ATOM     47  C   UNL A   1      40.583  29.967  30.617  1.00  0.00    -0.014 A 
BRANCH  47  48
ATOM     48  C   UNL A   1      41.517  28.859  30.464  1.00  0.00     0.031 A 
ATOM     49  C   UNL A   1      42.378  28.615  31.654  1.00  0.00     0.074 A 
ATOM     50  C   UNL A   1      41.455  27.990  29.433  1.00  0.00     0.049 A 
ATOM     51  N   UNL A   1      43.658  28.763  31.748  1.00  0.00    -0.248 NA
ATOM     52  C   UNL A   1      41.719  28.314  32.936  1.00  0.00     0.031 C 
ATOM     53  C   UNL A   1      40.441  27.924  28.373  1.00  0.00     0.029 A 
ATOM     54  N   UNL A   1      42.201  26.874  29.204  1.00  0.00    -0.354 N 
ATOM     55  C   UNL A   1      43.993  28.331  33.031  1.00  0.00     0.074 A 
ATOM     56  C   UNL A   1      42.760  28.283  33.770  1.00  0.00     0.031 C 
ATOM     57  C   UNL A   1      40.471  26.703  27.799  1.00  0.00     0.029 A 
ATOM     58  C   UNL A   1      41.609  25.973  28.324  1.00  0.00     0.049 A 
ATOM     59  H   UNL A   1      43.077  26.718  29.623  1.00  0.00     0.167 HD
ATOM     60  C   UNL A   1      45.214  27.787  33.294  1.00  0.00     0.034 A 
ATOM     61  C   UNL A   1      41.996  24.697  28.086  1.00  0.00     0.034 A 
ATOM     62  C   UNL A   1      46.144  28.059  32.224  1.00  0.00     0.049 A 
ATOM     63  C   UNL A   1      43.402  24.577  28.533  1.00  0.00     0.074 A 
ATOM     64  C   UNL A   1      46.642  29.193  31.616  1.00  0.00     0.029 A 
ATOM     65  N   UNL A   1      46.406  27.020  31.364  1.00  0.00    -0.354 N 
ATOM     66  N   UNL A   1      44.394  25.197  27.959  1.00  0.00    -0.248 NA
ATOM     67  C   UNL A   1      43.655  24.095  29.879  1.00  0.00     0.031 C 
ATOM     68  C   UNL A   1      46.748  28.851  30.235  1.00  0.00     0.029 A 
ATOM     69  C   UNL A   1      46.375  27.514  30.089  1.00  0.00     0.049 A 
ATOM     70  H   UNL A   1      46.585  26.087  31.619  1.00  0.00     0.167 HD
ATOM     71  C   UNL A   1      45.203  25.594  29.017  1.00  0.00     0.074 A 
ATOM     72  C   UNL A   1      44.769  24.779  30.150  1.00  0.00     0.031 C 
ATOM     73  C   UNL A   1      45.933  26.746  28.945  1.00  0.00     0.034 A 
BRANCH  60  74
ATOM     74  C   UNL A   1      45.488  26.673  34.289  1.00  0.00     0.023 A 
ATOM     75  C   UNL A   1      46.616  26.832  35.131  1.00  0.00     0.012 A 
ATOM     76  C   UNL A   1      44.908  25.384  34.245  1.00  0.00     0.148 A 
ATOM     77  C   UNL A   1      47.186  25.753  35.814  1.00  0.00     0.002 A 
ATOM     78  C   UNL A   1      45.433  24.331  34.988  1.00  0.00     0.091 A 
ATOM     79  F   UNL A   1      43.921  25.116  33.389  1.00  0.00    -0.205 F 
ATOM     80  C   UNL A   1      46.594  24.500  35.743  1.00  0.00     0.022 A 
BRANCH  78  81
ATOM     81  S   UNL A   1      44.681  22.698  34.973  1.00  0.00     0.127 S 
ATOM     82  O   UNL A   1      45.099  22.196  33.668  1.00  0.00    -0.237 OA
ATOM     83  O   UNL A   1      45.328  22.061  36.120  1.00  0.00    -0.237 OA
ATOM     84  O   UNL A   1      43.250  22.922  35.144  1.00  0.00    -0.744 OA
ENDBRANCH  78  81
ENDBRANCH  60  74
BRANCH  61  85
ATOM     85  C   UNL A   1      41.190  23.511  27.719  1.00  0.00     0.023 A 
ATOM     86  C   UNL A   1      39.826  23.670  27.405  1.00  0.00     0.012 A 
ATOM     87  C   UNL A   1      41.811  22.285  27.397  1.00  0.00     0.148 A 
ATOM     88  C   UNL A   1      39.113  22.655  26.755  1.00  0.00     0.002 A 
ATOM     89  C   UNL A   1      41.097  21.276  26.755  1.00  0.00     0.091 A 
ATOM     90  F   UNL A   1      43.122  22.142  27.637  1.00  0.00    -0.205 F 
ATOM     91  C   UNL A   1      39.751  21.464  26.420  1.00  0.00     0.022 A 
BRANCH  89  92
ATOM     92  S   UNL A   1      41.860  19.722  26.266  1.00  0.00     0.127 S 
ATOM     93  O   UNL A   1      40.733  19.006  25.667  1.00  0.00    -0.237 OA
ATOM     94  O   UNL A   1      42.876  20.169  25.316  1.00  0.00    -0.237 OA
ATOM     95  O   UNL A   1      42.366  19.121  27.494  1.00  0.00    -0.744 OA
ENDBRANCH  89  92
ENDBRANCH  61  85
BRANCH  73  96
ATOM     96  C   UNL A   1      46.078  27.415  27.602  1.00  0.00     0.023 A 
ATOM     97  C   UNL A   1      45.495  28.665  27.306  1.00  0.00     0.012 A 
ATOM     98  C   UNL A   1      46.968  26.845  26.677  1.00  0.00     0.148 A 
ATOM     99  C   UNL A   1      45.778  29.319  26.103  1.00  0.00     0.002 A 
ATOM    100  C   UNL A   1      47.285  27.521  25.506  1.00  0.00     0.091 A 
ATOM    101  F   UNL A   1      47.515  25.657  26.974  1.00  0.00    -0.205 F 
ATOM    102  C   UNL A   1      46.684  28.754  25.209  1.00  0.00     0.022 A 
BRANCH 100 103
ATOM    103  S   UNL A   1      48.542  26.904  24.385  1.00  0.00     0.127 S 
ATOM    104  O   UNL A   1      49.703  26.784  25.263  1.00  0.00    -0.237 OA
ATOM    105  O   UNL A   1      47.973  25.629  23.943  1.00  0.00    -0.237 OA
ATOM    106  O   UNL A   1      48.656  27.900  23.325  1.00  0.00    -0.744 OA
ENDBRANCH 100 103
ENDBRANCH  73  96
ENDBRANCH  47  48
ENDBRANCH  39  42
ENDBRANCH  37  38
ENDBRANCH  36  37
ENDBRANCH  35  36
ENDBRANCH   1  35
TORSDOF 20
ENDMDL
MODEL 2
REMARK VINA RESULT:     -12.1      2.474      2.850
REMARK SMILES COC(=O)c1ccc([C@H]2CC(=O)Nc3c(C(=O)NCCCCCCNC(=O)c4ccc(-c5c6nc(c(-c7cccc(S(=O)(=O)[O-])c7F)c7ccc([nH]7)c(-c7cccc(S(=O)(=O)[O-])c7F)c7nc(c(-c8cccc(S(=O)(=O)[O-])c8F)c8ccc5[nH]8)C=C7)C=C6)cc4)cn(-c4ccccc4)c32)cc1
REMARK SMILES IDX 21 1 20 2 19 3 18 4 16 5 17 6 15 8 9 9 10 10 99 11 11 12
REMARK SMILES IDX 14 13 92 14 12 15 13 16 91 17 8 19 5 20 6 21 101 22 7 23
REMARK SMILES IDX 100 24 3 25 4 26 2 27 1 28 93 29 94 30 98 31 95 32 97 33
REMARK SMILES IDX 96 34 22 35 23 36 24 37 25 38 26 39 27 41 28 42 29 43 90 44
REMARK SMILES IDX 30 45 89 46 31 47 32 48 33 49 83 50 34 51 88 52 82 53 84 54
REMARK SMILES IDX 35 55 87 56 81 57 80 58 36 60 68 61 48 62 67 63 49 64 52 65
REMARK SMILES IDX 66 66 85 67 50 68 51 69 65 71 86 72 53 73 37 74 38 75 46 76
REMARK SMILES IDX 39 77 41 78 47 79 40 80 42 81 43 82 44 83 45 84 69 85 70 86
REMARK SMILES IDX 78 87 71 88 73 89 79 90 72 91 74 92 75 93 76 94 77 95 54 96
REMARK SMILES IDX 55 97 63 98 56 99 58 100 64 101 57 102 59 103 60 104 61 105
REMARK SMILES IDX 62 106
REMARK H PARENT 18 7 13 18 25 40 84 59 52 70
REMARK Flexibility Score: inf
ROOT
ATOM      1  C   UNL A   1      36.391  30.597  28.260  1.00  0.00     0.002 C 
ENDROOT
BRANCH   1   2
ATOM      2  C   UNL A   1      35.479  29.464  27.784  1.00  0.00     0.021 C 
BRANCH   2   3
ATOM      3  C   UNL A   1      34.307  29.955  26.927  1.00  0.00     0.116 C 
BRANCH   3   4
ATOM      4  N   UNL A   1      33.057  29.500  27.476  1.00  0.00    -0.352 N 
ATOM      5  C   UNL A   1      32.270  28.410  27.242  1.00  0.00     0.254 C 
ATOM      6  O   UNL A   1      31.283  28.330  27.983  1.00  0.00    -0.269 OA
ATOM      7  H   UNL A   1      32.694  30.101  28.166  1.00  0.00     0.163 HD
BRANCH   5   8
ATOM      8  C   UNL A   1      32.548  27.356  26.257  1.00  0.00     0.081 A 
ATOM      9  C   UNL A   1      32.480  25.022  23.313  1.00  0.00     0.078 C 
ATOM     10  C   UNL A   1      31.245  25.565  22.579  1.00  0.00     0.115 C 
ATOM     11  C   UNL A   1      32.772  25.810  24.573  1.00  0.00     0.055 A 
ATOM     12  C   UNL A   1      30.941  27.014  22.835  1.00  0.00     0.225 C 
ATOM     13  C   UNL A   1      32.105  26.960  24.956  1.00  0.00     0.076 A 
ATOM     14  N   UNL A   1      33.695  25.508  25.557  1.00  0.00    -0.317 N 
ATOM     15  O   UNL A   1      30.385  27.733  22.004  1.00  0.00    -0.275 OA
ATOM     16  N   UNL A   1      31.199  27.502  24.081  1.00  0.00    -0.324 N 
ATOM     17  C   UNL A   1      33.485  26.381  26.595  1.00  0.00     0.107 A 
ATOM     18  H   UNL A   1      30.701  28.298  24.373  1.00  0.00     0.170 HD
BRANCH   9  19
ATOM     19  C   UNL A   1      32.286  23.513  23.476  1.00  0.00    -0.038 A 
ATOM     20  C   UNL A   1      32.172  20.714  23.802  1.00  0.00     0.060 A 
ATOM     21  C   UNL A   1      32.756  21.266  22.659  1.00  0.00     0.016 A 
ATOM     22  C   UNL A   1      31.554  21.557  24.729  1.00  0.00     0.016 A 
ATOM     23  C   UNL A   1      32.822  22.652  22.503  1.00  0.00     0.005 A 
ATOM     24  C   UNL A   1      31.575  22.941  24.542  1.00  0.00     0.005 A 
BRANCH  20  25
ATOM     25  C   UNL A   1      32.288  19.245  24.011  1.00  0.00     0.337 C 
ATOM     26  O   UNL A   1      32.445  18.445  23.110  1.00  0.00    -0.246 OA
BRANCH  25  27
ATOM     27  O   UNL A   1      32.274  18.953  25.339  1.00  0.00    -0.465 OA
ATOM     28  C   UNL A   1      32.707  17.630  25.645  1.00  0.00     0.282 C 
ENDBRANCH  25  27
ENDBRANCH  20  25
ENDBRANCH   9  19
BRANCH  14  29
ATOM     29  C   UNL A   1      34.624  24.439  25.595  1.00  0.00     0.045 A 
ATOM     30  C   UNL A   1      35.627  24.335  24.628  1.00  0.00     0.026 A 
ATOM     31  C   UNL A   1      34.442  23.422  26.542  1.00  0.00     0.026 A 
ATOM     32  C   UNL A   1      36.407  23.179  24.568  1.00  0.00     0.002 A 
ATOM     33  C   UNL A   1      35.203  22.257  26.454  1.00  0.00     0.002 A 
ATOM     34  C   UNL A   1      36.176  22.133  25.462  1.00  0.00     0.000 A 
ENDBRANCH  14  29
ENDBRANCH   5   8
ENDBRANCH   3   4
ENDBRANCH   2   3
ENDBRANCH   1   2
BRANCH   1  35
ATOM     35  C   UNL A   1      35.949  31.997  27.805  1.00  0.00     0.002 C 
BRANCH  35  36
ATOM     36  C   UNL A   1      35.404  32.916  28.910  1.00  0.00     0.021 C 
BRANCH  36  37
ATOM     37  C   UNL A   1      34.423  32.207  29.832  1.00  0.00     0.116 C 
BRANCH  37  38
ATOM     38  N   UNL A   1      34.553  32.702  31.201  1.00  0.00    -0.352 N 
ATOM     39  C   UNL A   1      35.448  32.339  32.177  1.00  0.00     0.251 C 
ATOM     40  H   UNL A   1      33.903  33.394  31.461  1.00  0.00     0.163 HD
ATOM     41  O   UNL A   1      35.229  32.611  33.352  1.00  0.00    -0.269 OA
BRANCH  39  42
ATOM     42  C   UNL A   1      36.669  31.615  31.793  1.00  0.00     0.039 A 
ATOM     43  C   UNL A   1      37.804  32.323  31.387  1.00  0.00     0.014 A 
ATOM     44  C   UNL A   1      36.674  30.223  31.853  1.00  0.00     0.014 A 
ATOM     45  C   UNL A   1      38.969  31.620  31.111  1.00  0.00     0.010 A 
ATOM     46  C   UNL A   1      37.856  29.540  31.703  1.00  0.00     0.010 A 
ATOM     47  C   UNL A   1      38.994  30.228  31.289  1.00  0.00    -0.014 A 
BRANCH  47  48
ATOM     48  C   UNL A   1      40.251  29.500  31.174  1.00  0.00     0.031 A 
ATOM     49  C   UNL A   1      41.022  29.405  32.445  1.00  0.00     0.074 A 
ATOM     50  C   UNL A   1      40.581  28.783  30.080  1.00  0.00     0.049 A 
ATOM     51  N   UNL A   1      42.166  29.940  32.717  1.00  0.00    -0.248 NA
ATOM     52  C   UNL A   1      40.375  28.762  33.601  1.00  0.00     0.031 C 
ATOM     53  C   UNL A   1      39.755  28.523  28.894  1.00  0.00     0.029 A 
ATOM     54  N   UNL A   1      41.671  27.997  29.864  1.00  0.00    -0.354 N 
ATOM     55  C   UNL A   1      42.496  29.490  33.996  1.00  0.00     0.074 A 
ATOM     56  C   UNL A   1      41.281  28.968  34.560  1.00  0.00     0.031 C 
ATOM     57  C   UNL A   1      40.242  27.450  28.235  1.00  0.00     0.029 A 
ATOM     58  C   UNL A   1      41.499  27.064  28.846  1.00  0.00     0.049 A 
ATOM     59  H   UNL A   1      42.504  28.080  30.381  1.00  0.00     0.167 HD
ATOM     60  C   UNL A   1      43.796  29.336  34.373  1.00  0.00     0.034 A 
ATOM     61  C   UNL A   1      42.306  26.013  28.562  1.00  0.00     0.034 A 
ATOM     62  C   UNL A   1      44.685  30.012  33.460  1.00  0.00     0.049 A 
ATOM     63  C   UNL A   1      43.622  26.295  29.179  1.00  0.00     0.074 A 
ATOM     64  C   UNL A   1      44.839  31.308  33.013  1.00  0.00     0.029 A 
ATOM     65  N   UNL A   1      45.359  29.219  32.563  1.00  0.00    -0.354 N 
ATOM     66  N   UNL A   1      44.407  27.261  28.791  1.00  0.00    -0.248 NA
ATOM     67  C   UNL A   1      43.885  25.765  30.505  1.00  0.00     0.031 C 
ATOM     68  C   UNL A   1      45.187  31.182  31.635  1.00  0.00     0.029 A 
ATOM     69  C   UNL A   1      45.293  29.822  31.338  1.00  0.00     0.049 A 
ATOM     70  H   UNL A   1      45.808  28.367  32.766  1.00  0.00     0.167 HD
ATOM     71  C   UNL A   1      44.930  27.768  29.973  1.00  0.00     0.074 A 
ATOM     72  C   UNL A   1      44.680  26.731  30.972  1.00  0.00     0.031 C 
ATOM     73  C   UNL A   1      45.243  29.093  30.089  1.00  0.00     0.034 A 
BRANCH  60  74
ATOM     74  C   UNL A   1      44.321  28.259  35.306  1.00  0.00     0.023 A 
ATOM     75  C   UNL A   1      43.946  26.924  35.017  1.00  0.00     0.012 A 
ATOM     76  C   UNL A   1      44.890  28.494  36.579  1.00  0.00     0.148 A 
ATOM     77  C   UNL A   1      44.044  25.905  35.969  1.00  0.00     0.002 A 
ATOM     78  C   UNL A   1      45.058  27.460  37.496  1.00  0.00     0.091 A 
ATOM     79  F   UNL A   1      45.159  29.737  36.980  1.00  0.00    -0.205 F 
ATOM     80  C   UNL A   1      44.601  26.173  37.211  1.00  0.00     0.022 A 
BRANCH  78  81
ATOM     81  S   UNL A   1      45.816  27.738  39.102  1.00  0.00     0.127 S 
ATOM     82  O   UNL A   1      44.866  28.660  39.718  1.00  0.00    -0.237 OA
ATOM     83  O   UNL A   1      45.825  26.387  39.665  1.00  0.00    -0.237 OA
ATOM     84  O   UNL A   1      47.142  28.276  38.824  1.00  0.00    -0.744 OA
ENDBRANCH  78  81
ENDBRANCH  60  74
BRANCH  61  85
ATOM     85  C   UNL A   1      41.976  24.685  28.000  1.00  0.00     0.023 A 
ATOM     86  C   UNL A   1      40.640  24.241  28.008  1.00  0.00     0.012 A 
ATOM     87  C   UNL A   1      42.909  23.983  27.206  1.00  0.00     0.148 A 
ATOM     88  C   UNL A   1      40.235  23.158  27.218  1.00  0.00     0.002 A 
ATOM     89  C   UNL A   1      42.504  22.903  26.426  1.00  0.00     0.091 A 
ATOM     90  F   UNL A   1      44.170  24.430  27.144  1.00  0.00    -0.205 F 
ATOM     91  C   UNL A   1      41.164  22.496  26.419  1.00  0.00     0.022 A 
BRANCH  89  92
ATOM     92  S   UNL A   1      43.640  22.017  25.348  1.00  0.00     0.127 S 
ATOM     93  O   UNL A   1      43.585  22.820  24.125  1.00  0.00    -0.237 OA
ATOM     94  O   UNL A   1      44.896  22.113  26.088  1.00  0.00    -0.237 OA
ATOM     95  O   UNL A   1      43.091  20.674  25.207  1.00  0.00    -0.744 OA
ENDBRANCH  89  92
ENDBRANCH  61  85
BRANCH  73  96
ATOM     96  C   UNL A   1      45.292  29.925  28.833  1.00  0.00     0.023 A 
ATOM     97  C   UNL A   1      44.131  30.346  28.151  1.00  0.00     0.012 A 
ATOM     98  C   UNL A   1      46.537  30.437  28.432  1.00  0.00     0.148 A 
ATOM     99  C   UNL A   1      44.215  31.240  27.080  1.00  0.00     0.002 A 
ATOM    100  C   UNL A   1      46.611  31.363  27.399  1.00  0.00     0.091 A 
ATOM    101  F   UNL A   1      47.632  30.028  29.091  1.00  0.00    -0.205 F 
ATOM    102  C   UNL A   1      45.454  31.759  26.713  1.00  0.00     0.022 A 
BRANCH 100 103
ATOM    103  S   UNL A   1      48.160  32.162  26.974  1.00  0.00     0.127 S 
ATOM    104  O   UNL A   1      48.566  32.742  28.251  1.00  0.00    -0.237 OA
ATOM    105  O   UNL A   1      48.982  31.037  26.522  1.00  0.00    -0.237 OA
ATOM    106  O   UNL A   1      47.839  33.119  25.922  1.00  0.00    -0.744 OA
ENDBRANCH 100 103
ENDBRANCH  73  96
ENDBRANCH  47  48
ENDBRANCH  39  42
ENDBRANCH  37  38
ENDBRANCH  36  37
ENDBRANCH  35  36
ENDBRANCH   1  35
TORSDOF 20
ENDMDL
MODEL 3
REMARK VINA RESULT:     -12.0      2.697      3.478
REMARK SMILES COC(=O)c1ccc([C@H]2CC(=O)Nc3c(C(=O)NCCCCCCNC(=O)c4ccc(-c5c6nc(c(-c7cccc(S(=O)(=O)[O-])c7F)c7ccc([nH]7)c(-c7cccc(S(=O)(=O)[O-])c7F)c7nc(c(-c8cccc(S(=O)(=O)[O-])c8F)c8ccc5[nH]8)C=C7)C=C6)cc4)cn(-c4ccccc4)c32)cc1
REMARK SMILES IDX 21 1 20 2 19 3 18 4 16 5 17 6 15 8 9 9 10 10 99 11 11 12
REMARK SMILES IDX 14 13 92 14 12 15 13 16 91 17 8 19 5 20 6 21 101 22 7 23
REMARK SMILES IDX 100 24 3 25 4 26 2 27 1 28 93 29 94 30 98 31 95 32 97 33
REMARK SMILES IDX 96 34 22 35 23 36 24 37 25 38 26 39 27 41 28 42 29 43 90 44
REMARK SMILES IDX 30 45 89 46 31 47 32 48 33 49 83 50 34 51 88 52 82 53 84 54
REMARK SMILES IDX 35 55 87 56 81 57 80 58 36 60 68 61 48 62 67 63 49 64 52 65
REMARK SMILES IDX 66 66 85 67 50 68 51 69 65 71 86 72 53 73 37 74 38 75 46 76
REMARK SMILES IDX 39 77 41 78 47 79 40 80 42 81 43 82 44 83 45 84 69 85 70 86
REMARK SMILES IDX 78 87 71 88 73 89 79 90 72 91 74 92 75 93 76 94 77 95 54 96
REMARK SMILES IDX 55 97 63 98 56 99 58 100 64 101 57 102 59 103 60 104 61 105
REMARK SMILES IDX 62 106
REMARK H PARENT 18 7 13 18 25 40 84 59 52 70
REMARK Flexibility Score: inf
ROOT
ATOM      1  C   UNL A   1      34.616  31.285  28.102  1.00  0.00     0.002 C 
ENDROOT
BRANCH   1   2
ATOM      2  C   UNL A   1      35.589  30.186  27.669  1.00  0.00     0.021 C 
BRANCH   2   3
ATOM      3  C   UNL A   1      34.889  28.977  27.037  1.00  0.00     0.116 C 
BRANCH   3   4
ATOM      4  N   UNL A   1      33.569  28.818  27.587  1.00  0.00    -0.352 N 
ATOM      5  C   UNL A   1      32.548  27.947  27.340  1.00  0.00     0.254 C 
ATOM      6  O   UNL A   1      31.571  28.087  28.085  1.00  0.00    -0.269 OA
ATOM      7  H   UNL A   1      33.358  29.476  28.288  1.00  0.00     0.163 HD
BRANCH   5   8
ATOM      8  C   UNL A   1      32.570  26.873  26.338  1.00  0.00     0.081 A 
ATOM      9  C   UNL A   1      31.687  24.317  23.728  1.00  0.00     0.078 C 
ATOM     10  C   UNL A   1      30.180  24.585  23.601  1.00  0.00     0.115 C 
ATOM     11  C   UNL A   1      32.336  25.247  24.732  1.00  0.00     0.055 A 
ATOM     12  C   UNL A   1      29.751  25.981  23.956  1.00  0.00     0.225 C 
ATOM     13  C   UNL A   1      31.696  26.300  25.360  1.00  0.00     0.076 A 
ATOM     14  N   UNL A   1      33.629  25.187  25.218  1.00  0.00    -0.317 N 
ATOM     15  O   UNL A   1      28.772  26.525  23.446  1.00  0.00    -0.275 OA
ATOM     16  N   UNL A   1      30.421  26.609  24.964  1.00  0.00    -0.324 N 
ATOM     17  C   UNL A   1      33.724  26.098  26.240  1.00  0.00     0.107 A 
ATOM     18  H   UNL A   1      29.957  27.334  25.439  1.00  0.00     0.170 HD
BRANCH   9  19
ATOM     19  C   UNL A   1      31.864  22.817  23.966  1.00  0.00    -0.038 A 
ATOM     20  C   UNL A   1      32.422  20.075  24.326  1.00  0.00     0.060 A 
ATOM     21  C   UNL A   1      32.357  20.618  23.039  1.00  0.00     0.016 A 
ATOM     22  C   UNL A   1      32.106  20.880  25.424  1.00  0.00     0.016 A 
ATOM     23  C   UNL A   1      32.092  21.977  22.862  1.00  0.00     0.005 A 
ATOM     24  C   UNL A   1      31.788  22.227  25.237  1.00  0.00     0.005 A 
BRANCH  20  25
ATOM     25  C   UNL A   1      32.887  18.669  24.472  1.00  0.00     0.337 C 
ATOM     26  O   UNL A   1      33.666  18.133  23.710  1.00  0.00    -0.246 OA
BRANCH  25  27
ATOM     27  O   UNL A   1      32.380  18.119  25.608  1.00  0.00    -0.465 OA
ATOM     28  C   UNL A   1      32.416  16.695  25.626  1.00  0.00     0.282 C 
ENDBRANCH  25  27
ENDBRANCH  20  25
ENDBRANCH   9  19
BRANCH  14  29
ATOM     29  C   UNL A   1      34.666  24.293  24.854  1.00  0.00     0.045 A 
ATOM     30  C   UNL A   1      35.093  24.203  23.527  1.00  0.00     0.026 A 
ATOM     31  C   UNL A   1      35.168  23.412  25.822  1.00  0.00     0.026 A 
ATOM     32  C   UNL A   1      35.974  23.186  23.155  1.00  0.00     0.002 A 
ATOM     33  C   UNL A   1      36.021  22.379  25.436  1.00  0.00     0.002 A 
ATOM     34  C   UNL A   1      36.414  22.261  24.103  1.00  0.00     0.000 A 
ENDBRANCH  14  29
ENDBRANCH   5   8
ENDBRANCH   3   4
ENDBRANCH   2   3
ENDBRANCH   1   2
BRANCH   1  35
ATOM     35  C   UNL A   1      35.196  32.706  28.036  1.00  0.00     0.002 C 
BRANCH  35  36
ATOM     36  C   UNL A   1      34.352  33.803  28.703  1.00  0.00     0.021 C 
BRANCH  36  37
ATOM     37  C   UNL A   1      35.042  34.425  29.907  1.00  0.00     0.116 C 
BRANCH  37  38
ATOM     38  N   UNL A   1      34.355  34.055  31.143  1.00  0.00    -0.352 N 
ATOM     39  C   UNL A   1      34.615  33.019  32.008  1.00  0.00     0.251 C 
ATOM     40  H   UNL A   1      33.595  34.630  31.391  1.00  0.00     0.163 HD
ATOM     41  O   UNL A   1      33.767  32.659  32.816  1.00  0.00    -0.269 OA
BRANCH  39  42
ATOM     42  C   UNL A   1      35.920  32.347  31.945  1.00  0.00     0.039 A 
ATOM     43  C   UNL A   1      36.015  31.048  31.437  1.00  0.00     0.014 A 
ATOM     44  C   UNL A   1      37.052  33.031  32.385  1.00  0.00     0.014 A 
ATOM     45  C   UNL A   1      37.271  30.468  31.309  1.00  0.00     0.010 A 
ATOM     46  C   UNL A   1      38.299  32.509  32.143  1.00  0.00     0.010 A 
ATOM     47  C   UNL A   1      38.412  31.213  31.647  1.00  0.00    -0.014 A 
BRANCH  47  48
ATOM     48  C   UNL A   1      39.739  30.687  31.355  1.00  0.00     0.031 A 
ATOM     49  C   UNL A   1      40.577  30.435  32.561  1.00  0.00     0.074 A 
ATOM     50  C   UNL A   1      40.099  30.253  30.129  1.00  0.00     0.049 A 
ATOM     51  N   UNL A   1      41.661  31.044  32.911  1.00  0.00    -0.248 NA
ATOM     52  C   UNL A   1      40.068  29.497  33.574  1.00  0.00     0.031 C 
ATOM     53  C   UNL A   1      39.253  30.135  28.934  1.00  0.00     0.029 A 
ATOM     54  N   UNL A   1      41.263  29.670  29.731  1.00  0.00    -0.354 N 
ATOM     55  C   UNL A   1      42.103  30.391  34.062  1.00  0.00     0.074 A 
ATOM     56  C   UNL A   1      40.988  29.616  34.534  1.00  0.00     0.031 C 
ATOM     57  C   UNL A   1      39.832  29.287  28.058  1.00  0.00     0.029 A 
ATOM     58  C   UNL A   1      41.154  28.948  28.546  1.00  0.00     0.049 A 
ATOM     59  H   UNL A   1      42.105  29.751  30.235  1.00  0.00     0.167 HD
ATOM     60  C   UNL A   1      43.429  30.329  34.369  1.00  0.00     0.034 A 
ATOM     61  C   UNL A   1      42.066  28.086  28.034  1.00  0.00     0.034 A 
ATOM     62  C   UNL A   1      44.187  31.282  33.595  1.00  0.00     0.049 A 
ATOM     63  C   UNL A   1      43.367  28.401  28.665  1.00  0.00     0.074 A 
ATOM     64  C   UNL A   1      44.165  32.651  33.422  1.00  0.00     0.029 A 
ATOM     65  N   UNL A   1      44.906  30.777  32.539  1.00  0.00    -0.354 N 
ATOM     66  N   UNL A   1      44.012  29.517  28.467  1.00  0.00    -0.248 NA
ATOM     67  C   UNL A   1      43.755  27.652  29.847  1.00  0.00     0.031 C 
ATOM     68  C   UNL A   1      44.458  32.850  32.040  1.00  0.00     0.029 A 
ATOM     69  C   UNL A   1      44.710  31.602  31.466  1.00  0.00     0.049 A 
ATOM     70  H   UNL A   1      45.462  29.966  32.551  1.00  0.00     0.167 HD
ATOM     71  C   UNL A   1      44.528  29.837  29.716  1.00  0.00     0.074 A 
ATOM     72  C   UNL A   1      44.451  28.596  30.485  1.00  0.00     0.031 C 
ATOM     73  C   UNL A   1      44.686  31.139  30.095  1.00  0.00     0.034 A 
BRANCH  60  74
ATOM     74  C   UNL A   1      44.123  29.161  35.047  1.00  0.00     0.023 A 
ATOM     75  C   UNL A   1      44.992  29.470  36.122  1.00  0.00     0.012 A 
ATOM     76  C   UNL A   1      44.210  27.851  34.521  1.00  0.00     0.148 A 
ATOM     77  C   UNL A   1      45.952  28.562  36.582  1.00  0.00     0.002 A 
ATOM     78  C   UNL A   1      45.115  26.926  35.034  1.00  0.00     0.091 A 
ATOM     79  F   UNL A   1      43.518  27.513  33.432  1.00  0.00    -0.205 F 
ATOM     80  C   UNL A   1      46.014  27.288  36.037  1.00  0.00     0.022 A 
BRANCH  78  81
ATOM     81  S   UNL A   1      45.207  25.246  34.400  1.00  0.00     0.127 S 
ATOM     82  O   UNL A   1      43.824  24.804  34.541  1.00  0.00    -0.237 OA
ATOM     83  O   UNL A   1      45.650  25.472  33.023  1.00  0.00    -0.237 OA
ATOM     84  O   UNL A   1      46.187  24.563  35.236  1.00  0.00    -0.744 OA
ENDBRANCH  78  81
ENDBRANCH  60  74
BRANCH  61  85
ATOM     85  C   UNL A   1      41.869  26.868  27.218  1.00  0.00     0.023 A 
ATOM     86  C   UNL A   1      42.147  26.904  25.838  1.00  0.00     0.012 A 
ATOM     87  C   UNL A   1      41.689  25.608  27.830  1.00  0.00     0.148 A 
ATOM     88  C   UNL A   1      42.283  25.723  25.098  1.00  0.00     0.002 A 
ATOM     89  C   UNL A   1      41.820  24.436  27.089  1.00  0.00     0.091 A 
ATOM     90  F   UNL A   1      41.482  25.556  29.152  1.00  0.00    -0.205 F 
ATOM     91  C   UNL A   1      42.130  24.490  25.725  1.00  0.00     0.022 A 
BRANCH  89  92
ATOM     92  S   UNL A   1      41.664  22.806  27.835  1.00  0.00     0.127 S 
ATOM     93  O   UNL A   1      42.068  23.066  29.218  1.00  0.00    -0.237 OA
ATOM     94  O   UNL A   1      40.242  22.526  27.655  1.00  0.00    -0.237 OA
ATOM     95  O   UNL A   1      42.576  21.941  27.098  1.00  0.00    -0.744 OA
ENDBRANCH  89  92
ENDBRANCH  61  85
BRANCH  73  96
ATOM     96  C   UNL A   1      44.575  32.207  29.037  1.00  0.00     0.023 A 
ATOM     97  C   UNL A   1      43.466  33.074  28.941  1.00  0.00     0.012 A 
ATOM     98  C   UNL A   1      45.699  32.451  28.229  1.00  0.00     0.148 A 
ATOM     99  C   UNL A   1      43.471  34.145  28.043  1.00  0.00     0.002 A 
ATOM    100  C   UNL A   1      45.719  33.545  27.374  1.00  0.00     0.091 A 
ATOM    101  F   UNL A   1      46.746  31.619  28.332  1.00  0.00    -0.205 F 
ATOM    102  C   UNL A   1      44.603  34.389  27.270  1.00  0.00     0.022 A 
BRANCH 100 103
ATOM    103  S   UNL A   1      47.196  33.982  26.454  1.00  0.00     0.127 S 
ATOM    104  O   UNL A   1      46.639  34.645  25.278  1.00  0.00    -0.237 OA
ATOM    105  O   UNL A   1      47.897  34.870  27.385  1.00  0.00    -0.237 OA
ATOM    106  O   UNL A   1      47.892  32.726  26.198  1.00  0.00    -0.744 OA
ENDBRANCH 100 103
ENDBRANCH  73  96
ENDBRANCH  47  48
ENDBRANCH  39  42
ENDBRANCH  37  38
ENDBRANCH  36  37
ENDBRANCH  35  36
ENDBRANCH   1  35
TORSDOF 20
ENDMDL
