MODEL 1
REMARK VINA RESULT:      -9.8      0.000      0.000
REMARK SMILES O=C(COCCNC(=O)[C@@H]1CCCCO1)NCCCCCCNC(=O)c1ccc(-c2c3nc(c(-c4cccc(S(=O)(=O)[O-])c4F)c4ccc([nH]4)c(-c4cccc(S(=O)(=O)[O-])c4F)c4nc(c(-c5cccc(S(=O)(=O)[O-])c5F)c5ccc2[nH]5)C=C4)C=C3)cc1
REMARK SMILES IDX 18 1 17 2 16 3 1 4 2 5 3 7 4 8 5 9 6 10 7 11 8 12 9 14 10 15
REMARK SMILES IDX 11 16 15 17 12 18 14 19 13 20 19 21 20 22 21 23 22 24 23 25
REMARK SMILES IDX 24 26 25 28 26 29 27 30 88 31 28 32 87 33 29 34 30 35 31 36
REMARK SMILES IDX 81 37 32 38 86 39 80 40 82 41 33 42 85 43 79 44 78 45 34 47
REMARK SMILES IDX 66 48 46 49 65 50 47 51 50 52 64 53 83 54 48 55 49 56 63 58
REMARK SMILES IDX 84 59 51 60 35 61 36 62 44 63 37 64 39 65 45 66 38 67 40 68
REMARK SMILES IDX 41 69 42 70 43 71 67 72 68 73 76 74 69 75 71 76 77 77 70 78
REMARK SMILES IDX 72 79 73 80 74 81 75 82 52 83 53 84 61 85 54 86 56 87 62 88
REMARK SMILES IDX 55 89 57 90 58 91 59 92 60 93
REMARK H PARENT 16 6 7 13 23 27 82 46 50 57
REMARK Flexibility Score: inf
ROOT
ATOM      1  C   UNL A   1      33.329  28.303  26.559  1.00  0.00     0.021 C 
ENDROOT
BRANCH   1   2
ATOM      2  C   UNL A   1      32.585  27.551  25.456  1.00  0.00     0.116 C 
BRANCH   2   3
ATOM      3  N   UNL A   1      32.861  26.136  25.516  1.00  0.00    -0.354 N 
ATOM      4  O   UNL A   1      31.084  25.568  26.871  1.00  0.00    -0.272 OA
ATOM      5  C   UNL A   1      32.100  25.262  26.257  1.00  0.00     0.245 C 
ATOM      6  H   UNL A   1      33.624  25.781  25.005  1.00  0.00     0.163 HD
BRANCH   5   7
ATOM      7  C   UNL A   1      32.697  23.856  26.314  1.00  0.00     0.260 C 
BRANCH   7   8
ATOM      8  O   UNL A   1      33.943  23.672  25.658  1.00  0.00    -0.370 OA
BRANCH   8   9
ATOM      9  C   UNL A   1      34.630  22.461  26.001  1.00  0.00     0.182 C 
BRANCH   9  10
ATOM     10  C   UNL A   1      35.013  21.605  24.786  1.00  0.00     0.144 C 
BRANCH  10  11
ATOM     11  N   UNL A   1      33.870  21.208  23.969  1.00  0.00    -0.352 N 
ATOM     12  C   UNL A   1      33.123  20.064  23.982  1.00  0.00     0.249 C 
ATOM     13  H   UNL A   1      33.592  21.873  23.299  1.00  0.00     0.163 HD
ATOM     14  O   UNL A   1      32.162  20.002  23.209  1.00  0.00    -0.272 OA
BRANCH  12  15
ATOM     15  C   UNL A   1      33.394  18.921  24.989  1.00  0.00     0.207 C 
ATOM     16  C   UNL A   1      34.627  18.139  24.529  1.00  0.00     0.042 C 
ATOM     17  O   UNL A   1      32.225  18.153  25.230  1.00  0.00    -0.368 OA
ATOM     18  C   UNL A   1      34.230  16.986  23.633  1.00  0.00     0.006 C 
ATOM     19  C   UNL A   1      32.332  16.746  25.341  1.00  0.00     0.161 C 
ATOM     20  C   UNL A   1      33.315  16.051  24.398  1.00  0.00     0.029 C 
ENDBRANCH  12  15
ENDBRANCH  10  11
ENDBRANCH   9  10
ENDBRANCH   8   9
ENDBRANCH   7   8
ENDBRANCH   5   7
ENDBRANCH   2   3
ENDBRANCH   1   2
BRANCH   1  21
ATOM     21  C   UNL A   1      32.491  29.377  27.266  1.00  0.00     0.002 C 
BRANCH  21  22
ATOM     22  C   UNL A   1      33.226  30.685  27.568  1.00  0.00     0.002 C 
BRANCH  22  23
ATOM     23  C   UNL A   1      32.393  31.955  27.381  1.00  0.00     0.021 C 
BRANCH  23  24
ATOM     24  C   UNL A   1      33.194  33.189  26.986  1.00  0.00     0.116 C 
BRANCH  24  25
ATOM     25  N   UNL A   1      32.729  34.390  27.662  1.00  0.00    -0.352 N 
ATOM     26  C   UNL A   1      33.106  34.895  28.883  1.00  0.00     0.251 C 
ATOM     27  H   UNL A   1      32.051  34.914  27.177  1.00  0.00     0.163 HD
ATOM     28  O   UNL A   1      32.484  35.829  29.377  1.00  0.00    -0.269 OA
BRANCH  26  29
ATOM     29  C   UNL A   1      34.251  34.297  29.605  1.00  0.00     0.039 A 
ATOM     30  C   UNL A   1      34.002  33.475  30.706  1.00  0.00     0.014 A 
ATOM     31  C   UNL A   1      35.567  34.553  29.205  1.00  0.00     0.014 A 
ATOM     32  C   UNL A   1      35.069  32.879  31.383  1.00  0.00     0.010 A 
ATOM     33  C   UNL A   1      36.622  33.895  29.830  1.00  0.00     0.010 A 
ATOM     34  C   UNL A   1      36.388  33.067  30.938  1.00  0.00    -0.014 A 
BRANCH  34  35
ATOM     35  C   UNL A   1      37.536  32.433  31.637  1.00  0.00     0.031 A 
ATOM     36  C   UNL A   1      38.273  31.290  30.988  1.00  0.00     0.074 A 
ATOM     37  C   UNL A   1      37.878  32.839  32.877  1.00  0.00     0.049 A 
ATOM     38  N   UNL A   1      39.255  30.565  31.461  1.00  0.00    -0.248 NA
ATOM     39  C   UNL A   1      37.833  30.890  29.640  1.00  0.00     0.031 C 
ATOM     40  C   UNL A   1      37.197  33.885  33.644  1.00  0.00     0.029 A 
ATOM     41  N   UNL A   1      38.868  32.401  33.721  1.00  0.00    -0.354 N 
ATOM     42  C   UNL A   1      39.532  29.615  30.483  1.00  0.00     0.074 A 
ATOM     43  C   UNL A   1      38.583  29.822  29.412  1.00  0.00     0.031 C 
ATOM     44  C   UNL A   1      37.787  34.004  34.846  1.00  0.00     0.029 A 
ATOM     45  C   UNL A   1      38.867  33.029  34.946  1.00  0.00     0.049 A 
ATOM     46  H   UNL A   1      39.517  31.704  33.474  1.00  0.00     0.167 HD
ATOM     47  C   UNL A   1      40.511  28.680  30.460  1.00  0.00     0.034 A 
ATOM     48  C   UNL A   1      39.644  32.832  36.030  1.00  0.00     0.034 A 
ATOM     49  C   UNL A   1      41.477  28.500  31.509  1.00  0.00     0.049 A 
ATOM     50  C   UNL A   1      40.748  31.809  35.961  1.00  0.00     0.074 A 
ATOM     51  C   UNL A   1      42.536  27.610  31.561  1.00  0.00     0.029 A 
ATOM     52  N   UNL A   1      41.508  29.228  32.687  1.00  0.00    -0.354 N 
ATOM     53  N   UNL A   1      41.071  31.008  34.975  1.00  0.00    -0.248 NA
ATOM     54  C   UNL A   1      41.623  31.695  37.137  1.00  0.00     0.031 C 
ATOM     55  C   UNL A   1      43.201  27.793  32.777  1.00  0.00     0.029 A 
ATOM     56  C   UNL A   1      42.576  28.818  33.467  1.00  0.00     0.049 A 
ATOM     57  H   UNL A   1      40.867  29.932  32.933  1.00  0.00     0.167 HD
ATOM     58  C   UNL A   1      42.214  30.335  35.391  1.00  0.00     0.074 A 
ATOM     59  C   UNL A   1      42.537  30.836  36.710  1.00  0.00     0.031 C 
ATOM     60  C   UNL A   1      42.927  29.379  34.745  1.00  0.00     0.034 A 
BRANCH  47  61
ATOM     61  C   UNL A   1      40.633  27.824  29.225  1.00  0.00     0.023 A 
ATOM     62  C   UNL A   1      39.786  26.705  29.076  1.00  0.00     0.012 A 
ATOM     63  C   UNL A   1      41.519  28.161  28.185  1.00  0.00     0.148 A 
ATOM     64  C   UNL A   1      39.843  25.917  27.929  1.00  0.00     0.002 A 
ATOM     65  C   UNL A   1      41.538  27.398  27.023  1.00  0.00     0.091 A 
ATOM     66  F   UNL A   1      42.326  29.219  28.350  1.00  0.00    -0.205 F 
ATOM     67  C   UNL A   1      40.709  26.270  26.898  1.00  0.00     0.022 A 
BRANCH  65  68
ATOM     68  S   UNL A   1      42.556  27.810  25.601  1.00  0.00     0.127 S 
ATOM     69  O   UNL A   1      42.338  26.651  24.736  1.00  0.00    -0.237 OA
ATOM     70  O   UNL A   1      41.937  29.049  25.130  1.00  0.00    -0.237 OA
ATOM     71  O   UNL A   1      43.913  27.959  26.106  1.00  0.00    -0.744 OA
ENDBRANCH  65  68
ENDBRANCH  47  61
BRANCH  48  72
ATOM     72  C   UNL A   1      39.447  33.654  37.259  1.00  0.00     0.023 A 
ATOM     73  C   UNL A   1      40.053  34.922  37.355  1.00  0.00     0.012 A 
ATOM     74  C   UNL A   1      38.677  33.180  38.338  1.00  0.00     0.148 A 
ATOM     75  C   UNL A   1      39.941  35.680  38.522  1.00  0.00     0.002 A 
ATOM     76  C   UNL A   1      38.518  33.966  39.475  1.00  0.00     0.091 A 
ATOM     77  F   UNL A   1      38.115  31.968  38.236  1.00  0.00    -0.205 F 
ATOM     78  C   UNL A   1      39.168  35.206  39.578  1.00  0.00     0.022 A 
BRANCH  76  79
ATOM     79  S   UNL A   1      37.433  33.490  40.824  1.00  0.00     0.127 S 
ATOM     80  O   UNL A   1      38.213  32.444  41.480  1.00  0.00    -0.237 OA
ATOM     81  O   UNL A   1      37.319  34.738  41.579  1.00  0.00    -0.237 OA
ATOM     82  O   UNL A   1      36.193  33.060  40.191  1.00  0.00    -0.744 OA
ENDBRANCH  76  79
ENDBRANCH  48  72
BRANCH  60  83
ATOM     83  C   UNL A   1      44.172  28.860  35.416  1.00  0.00     0.023 A 
ATOM     84  C   UNL A   1      45.421  29.454  35.147  1.00  0.00     0.012 A 
ATOM     85  C   UNL A   1      44.088  27.822  36.365  1.00  0.00     0.148 A 
ATOM     86  C   UNL A   1      46.574  28.993  35.782  1.00  0.00     0.002 A 
ATOM     87  C   UNL A   1      45.232  27.405  37.033  1.00  0.00     0.091 A 
ATOM     88  F   UNL A   1      42.893  27.258  36.593  1.00  0.00    -0.205 F 
ATOM     89  C   UNL A   1      46.478  27.978  36.733  1.00  0.00     0.022 A 
BRANCH  87  90
ATOM     90  S   UNL A   1      45.185  26.175  38.341  1.00  0.00     0.127 S 
ATOM     91  O   UNL A   1      46.584  26.136  38.764  1.00  0.00    -0.237 OA
ATOM     92  O   UNL A   1      44.272  26.787  39.308  1.00  0.00    -0.237 OA
ATOM     93  O   UNL A   1      44.681  24.955  37.726  1.00  0.00    -0.744 OA
ENDBRANCH  87  90
ENDBRANCH  60  83
ENDBRANCH  34  35
ENDBRANCH  26  29
ENDBRANCH  24  25
ENDBRANCH  23  24
ENDBRANCH  22  23
ENDBRANCH  21  22
ENDBRANCH   1  21
TORSDOF 21
ENDMDL
MODEL 2
REMARK VINA RESULT:      -9.7      5.112      8.545
REMARK SMILES O=C(COCCNC(=O)[C@@H]1CCCCO1)NCCCCCCNC(=O)c1ccc(-c2c3nc(c(-c4cccc(S(=O)(=O)[O-])c4F)c4ccc([nH]4)c(-c4cccc(S(=O)(=O)[O-])c4F)c4nc(c(-c5cccc(S(=O)(=O)[O-])c5F)c5ccc2[nH]5)C=C4)C=C3)cc1
REMARK SMILES IDX 18 1 17 2 16 3 1 4 2 5 3 7 4 8 5 9 6 10 7 11 8 12 9 14 10 15
REMARK SMILES IDX 11 16 15 17 12 18 14 19 13 20 19 21 20 22 21 23 22 24 23 25
REMARK SMILES IDX 24 26 25 28 26 29 27 30 88 31 28 32 87 33 29 34 30 35 31 36
REMARK SMILES IDX 81 37 32 38 86 39 80 40 82 41 33 42 85 43 79 44 78 45 34 47
REMARK SMILES IDX 66 48 46 49 65 50 47 51 50 52 64 53 83 54 48 55 49 56 63 58
REMARK SMILES IDX 84 59 51 60 35 61 36 62 44 63 37 64 39 65 45 66 38 67 40 68
REMARK SMILES IDX 41 69 42 70 43 71 67 72 68 73 76 74 69 75 71 76 77 77 70 78
REMARK SMILES IDX 72 79 73 80 74 81 75 82 52 83 53 84 61 85 54 86 56 87 62 88
REMARK SMILES IDX 55 89 57 90 58 91 59 92 60 93
REMARK H PARENT 16 6 7 13 23 27 82 46 50 57
REMARK Flexibility Score: inf
ROOT
ATOM      1  C   UNL A   1      32.862  24.193  26.885  1.00  0.00     0.021 C 
ENDROOT
BRANCH   1   2
ATOM      2  C   UNL A   1      31.614  23.421  26.456  1.00  0.00     0.116 C 
BRANCH   2   3
ATOM      3  N   UNL A   1      31.818  22.774  25.183  1.00  0.00    -0.354 N 
ATOM      4  O   UNL A   1      32.890  20.901  25.995  1.00  0.00    -0.272 OA
ATOM      5  C   UNL A   1      32.478  21.574  25.057  1.00  0.00     0.245 C 
ATOM      6  H   UNL A   1      31.469  23.208  24.371  1.00  0.00     0.163 HD
BRANCH   5   7
ATOM      7  C   UNL A   1      32.732  21.186  23.601  1.00  0.00     0.260 C 
BRANCH   7   8
ATOM      8  O   UNL A   1      32.158  22.030  22.613  1.00  0.00    -0.370 OA
BRANCH   8   9
ATOM      9  C   UNL A   1      33.080  22.928  21.981  1.00  0.00     0.182 C 
BRANCH   9  10
ATOM     10  C   UNL A   1      32.608  24.388  21.970  1.00  0.00     0.144 C 
BRANCH  10  11
ATOM     11  N   UNL A   1      31.349  24.599  22.678  1.00  0.00    -0.352 N 
ATOM     12  C   UNL A   1      30.704  25.754  23.020  1.00  0.00     0.249 C 
ATOM     13  H   UNL A   1      30.890  23.773  22.956  1.00  0.00     0.163 HD
ATOM     14  O   UNL A   1      29.608  25.650  23.580  1.00  0.00    -0.272 OA
BRANCH  12  15
ATOM     15  C   UNL A   1      31.261  27.146  22.639  1.00  0.00     0.207 C 
ATOM     16  C   UNL A   1      32.019  27.721  23.839  1.00  0.00     0.042 C 
ATOM     17  O   UNL A   1      30.252  27.976  22.086  1.00  0.00    -0.368 OA
ATOM     18  C   UNL A   1      31.100  28.548  24.711  1.00  0.00     0.006 C 
ATOM     19  C   UNL A   1      30.211  29.346  22.441  1.00  0.00     0.161 C 
ATOM     20  C   UNL A   1      30.535  29.693  23.894  1.00  0.00     0.029 C 
ENDBRANCH  12  15
ENDBRANCH  10  11
ENDBRANCH   9  10
ENDBRANCH   8   9
ENDBRANCH   7   8
ENDBRANCH   5   7
ENDBRANCH   2   3
ENDBRANCH   1   2
BRANCH   1  21
ATOM     21  C   UNL A   1      33.429  25.124  25.804  1.00  0.00     0.002 C 
BRANCH  21  22
ATOM     22  C   UNL A   1      34.575  24.539  24.974  1.00  0.00     0.002 C 
BRANCH  22  23
ATOM     23  C   UNL A   1      35.736  23.965  25.789  1.00  0.00     0.021 C 
BRANCH  23  24
ATOM     24  C   UNL A   1      37.052  23.848  25.029  1.00  0.00     0.116 C 
BRANCH  24  25
ATOM     25  N   UNL A   1      37.870  22.745  25.506  1.00  0.00    -0.352 N 
ATOM     26  C   UNL A   1      39.028  22.784  26.245  1.00  0.00     0.251 C 
ATOM     27  H   UNL A   1      37.550  21.845  25.266  1.00  0.00     0.163 HD
ATOM     28  O   UNL A   1      39.682  21.760  26.412  1.00  0.00    -0.269 OA
BRANCH  26  29
ATOM     29  C   UNL A   1      39.491  24.067  26.820  1.00  0.00     0.039 A 
ATOM     30  C   UNL A   1      40.138  24.986  25.991  1.00  0.00     0.014 A 
ATOM     31  C   UNL A   1      39.298  24.359  28.174  1.00  0.00     0.014 A 
ATOM     32  C   UNL A   1      40.556  26.214  26.510  1.00  0.00     0.010 A 
ATOM     33  C   UNL A   1      39.643  25.613  28.669  1.00  0.00     0.010 A 
ATOM     34  C   UNL A   1      40.294  26.547  27.849  1.00  0.00    -0.014 A 
BRANCH  34  35
ATOM     35  C   UNL A   1      40.721  27.852  28.418  1.00  0.00     0.031 A 
ATOM     36  C   UNL A   1      42.185  28.132  28.638  1.00  0.00     0.074 A 
ATOM     37  C   UNL A   1      39.796  28.759  28.794  1.00  0.00     0.049 A 
ATOM     38  N   UNL A   1      42.753  29.179  29.180  1.00  0.00    -0.248 NA
ATOM     39  C   UNL A   1      43.136  27.089  28.218  1.00  0.00     0.031 C 
ATOM     40  C   UNL A   1      38.345  28.578  28.702  1.00  0.00     0.029 A 
ATOM     41  N   UNL A   1      39.939  30.003  29.355  1.00  0.00    -0.354 N 
ATOM     42  C   UNL A   1      44.118  28.911  29.187  1.00  0.00     0.074 A 
ATOM     43  C   UNL A   1      44.290  27.583  28.642  1.00  0.00     0.031 C 
ATOM     44  C   UNL A   1      37.733  29.668  29.193  1.00  0.00     0.029 A 
ATOM     45  C   UNL A   1      38.743  30.614  29.659  1.00  0.00     0.049 A 
ATOM     46  H   UNL A   1      40.814  30.420  29.525  1.00  0.00     0.167 HD
ATOM     47  C   UNL A   1      45.139  29.711  29.575  1.00  0.00     0.034 A 
ATOM     48  C   UNL A   1      38.491  31.796  30.254  1.00  0.00     0.034 A 
ATOM     49  C   UNL A   1      44.970  31.045  30.082  1.00  0.00     0.049 A 
ATOM     50  C   UNL A   1      39.648  32.679  30.642  1.00  0.00     0.074 A 
ATOM     51  C   UNL A   1      45.943  31.952  30.461  1.00  0.00     0.029 A 
ATOM     52  N   UNL A   1      43.747  31.666  30.275  1.00  0.00    -0.354 N 
ATOM     53  N   UNL A   1      40.934  32.456  30.521  1.00  0.00    -0.248 NA
ATOM     54  C   UNL A   1      39.319  33.997  31.206  1.00  0.00     0.031 C 
ATOM     55  C   UNL A   1      45.308  33.120  30.893  1.00  0.00     0.029 A 
ATOM     56  C   UNL A   1      43.940  32.950  30.753  1.00  0.00     0.049 A 
ATOM     57  H   UNL A   1      42.870  31.256  30.096  1.00  0.00     0.167 HD
ATOM     58  C   UNL A   1      41.564  33.621  30.945  1.00  0.00     0.074 A 
ATOM     59  C   UNL A   1      40.518  34.554  31.307  1.00  0.00     0.031 C 
ATOM     60  C   UNL A   1      42.889  33.892  31.038  1.00  0.00     0.034 A 
BRANCH  47  61
ATOM     61  C   UNL A   1      46.543  29.190  29.398  1.00  0.00     0.023 A 
ATOM     62  C   UNL A   1      47.104  28.366  30.397  1.00  0.00     0.012 A 
ATOM     63  C   UNL A   1      47.276  29.445  28.223  1.00  0.00     0.148 A 
ATOM     64  C   UNL A   1      48.383  27.834  30.246  1.00  0.00     0.002 A 
ATOM     65  C   UNL A   1      48.532  28.872  28.058  1.00  0.00     0.091 A 
ATOM     66  F   UNL A   1      46.733  30.241  27.292  1.00  0.00    -0.205 F 
ATOM     67  C   UNL A   1      49.091  28.076  29.073  1.00  0.00     0.022 A 
BRANCH  65  68
ATOM     68  S   UNL A   1      49.497  29.053  26.554  1.00  0.00     0.127 S 
ATOM     69  O   UNL A   1      49.574  30.507  26.425  1.00  0.00    -0.237 OA
ATOM     70  O   UNL A   1      50.757  28.405  26.919  1.00  0.00    -0.237 OA
ATOM     71  O   UNL A   1      48.744  28.376  25.507  1.00  0.00    -0.744 OA
ENDBRANCH  65  68
ENDBRANCH  47  61
BRANCH  48  72
ATOM     72  C   UNL A   1      37.086  32.246  30.475  1.00  0.00     0.023 A 
ATOM     73  C   UNL A   1      36.463  32.005  31.716  1.00  0.00     0.012 A 
ATOM     74  C   UNL A   1      36.359  32.896  29.459  1.00  0.00     0.148 A 
ATOM     75  C   UNL A   1      35.127  32.355  31.923  1.00  0.00     0.002 A 
ATOM     76  C   UNL A   1      35.048  33.296  29.692  1.00  0.00     0.091 A 
ATOM     77  F   UNL A   1      36.962  33.109  28.281  1.00  0.00    -0.205 F 
ATOM     78  C   UNL A   1      34.423  33.007  30.915  1.00  0.00     0.022 A 
BRANCH  76  79
ATOM     79  S   UNL A   1      34.114  34.258  28.497  1.00  0.00     0.127 S 
ATOM     80  O   UNL A   1      34.025  33.332  27.372  1.00  0.00    -0.237 OA
ATOM     81  O   UNL A   1      32.855  34.487  29.207  1.00  0.00    -0.237 OA
ATOM     82  O   UNL A   1      34.900  35.464  28.271  1.00  0.00    -0.744 OA
ENDBRANCH  76  79
ENDBRANCH  48  72
BRANCH  60  83
ATOM     83  C   UNL A   1      43.293  35.275  31.477  1.00  0.00     0.023 A 
ATOM     84  C   UNL A   1      43.623  36.254  30.519  1.00  0.00     0.012 A 
ATOM     85  C   UNL A   1      43.279  35.619  32.843  1.00  0.00     0.148 A 
ATOM     86  C   UNL A   1      43.975  37.543  30.919  1.00  0.00     0.002 A 
ATOM     87  C   UNL A   1      43.578  36.919  33.229  1.00  0.00     0.091 A 
ATOM     88  F   UNL A   1      42.979  34.668  33.740  1.00  0.00    -0.205 F 
ATOM     89  C   UNL A   1      43.941  37.879  32.271  1.00  0.00     0.022 A 
BRANCH  87  90
ATOM     90  S   UNL A   1      43.462  37.463  34.938  1.00  0.00     0.127 S 
ATOM     91  O   UNL A   1      44.538  36.698  35.567  1.00  0.00    -0.237 OA
ATOM     92  O   UNL A   1      43.722  38.900  34.823  1.00  0.00    -0.237 OA
ATOM     93  O   UNL A   1      42.115  37.127  35.375  1.00  0.00    -0.744 OA
ENDBRANCH  87  90
ENDBRANCH  60  83
ENDBRANCH  34  35
ENDBRANCH  26  29
ENDBRANCH  24  25
ENDBRANCH  23  24
ENDBRANCH  22  23
ENDBRANCH  21  22
ENDBRANCH   1  21
TORSDOF 21
ENDMDL
MODEL 3
REMARK VINA RESULT:      -9.5      1.674      8.140
REMARK SMILES O=C(COCCNC(=O)[C@@H]1CCCCO1)NCCCCCCNC(=O)c1ccc(-c2c3nc(c(-c4cccc(S(=O)(=O)[O-])c4F)c4ccc([nH]4)c(-c4cccc(S(=O)(=O)[O-])c4F)c4nc(c(-c5cccc(S(=O)(=O)[O-])c5F)c5ccc2[nH]5)C=C4)C=C3)cc1
REMARK SMILES IDX 18 1 17 2 16 3 1 4 2 5 3 7 4 8 5 9 6 10 7 11 8 12 9 14 10 15
REMARK SMILES IDX 11 16 15 17 12 18 14 19 13 20 19 21 20 22 21 23 22 24 23 25
REMARK SMILES IDX 24 26 25 28 26 29 27 30 88 31 28 32 87 33 29 34 30 35 31 36
REMARK SMILES IDX 81 37 32 38 86 39 80 40 82 41 33 42 85 43 79 44 78 45 34 47
REMARK SMILES IDX 66 48 46 49 65 50 47 51 50 52 64 53 83 54 48 55 49 56 63 58
REMARK SMILES IDX 84 59 51 60 35 61 36 62 44 63 37 64 39 65 45 66 38 67 40 68
REMARK SMILES IDX 41 69 42 70 43 71 67 72 68 73 76 74 69 75 71 76 77 77 70 78
REMARK SMILES IDX 72 79 73 80 74 81 75 82 52 83 53 84 61 85 54 86 56 87 62 88
REMARK SMILES IDX 55 89 57 90 58 91 59 92 60 93
REMARK H PARENT 16 6 7 13 23 27 82 46 50 57
REMARK Flexibility Score: inf
ROOT
ATOM      1  C   UNL A   1      35.010  30.490  27.789  1.00  0.00     0.021 C 
ENDROOT
BRANCH   1   2
ATOM      2  C   UNL A   1      33.740  29.862  27.216  1.00  0.00     0.116 C 
BRANCH   2   3
ATOM      3  N   UNL A   1      33.804  29.785  25.777  1.00  0.00    -0.354 N 
ATOM      4  O   UNL A   1      31.833  28.627  25.476  1.00  0.00    -0.272 OA
ATOM      5  C   UNL A   1      32.853  29.135  25.025  1.00  0.00     0.245 C 
ATOM      6  H   UNL A   1      34.558  30.217  25.314  1.00  0.00     0.163 HD
BRANCH   5   7
ATOM      7  C   UNL A   1      33.234  29.029  23.549  1.00  0.00     0.260 C 
BRANCH   7   8
ATOM      8  O   UNL A   1      32.538  28.055  22.786  1.00  0.00    -0.370 OA
BRANCH   8   9
ATOM      9  C   UNL A   1      33.315  26.904  22.427  1.00  0.00     0.182 C 
BRANCH   9  10
ATOM     10  C   UNL A   1      32.477  25.637  22.212  1.00  0.00     0.144 C 
BRANCH  10  11
ATOM     11  N   UNL A   1      31.871  25.124  23.438  1.00  0.00    -0.352 N 
ATOM     12  C   UNL A   1      32.165  24.014  24.178  1.00  0.00     0.249 C 
ATOM     13  H   UNL A   1      31.129  25.668  23.788  1.00  0.00     0.163 HD
ATOM     14  O   UNL A   1      31.523  23.835  25.218  1.00  0.00    -0.272 OA
BRANCH  12  15
ATOM     15  C   UNL A   1      33.321  23.059  23.796  1.00  0.00     0.207 C 
ATOM     16  C   UNL A   1      32.750  21.889  22.989  1.00  0.00     0.042 C 
ATOM     17  O   UNL A   1      34.101  22.710  24.929  1.00  0.00    -0.368 OA
ATOM     18  C   UNL A   1      32.369  20.742  23.899  1.00  0.00     0.006 C 
ATOM     19  C   UNL A   1      34.561  21.378  25.069  1.00  0.00     0.161 C 
ATOM     20  C   UNL A   1      33.599  20.268  24.646  1.00  0.00     0.029 C 
ENDBRANCH  12  15
ENDBRANCH  10  11
ENDBRANCH   9  10
ENDBRANCH   8   9
ENDBRANCH   7   8
ENDBRANCH   5   7
ENDBRANCH   2   3
ENDBRANCH   1   2
BRANCH   1  21
ATOM     21  C   UNL A   1      34.757  31.687  28.718  1.00  0.00     0.002 C 
BRANCH  21  22
ATOM     22  C   UNL A   1      34.800  33.059  28.041  1.00  0.00     0.002 C 
BRANCH  22  23
ATOM     23  C   UNL A   1      33.532  33.901  28.203  1.00  0.00     0.021 C 
BRANCH  23  24
ATOM     24  C   UNL A   1      33.768  35.314  28.721  1.00  0.00     0.116 C 
BRANCH  24  25
ATOM     25  N   UNL A   1      32.926  35.632  29.864  1.00  0.00    -0.352 N 
ATOM     26  C   UNL A   1      33.054  35.227  31.171  1.00  0.00     0.251 C 
ATOM     27  H   UNL A   1      32.158  36.219  29.674  1.00  0.00     0.163 HD
ATOM     28  O   UNL A   1      32.152  35.451  31.972  1.00  0.00    -0.269 OA
BRANCH  26  29
ATOM     29  C   UNL A   1      34.272  34.506  31.602  1.00  0.00     0.039 A 
ATOM     30  C   UNL A   1      34.140  33.242  32.181  1.00  0.00     0.014 A 
ATOM     31  C   UNL A   1      35.539  35.077  31.447  1.00  0.00     0.014 A 
ATOM     32  C   UNL A   1      35.281  32.534  32.567  1.00  0.00     0.010 A 
ATOM     33  C   UNL A   1      36.676  34.338  31.759  1.00  0.00     0.010 A 
ATOM     34  C   UNL A   1      36.561  33.067  32.341  1.00  0.00    -0.014 A 
BRANCH  34  35
ATOM     35  C   UNL A   1      37.787  32.326  32.736  1.00  0.00     0.031 A 
ATOM     36  C   UNL A   1      38.519  32.703  33.998  1.00  0.00     0.074 A 
ATOM     37  C   UNL A   1      38.278  31.359  31.934  1.00  0.00     0.049 A 
ATOM     38  N   UNL A   1      39.638  32.223  34.479  1.00  0.00    -0.248 NA
ATOM     39  C   UNL A   1      37.933  33.779  34.815  1.00  0.00     0.031 C 
ATOM     40  C   UNL A   1      37.704  30.950  30.649  1.00  0.00     0.029 A 
ATOM     41  N   UNL A   1      39.388  30.563  32.068  1.00  0.00    -0.354 N 
ATOM     42  C   UNL A   1      39.899  32.951  35.635  1.00  0.00     0.074 A 
ATOM     43  C   UNL A   1      38.850  33.938  35.758  1.00  0.00     0.031 C 
ATOM     44  C   UNL A   1      38.468  29.985  30.113  1.00  0.00     0.029 A 
ATOM     45  C   UNL A   1      39.598  29.723  30.998  1.00  0.00     0.049 A 
ATOM     46  H   UNL A   1      39.979  30.591  32.854  1.00  0.00     0.167 HD
ATOM     47  C   UNL A   1      40.898  32.788  36.534  1.00  0.00     0.034 A 
ATOM     48  C   UNL A   1      40.595  28.849  30.755  1.00  0.00     0.034 A 
ATOM     49  C   UNL A   1      41.918  31.781  36.431  1.00  0.00     0.049 A 
ATOM     50  C   UNL A   1      41.673  28.665  31.791  1.00  0.00     0.074 A 
ATOM     51  C   UNL A   1      42.949  31.506  37.312  1.00  0.00     0.029 A 
ATOM     52  N   UNL A   1      42.034  30.880  35.386  1.00  0.00    -0.354 N 
ATOM     53  N   UNL A   1      41.828  29.276  32.939  1.00  0.00    -0.248 NA
ATOM     54  C   UNL A   1      42.687  27.635  31.519  1.00  0.00     0.031 C 
ATOM     55  C   UNL A   1      43.695  30.443  36.795  1.00  0.00     0.029 A 
ATOM     56  C   UNL A   1      43.109  30.037  35.607  1.00  0.00     0.049 A 
ATOM     57  H   UNL A   1      41.440  30.843  34.602  1.00  0.00     0.167 HD
ATOM     58  C   UNL A   1      42.923  28.673  33.548  1.00  0.00     0.074 A 
ATOM     59  C   UNL A   1      43.381  27.635  32.649  1.00  0.00     0.031 C 
ATOM     60  C   UNL A   1      43.506  28.960  34.738  1.00  0.00     0.034 A 
BRANCH  47  61
ATOM     61  C   UNL A   1      40.894  33.675  37.753  1.00  0.00     0.023 A 
ATOM     62  C   UNL A   1      41.712  34.825  37.771  1.00  0.00     0.012 A 
ATOM     63  C   UNL A   1      40.036  33.422  38.841  1.00  0.00     0.148 A 
ATOM     64  C   UNL A   1      41.702  35.689  38.864  1.00  0.00     0.002 A 
ATOM     65  C   UNL A   1      39.997  34.314  39.907  1.00  0.00     0.091 A 
ATOM     66  F   UNL A   1      39.278  32.318  38.813  1.00  0.00    -0.205 F 
ATOM     67  C   UNL A   1      40.836  35.441  39.925  1.00  0.00     0.022 A 
BRANCH  65  68
ATOM     68  S   UNL A   1      38.862  34.134  41.287  1.00  0.00     0.127 S 
ATOM     69  O   UNL A   1      37.650  33.665  40.616  1.00  0.00    -0.237 OA
ATOM     70  O   UNL A   1      39.535  33.126  42.107  1.00  0.00    -0.237 OA
ATOM     71  O   UNL A   1      38.760  35.450  41.902  1.00  0.00    -0.744 OA
ENDBRANCH  65  68
ENDBRANCH  47  61
BRANCH  48  72
ATOM     72  C   UNL A   1      40.599  28.038  29.503  1.00  0.00     0.023 A 
ATOM     73  C   UNL A   1      39.701  26.960  29.367  1.00  0.00     0.012 A 
ATOM     74  C   UNL A   1      41.497  28.316  28.455  1.00  0.00     0.148 A 
ATOM     75  C   UNL A   1      39.733  26.144  28.235  1.00  0.00     0.002 A 
ATOM     76  C   UNL A   1      41.483  27.537  27.304  1.00  0.00     0.091 A 
ATOM     77  F   UNL A   1      42.352  29.338  28.604  1.00  0.00    -0.205 F 
ATOM     78  C   UNL A   1      40.618  26.437  27.201  1.00  0.00     0.022 A 
BRANCH  76  79
ATOM     79  S   UNL A   1      42.496  27.925  25.873  1.00  0.00     0.127 S 
ATOM     80  O   UNL A   1      41.996  26.973  24.885  1.00  0.00    -0.237 OA
ATOM     81  O   UNL A   1      42.141  29.321  25.617  1.00  0.00    -0.237 OA
ATOM     82  O   UNL A   1      43.873  27.729  26.308  1.00  0.00    -0.744 OA
ENDBRANCH  76  79
ENDBRANCH  48  72
BRANCH  60  83
ATOM     83  C   UNL A   1      44.657  28.095  35.181  1.00  0.00     0.023 A 
ATOM     84  C   UNL A   1      45.982  28.475  34.890  1.00  0.00     0.012 A 
ATOM     85  C   UNL A   1      44.421  26.935  35.945  1.00  0.00     0.148 A 
ATOM     86  C   UNL A   1      47.053  27.690  35.317  1.00  0.00     0.002 A 
ATOM     87  C   UNL A   1      45.494  26.188  36.413  1.00  0.00     0.091 A 
ATOM     88  F   UNL A   1      43.152  26.582  36.196  1.00  0.00    -0.205 F 
ATOM     89  C   UNL A   1      46.809  26.555  36.088  1.00  0.00     0.022 A 
BRANCH  87  90
ATOM     90  S   UNL A   1      45.277  24.769  37.494  1.00  0.00     0.127 S 
ATOM     91  O   UNL A   1      44.522  25.352  38.602  1.00  0.00    -0.237 OA
ATOM     92  O   UNL A   1      44.511  23.851  36.649  1.00  0.00    -0.237 OA
ATOM     93  O   UNL A   1      46.618  24.308  37.823  1.00  0.00    -0.744 OA
ENDBRANCH  87  90
ENDBRANCH  60  83
ENDBRANCH  34  35
ENDBRANCH  26  29
ENDBRANCH  24  25
ENDBRANCH  23  24
ENDBRANCH  22  23
ENDBRANCH  21  22
ENDBRANCH   1  21
TORSDOF 21
ENDMDL
