MODEL 1
REMARK VINA RESULT:     -11.8      0.000      0.000
REMARK SMILES C[C@@H](c1cccc(F)c1)[C@@](C)(O)C(=O)NCCCCCCNC(=O)c1ccc(-c2c3nc(c(-c4cccc(S(=O)(=O)[O-])c4F)c4ccc([nH]4)c(-c4cccc(S(=O)(=O)[O-])c4F)c4nc(c(-c5cccc(S(=O)(=O)[O-])c5F)c5ccc2[nH]5)C=C4)C=C3)cc1
REMARK SMILES IDX 19 1 18 2 17 3 16 4 15 5 13 6 14 7 10 9 11 10 2 11 1 12 3 13
REMARK SMILES IDX 4 14 9 15 5 16 7 17 6 18 8 19 12 20 20 22 21 23 22 24 23 25
REMARK SMILES IDX 24 27 25 28 26 29 87 30 27 31 86 32 28 33 29 34 30 35 80 36
REMARK SMILES IDX 31 37 85 38 79 39 81 40 32 41 84 42 78 43 77 44 33 46 65 47
REMARK SMILES IDX 45 48 64 49 46 50 49 51 63 52 82 53 47 54 48 55 62 57 83 58
REMARK SMILES IDX 50 59 34 60 35 61 43 62 36 63 38 64 44 65 37 66 39 67 40 68
REMARK SMILES IDX 41 69 42 70 66 71 67 72 75 73 68 74 70 75 76 76 69 77 71 78
REMARK SMILES IDX 72 79 73 80 74 81 51 82 52 83 60 84 53 85 55 86 61 87 54 88
REMARK SMILES IDX 56 89 57 90 58 91 59 92
REMARK H PARENT 15 8 12 21 22 26 81 45 49 56
REMARK Flexibility Score: inf
ROOT
ATOM      1  C   UNL A   1      35.594  23.008  26.171  1.00  0.00     0.002 C 
ENDROOT
BRANCH   1   2
ATOM      2  C   UNL A   1      34.575  23.713  25.270  1.00  0.00     0.002 C 
BRANCH   2   3
ATOM      3  C   UNL A   1      33.640  24.701  25.977  1.00  0.00     0.021 C 
BRANCH   3   4
ATOM      4  C   UNL A   1      33.289  25.945  25.165  1.00  0.00     0.116 C 
BRANCH   4   5
ATOM      5  N   UNL A   1      33.777  25.858  23.802  1.00  0.00    -0.354 N 
ATOM      6  C   UNL A   1      33.169  26.139  22.614  1.00  0.00     0.252 C 
ATOM      7  O   UNL A   1      33.889  26.064  21.614  1.00  0.00    -0.272 OA
ATOM      8  H   UNL A   1      34.705  25.542  23.720  1.00  0.00     0.163 HD
BRANCH   6   9
ATOM      9  C   UNL A   1      31.695  26.646  22.562  1.00  0.00     0.146 C 
ATOM     10  C   UNL A   1      30.831  25.557  23.227  1.00  0.00     0.053 C 
BRANCH   9  11
ATOM     11  C   UNL A   1      31.474  28.031  23.270  1.00  0.00     0.057 C 
ATOM     12  C   UNL A   1      32.683  28.978  23.282  1.00  0.00     0.016 C 
BRANCH  11  13
ATOM     13  C   UNL A   1      30.192  28.745  22.834  1.00  0.00    -0.039 A 
ATOM     14  C   UNL A   1      30.196  29.828  21.941  1.00  0.00     0.004 A 
ATOM     15  C   UNL A   1      28.951  28.296  23.320  1.00  0.00     0.043 A 
ATOM     16  C   UNL A   1      29.002  30.428  21.527  1.00  0.00     0.003 A 
ATOM     17  C   UNL A   1      27.770  28.907  22.910  1.00  0.00     0.123 A 
ATOM     18  C   UNL A   1      27.783  29.965  22.013  1.00  0.00     0.039 A 
ATOM     19  F   UNL A   1      26.599  28.464  23.389  1.00  0.00    -0.207 F 
ENDBRANCH  11  13
ENDBRANCH   9  11
BRANCH   9  20
ATOM     20  O   UNL A   1      31.231  26.789  21.208  1.00  0.00    -0.380 OA
ATOM     21  H   UNL A   1      30.263  26.839  21.202  1.00  0.00     0.212 HD
ENDBRANCH   9  20
ENDBRANCH   6   9
ENDBRANCH   4   5
ENDBRANCH   3   4
ENDBRANCH   2   3
ENDBRANCH   1   2
BRANCH   1  22
ATOM     22  C   UNL A   1      36.217  21.739  25.586  1.00  0.00     0.021 C 
BRANCH  22  23
ATOM     23  C   UNL A   1      37.656  21.891  25.114  1.00  0.00     0.116 C 
BRANCH  23  24
ATOM     24  N   UNL A   1      38.539  20.898  25.705  1.00  0.00    -0.352 N 
ATOM     25  C   UNL A   1      39.695  21.086  26.420  1.00  0.00     0.251 C 
ATOM     26  H   UNL A   1      38.271  19.960  25.574  1.00  0.00     0.163 HD
ATOM     27  O   UNL A   1      40.414  20.128  26.693  1.00  0.00    -0.269 OA
BRANCH  25  28
ATOM     28  C   UNL A   1      40.082  22.449  26.842  1.00  0.00     0.039 A 
ATOM     29  C   UNL A   1      41.025  22.600  27.862  1.00  0.00     0.014 A 
ATOM     30  C   UNL A   1      39.525  23.575  26.228  1.00  0.00     0.014 A 
ATOM     31  C   UNL A   1      41.450  23.879  28.226  1.00  0.00     0.010 A 
ATOM     32  C   UNL A   1      40.009  24.843  26.538  1.00  0.00     0.010 A 
ATOM     33  C   UNL A   1      40.971  25.010  27.544  1.00  0.00    -0.014 A 
BRANCH  33  34
ATOM     34  C   UNL A   1      41.477  26.371  27.860  1.00  0.00     0.031 A 
ATOM     35  C   UNL A   1      42.886  26.761  27.503  1.00  0.00     0.074 A 
ATOM     36  C   UNL A   1      40.690  27.233  28.534  1.00  0.00     0.049 A 
ATOM     37  N   UNL A   1      43.513  27.883  27.742  1.00  0.00    -0.248 NA
ATOM     38  C   UNL A   1      43.707  25.755  26.808  1.00  0.00     0.031 C 
ATOM     39  C   UNL A   1      39.330  26.949  28.998  1.00  0.00     0.029 A 
ATOM     40  N   UNL A   1      40.924  28.515  28.966  1.00  0.00    -0.354 N 
ATOM     41  C   UNL A   1      44.803  27.709  27.257  1.00  0.00     0.074 A 
ATOM     42  C   UNL A   1      44.883  26.361  26.740  1.00  0.00     0.031 C 
ATOM     43  C   UNL A   1      38.848  28.026  29.637  1.00  0.00     0.029 A 
ATOM     44  C   UNL A   1      39.873  29.064  29.664  1.00  0.00     0.049 A 
ATOM     45  H   UNL A   1      41.766  28.997  28.793  1.00  0.00     0.167 HD
ATOM     46  C   UNL A   1      45.820  28.602  27.218  1.00  0.00     0.034 A 
ATOM     47  C   UNL A   1      39.748  30.264  30.266  1.00  0.00     0.034 A 
ATOM     48  C   UNL A   1      45.722  29.955  27.694  1.00  0.00     0.049 A 
ATOM     49  C   UNL A   1      40.885  31.246  30.185  1.00  0.00     0.074 A 
ATOM     50  C   UNL A   1      46.672  30.958  27.619  1.00  0.00     0.029 A 
ATOM     51  N   UNL A   1      44.619  30.495  28.334  1.00  0.00    -0.354 N 
ATOM     52  N   UNL A   1      42.048  31.111  29.596  1.00  0.00    -0.248 NA
ATOM     53  C   UNL A   1      40.684  32.558  30.819  1.00  0.00     0.031 C 
ATOM     54  C   UNL A   1      46.157  32.094  28.246  1.00  0.00     0.029 A 
ATOM     55  C   UNL A   1      44.869  31.814  28.673  1.00  0.00     0.049 A 
ATOM     56  H   UNL A   1      43.781  30.014  28.520  1.00  0.00     0.167 HD
ATOM     57  C   UNL A   1      42.703  32.326  29.760  1.00  0.00     0.074 A 
ATOM     58  C   UNL A   1      41.800  33.194  30.488  1.00  0.00     0.031 C 
ATOM     59  C   UNL A   1      43.946  32.686  29.353  1.00  0.00     0.034 A 
BRANCH  46  60
ATOM     60  C   UNL A   1      47.121  28.174  26.590  1.00  0.00     0.023 A 
ATOM     61  C   UNL A   1      48.160  27.687  27.408  1.00  0.00     0.012 A 
ATOM     62  C   UNL A   1      47.271  28.146  25.189  1.00  0.00     0.148 A 
ATOM     63  C   UNL A   1      49.338  27.198  26.843  1.00  0.00     0.002 A 
ATOM     64  C   UNL A   1      48.426  27.610  24.633  1.00  0.00     0.091 A 
ATOM     65  F   UNL A   1      46.278  28.631  24.430  1.00  0.00    -0.205 F 
ATOM     66  C   UNL A   1      49.464  27.146  25.457  1.00  0.00     0.022 A 
BRANCH  64  67
ATOM     67  S   UNL A   1      48.651  27.413  22.862  1.00  0.00     0.127 S 
ATOM     68  O   UNL A   1      50.007  27.931  22.677  1.00  0.00    -0.237 OA
ATOM     69  O   UNL A   1      48.524  25.964  22.697  1.00  0.00    -0.237 OA
ATOM     70  O   UNL A   1      47.598  28.195  22.230  1.00  0.00    -0.744 OA
ENDBRANCH  64  67
ENDBRANCH  46  60
BRANCH  47  71
ATOM     71  C   UNL A   1      38.468  30.620  30.941  1.00  0.00     0.023 A 
ATOM     72  C   UNL A   1      38.292  30.305  32.302  1.00  0.00     0.012 A 
ATOM     73  C   UNL A   1      37.451  31.320  30.262  1.00  0.00     0.148 A 
ATOM     74  C   UNL A   1      37.117  30.659  32.969  1.00  0.00     0.002 A 
ATOM     75  C   UNL A   1      36.311  31.723  30.946  1.00  0.00     0.091 A 
ATOM     76  F   UNL A   1      37.634  31.602  28.964  1.00  0.00    -0.205 F 
ATOM     77  C   UNL A   1      36.134  31.378  32.295  1.00  0.00     0.022 A 
BRANCH  75  78
ATOM     78  S   UNL A   1      35.058  32.774  30.202  1.00  0.00     0.127 S 
ATOM     79  O   UNL A   1      34.530  31.912  29.147  1.00  0.00    -0.237 OA
ATOM     80  O   UNL A   1      34.150  33.000  31.327  1.00  0.00    -0.237 OA
ATOM     81  O   UNL A   1      35.761  33.967  29.748  1.00  0.00    -0.744 OA
ENDBRANCH  75  78
ENDBRANCH  47  71
BRANCH  59  82
ATOM     82  C   UNL A   1      44.417  34.086  29.648  1.00  0.00     0.023 A 
ATOM     83  C   UNL A   1      45.060  34.366  30.870  1.00  0.00     0.012 A 
ATOM     84  C   UNL A   1      44.334  35.090  28.662  1.00  0.00     0.148 A 
ATOM     85  C   UNL A   1      45.598  35.629  31.112  1.00  0.00     0.002 A 
ATOM     86  C   UNL A   1      44.920  36.329  28.890  1.00  0.00     0.091 A 
ATOM     87  F   UNL A   1      43.704  34.806  27.513  1.00  0.00    -0.205 F 
ATOM     88  C   UNL A   1      45.542  36.604  30.118  1.00  0.00     0.022 A 
BRANCH  86  89
ATOM     89  S   UNL A   1      44.994  37.609  27.631  1.00  0.00     0.127 S 
ATOM     90  O   UNL A   1      45.633  38.705  28.359  1.00  0.00    -0.237 OA
ATOM     91  O   UNL A   1      45.833  36.985  26.608  1.00  0.00    -0.237 OA
ATOM     92  O   UNL A   1      43.618  37.855  27.222  1.00  0.00    -0.744 OA
ENDBRANCH  86  89
ENDBRANCH  59  82
ENDBRANCH  33  34
ENDBRANCH  25  28
ENDBRANCH  23  24
ENDBRANCH  22  23
ENDBRANCH   1  22
TORSDOF 19
ENDMDL
MODEL 2
REMARK VINA RESULT:     -11.7      2.701      8.535
REMARK SMILES C[C@@H](c1cccc(F)c1)[C@@](C)(O)C(=O)NCCCCCCNC(=O)c1ccc(-c2c3nc(c(-c4cccc(S(=O)(=O)[O-])c4F)c4ccc([nH]4)c(-c4cccc(S(=O)(=O)[O-])c4F)c4nc(c(-c5cccc(S(=O)(=O)[O-])c5F)c5ccc2[nH]5)C=C4)C=C3)cc1
REMARK SMILES IDX 19 1 18 2 17 3 16 4 15 5 13 6 14 7 10 9 11 10 2 11 1 12 3 13
REMARK SMILES IDX 4 14 9 15 5 16 7 17 6 18 8 19 12 20 20 22 21 23 22 24 23 25
REMARK SMILES IDX 24 27 25 28 26 29 87 30 27 31 86 32 28 33 29 34 30 35 80 36
REMARK SMILES IDX 31 37 85 38 79 39 81 40 32 41 84 42 78 43 77 44 33 46 65 47
REMARK SMILES IDX 45 48 64 49 46 50 49 51 63 52 82 53 47 54 48 55 62 57 83 58
REMARK SMILES IDX 50 59 34 60 35 61 43 62 36 63 38 64 44 65 37 66 39 67 40 68
REMARK SMILES IDX 41 69 42 70 66 71 67 72 75 73 68 74 70 75 76 76 69 77 71 78
REMARK SMILES IDX 72 79 73 80 74 81 51 82 52 83 60 84 53 85 55 86 61 87 54 88
REMARK SMILES IDX 56 89 57 90 58 91 59 92
REMARK H PARENT 15 8 12 21 22 26 81 45 49 56
REMARK Flexibility Score: inf
ROOT
ATOM      1  C   UNL A   1      36.085  23.152  23.597  1.00  0.00     0.002 C 
ENDROOT
BRANCH   1   2
ATOM      2  C   UNL A   1      34.921  24.117  23.844  1.00  0.00     0.002 C 
BRANCH   2   3
ATOM      3  C   UNL A   1      34.960  24.872  25.177  1.00  0.00     0.021 C 
BRANCH   3   4
ATOM      4  C   UNL A   1      33.655  25.565  25.560  1.00  0.00     0.116 C 
BRANCH   4   5
ATOM      5  N   UNL A   1      32.546  25.125  24.736  1.00  0.00    -0.354 N 
ATOM      6  C   UNL A   1      31.630  24.133  24.925  1.00  0.00     0.252 C 
ATOM      7  O   UNL A   1      30.730  24.069  24.082  1.00  0.00    -0.272 OA
ATOM      8  H   UNL A   1      32.435  25.629  23.898  1.00  0.00     0.163 HD
BRANCH   6   9
ATOM      9  C   UNL A   1      31.663  23.235  26.199  1.00  0.00     0.146 C 
ATOM     10  C   UNL A   1      30.351  22.426  26.203  1.00  0.00     0.053 C 
BRANCH   9  11
ATOM     11  C   UNL A   1      32.902  22.270  26.265  1.00  0.00     0.057 C 
ATOM     12  C   UNL A   1      33.443  21.971  27.670  1.00  0.00     0.016 C 
BRANCH  11  13
ATOM     13  C   UNL A   1      32.732  20.996  25.433  1.00  0.00    -0.039 A 
ATOM     14  C   UNL A   1      32.464  21.023  24.055  1.00  0.00     0.004 A 
ATOM     15  C   UNL A   1      32.872  19.743  26.054  1.00  0.00     0.043 A 
ATOM     16  C   UNL A   1      32.362  19.840  23.316  1.00  0.00     0.003 A 
ATOM     17  C   UNL A   1      32.758  18.571  25.311  1.00  0.00     0.123 A 
ATOM     18  C   UNL A   1      32.510  18.608  23.946  1.00  0.00     0.039 A 
ATOM     19  F   UNL A   1      32.891  17.387  25.925  1.00  0.00    -0.207 F 
ENDBRANCH  11  13
ENDBRANCH   9  11
BRANCH   9  20
ATOM     20  O   UNL A   1      31.681  24.021  27.403  1.00  0.00    -0.380 OA
ATOM     21  H   UNL A   1      30.923  24.625  27.405  1.00  0.00     0.212 HD
ENDBRANCH   9  20
ENDBRANCH   6   9
ENDBRANCH   4   5
ENDBRANCH   3   4
ENDBRANCH   2   3
ENDBRANCH   1   2
BRANCH   1  22
ATOM     22  C   UNL A   1      35.983  21.806  24.317  1.00  0.00     0.021 C 
BRANCH  22  23
ATOM     23  C   UNL A   1      36.648  21.760  25.686  1.00  0.00     0.116 C 
BRANCH  23  24
ATOM     24  N   UNL A   1      37.666  20.724  25.771  1.00  0.00    -0.352 N 
ATOM     25  C   UNL A   1      39.007  20.851  26.035  1.00  0.00     0.251 C 
ATOM     26  H   UNL A   1      37.349  19.805  25.615  1.00  0.00     0.163 HD
ATOM     27  O   UNL A   1      39.756  19.888  25.891  1.00  0.00    -0.269 OA
BRANCH  25  28
ATOM     28  C   UNL A   1      39.548  22.155  26.474  1.00  0.00     0.039 A 
ATOM     29  C   UNL A   1      40.645  22.175  27.338  1.00  0.00     0.014 A 
ATOM     30  C   UNL A   1      38.981  23.353  26.029  1.00  0.00     0.014 A 
ATOM     31  C   UNL A   1      41.210  23.397  27.708  1.00  0.00     0.010 A 
ATOM     32  C   UNL A   1      39.593  24.564  26.336  1.00  0.00     0.010 A 
ATOM     33  C   UNL A   1      40.710  24.601  27.184  1.00  0.00    -0.014 A 
BRANCH  33  34
ATOM     34  C   UNL A   1      41.351  25.904  27.500  1.00  0.00     0.031 A 
ATOM     35  C   UNL A   1      40.620  26.934  28.318  1.00  0.00     0.074 A 
ATOM     36  C   UNL A   1      42.565  26.189  26.988  1.00  0.00     0.049 A 
ATOM     37  N   UNL A   1      41.000  28.139  28.652  1.00  0.00    -0.248 NA
ATOM     38  C   UNL A   1      39.278  26.574  28.808  1.00  0.00     0.031 C 
ATOM     39  C   UNL A   1      43.345  25.301  26.122  1.00  0.00     0.029 A 
ATOM     40  N   UNL A   1      43.348  27.311  27.102  1.00  0.00    -0.354 N 
ATOM     41  C   UNL A   1      39.940  28.691  29.360  1.00  0.00     0.074 A 
ATOM     42  C   UNL A   1      38.884  27.703  29.381  1.00  0.00     0.031 C 
ATOM     43  C   UNL A   1      44.497  25.907  25.794  1.00  0.00     0.029 A 
ATOM     44  C   UNL A   1      44.525  27.238  26.392  1.00  0.00     0.049 A 
ATOM     45  H   UNL A   1      43.092  28.095  27.640  1.00  0.00     0.167 HD
ATOM     46  C   UNL A   1      39.864  29.899  29.964  1.00  0.00     0.034 A 
ATOM     47  C   UNL A   1      45.513  28.142  26.232  1.00  0.00     0.034 A 
ATOM     48  C   UNL A   1      40.933  30.862  29.978  1.00  0.00     0.049 A 
ATOM     49  C   UNL A   1      45.414  29.468  26.936  1.00  0.00     0.074 A 
ATOM     50  C   UNL A   1      40.979  32.078  30.636  1.00  0.00     0.029 A 
ATOM     51  N   UNL A   1      42.135  30.724  29.304  1.00  0.00    -0.354 N 
ATOM     52  N   UNL A   1      44.462  29.914  27.719  1.00  0.00    -0.248 NA
ATOM     53  C   UNL A   1      46.536  30.402  26.766  1.00  0.00     0.031 C 
ATOM     54  C   UNL A   1      42.195  32.692  30.331  1.00  0.00     0.029 A 
ATOM     55  C   UNL A   1      42.926  31.840  29.518  1.00  0.00     0.049 A 
ATOM     56  H   UNL A   1      42.390  29.948  28.755  1.00  0.00     0.167 HD
ATOM     57  C   UNL A   1      44.883  31.163  28.160  1.00  0.00     0.074 A 
ATOM     58  C   UNL A   1      46.186  31.396  27.571  1.00  0.00     0.031 C 
ATOM     59  C   UNL A   1      44.243  32.042  28.970  1.00  0.00     0.034 A 
BRANCH  46  60
ATOM     60  C   UNL A   1      38.605  30.243  30.717  1.00  0.00     0.023 A 
ATOM     61  C   UNL A   1      38.490  29.888  32.076  1.00  0.00     0.012 A 
ATOM     62  C   UNL A   1      37.590  31.012  30.114  1.00  0.00     0.148 A 
ATOM     63  C   UNL A   1      37.376  30.277  32.819  1.00  0.00     0.002 A 
ATOM     64  C   UNL A   1      36.507  31.438  30.874  1.00  0.00     0.091 A 
ATOM     65  F   UNL A   1      37.710  31.323  28.815  1.00  0.00    -0.205 F 
ATOM     66  C   UNL A   1      36.394  31.063  32.222  1.00  0.00     0.022 A 
BRANCH  64  67
ATOM     67  S   UNL A   1      35.235  32.529  30.227  1.00  0.00     0.127 S 
ATOM     68  O   UNL A   1      34.719  31.746  29.104  1.00  0.00    -0.237 OA
ATOM     69  O   UNL A   1      34.321  32.640  31.364  1.00  0.00    -0.237 OA
ATOM     70  O   UNL A   1      35.910  33.766  29.861  1.00  0.00    -0.744 OA
ENDBRANCH  64  67
ENDBRANCH  46  60
BRANCH  47  71
ATOM     71  C   UNL A   1      46.710  27.789  25.417  1.00  0.00     0.023 A 
ATOM     72  C   UNL A   1      46.688  28.003  24.026  1.00  0.00     0.012 A 
ATOM     73  C   UNL A   1      47.886  27.299  26.019  1.00  0.00     0.148 A 
ATOM     74  C   UNL A   1      47.809  27.714  23.244  1.00  0.00     0.002 A 
ATOM     75  C   UNL A   1      49.017  27.072  25.244  1.00  0.00     0.091 A 
ATOM     76  F   UNL A   1      47.883  27.093  27.343  1.00  0.00    -0.205 F 
ATOM     77  C   UNL A   1      48.975  27.262  23.854  1.00  0.00     0.022 A 
BRANCH  75  78
ATOM     78  S   UNL A   1      50.604  26.627  25.959  1.00  0.00     0.127 S 
ATOM     79  O   UNL A   1      50.313  25.322  26.548  1.00  0.00    -0.237 OA
ATOM     80  O   UNL A   1      51.466  26.591  24.776  1.00  0.00    -0.237 OA
ATOM     81  O   UNL A   1      50.925  27.688  26.905  1.00  0.00    -0.744 OA
ENDBRANCH  75  78
ENDBRANCH  47  71
BRANCH  59  82
ATOM     82  C   UNL A   1      44.935  33.337  29.308  1.00  0.00     0.023 A 
ATOM     83  C   UNL A   1      45.821  33.392  30.402  1.00  0.00     0.012 A 
ATOM     84  C   UNL A   1      44.802  34.459  28.466  1.00  0.00     0.148 A 
ATOM     85  C   UNL A   1      46.551  34.551  30.662  1.00  0.00     0.002 A 
ATOM     86  C   UNL A   1      45.573  35.591  28.700  1.00  0.00     0.091 A 
ATOM     87  F   UNL A   1      43.942  34.390  27.440  1.00  0.00    -0.205 F 
ATOM     88  C   UNL A   1      46.439  35.642  29.803  1.00  0.00     0.022 A 
BRANCH  86  89
ATOM     89  S   UNL A   1      45.579  37.003  27.589  1.00  0.00     0.127 S 
ATOM     90  O   UNL A   1      46.285  36.464  26.427  1.00  0.00    -0.237 OA
ATOM     91  O   UNL A   1      44.150  37.237  27.381  1.00  0.00    -0.237 OA
ATOM     92  O   UNL A   1      46.273  38.070  28.296  1.00  0.00    -0.744 OA
ENDBRANCH  86  89
ENDBRANCH  59  82
ENDBRANCH  33  34
ENDBRANCH  25  28
ENDBRANCH  23  24
ENDBRANCH  22  23
ENDBRANCH   1  22
TORSDOF 19
ENDMDL
MODEL 3
REMARK VINA RESULT:     -11.5      2.401      8.207
REMARK SMILES C[C@@H](c1cccc(F)c1)[C@@](C)(O)C(=O)NCCCCCCNC(=O)c1ccc(-c2c3nc(c(-c4cccc(S(=O)(=O)[O-])c4F)c4ccc([nH]4)c(-c4cccc(S(=O)(=O)[O-])c4F)c4nc(c(-c5cccc(S(=O)(=O)[O-])c5F)c5ccc2[nH]5)C=C4)C=C3)cc1
REMARK SMILES IDX 19 1 18 2 17 3 16 4 15 5 13 6 14 7 10 9 11 10 2 11 1 12 3 13
REMARK SMILES IDX 4 14 9 15 5 16 7 17 6 18 8 19 12 20 20 22 21 23 22 24 23 25
REMARK SMILES IDX 24 27 25 28 26 29 87 30 27 31 86 32 28 33 29 34 30 35 80 36
REMARK SMILES IDX 31 37 85 38 79 39 81 40 32 41 84 42 78 43 77 44 33 46 65 47
REMARK SMILES IDX 45 48 64 49 46 50 49 51 63 52 82 53 47 54 48 55 62 57 83 58
REMARK SMILES IDX 50 59 34 60 35 61 43 62 36 63 38 64 44 65 37 66 39 67 40 68
REMARK SMILES IDX 41 69 42 70 66 71 67 72 75 73 68 74 70 75 76 76 69 77 71 78
REMARK SMILES IDX 72 79 73 80 74 81 51 82 52 83 60 84 53 85 55 86 61 87 54 88
REMARK SMILES IDX 56 89 57 90 58 91 59 92
REMARK H PARENT 15 8 12 21 22 26 81 45 49 56
REMARK Flexibility Score: inf
ROOT
ATOM      1  C   UNL A   1      37.219  21.597  24.610  1.00  0.00     0.002 C 
ENDROOT
BRANCH   1   2
ATOM      2  C   UNL A   1      35.691  21.492  24.647  1.00  0.00     0.002 C 
BRANCH   2   3
ATOM      3  C   UNL A   1      35.132  20.104  24.984  1.00  0.00     0.021 C 
BRANCH   3   4
ATOM      4  C   UNL A   1      33.729  20.106  25.584  1.00  0.00     0.116 C 
BRANCH   4   5
ATOM      5  N   UNL A   1      33.654  20.916  26.785  1.00  0.00    -0.354 N 
ATOM      6  C   UNL A   1      32.824  21.944  27.120  1.00  0.00     0.252 C 
ATOM      7  O   UNL A   1      32.939  22.370  28.274  1.00  0.00    -0.272 OA
ATOM      8  H   UNL A   1      34.315  20.682  27.476  1.00  0.00     0.163 HD
BRANCH   6   9
ATOM      9  C   UNL A   1      31.721  22.444  26.138  1.00  0.00     0.146 C 
ATOM     10  C   UNL A   1      30.735  23.284  26.974  1.00  0.00     0.053 C 
BRANCH   9  11
ATOM     11  C   UNL A   1      32.277  23.288  24.935  1.00  0.00     0.057 C 
ATOM     12  C   UNL A   1      31.861  22.812  23.535  1.00  0.00     0.016 C 
BRANCH  11  13
ATOM     13  C   UNL A   1      32.089  24.798  25.105  1.00  0.00    -0.039 A 
ATOM     14  C   UNL A   1      31.001  25.492  24.552  1.00  0.00     0.004 A 
ATOM     15  C   UNL A   1      33.020  25.529  25.863  1.00  0.00     0.043 A 
ATOM     16  C   UNL A   1      30.834  26.864  24.766  1.00  0.00     0.003 A 
ATOM     17  C   UNL A   1      32.850  26.896  26.062  1.00  0.00     0.123 A 
ATOM     18  C   UNL A   1      31.762  27.570  25.525  1.00  0.00     0.039 A 
ATOM     19  F   UNL A   1      33.753  27.573  26.785  1.00  0.00    -0.207 F 
ENDBRANCH  11  13
ENDBRANCH   9  11
BRANCH   9  20
ATOM     20  O   UNL A   1      30.976  21.351  25.574  1.00  0.00    -0.380 OA
ATOM     21  H   UNL A   1      30.117  21.673  25.262  1.00  0.00     0.212 HD
ENDBRANCH   9  20
ENDBRANCH   6   9
ENDBRANCH   4   5
ENDBRANCH   3   4
ENDBRANCH   2   3
ENDBRANCH   1   2
BRANCH   1  22
ATOM     22  C   UNL A   1      37.972  20.300  24.909  1.00  0.00     0.021 C 
BRANCH  22  23
ATOM     23  C   UNL A   1      38.874  20.350  26.134  1.00  0.00     0.116 C 
BRANCH  23  24
ATOM     24  N   UNL A   1      39.938  19.360  26.076  1.00  0.00    -0.352 N 
ATOM     25  C   UNL A   1      41.297  19.551  26.102  1.00  0.00     0.251 C 
ATOM     26  H   UNL A   1      39.643  18.423  26.008  1.00  0.00     0.163 HD
ATOM     27  O   UNL A   1      42.055  18.614  25.862  1.00  0.00    -0.269 OA
BRANCH  25  28
ATOM     28  C   UNL A   1      41.844  20.892  26.398  1.00  0.00     0.039 A 
ATOM     29  C   UNL A   1      42.032  21.793  25.347  1.00  0.00     0.014 A 
ATOM     30  C   UNL A   1      42.162  21.263  27.708  1.00  0.00     0.014 A 
ATOM     31  C   UNL A   1      42.483  23.085  25.619  1.00  0.00     0.010 A 
ATOM     32  C   UNL A   1      42.536  22.575  27.984  1.00  0.00     0.010 A 
ATOM     33  C   UNL A   1      42.708  23.499  26.943  1.00  0.00    -0.014 A 
BRANCH  33  34
ATOM     34  C   UNL A   1      43.106  24.895  27.256  1.00  0.00     0.031 A 
ATOM     35  C   UNL A   1      42.132  25.836  27.913  1.00  0.00     0.074 A 
ATOM     36  C   UNL A   1      44.324  25.339  26.885  1.00  0.00     0.049 A 
ATOM     37  N   UNL A   1      42.286  27.097  28.217  1.00  0.00    -0.248 NA
ATOM     38  C   UNL A   1      40.803  25.299  28.250  1.00  0.00     0.031 C 
ATOM     39  C   UNL A   1      45.333  24.545  26.180  1.00  0.00     0.029 A 
ATOM     40  N   UNL A   1      44.914  26.570  27.028  1.00  0.00    -0.354 N 
ATOM     41  C   UNL A   1      41.072  27.512  28.752  1.00  0.00     0.074 A 
ATOM     42  C   UNL A   1      40.177  26.377  28.700  1.00  0.00     0.031 C 
ATOM     43  C   UNL A   1      46.418  25.304  25.963  1.00  0.00     0.029 A 
ATOM     44  C   UNL A   1      46.173  26.647  26.478  1.00  0.00     0.049 A 
ATOM     45  H   UNL A   1      44.478  27.328  27.481  1.00  0.00     0.167 HD
ATOM     46  C   UNL A   1      40.743  28.719  29.267  1.00  0.00     0.034 A 
ATOM     47  C   UNL A   1      47.033  27.682  26.389  1.00  0.00     0.034 A 
ATOM     48  C   UNL A   1      41.650  29.831  29.357  1.00  0.00     0.049 A 
ATOM     49  C   UNL A   1      46.650  29.006  26.993  1.00  0.00     0.074 A 
ATOM     50  C   UNL A   1      41.432  31.066  29.941  1.00  0.00     0.029 A 
ATOM     51  N   UNL A   1      42.939  29.849  28.849  1.00  0.00    -0.354 N 
ATOM     52  N   UNL A   1      45.548  29.335  27.622  1.00  0.00    -0.248 NA
ATOM     53  C   UNL A   1      47.639  30.091  26.909  1.00  0.00     0.031 C 
ATOM     54  C   UNL A   1      42.576  31.845  29.754  1.00  0.00     0.029 A 
ATOM     55  C   UNL A   1      43.524  31.080  29.093  1.00  0.00     0.049 A 
ATOM     56  H   UNL A   1      43.374  29.099  28.385  1.00  0.00     0.167 HD
ATOM     57  C   UNL A   1      45.722  30.651  28.035  1.00  0.00     0.074 A 
ATOM     58  C   UNL A   1      47.045  31.054  27.602  1.00  0.00     0.031 C 
ATOM     59  C   UNL A   1      44.859  31.456  28.703  1.00  0.00     0.034 A 
BRANCH  46  60
ATOM     60  C   UNL A   1      39.358  28.899  29.834  1.00  0.00     0.023 A 
ATOM     61  C   UNL A   1      39.067  28.410  31.123  1.00  0.00     0.012 A 
ATOM     62  C   UNL A   1      38.387  29.647  29.141  1.00  0.00     0.148 A 
ATOM     63  C   UNL A   1      37.822  28.645  31.707  1.00  0.00     0.002 A 
ATOM     64  C   UNL A   1      37.168  29.921  29.750  1.00  0.00     0.091 A 
ATOM     65  F   UNL A   1      38.678  30.088  27.909  1.00  0.00    -0.205 F 
ATOM     66  C   UNL A   1      36.880  29.413  31.027  1.00  0.00     0.022 A 
BRANCH  64  67
ATOM     67  S   UNL A   1      35.922  30.976  29.000  1.00  0.00     0.127 S 
ATOM     68  O   UNL A   1      36.750  31.950  28.288  1.00  0.00    -0.237 OA
ATOM     69  O   UNL A   1      35.207  30.037  28.135  1.00  0.00    -0.237 OA
ATOM     70  O   UNL A   1      35.134  31.517  30.098  1.00  0.00    -0.744 OA
ENDBRANCH  64  67
ENDBRANCH  46  60
BRANCH  47  71
ATOM     71  C   UNL A   1      48.366  27.481  25.754  1.00  0.00     0.023 A 
ATOM     72  C   UNL A   1      49.464  27.108  26.553  1.00  0.00     0.012 A 
ATOM     73  C   UNL A   1      48.539  27.599  24.360  1.00  0.00     0.148 A 
ATOM     74  C   UNL A   1      50.716  26.878  25.978  1.00  0.00     0.002 A 
ATOM     75  C   UNL A   1      49.772  27.309  23.788  1.00  0.00     0.091 A 
ATOM     76  F   UNL A   1      47.483  27.964  23.619  1.00  0.00    -0.205 F 
ATOM     77  C   UNL A   1      50.866  26.966  24.597  1.00  0.00     0.022 A 
BRANCH  75  78
ATOM     78  S   UNL A   1      50.023  27.256  22.010  1.00  0.00     0.127 S 
ATOM     79  O   UNL A   1      48.941  26.374  21.580  1.00  0.00    -0.237 OA
ATOM     80  O   UNL A   1      49.856  28.662  21.642  1.00  0.00    -0.237 OA
ATOM     81  O   UNL A   1      51.372  26.739  21.815  1.00  0.00    -0.744 OA
ENDBRANCH  75  78
ENDBRANCH  47  71
BRANCH  59  82
ATOM     82  C   UNL A   1      45.306  32.853  29.047  1.00  0.00     0.023 A 
ATOM     83  C   UNL A   1      46.012  33.088  30.243  1.00  0.00     0.012 A 
ATOM     84  C   UNL A   1      45.135  33.904  28.124  1.00  0.00     0.148 A 
ATOM     85  C   UNL A   1      46.526  34.353  30.523  1.00  0.00     0.002 A 
ATOM     86  C   UNL A   1      45.697  35.148  28.385  1.00  0.00     0.091 A 
ATOM     87  F   UNL A   1      44.447  33.662  26.999  1.00  0.00    -0.205 F 
ATOM     88  C   UNL A   1      46.383  35.377  29.589  1.00  0.00     0.022 A 
BRANCH  86  89
ATOM     89  S   UNL A   1      45.659  36.495  27.196  1.00  0.00     0.127 S 
ATOM     90  O   UNL A   1      46.376  37.546  27.916  1.00  0.00    -0.237 OA
ATOM     91  O   UNL A   1      46.388  35.925  26.063  1.00  0.00    -0.237 OA
ATOM     92  O   UNL A   1      44.252  36.768  26.939  1.00  0.00    -0.744 OA
ENDBRANCH  86  89
ENDBRANCH  59  82
ENDBRANCH  33  34
ENDBRANCH  25  28
ENDBRANCH  23  24
ENDBRANCH  22  23
ENDBRANCH   1  22
TORSDOF 19
ENDMDL
