MODEL 1
REMARK VINA RESULT:     -11.4      0.000      0.000
REMARK SMILES C[N@H+]1CCO[C@@H](CN2C[C@H](C(=O)NCCCCCCNC(=O)c3ccc(-c4c5nc(c(-c6cccc(S(=O)(=O)[O-])c6F)c6ccc([nH]6)c(-c6cccc(S(=O)(=O)[O-])c6F)c6nc(c(-c7cccc(S(=O)(=O)[O-])c7F)c7ccc4[nH]7)C=C6)C=C5)cc3)CC2=O)C1
REMARK SMILES IDX 17 1 16 2 15 3 14 4 13 5 11 6 12 7 10 9 8 10 9 11 87 12
REMARK SMILES IDX 86 13 88 14 7 15 6 16 1 17 2 18 3 19 89 20 4 22 5 23 18 24
REMARK SMILES IDX 19 25 20 26 21 27 22 29 23 30 24 31 85 32 25 33 84 34 26 35
REMARK SMILES IDX 27 36 28 37 78 38 29 39 83 40 77 41 79 42 30 43 82 44 76 45
REMARK SMILES IDX 75 46 31 48 63 49 43 50 62 51 44 52 47 53 61 54 80 55 45 56
REMARK SMILES IDX 46 57 60 59 81 60 48 61 32 62 33 63 41 64 34 65 36 66 42 67
REMARK SMILES IDX 35 68 37 69 38 70 39 71 40 72 64 73 65 74 73 75 66 76 68 77
REMARK SMILES IDX 74 78 67 79 69 80 70 81 71 82 72 83 49 84 50 85 58 86 51 87
REMARK SMILES IDX 53 88 59 89 52 90 54 91 55 92 56 93 57 94
REMARK H PARENT 13 8 2 21 20 28 79 47 47 58
REMARK Flexibility Score: inf
ROOT
ATOM      1  C   UNL A   1      31.833  27.429  26.188  1.00  0.00     0.002 C 
ENDROOT
BRANCH   1   2
ATOM      2  C   UNL A   1      31.019  27.064  24.944  1.00  0.00     0.002 C 
BRANCH   2   3
ATOM      3  C   UNL A   1      31.804  27.032  23.629  1.00  0.00     0.021 C 
BRANCH   3   4
ATOM      4  C   UNL A   1      33.282  26.683  23.774  1.00  0.00     0.116 C 
BRANCH   4   5
ATOM      5  N   UNL A   1      33.666  25.564  22.929  1.00  0.00    -0.356 N 
ATOM      6  C   UNL A   1      33.762  24.237  23.228  1.00  0.00     0.225 C 
ATOM      7  O   UNL A   1      34.124  23.466  22.340  1.00  0.00    -0.275 OA
ATOM      8  H   UNL A   1      33.892  25.801  22.001  1.00  0.00     0.163 HD
BRANCH   6   9
ATOM      9  C   UNL A   1      33.455  23.777  24.644  1.00  0.00     0.107 C 
ATOM     10  N   UNL A   1      34.055  21.531  24.858  1.00  0.00    -0.339 N 
ATOM     11  C   UNL A   1      32.904  22.365  24.652  1.00  0.00     0.133 C 
ATOM     12  C   UNL A   1      35.124  22.232  25.379  1.00  0.00     0.223 C 
ATOM     13  C   UNL A   1      34.707  23.677  25.521  1.00  0.00     0.115 C 
ATOM     14  O   UNL A   1      36.194  21.762  25.741  1.00  0.00    -0.275 OA
BRANCH  10  15
ATOM     15  C   UNL A   1      34.040  20.104  24.579  1.00  0.00     0.157 C 
BRANCH  15  16
ATOM     16  C   UNL A   1      32.648  19.480  24.373  1.00  0.00     0.192 C 
ATOM     17  C   UNL A   1      34.353  16.817  23.350  1.00  0.00     0.332 C 
ATOM     18  N   UNL A   1      32.927  17.057  23.501  1.00  0.00    -0.333 N 
ATOM     19  C   UNL A   1      32.427  16.642  24.822  1.00  0.00     0.290 C 
ATOM     20  C   UNL A   1      32.510  18.445  23.227  1.00  0.00     0.296 C 
ATOM     21  H   UNL A   1      32.502  16.473  22.782  1.00  0.00     0.348 HD
ATOM     22  C   UNL A   1      32.708  17.659  25.933  1.00  0.00     0.222 C 
ATOM     23  O   UNL A   1      32.154  18.945  25.622  1.00  0.00    -0.365 OA
ENDBRANCH  15  16
ENDBRANCH  10  15
ENDBRANCH   6   9
ENDBRANCH   4   5
ENDBRANCH   3   4
ENDBRANCH   2   3
ENDBRANCH   1   2
BRANCH   1  24
ATOM     24  C   UNL A   1      31.727  28.889  26.636  1.00  0.00     0.021 C 
BRANCH  24  25
ATOM     25  C   UNL A   1      32.646  29.859  25.899  1.00  0.00     0.116 C 
BRANCH  25  26
ATOM     26  N   UNL A   1      32.444  31.239  26.311  1.00  0.00    -0.352 N 
ATOM     27  C   UNL A   1      33.147  31.986  27.225  1.00  0.00     0.251 C 
ATOM     28  H   UNL A   1      31.696  31.705  25.871  1.00  0.00     0.163 HD
ATOM     29  O   UNL A   1      32.731  33.090  27.564  1.00  0.00    -0.269 OA
BRANCH  27  30
ATOM     30  C   UNL A   1      34.391  31.447  27.815  1.00  0.00     0.039 A 
ATOM     31  C   UNL A   1      35.473  32.308  28.009  1.00  0.00     0.014 A 
ATOM     32  C   UNL A   1      34.490  30.101  28.181  1.00  0.00     0.014 A 
ATOM     33  C   UNL A   1      36.632  31.834  28.630  1.00  0.00     0.010 A 
ATOM     34  C   UNL A   1      35.615  29.650  28.866  1.00  0.00     0.010 A 
ATOM     35  C   UNL A   1      36.700  30.511  29.097  1.00  0.00    -0.014 A 
BRANCH  35  36
ATOM     36  C   UNL A   1      37.883  30.021  29.850  1.00  0.00     0.031 A 
ATOM     37  C   UNL A   1      38.173  30.531  31.236  1.00  0.00     0.074 A 
ATOM     38  C   UNL A   1      38.745  29.175  29.252  1.00  0.00     0.049 A 
ATOM     39  N   UNL A   1      39.181  30.253  32.021  1.00  0.00    -0.248 NA
ATOM     40  C   UNL A   1      37.220  31.500  31.805  1.00  0.00     0.031 C 
ATOM     41  C   UNL A   1      38.619  28.668  27.883  1.00  0.00     0.029 A 
ATOM     42  N   UNL A   1      39.913  28.613  29.706  1.00  0.00    -0.354 N 
ATOM     43  C   UNL A   1      39.004  31.032  33.159  1.00  0.00     0.074 A 
ATOM     44  C   UNL A   1      37.810  31.821  32.947  1.00  0.00     0.031 C 
ATOM     45  C   UNL A   1      39.661  27.868  27.612  1.00  0.00     0.029 A 
ATOM     46  C   UNL A   1      40.549  27.830  28.770  1.00  0.00     0.049 A 
ATOM     47  H   UNL A   1      40.261  28.757  30.615  1.00  0.00     0.167 HD
ATOM     48  C   UNL A   1      39.752  31.069  34.288  1.00  0.00     0.034 A 
ATOM     49  C   UNL A   1      41.720  27.166  28.832  1.00  0.00     0.034 A 
ATOM     50  C   UNL A   1      40.919  30.257  34.509  1.00  0.00     0.049 A 
ATOM     51  C   UNL A   1      42.515  27.202  30.107  1.00  0.00     0.074 A 
ATOM     52  C   UNL A   1      41.692  30.158  35.652  1.00  0.00     0.029 A 
ATOM     53  N   UNL A   1      41.491  29.418  33.566  1.00  0.00    -0.354 N 
ATOM     54  N   UNL A   1      42.246  27.821  31.231  1.00  0.00    -0.248 NA
ATOM     55  C   UNL A   1      43.759  26.418  30.138  1.00  0.00     0.031 C 
ATOM     56  C   UNL A   1      42.751  29.285  35.390  1.00  0.00     0.029 A 
ATOM     57  C   UNL A   1      42.617  28.809  34.095  1.00  0.00     0.049 A 
ATOM     58  H   UNL A   1      41.148  29.276  32.655  1.00  0.00     0.167 HD
ATOM     59  C   UNL A   1      43.263  27.474  32.112  1.00  0.00     0.074 A 
ATOM     60  C   UNL A   1      44.143  26.572  31.397  1.00  0.00     0.031 C 
ATOM     61  C   UNL A   1      43.460  27.876  33.392  1.00  0.00     0.034 A 
BRANCH  48  62
ATOM     62  C   UNL A   1      39.304  31.988  35.396  1.00  0.00     0.023 A 
ATOM     63  C   UNL A   1      38.425  31.508  36.389  1.00  0.00     0.012 A 
ATOM     64  C   UNL A   1      39.800  33.303  35.490  1.00  0.00     0.148 A 
ATOM     65  C   UNL A   1      38.018  32.334  37.437  1.00  0.00     0.002 A 
ATOM     66  C   UNL A   1      39.427  34.104  36.564  1.00  0.00     0.091 A 
ATOM     67  F   UNL A   1      40.618  33.749  34.528  1.00  0.00    -0.205 F 
ATOM     68  C   UNL A   1      38.526  33.625  37.531  1.00  0.00     0.022 A 
BRANCH  66  69
ATOM     69  S   UNL A   1      40.088  35.754  36.819  1.00  0.00     0.127 S 
ATOM     70  O   UNL A   1      41.524  35.489  36.887  1.00  0.00    -0.237 OA
ATOM     71  O   UNL A   1      39.653  36.450  35.607  1.00  0.00    -0.237 OA
ATOM     72  O   UNL A   1      39.485  36.244  38.051  1.00  0.00    -0.744 OA
ENDBRANCH  66  69
ENDBRANCH  48  62
BRANCH  49  73
ATOM     73  C   UNL A   1      42.184  26.366  27.662  1.00  0.00     0.023 A 
ATOM     74  C   UNL A   1      43.028  26.962  26.705  1.00  0.00     0.012 A 
ATOM     75  C   UNL A   1      41.814  25.016  27.506  1.00  0.00     0.148 A 
ATOM     76  C   UNL A   1      43.466  26.238  25.595  1.00  0.00     0.002 A 
ATOM     77  C   UNL A   1      42.304  24.284  26.431  1.00  0.00     0.091 A 
ATOM     78  F   UNL A   1      41.003  24.470  28.424  1.00  0.00    -0.205 F 
ATOM     79  C   UNL A   1      43.113  24.897  25.464  1.00  0.00     0.022 A 
BRANCH  77  80
ATOM     80  S   UNL A   1      42.013  22.520  26.257  1.00  0.00     0.127 S 
ATOM     81  O   UNL A   1      40.559  22.468  26.125  1.00  0.00    -0.237 OA
ATOM     82  O   UNL A   1      42.755  22.210  25.036  1.00  0.00    -0.237 OA
ATOM     83  O   UNL A   1      42.560  21.908  27.462  1.00  0.00    -0.744 OA
ENDBRANCH  77  80
ENDBRANCH  49  73
BRANCH  61  84
ATOM     84  C   UNL A   1      44.650  27.316  34.126  1.00  0.00     0.023 A 
ATOM     85  C   UNL A   1      45.898  27.965  34.046  1.00  0.00     0.012 A 
ATOM     86  C   UNL A   1      44.511  26.185  34.955  1.00  0.00     0.148 A 
ATOM     87  C   UNL A   1      46.998  27.475  34.748  1.00  0.00     0.002 A 
ATOM     88  C   UNL A   1      45.599  25.734  35.693  1.00  0.00     0.091 A 
ATOM     89  F   UNL A   1      43.320  25.570  35.006  1.00  0.00    -0.205 F 
ATOM     90  C   UNL A   1      46.846  26.369  35.580  1.00  0.00     0.022 A 
BRANCH  88  91
ATOM     91  S   UNL A   1      45.473  24.378  36.865  1.00  0.00     0.127 S 
ATOM     92  O   UNL A   1      44.460  24.879  37.793  1.00  0.00    -0.237 OA
ATOM     93  O   UNL A   1      45.029  23.274  36.015  1.00  0.00    -0.237 OA
ATOM     94  O   UNL A   1      46.806  24.209  37.428  1.00  0.00    -0.744 OA
ENDBRANCH  88  91
ENDBRANCH  61  84
ENDBRANCH  35  36
ENDBRANCH  27  30
ENDBRANCH  25  26
ENDBRANCH  24  25
ENDBRANCH   1  24
TORSDOF 18
ENDMDL
MODEL 2
REMARK VINA RESULT:     -11.0      4.776     10.318
REMARK SMILES C[N@H+]1CCO[C@@H](CN2C[C@H](C(=O)NCCCCCCNC(=O)c3ccc(-c4c5nc(c(-c6cccc(S(=O)(=O)[O-])c6F)c6ccc([nH]6)c(-c6cccc(S(=O)(=O)[O-])c6F)c6nc(c(-c7cccc(S(=O)(=O)[O-])c7F)c7ccc4[nH]7)C=C6)C=C5)cc3)CC2=O)C1
REMARK SMILES IDX 17 1 16 2 15 3 14 4 13 5 11 6 12 7 10 9 8 10 9 11 87 12
REMARK SMILES IDX 86 13 88 14 7 15 6 16 1 17 2 18 3 19 89 20 4 22 5 23 18 24
REMARK SMILES IDX 19 25 20 26 21 27 22 29 23 30 24 31 85 32 25 33 84 34 26 35
REMARK SMILES IDX 27 36 28 37 78 38 29 39 83 40 77 41 79 42 30 43 82 44 76 45
REMARK SMILES IDX 75 46 31 48 63 49 43 50 62 51 44 52 47 53 61 54 80 55 45 56
REMARK SMILES IDX 46 57 60 59 81 60 48 61 32 62 33 63 41 64 34 65 36 66 42 67
REMARK SMILES IDX 35 68 37 69 38 70 39 71 40 72 64 73 65 74 73 75 66 76 68 77
REMARK SMILES IDX 74 78 67 79 69 80 70 81 71 82 72 83 49 84 50 85 58 86 51 87
REMARK SMILES IDX 53 88 59 89 52 90 54 91 55 92 56 93 57 94
REMARK H PARENT 13 8 2 21 20 28 79 47 47 58
REMARK Flexibility Score: inf
ROOT
ATOM      1  C   UNL A   1      34.846  20.221  24.914  1.00  0.00     0.002 C 
ENDROOT
BRANCH   1   2
ATOM      2  C   UNL A   1      33.378  19.927  25.233  1.00  0.00     0.002 C 
BRANCH   2   3
ATOM      3  C   UNL A   1      32.389  20.205  24.097  1.00  0.00     0.021 C 
BRANCH   3   4
ATOM      4  C   UNL A   1      32.867  21.222  23.066  1.00  0.00     0.116 C 
BRANCH   4   5
ATOM      5  N   UNL A   1      31.861  22.233  22.785  1.00  0.00    -0.356 N 
ATOM      6  C   UNL A   1      31.304  23.163  23.612  1.00  0.00     0.225 C 
ATOM      7  O   UNL A   1      30.450  23.917  23.147  1.00  0.00    -0.275 OA
ATOM      8  H   UNL A   1      31.531  22.247  21.858  1.00  0.00     0.163 HD
BRANCH   6   9
ATOM      9  C   UNL A   1      31.732  23.204  25.069  1.00  0.00     0.107 C 
ATOM     10  N   UNL A   1      31.342  25.346  25.915  1.00  0.00    -0.339 N 
ATOM     11  C   UNL A   1      32.402  24.523  25.405  1.00  0.00     0.133 C 
ATOM     12  C   UNL A   1      30.250  24.603  26.317  1.00  0.00     0.223 C 
ATOM     13  C   UNL A   1      30.549  23.148  26.040  1.00  0.00     0.115 C 
ATOM     14  O   UNL A   1      29.247  25.030  26.875  1.00  0.00    -0.275 OA
BRANCH  10  15
ATOM     15  C   UNL A   1      31.463  26.791  26.020  1.00  0.00     0.157 C 
BRANCH  15  16
ATOM     16  C   UNL A   1      31.091  27.585  24.755  1.00  0.00     0.192 C 
ATOM     17  C   UNL A   1      33.356  29.757  25.849  1.00  0.00     0.332 C 
ATOM     18  N   UNL A   1      32.528  29.737  24.654  1.00  0.00    -0.333 N 
ATOM     19  C   UNL A   1      33.205  29.099  23.514  1.00  0.00     0.290 C 
ATOM     20  C   UNL A   1      31.197  29.129  24.844  1.00  0.00     0.296 C 
ATOM     21  H   UNL A   1      32.374  30.723  24.446  1.00  0.00     0.348 HD
ATOM     22  C   UNL A   1      33.167  27.567  23.555  1.00  0.00     0.222 C 
ATOM     23  O   UNL A   1      31.821  27.076  23.616  1.00  0.00    -0.365 OA
ENDBRANCH  15  16
ENDBRANCH  10  15
ENDBRANCH   6   9
ENDBRANCH   4   5
ENDBRANCH   3   4
ENDBRANCH   2   3
ENDBRANCH   1   2
BRANCH   1  24
ATOM     24  C   UNL A   1      35.425  21.471  25.582  1.00  0.00     0.021 C 
BRANCH  24  25
ATOM     25  C   UNL A   1      36.848  21.828  25.164  1.00  0.00     0.116 C 
BRANCH  25  26
ATOM     26  N   UNL A   1      37.805  20.786  25.501  1.00  0.00    -0.352 N 
ATOM     27  C   UNL A   1      39.071  20.903  26.022  1.00  0.00     0.251 C 
ATOM     28  H   UNL A   1      37.502  19.864  25.331  1.00  0.00     0.163 HD
ATOM     29  O   UNL A   1      39.799  19.917  26.092  1.00  0.00    -0.269 OA
BRANCH  27  30
ATOM     30  C   UNL A   1      39.561  22.222  26.476  1.00  0.00     0.039 A 
ATOM     31  C   UNL A   1      40.644  22.272  27.358  1.00  0.00     0.014 A 
ATOM     32  C   UNL A   1      38.962  23.405  26.033  1.00  0.00     0.014 A 
ATOM     33  C   UNL A   1      41.166  23.509  27.743  1.00  0.00     0.010 A 
ATOM     34  C   UNL A   1      39.530  24.634  26.357  1.00  0.00     0.010 A 
ATOM     35  C   UNL A   1      40.638  24.700  27.218  1.00  0.00    -0.014 A 
BRANCH  35  36
ATOM     36  C   UNL A   1      41.246  26.018  27.535  1.00  0.00     0.031 A 
ATOM     37  C   UNL A   1      42.664  26.323  27.132  1.00  0.00     0.074 A 
ATOM     38  C   UNL A   1      40.546  26.913  28.262  1.00  0.00     0.049 A 
ATOM     39  N   UNL A   1      43.372  27.397  27.365  1.00  0.00    -0.248 NA
ATOM     40  C   UNL A   1      43.389  25.276  26.392  1.00  0.00     0.031 C 
ATOM     41  C   UNL A   1      39.192  26.706  28.780  1.00  0.00     0.029 A 
ATOM     42  N   UNL A   1      40.886  28.163  28.714  1.00  0.00    -0.354 N 
ATOM     43  C   UNL A   1      44.631  27.146  26.833  1.00  0.00     0.074 A 
ATOM     44  C   UNL A   1      44.601  25.802  26.295  1.00  0.00     0.031 C 
ATOM     45  C   UNL A   1      38.815  27.792  29.473  1.00  0.00     0.029 A 
ATOM     46  C   UNL A   1      39.910  28.758  29.480  1.00  0.00     0.049 A 
ATOM     47  H   UNL A   1      41.747  28.595  28.509  1.00  0.00     0.167 HD
ATOM     48  C   UNL A   1      45.709  27.965  26.774  1.00  0.00     0.034 A 
ATOM     49  C   UNL A   1      39.899  29.940  30.125  1.00  0.00     0.034 A 
ATOM     50  C   UNL A   1      45.725  29.313  27.279  1.00  0.00     0.049 A 
ATOM     51  C   UNL A   1      41.097  30.843  30.019  1.00  0.00     0.074 A 
ATOM     52  C   UNL A   1      46.737  30.252  27.188  1.00  0.00     0.029 A 
ATOM     53  N   UNL A   1      44.690  29.908  27.983  1.00  0.00    -0.354 N 
ATOM     54  N   UNL A   1      42.222  30.649  29.373  1.00  0.00    -0.248 NA
ATOM     55  C   UNL A   1      41.013  32.144  30.698  1.00  0.00     0.031 C 
ATOM     56  C   UNL A   1      46.327  31.404  27.866  1.00  0.00     0.029 A 
ATOM     57  C   UNL A   1      45.044  31.197  28.346  1.00  0.00     0.049 A 
ATOM     58  H   UNL A   1      43.830  29.479  28.192  1.00  0.00     0.167 HD
ATOM     59  C   UNL A   1      42.962  31.814  29.538  1.00  0.00     0.074 A 
ATOM     60  C   UNL A   1      42.149  32.717  30.326  1.00  0.00     0.031 C 
ATOM     61  C   UNL A   1      44.208  32.105  29.089  1.00  0.00     0.034 A 
BRANCH  48  62
ATOM     62  C   UNL A   1      46.951  27.444  26.097  1.00  0.00     0.023 A 
ATOM     63  C   UNL A   1      47.173  27.726  24.733  1.00  0.00     0.012 A 
ATOM     64  C   UNL A   1      47.925  26.732  26.822  1.00  0.00     0.148 A 
ATOM     65  C   UNL A   1      48.328  27.276  24.094  1.00  0.00     0.002 A 
ATOM     66  C   UNL A   1      49.096  26.327  26.190  1.00  0.00     0.091 A 
ATOM     67  F   UNL A   1      47.688  26.456  28.113  1.00  0.00    -0.205 F 
ATOM     68  C   UNL A   1      49.292  26.587  24.823  1.00  0.00     0.022 A 
BRANCH  66  69
ATOM     69  S   UNL A   1      50.434  25.505  27.060  1.00  0.00     0.127 S 
ATOM     70  O   UNL A   1      51.399  25.292  25.983  1.00  0.00    -0.237 OA
ATOM     71  O   UNL A   1      50.829  26.516  28.041  1.00  0.00    -0.237 OA
ATOM     72  O   UNL A   1      49.860  24.294  27.631  1.00  0.00    -0.744 OA
ENDBRANCH  66  69
ENDBRANCH  48  62
BRANCH  49  73
ATOM     73  C   UNL A   1      38.688  30.362  30.887  1.00  0.00     0.023 A 
ATOM     74  C   UNL A   1      38.594  30.063  32.260  1.00  0.00     0.012 A 
ATOM     75  C   UNL A   1      37.645  31.076  30.266  1.00  0.00     0.148 A 
ATOM     76  C   UNL A   1      37.466  30.436  32.992  1.00  0.00     0.002 A 
ATOM     77  C   UNL A   1      36.553  31.497  31.015  1.00  0.00     0.091 A 
ATOM     78  F   UNL A   1      37.750  31.343  28.956  1.00  0.00    -0.205 F 
ATOM     79  C   UNL A   1      36.451  31.161  32.373  1.00  0.00     0.022 A 
BRANCH  77  80
ATOM     80  S   UNL A   1      35.268  32.551  30.333  1.00  0.00     0.127 S 
ATOM     81  O   UNL A   1      35.999  33.791  30.084  1.00  0.00    -0.237 OA
ATOM     82  O   UNL A   1      34.878  31.812  29.132  1.00  0.00    -0.237 OA
ATOM     83  O   UNL A   1      34.232  32.623  31.355  1.00  0.00    -0.744 OA
ENDBRANCH  77  80
ENDBRANCH  49  73
BRANCH  61  84
ATOM     84  C   UNL A   1      44.763  33.471  29.401  1.00  0.00     0.023 A 
ATOM     85  C   UNL A   1      45.467  33.690  30.601  1.00  0.00     0.012 A 
ATOM     86  C   UNL A   1      44.647  34.520  28.467  1.00  0.00     0.148 A 
ATOM     87  C   UNL A   1      46.013  34.940  30.885  1.00  0.00     0.002 A 
ATOM     88  C   UNL A   1      45.239  35.748  28.733  1.00  0.00     0.091 A 
ATOM     89  F   UNL A   1      43.958  34.298  27.337  1.00  0.00    -0.205 F 
ATOM     90  C   UNL A   1      45.911  35.964  29.947  1.00  0.00     0.022 A 
BRANCH  88  91
ATOM     91  S   UNL A   1      45.244  37.094  27.543  1.00  0.00     0.127 S 
ATOM     92  O   UNL A   1      45.916  38.153  28.294  1.00  0.00    -0.237 OA
ATOM     93  O   UNL A   1      46.030  36.533  26.444  1.00  0.00    -0.237 OA
ATOM     94  O   UNL A   1      43.847  37.349  27.219  1.00  0.00    -0.744 OA
ENDBRANCH  88  91
ENDBRANCH  61  84
ENDBRANCH  35  36
ENDBRANCH  27  30
ENDBRANCH  25  26
ENDBRANCH  24  25
ENDBRANCH   1  24
TORSDOF 18
ENDMDL
MODEL 3
REMARK VINA RESULT:     -11.0      5.081     10.368
REMARK SMILES C[N@H+]1CCO[C@@H](CN2C[C@H](C(=O)NCCCCCCNC(=O)c3ccc(-c4c5nc(c(-c6cccc(S(=O)(=O)[O-])c6F)c6ccc([nH]6)c(-c6cccc(S(=O)(=O)[O-])c6F)c6nc(c(-c7cccc(S(=O)(=O)[O-])c7F)c7ccc4[nH]7)C=C6)C=C5)cc3)CC2=O)C1
REMARK SMILES IDX 17 1 16 2 15 3 14 4 13 5 11 6 12 7 10 9 8 10 9 11 87 12
REMARK SMILES IDX 86 13 88 14 7 15 6 16 1 17 2 18 3 19 89 20 4 22 5 23 18 24
REMARK SMILES IDX 19 25 20 26 21 27 22 29 23 30 24 31 85 32 25 33 84 34 26 35
REMARK SMILES IDX 27 36 28 37 78 38 29 39 83 40 77 41 79 42 30 43 82 44 76 45
REMARK SMILES IDX 75 46 31 48 63 49 43 50 62 51 44 52 47 53 61 54 80 55 45 56
REMARK SMILES IDX 46 57 60 59 81 60 48 61 32 62 33 63 41 64 34 65 36 66 42 67
REMARK SMILES IDX 35 68 37 69 38 70 39 71 40 72 64 73 65 74 73 75 66 76 68 77
REMARK SMILES IDX 74 78 67 79 69 80 70 81 71 82 72 83 49 84 50 85 58 86 51 87
REMARK SMILES IDX 53 88 59 89 52 90 54 91 55 92 56 93 57 94
REMARK H PARENT 13 8 2 21 20 28 79 47 47 58
REMARK Flexibility Score: inf
ROOT
ATOM      1  C   UNL A   1      35.030  20.767  24.961  1.00  0.00     0.002 C 
ENDROOT
BRANCH   1   2
ATOM      2  C   UNL A   1      33.663  20.294  25.465  1.00  0.00     0.002 C 
BRANCH   2   3
ATOM      3  C   UNL A   1      32.539  20.303  24.425  1.00  0.00     0.021 C 
BRANCH   3   4
ATOM      4  C   UNL A   1      32.228  21.673  23.830  1.00  0.00     0.116 C 
BRANCH   4   5
ATOM      5  N   UNL A   1      31.655  22.579  24.812  1.00  0.00    -0.356 N 
ATOM      6  C   UNL A   1      32.068  23.819  25.201  1.00  0.00     0.225 C 
ATOM      7  O   UNL A   1      31.421  24.401  26.070  1.00  0.00    -0.275 OA
ATOM      8  H   UNL A   1      30.846  22.247  25.264  1.00  0.00     0.163 HD
BRANCH   6   9
ATOM      9  C   UNL A   1      33.321  24.407  24.575  1.00  0.00     0.107 C 
ATOM     10  N   UNL A   1      33.044  26.715  24.347  1.00  0.00    -0.339 N 
ATOM     11  C   UNL A   1      32.975  25.501  23.583  1.00  0.00     0.133 C 
ATOM     12  C   UNL A   1      33.769  26.559  25.512  1.00  0.00     0.223 C 
ATOM     13  C   UNL A   1      34.217  25.119  25.593  1.00  0.00     0.115 C 
ATOM     14  O   UNL A   1      34.069  27.444  26.304  1.00  0.00    -0.275 OA
BRANCH  10  15
ATOM     15  C   UNL A   1      32.443  27.957  23.888  1.00  0.00     0.157 C 
BRANCH  15  16
ATOM     16  C   UNL A   1      31.188  28.412  24.653  1.00  0.00     0.192 C 
ATOM     17  C   UNL A   1      30.284  29.720  21.735  1.00  0.00     0.332 C 
ATOM     18  N   UNL A   1      29.617  29.674  23.026  1.00  0.00    -0.333 N 
ATOM     19  C   UNL A   1      28.728  28.508  23.156  1.00  0.00     0.290 C 
ATOM     20  C   UNL A   1      30.528  29.735  24.185  1.00  0.00     0.296 C 
ATOM     21  H   UNL A   1      29.059  30.527  23.045  1.00  0.00     0.348 HD
ATOM     22  C   UNL A   1      29.464  27.209  23.499  1.00  0.00     0.222 C 
ATOM     23  O   UNL A   1      30.223  27.338  24.710  1.00  0.00    -0.365 OA
ENDBRANCH  15  16
ENDBRANCH  10  15
ENDBRANCH   6   9
ENDBRANCH   4   5
ENDBRANCH   3   4
ENDBRANCH   2   3
ENDBRANCH   1   2
BRANCH   1  24
ATOM     24  C   UNL A   1      35.778  21.721  25.896  1.00  0.00     0.021 C 
BRANCH  24  25
ATOM     25  C   UNL A   1      37.164  22.141  25.416  1.00  0.00     0.116 C 
BRANCH  25  26
ATOM     26  N   UNL A   1      38.184  21.153  25.726  1.00  0.00    -0.352 N 
ATOM     27  C   UNL A   1      39.447  21.336  26.236  1.00  0.00     0.251 C 
ATOM     28  H   UNL A   1      37.934  20.218  25.545  1.00  0.00     0.163 HD
ATOM     29  O   UNL A   1      40.232  20.394  26.282  1.00  0.00    -0.269 OA
BRANCH  27  30
ATOM     30  C   UNL A   1      39.864  22.674  26.706  1.00  0.00     0.039 A 
ATOM     31  C   UNL A   1      40.843  22.766  27.698  1.00  0.00     0.014 A 
ATOM     32  C   UNL A   1      39.298  23.835  26.169  1.00  0.00     0.014 A 
ATOM     33  C   UNL A   1      41.301  24.021  28.105  1.00  0.00     0.010 A 
ATOM     34  C   UNL A   1      39.808  25.081  26.522  1.00  0.00     0.010 A 
ATOM     35  C   UNL A   1      40.814  25.189  27.495  1.00  0.00    -0.014 A 
BRANCH  35  36
ATOM     36  C   UNL A   1      41.364  26.525  27.842  1.00  0.00     0.031 A 
ATOM     37  C   UNL A   1      42.797  26.867  27.535  1.00  0.00     0.074 A 
ATOM     38  C   UNL A   1      40.592  27.405  28.512  1.00  0.00     0.049 A 
ATOM     39  N   UNL A   1      43.458  27.961  27.806  1.00  0.00    -0.248 NA
ATOM     40  C   UNL A   1      43.598  25.835  26.855  1.00  0.00     0.031 C 
ATOM     41  C   UNL A   1      39.212  27.164  28.939  1.00  0.00     0.029 A 
ATOM     42  N   UNL A   1      40.866  28.667  28.976  1.00  0.00    -0.354 N 
ATOM     43  C   UNL A   1      44.757  27.741  27.364  1.00  0.00     0.074 A 
ATOM     44  C   UNL A   1      44.800  26.394  26.836  1.00  0.00     0.031 C 
ATOM     45  C   UNL A   1      38.759  28.244  29.595  1.00  0.00     0.029 A 
ATOM     46  C   UNL A   1      39.824  29.240  29.669  1.00  0.00     0.049 A 
ATOM     47  H   UNL A   1      41.727  29.121  28.827  1.00  0.00     0.167 HD
ATOM     48  C   UNL A   1      45.813  28.590  27.371  1.00  0.00     0.034 A 
ATOM     49  C   UNL A   1      39.737  30.426  30.301  1.00  0.00     0.034 A 
ATOM     50  C   UNL A   1      45.759  29.940  27.865  1.00  0.00     0.049 A 
ATOM     51  C   UNL A   1      40.915  31.360  30.270  1.00  0.00     0.074 A 
ATOM     52  C   UNL A   1      46.749  30.906  27.835  1.00  0.00     0.029 A 
ATOM     53  N   UNL A   1      44.662  30.511  28.491  1.00  0.00    -0.354 N 
ATOM     54  N   UNL A   1      42.086  31.193  29.704  1.00  0.00    -0.248 NA
ATOM     55  C   UNL A   1      40.749  32.663  30.931  1.00  0.00     0.031 C 
ATOM     56  C   UNL A   1      46.262  32.051  28.474  1.00  0.00     0.029 A 
ATOM     57  C   UNL A   1      44.955  31.812  28.867  1.00  0.00     0.049 A 
ATOM     58  H   UNL A   1      43.802  30.060  28.645  1.00  0.00     0.167 HD
ATOM     59  C   UNL A   1      42.782  32.379  29.909  1.00  0.00     0.074 A 
ATOM     60  C   UNL A   1      41.892  33.264  30.632  1.00  0.00     0.031 C 
ATOM     61  C   UNL A   1      44.047  32.701  29.544  1.00  0.00     0.034 A 
BRANCH  48  62
ATOM     62  C   UNL A   1      47.113  28.099  26.785  1.00  0.00     0.023 A 
ATOM     63  C   UNL A   1      48.152  27.681  27.642  1.00  0.00     0.012 A 
ATOM     64  C   UNL A   1      47.283  27.992  25.391  1.00  0.00     0.148 A 
ATOM     65  C   UNL A   1      49.353  27.199  27.121  1.00  0.00     0.002 A 
ATOM     66  C   UNL A   1      48.465  27.467  24.880  1.00  0.00     0.091 A 
ATOM     67  F   UNL A   1      46.293  28.413  24.591  1.00  0.00    -0.205 F 
ATOM     68  C   UNL A   1      49.504  27.082  25.743  1.00  0.00     0.022 A 
BRANCH  66  69
ATOM     69  S   UNL A   1      48.728  27.200  23.123  1.00  0.00     0.127 S 
ATOM     70  O   UNL A   1      47.960  28.298  22.540  1.00  0.00    -0.237 OA
ATOM     71  O   UNL A   1      50.180  27.341  23.006  1.00  0.00    -0.237 OA
ATOM     72  O   UNL A   1      48.221  25.864  22.838  1.00  0.00    -0.744 OA
ENDBRANCH  66  69
ENDBRANCH  48  62
BRANCH  49  73
ATOM     73  C   UNL A   1      38.466  30.819  30.976  1.00  0.00     0.023 A 
ATOM     74  C   UNL A   1      38.286  30.527  32.342  1.00  0.00     0.012 A 
ATOM     75  C   UNL A   1      37.448  31.499  30.279  1.00  0.00     0.148 A 
ATOM     76  C   UNL A   1      37.102  30.873  32.992  1.00  0.00     0.002 A 
ATOM     77  C   UNL A   1      36.297  31.894  30.948  1.00  0.00     0.091 A 
ATOM     78  F   UNL A   1      37.635  31.759  28.977  1.00  0.00    -0.205 F 
ATOM     79  C   UNL A   1      36.112  31.566  32.300  1.00  0.00     0.022 A 
BRANCH  77  80
ATOM     80  S   UNL A   1      35.033  32.907  30.171  1.00  0.00     0.127 S 
ATOM     81  O   UNL A   1      35.822  34.017  29.643  1.00  0.00    -0.237 OA
ATOM     82  O   UNL A   1      34.495  31.996  29.162  1.00  0.00    -0.237 OA
ATOM     83  O   UNL A   1      34.093  33.249  31.231  1.00  0.00    -0.744 OA
ENDBRANCH  77  80
ENDBRANCH  49  73
BRANCH  61  84
ATOM     84  C   UNL A   1      44.542  34.084  29.881  1.00  0.00     0.023 A 
ATOM     85  C   UNL A   1      45.249  34.308  31.079  1.00  0.00     0.012 A 
ATOM     86  C   UNL A   1      44.367  35.148  28.974  1.00  0.00     0.148 A 
ATOM     87  C   UNL A   1      45.741  35.575  31.386  1.00  0.00     0.002 A 
ATOM     88  C   UNL A   1      44.905  36.395  29.262  1.00  0.00     0.091 A 
ATOM     89  F   UNL A   1      43.676  34.920  27.847  1.00  0.00    -0.205 F 
ATOM     90  C   UNL A   1      45.581  36.614  30.473  1.00  0.00     0.022 A 
BRANCH  88  91
ATOM     91  S   UNL A   1      44.834  37.767  28.104  1.00  0.00     0.127 S 
ATOM     92  O   UNL A   1      45.277  37.133  26.863  1.00  0.00    -0.237 OA
ATOM     93  O   UNL A   1      43.416  38.124  28.134  1.00  0.00    -0.237 OA
ATOM     94  O   UNL A   1      45.726  38.789  28.635  1.00  0.00    -0.744 OA
ENDBRANCH  88  91
ENDBRANCH  61  84
ENDBRANCH  35  36
ENDBRANCH  27  30
ENDBRANCH  25  26
ENDBRANCH  24  25
ENDBRANCH   1  24
TORSDOF 18
ENDMDL
