MODEL 1
REMARK VINA RESULT:     -11.0      0.000      0.000
REMARK SMILES COc1cc2nc(SCC(=O)NCCCCCCNC(=O)c3ccc(-c4c5nc(c(-c6cccc(S(=O)(=O)[O-])c6F)c6ccc([nH]6)c(-c6cccc(S(=O)(=O)[O-])c6F)c6nc(c(-c7cccc(S(=O)(=O)[O-])c7F)c7ccc4[nH]7)C=C6)C=C5)cc3)nc(O)c2cc1OC
REMARK SMILES IDX 15 1 14 2 13 3 12 4 10 5 11 6 9 8 8 9 7 10 3 11 4 12 90 13
REMARK SMILES IDX 5 14 89 15 6 16 88 17 86 18 85 19 2 20 1 21 91 22 92 23
REMARK SMILES IDX 87 24 16 26 17 27 18 28 19 29 20 30 21 32 22 33 23 34 84 35
REMARK SMILES IDX 24 36 83 37 25 38 26 39 27 40 77 41 28 42 82 43 76 44 78 45
REMARK SMILES IDX 29 46 81 47 75 48 74 49 30 51 62 52 42 53 61 54 43 55 46 56
REMARK SMILES IDX 60 57 79 58 44 59 45 60 59 62 80 63 47 64 31 65 32 66 40 67
REMARK SMILES IDX 33 68 35 69 41 70 34 71 36 72 37 73 38 74 39 75 63 76 64 77
REMARK SMILES IDX 72 78 65 79 67 80 73 81 66 82 68 83 69 84 70 85 71 86 48 87
REMARK SMILES IDX 49 88 57 89 50 90 52 91 58 92 51 93 53 94 54 95 55 96 56 97
REMARK H PARENT 12 7 87 25 19 31 78 50 46 61
REMARK Flexibility Score: inf
ROOT
ATOM      1  C   UNL A   1      30.083  27.967  24.694  1.00  0.00     0.002 C 
ENDROOT
BRANCH   1   2
ATOM      2  C   UNL A   1      29.723  27.401  23.312  1.00  0.00     0.021 C 
BRANCH   2   3
ATOM      3  C   UNL A   1      30.725  27.745  22.208  1.00  0.00     0.116 C 
BRANCH   3   4
ATOM      4  N   UNL A   1      31.454  26.564  21.779  1.00  0.00    -0.355 N 
ATOM      5  C   UNL A   1      32.788  26.287  21.835  1.00  0.00     0.230 C 
ATOM      6  O   UNL A   1      33.172  25.216  21.353  1.00  0.00    -0.274 OA
ATOM      7  H   UNL A   1      30.898  25.853  21.385  1.00  0.00     0.163 HD
BRANCH   5   8
ATOM      8  C   UNL A   1      33.747  27.208  22.571  1.00  0.00     0.178 C 
BRANCH   8   9
ATOM      9  S   UNL A   1      33.760  27.021  24.377  1.00  0.00    -0.076 SA
BRANCH   9  10
ATOM     10  C   UNL A   1      33.306  25.322  24.578  1.00  0.00     0.192 A 
ATOM     11  C   UNL A   1      34.781  20.836  24.864  1.00  0.00     0.162 A 
ATOM     12  C   UNL A   1      35.044  22.207  24.763  1.00  0.00     0.079 A 
ATOM     13  C   UNL A   1      33.464  20.366  24.965  1.00  0.00     0.161 A 
ATOM     14  C   UNL A   1      34.024  23.144  24.726  1.00  0.00     0.083 A 
ATOM     15  C   UNL A   1      32.428  21.302  24.933  1.00  0.00     0.066 A 
ATOM     16  N   UNL A   1      34.321  24.444  24.602  1.00  0.00    -0.222 NA
ATOM     17  C   UNL A   1      32.712  22.684  24.815  1.00  0.00     0.066 A 
ATOM     18  C   UNL A   1      31.762  23.695  24.779  1.00  0.00     0.223 A 
ATOM     19  N   UNL A   1      32.017  24.999  24.681  1.00  0.00    -0.187 NA
BRANCH  11  20
ATOM     20  O   UNL A   1      35.892  20.033  24.934  1.00  0.00    -0.493 OA
ATOM     21  C   UNL A   1      37.115  20.767  24.900  1.00  0.00     0.278 C 
ENDBRANCH  11  20
BRANCH  13  22
ATOM     22  O   UNL A   1      33.288  19.019  25.120  1.00  0.00    -0.493 OA
ATOM     23  C   UNL A   1      32.850  18.277  23.990  1.00  0.00     0.278 C 
ENDBRANCH  13  22
BRANCH  18  24
ATOM     24  O   UNL A   1      30.430  23.423  24.820  1.00  0.00    -0.493 OA
ATOM     25  H   UNL A   1      30.121  22.562  24.618  1.00  0.00     0.295 HD
ENDBRANCH  18  24
ENDBRANCH   9  10
ENDBRANCH   8   9
ENDBRANCH   5   8
ENDBRANCH   3   4
ENDBRANCH   2   3
ENDBRANCH   1   2
BRANCH   1  26
ATOM     26  C   UNL A   1      30.977  29.212  24.688  1.00  0.00     0.002 C 
BRANCH  26  27
ATOM     27  C   UNL A   1      31.549  29.617  26.047  1.00  0.00     0.021 C 
BRANCH  27  28
ATOM     28  C   UNL A   1      32.769  30.530  25.990  1.00  0.00     0.116 C 
BRANCH  28  29
ATOM     29  N   UNL A   1      32.530  31.833  26.591  1.00  0.00    -0.352 N 
ATOM     30  C   UNL A   1      33.290  32.505  27.523  1.00  0.00     0.251 C 
ATOM     31  H   UNL A   1      31.716  32.297  26.292  1.00  0.00     0.163 HD
ATOM     32  O   UNL A   1      32.872  33.545  28.024  1.00  0.00    -0.269 OA
BRANCH  30  33
ATOM     33  C   UNL A   1      34.591  31.940  27.944  1.00  0.00     0.039 A 
ATOM     34  C   UNL A   1      34.688  30.607  28.350  1.00  0.00     0.014 A 
ATOM     35  C   UNL A   1      35.717  32.768  27.978  1.00  0.00     0.014 A 
ATOM     36  C   UNL A   1      35.859  30.154  28.949  1.00  0.00     0.010 A 
ATOM     37  C   UNL A   1      36.916  32.285  28.511  1.00  0.00     0.010 A 
ATOM     38  C   UNL A   1      36.982  30.992  29.051  1.00  0.00    -0.014 A 
BRANCH  38  39
ATOM     39  C   UNL A   1      38.204  30.496  29.739  1.00  0.00     0.031 A 
ATOM     40  C   UNL A   1      38.512  30.899  31.157  1.00  0.00     0.074 A 
ATOM     41  C   UNL A   1      39.019  29.638  29.096  1.00  0.00     0.049 A 
ATOM     42  N   UNL A   1      39.506  30.522  31.919  1.00  0.00    -0.248 NA
ATOM     43  C   UNL A   1      37.592  31.849  31.806  1.00  0.00     0.031 C 
ATOM     44  C   UNL A   1      38.841  29.183  27.715  1.00  0.00     0.029 A 
ATOM     45  N   UNL A   1      40.145  28.980  29.521  1.00  0.00    -0.354 N 
ATOM     46  C   UNL A   1      39.359  31.216  33.114  1.00  0.00     0.074 A 
ATOM     47  C   UNL A   1      38.178  32.040  32.981  1.00  0.00     0.031 C 
ATOM     48  C   UNL A   1      39.794  28.286  27.422  1.00  0.00     0.029 A 
ATOM     49  C   UNL A   1      40.676  28.134  28.576  1.00  0.00     0.049 A 
ATOM     50  H   UNL A   1      40.537  29.103  30.415  1.00  0.00     0.167 HD
ATOM     51  C   UNL A   1      40.124  31.155  34.229  1.00  0.00     0.034 A 
ATOM     52  C   UNL A   1      41.749  27.323  28.627  1.00  0.00     0.034 A 
ATOM     53  C   UNL A   1      41.259  30.288  34.391  1.00  0.00     0.049 A 
ATOM     54  C   UNL A   1      42.567  27.257  29.883  1.00  0.00     0.074 A 
ATOM     55  C   UNL A   1      42.052  30.116  35.512  1.00  0.00     0.029 A 
ATOM     56  N   UNL A   1      41.759  29.446  33.411  1.00  0.00    -0.354 N 
ATOM     57  N   UNL A   1      42.359  27.857  31.029  1.00  0.00    -0.248 NA
ATOM     58  C   UNL A   1      43.760  26.398  29.860  1.00  0.00     0.031 C 
ATOM     59  C   UNL A   1      43.036  29.169  35.209  1.00  0.00     0.029 A 
ATOM     60  C   UNL A   1      42.853  28.754  33.900  1.00  0.00     0.049 A 
ATOM     61  H   UNL A   1      41.391  29.354  32.503  1.00  0.00     0.167 HD
ATOM     62  C   UNL A   1      43.386  27.443  31.867  1.00  0.00     0.074 A 
ATOM     63  C   UNL A   1      44.206  26.524  31.103  1.00  0.00     0.031 C 
ATOM     64  C   UNL A   1      43.636  27.810  33.146  1.00  0.00     0.034 A 
BRANCH  51  65
ATOM     65  C   UNL A   1      39.733  32.012  35.402  1.00  0.00     0.023 A 
ATOM     66  C   UNL A   1      40.139  33.360  35.435  1.00  0.00     0.012 A 
ATOM     67  C   UNL A   1      38.886  31.514  36.411  1.00  0.00     0.148 A 
ATOM     68  C   UNL A   1      39.717  34.201  36.463  1.00  0.00     0.002 A 
ATOM     69  C   UNL A   1      38.448  32.366  37.419  1.00  0.00     0.091 A 
ATOM     70  F   UNL A   1      38.527  30.224  36.366  1.00  0.00    -0.205 F 
ATOM     71  C   UNL A   1      38.864  33.707  37.448  1.00  0.00     0.022 A 
BRANCH  69  72
ATOM     72  S   UNL A   1      37.306  31.845  38.705  1.00  0.00     0.127 S 
ATOM     73  O   UNL A   1      38.108  32.054  39.911  1.00  0.00    -0.237 OA
ATOM     74  O   UNL A   1      36.201  32.789  38.537  1.00  0.00    -0.237 OA
ATOM     75  O   UNL A   1      36.974  30.458  38.411  1.00  0.00    -0.744 OA
ENDBRANCH  69  72
ENDBRANCH  51  65
BRANCH  52  76
ATOM     76  C   UNL A   1      42.057  26.460  27.456  1.00  0.00     0.023 A 
ATOM     77  C   UNL A   1      42.846  26.978  26.412  1.00  0.00     0.012 A 
ATOM     78  C   UNL A   1      41.661  25.109  27.420  1.00  0.00     0.148 A 
ATOM     79  C   UNL A   1      43.238  26.163  25.350  1.00  0.00     0.002 A 
ATOM     80  C   UNL A   1      42.092  24.292  26.383  1.00  0.00     0.091 A 
ATOM     81  F   UNL A   1      40.907  24.644  28.427  1.00  0.00    -0.205 F 
ATOM     82  C   UNL A   1      42.872  24.819  25.341  1.00  0.00     0.022 A 
BRANCH  80  83
ATOM     83  S   UNL A   1      41.772  22.525  26.343  1.00  0.00     0.127 S 
ATOM     84  O   UNL A   1      42.535  22.110  25.168  1.00  0.00    -0.237 OA
ATOM     85  O   UNL A   1      42.332  22.094  27.625  1.00  0.00    -0.237 OA
ATOM     86  O   UNL A   1      40.328  22.384  26.234  1.00  0.00    -0.744 OA
ENDBRANCH  80  83
ENDBRANCH  52  76
BRANCH  64  87
ATOM     87  C   UNL A   1      44.848  27.233  33.822  1.00  0.00     0.023 A 
ATOM     88  C   UNL A   1      46.054  27.959  33.800  1.00  0.00     0.012 A 
ATOM     89  C   UNL A   1      44.761  26.047  34.576  1.00  0.00     0.148 A 
ATOM     90  C   UNL A   1      47.161  27.510  34.518  1.00  0.00     0.002 A 
ATOM     91  C   UNL A   1      45.860  25.622  35.313  1.00  0.00     0.091 A 
ATOM     92  F   UNL A   1      43.603  25.371  34.570  1.00  0.00    -0.205 F 
ATOM     93  C   UNL A   1      47.061  26.350  35.282  1.00  0.00     0.022 A 
BRANCH  91  94
ATOM     94  S   UNL A   1      45.807  24.182  36.387  1.00  0.00     0.127 S 
ATOM     95  O   UNL A   1      44.669  24.495  37.248  1.00  0.00    -0.237 OA
ATOM     96  O   UNL A   1      45.571  23.096  35.434  1.00  0.00    -0.237 OA
ATOM     97  O   UNL A   1      47.098  24.131  37.058  1.00  0.00    -0.744 OA
ENDBRANCH  91  94
ENDBRANCH  64  87
ENDBRANCH  38  39
ENDBRANCH  30  33
ENDBRANCH  28  29
ENDBRANCH  27  28
ENDBRANCH  26  27
ENDBRANCH   1  26
TORSDOF 21
ENDMDL
MODEL 2
REMARK VINA RESULT:     -10.8      5.322      8.432
REMARK SMILES COc1cc2nc(SCC(=O)NCCCCCCNC(=O)c3ccc(-c4c5nc(c(-c6cccc(S(=O)(=O)[O-])c6F)c6ccc([nH]6)c(-c6cccc(S(=O)(=O)[O-])c6F)c6nc(c(-c7cccc(S(=O)(=O)[O-])c7F)c7ccc4[nH]7)C=C6)C=C5)cc3)nc(O)c2cc1OC
REMARK SMILES IDX 15 1 14 2 13 3 12 4 10 5 11 6 9 8 8 9 7 10 3 11 4 12 90 13
REMARK SMILES IDX 5 14 89 15 6 16 88 17 86 18 85 19 2 20 1 21 91 22 92 23
REMARK SMILES IDX 87 24 16 26 17 27 18 28 19 29 20 30 21 32 22 33 23 34 84 35
REMARK SMILES IDX 24 36 83 37 25 38 26 39 27 40 77 41 28 42 82 43 76 44 78 45
REMARK SMILES IDX 29 46 81 47 75 48 74 49 30 51 62 52 42 53 61 54 43 55 46 56
REMARK SMILES IDX 60 57 79 58 44 59 45 60 59 62 80 63 47 64 31 65 32 66 40 67
REMARK SMILES IDX 33 68 35 69 41 70 34 71 36 72 37 73 38 74 39 75 63 76 64 77
REMARK SMILES IDX 72 78 65 79 67 80 73 81 66 82 68 83 69 84 70 85 71 86 48 87
REMARK SMILES IDX 49 88 57 89 50 90 52 91 58 92 51 93 53 94 54 95 55 96 56 97
REMARK H PARENT 12 7 87 25 19 31 78 50 46 61
REMARK Flexibility Score: inf
ROOT
ATOM      1  C   UNL A   1      37.219  21.854  24.357  1.00  0.00     0.002 C 
ENDROOT
BRANCH   1   2
ATOM      2  C   UNL A   1      37.214  22.876  25.504  1.00  0.00     0.021 C 
BRANCH   2   3
ATOM      3  C   UNL A   1      36.004  23.811  25.512  1.00  0.00     0.116 C 
BRANCH   3   4
ATOM      4  N   UNL A   1      35.523  24.054  24.163  1.00  0.00    -0.355 N 
ATOM      5  C   UNL A   1      34.375  24.653  23.734  1.00  0.00     0.230 C 
ATOM      6  O   UNL A   1      34.171  24.694  22.516  1.00  0.00    -0.274 OA
ATOM      7  H   UNL A   1      36.118  23.734  23.446  1.00  0.00     0.163 HD
BRANCH   5   8
ATOM      8  C   UNL A   1      33.444  25.349  24.713  1.00  0.00     0.178 C 
BRANCH   8   9
ATOM      9  S   UNL A   1      31.838  24.538  24.957  1.00  0.00    -0.076 SA
BRANCH   9  10
ATOM     10  C   UNL A   1      32.304  22.840  25.141  1.00  0.00     0.192 A 
ATOM     11  C   UNL A   1      32.474  18.543  23.170  1.00  0.00     0.162 A 
ATOM     12  C   UNL A   1      32.188  19.911  23.100  1.00  0.00     0.079 A 
ATOM     13  C   UNL A   1      33.014  17.984  24.337  1.00  0.00     0.161 A 
ATOM     14  C   UNL A   1      32.394  20.754  24.180  1.00  0.00     0.083 A 
ATOM     15  C   UNL A   1      33.230  18.825  25.429  1.00  0.00     0.066 A 
ATOM     16  N   UNL A   1      32.082  22.053  24.077  1.00  0.00    -0.222 NA
ATOM     17  C   UNL A   1      32.921  20.204  25.346  1.00  0.00     0.066 A 
ATOM     18  C   UNL A   1      33.101  21.126  26.367  1.00  0.00     0.223 A 
ATOM     19  N   UNL A   1      32.826  22.429  26.296  1.00  0.00    -0.187 NA
BRANCH  11  20
ATOM     20  O   UNL A   1      32.260  17.843  22.008  1.00  0.00    -0.493 OA
ATOM     21  C   UNL A   1      32.062  18.687  20.875  1.00  0.00     0.278 C 
ENDBRANCH  11  20
BRANCH  13  22
ATOM     22  O   UNL A   1      33.322  16.652  24.310  1.00  0.00    -0.493 OA
ATOM     23  C   UNL A   1      33.208  15.924  25.525  1.00  0.00     0.278 C 
ENDBRANCH  13  22
BRANCH  18  24
ATOM     24  O   UNL A   1      33.573  20.756  27.588  1.00  0.00    -0.493 OA
ATOM     25  H   UNL A   1      34.495  20.758  27.754  1.00  0.00     0.295 HD
ENDBRANCH  18  24
ENDBRANCH   9  10
ENDBRANCH   8   9
ENDBRANCH   5   8
ENDBRANCH   3   4
ENDBRANCH   2   3
ENDBRANCH   1   2
BRANCH   1  26
ATOM     26  C   UNL A   1      36.934  20.404  24.761  1.00  0.00     0.002 C 
BRANCH  26  27
ATOM     27  C   UNL A   1      38.168  19.518  24.942  1.00  0.00     0.021 C 
BRANCH  27  28
ATOM     28  C   UNL A   1      39.044  19.867  26.140  1.00  0.00     0.116 C 
BRANCH  28  29
ATOM     29  N   UNL A   1      40.330  19.185  26.121  1.00  0.00    -0.352 N 
ATOM     30  C   UNL A   1      41.590  19.716  26.276  1.00  0.00     0.251 C 
ATOM     31  H   UNL A   1      40.292  18.212  25.977  1.00  0.00     0.163 HD
ATOM     32  O   UNL A   1      42.581  19.012  26.100  1.00  0.00    -0.269 OA
BRANCH  30  33
ATOM     33  C   UNL A   1      41.739  21.149  26.614  1.00  0.00     0.039 A 
ATOM     34  C   UNL A   1      41.403  22.136  25.683  1.00  0.00     0.014 A 
ATOM     35  C   UNL A   1      42.267  21.507  27.857  1.00  0.00     0.014 A 
ATOM     36  C   UNL A   1      41.753  23.460  25.929  1.00  0.00     0.010 A 
ATOM     37  C   UNL A   1      42.548  22.849  28.131  1.00  0.00     0.010 A 
ATOM     38  C   UNL A   1      42.344  23.830  27.148  1.00  0.00    -0.014 A 
BRANCH  38  39
ATOM     39  C   UNL A   1      42.752  25.244  27.363  1.00  0.00     0.031 A 
ATOM     40  C   UNL A   1      41.870  26.197  28.126  1.00  0.00     0.074 A 
ATOM     41  C   UNL A   1      43.949  25.661  26.907  1.00  0.00     0.049 A 
ATOM     42  N   UNL A   1      42.095  27.446  28.443  1.00  0.00    -0.248 NA
ATOM     43  C   UNL A   1      40.568  25.690  28.590  1.00  0.00     0.031 C 
ATOM     44  C   UNL A   1      44.889  24.840  26.139  1.00  0.00     0.029 A 
ATOM     45  N   UNL A   1      44.590  26.866  27.038  1.00  0.00    -0.354 N 
ATOM     46  C   UNL A   1      40.954  27.886  29.103  1.00  0.00     0.074 A 
ATOM     47  C   UNL A   1      40.033  26.772  29.141  1.00  0.00     0.031 C 
ATOM     48  C   UNL A   1      46.003  25.549  25.908  1.00  0.00     0.029 A 
ATOM     49  C   UNL A   1      45.843  26.886  26.471  1.00  0.00     0.049 A 
ATOM     50  H   UNL A   1      44.192  27.642  27.493  1.00  0.00     0.167 HD
ATOM     51  C   UNL A   1      40.704  29.101  29.646  1.00  0.00     0.034 A 
ATOM     52  C   UNL A   1      46.764  27.866  26.411  1.00  0.00     0.034 A 
ATOM     53  C   UNL A   1      41.641  30.190  29.669  1.00  0.00     0.049 A 
ATOM     54  C   UNL A   1      46.471  29.197  27.041  1.00  0.00     0.074 A 
ATOM     55  C   UNL A   1      41.493  31.435  30.256  1.00  0.00     0.029 A 
ATOM     56  N   UNL A   1      42.898  30.167  29.087  1.00  0.00    -0.354 N 
ATOM     57  N   UNL A   1      45.420  29.561  27.733  1.00  0.00    -0.248 NA
ATOM     58  C   UNL A   1      47.490  30.245  26.893  1.00  0.00     0.031 C 
ATOM     59  C   UNL A   1      42.662  32.167  30.027  1.00  0.00     0.029 A 
ATOM     60  C   UNL A   1      43.536  31.376  29.298  1.00  0.00     0.049 A 
ATOM     61  H   UNL A   1      43.280  29.403  28.597  1.00  0.00     0.167 HD
ATOM     62  C   UNL A   1      45.653  30.877  28.111  1.00  0.00     0.074 A 
ATOM     63  C   UNL A   1      46.955  31.240  27.589  1.00  0.00     0.031 C 
ATOM     64  C   UNL A   1      44.848  31.713  28.810  1.00  0.00     0.034 A 
BRANCH  51  65
ATOM     65  C   UNL A   1      39.376  29.313  30.320  1.00  0.00     0.023 A 
ATOM     66  C   UNL A   1      39.150  28.743  31.588  1.00  0.00     0.012 A 
ATOM     67  C   UNL A   1      38.400  30.153  29.750  1.00  0.00     0.148 A 
ATOM     68  C   UNL A   1      37.965  28.996  32.277  1.00  0.00     0.002 A 
ATOM     69  C   UNL A   1      37.232  30.421  30.455  1.00  0.00     0.091 A 
ATOM     70  F   UNL A   1      38.632  30.670  28.536  1.00  0.00    -0.205 F 
ATOM     71  C   UNL A   1      37.012  29.842  31.716  1.00  0.00     0.022 A 
BRANCH  69  72
ATOM     72  S   UNL A   1      35.964  31.540  29.846  1.00  0.00     0.127 S 
ATOM     73  O   UNL A   1      36.762  32.703  29.457  1.00  0.00    -0.237 OA
ATOM     74  O   UNL A   1      35.400  30.786  28.726  1.00  0.00    -0.237 OA
ATOM     75  O   UNL A   1      35.050  31.756  30.958  1.00  0.00    -0.744 OA
ENDBRANCH  69  72
ENDBRANCH  51  65
BRANCH  52  76
ATOM     76  C   UNL A   1      48.079  27.583  25.777  1.00  0.00     0.023 A 
ATOM     77  C   UNL A   1      49.136  27.109  26.577  1.00  0.00     0.012 A 
ATOM     78  C   UNL A   1      48.254  27.682  24.384  1.00  0.00     0.148 A 
ATOM     79  C   UNL A   1      50.349  26.737  25.998  1.00  0.00     0.002 A 
ATOM     80  C   UNL A   1      49.449  27.268  23.809  1.00  0.00     0.091 A 
ATOM     81  F   UNL A   1      47.231  28.139  23.648  1.00  0.00    -0.205 F 
ATOM     82  C   UNL A   1      50.501  26.804  24.615  1.00  0.00     0.022 A 
BRANCH  80  83
ATOM     83  S   UNL A   1      49.700  27.206  22.032  1.00  0.00     0.127 S 
ATOM     84  O   UNL A   1      48.705  26.215  21.624  1.00  0.00    -0.237 OA
ATOM     85  O   UNL A   1      49.394  28.583  21.641  1.00  0.00    -0.237 OA
ATOM     86  O   UNL A   1      51.088  26.814  21.838  1.00  0.00    -0.744 OA
ENDBRANCH  80  83
ENDBRANCH  52  76
BRANCH  64  87
ATOM     87  C   UNL A   1      45.331  33.114  29.059  1.00  0.00     0.023 A 
ATOM     88  C   UNL A   1      46.078  33.383  30.221  1.00  0.00     0.012 A 
ATOM     89  C   UNL A   1      45.155  34.123  28.093  1.00  0.00     0.148 A 
ATOM     90  C   UNL A   1      46.643  34.642  30.421  1.00  0.00     0.002 A 
ATOM     91  C   UNL A   1      45.746  35.366  28.285  1.00  0.00     0.091 A 
ATOM     92  F   UNL A   1      44.429  33.841  27.001  1.00  0.00    -0.205 F 
ATOM     93  C   UNL A   1      46.487  35.628  29.450  1.00  0.00     0.022 A 
BRANCH  91  94
ATOM     94  S   UNL A   1      45.664  36.677  27.059  1.00  0.00     0.127 S 
ATOM     95  O   UNL A   1      46.325  36.055  25.914  1.00  0.00    -0.237 OA
ATOM     96  O   UNL A   1      44.221  36.865  26.904  1.00  0.00    -0.237 OA
ATOM     97  O   UNL A   1      46.365  37.816  27.637  1.00  0.00    -0.744 OA
ENDBRANCH  91  94
ENDBRANCH  64  87
ENDBRANCH  38  39
ENDBRANCH  30  33
ENDBRANCH  28  29
ENDBRANCH  27  28
ENDBRANCH  26  27
ENDBRANCH   1  26
TORSDOF 21
ENDMDL
MODEL 3
REMARK VINA RESULT:     -10.8      2.604      4.656
REMARK SMILES COc1cc2nc(SCC(=O)NCCCCCCNC(=O)c3ccc(-c4c5nc(c(-c6cccc(S(=O)(=O)[O-])c6F)c6ccc([nH]6)c(-c6cccc(S(=O)(=O)[O-])c6F)c6nc(c(-c7cccc(S(=O)(=O)[O-])c7F)c7ccc4[nH]7)C=C6)C=C5)cc3)nc(O)c2cc1OC
REMARK SMILES IDX 15 1 14 2 13 3 12 4 10 5 11 6 9 8 8 9 7 10 3 11 4 12 90 13
REMARK SMILES IDX 5 14 89 15 6 16 88 17 86 18 85 19 2 20 1 21 91 22 92 23
REMARK SMILES IDX 87 24 16 26 17 27 18 28 19 29 20 30 21 32 22 33 23 34 84 35
REMARK SMILES IDX 24 36 83 37 25 38 26 39 27 40 77 41 28 42 82 43 76 44 78 45
REMARK SMILES IDX 29 46 81 47 75 48 74 49 30 51 62 52 42 53 61 54 43 55 46 56
REMARK SMILES IDX 60 57 79 58 44 59 45 60 59 62 80 63 47 64 31 65 32 66 40 67
REMARK SMILES IDX 33 68 35 69 41 70 34 71 36 72 37 73 38 74 39 75 63 76 64 77
REMARK SMILES IDX 72 78 65 79 67 80 73 81 66 82 68 83 69 84 70 85 71 86 48 87
REMARK SMILES IDX 49 88 57 89 50 90 52 91 58 92 51 93 53 94 54 95 55 96 56 97
REMARK H PARENT 12 7 87 25 19 31 78 50 46 61
REMARK Flexibility Score: inf
ROOT
ATOM      1  C   UNL A   1      32.856  30.155  26.806  1.00  0.00     0.002 C 
ENDROOT
BRANCH   1   2
ATOM      2  C   UNL A   1      33.649  29.374  25.745  1.00  0.00     0.021 C 
BRANCH   2   3
ATOM      3  C   UNL A   1      33.877  27.900  26.084  1.00  0.00     0.116 C 
BRANCH   3   4
ATOM      4  N   UNL A   1      32.653  27.280  26.561  1.00  0.00    -0.355 N 
ATOM      5  C   UNL A   1      32.159  26.028  26.338  1.00  0.00     0.230 C 
ATOM      6  O   UNL A   1      31.056  25.754  26.824  1.00  0.00    -0.274 OA
ATOM      7  H   UNL A   1      32.093  27.853  27.134  1.00  0.00     0.163 HD
BRANCH   5   8
ATOM      8  C   UNL A   1      32.988  24.976  25.623  1.00  0.00     0.178 C 
BRANCH   8   9
ATOM      9  S   UNL A   1      32.576  24.730  23.872  1.00  0.00    -0.076 SA
BRANCH   9  10
ATOM     10  C   UNL A   1      31.851  26.286  23.439  1.00  0.00     0.192 A 
ATOM     11  C   UNL A   1      27.880  28.817  22.991  1.00  0.00     0.162 A 
ATOM     12  C   UNL A   1      28.549  27.645  23.360  1.00  0.00     0.079 A 
ATOM     13  C   UNL A   1      28.591  29.923  22.504  1.00  0.00     0.161 A 
ATOM     14  C   UNL A   1      29.922  27.518  23.230  1.00  0.00     0.083 A 
ATOM     15  C   UNL A   1      29.976  29.808  22.373  1.00  0.00     0.066 A 
ATOM     16  N   UNL A   1      30.518  26.368  23.571  1.00  0.00    -0.222 NA
ATOM     17  C   UNL A   1      30.635  28.609  22.736  1.00  0.00     0.066 A 
ATOM     18  C   UNL A   1      32.002  28.391  22.652  1.00  0.00     0.223 A 
ATOM     19  N   UNL A   1      32.635  27.272  23.003  1.00  0.00    -0.187 NA
BRANCH  11  20
ATOM     20  O   UNL A   1      26.526  28.811  23.218  1.00  0.00    -0.493 OA
ATOM     21  C   UNL A   1      26.093  27.691  23.987  1.00  0.00     0.278 C 
ENDBRANCH  11  20
BRANCH  13  22
ATOM     22  O   UNL A   1      27.876  31.053  22.220  1.00  0.00    -0.493 OA
ATOM     23  C   UNL A   1      28.372  32.290  22.713  1.00  0.00     0.278 C 
ENDBRANCH  13  22
BRANCH  18  24
ATOM     24  O   UNL A   1      32.846  29.338  22.159  1.00  0.00    -0.493 OA
ATOM     25  H   UNL A   1      32.711  29.684  21.300  1.00  0.00     0.295 HD
ENDBRANCH  18  24
ENDBRANCH   9  10
ENDBRANCH   8   9
ENDBRANCH   5   8
ENDBRANCH   3   4
ENDBRANCH   2   3
ENDBRANCH   1   2
BRANCH   1  26
ATOM     26  C   UNL A   1      31.578  30.836  26.307  1.00  0.00     0.002 C 
BRANCH  26  27
ATOM     27  C   UNL A   1      31.443  32.318  26.660  1.00  0.00     0.021 C 
BRANCH  27  28
ATOM     28  C   UNL A   1      32.744  33.009  27.057  1.00  0.00     0.116 C 
BRANCH  28  29
ATOM     29  N   UNL A   1      32.531  34.186  27.886  1.00  0.00    -0.352 N 
ATOM     30  C   UNL A   1      33.239  34.600  28.992  1.00  0.00     0.251 C 
ATOM     31  H   UNL A   1      31.780  34.763  27.621  1.00  0.00     0.163 HD
ATOM     32  O   UNL A   1      32.841  35.553  29.656  1.00  0.00    -0.269 OA
BRANCH  30  33
ATOM     33  C   UNL A   1      34.456  33.861  29.396  1.00  0.00     0.039 A 
ATOM     34  C   UNL A   1      34.361  32.723  30.201  1.00  0.00     0.014 A 
ATOM     35  C   UNL A   1      35.709  34.342  29.004  1.00  0.00     0.014 A 
ATOM     36  C   UNL A   1      35.514  32.172  30.751  1.00  0.00     0.010 A 
ATOM     37  C   UNL A   1      36.869  33.738  29.499  1.00  0.00     0.010 A 
ATOM     38  C   UNL A   1      36.780  32.683  30.420  1.00  0.00    -0.014 A 
BRANCH  38  39
ATOM     39  C   UNL A   1      37.991  32.105  31.061  1.00  0.00     0.031 A 
ATOM     40  C   UNL A   1      38.470  32.601  32.400  1.00  0.00     0.074 A 
ATOM     41  C   UNL A   1      38.639  31.093  30.453  1.00  0.00     0.049 A 
ATOM     42  N   UNL A   1      39.477  32.176  33.119  1.00  0.00    -0.248 NA
ATOM     43  C   UNL A   1      37.731  33.718  33.013  1.00  0.00     0.031 C 
ATOM     44  C   UNL A   1      38.287  30.534  29.146  1.00  0.00     0.029 A 
ATOM     45  N   UNL A   1      39.713  30.342  30.857  1.00  0.00    -0.354 N 
ATOM     46  C   UNL A   1      39.520  32.994  34.242  1.00  0.00     0.074 A 
ATOM     47  C   UNL A   1      38.438  33.945  34.112  1.00  0.00     0.031 C 
ATOM     48  C   UNL A   1      39.097  29.499  28.878  1.00  0.00     0.029 A 
ATOM     49  C   UNL A   1      40.054  29.349  29.970  1.00  0.00     0.049 A 
ATOM     50  H   UNL A   1      40.195  30.500  31.701  1.00  0.00     0.167 HD
ATOM     51  C   UNL A   1      40.369  32.945  35.295  1.00  0.00     0.034 A 
ATOM     52  C   UNL A   1      41.024  28.417  30.025  1.00  0.00     0.034 A 
ATOM     53  C   UNL A   1      41.403  31.961  35.461  1.00  0.00     0.049 A 
ATOM     54  C   UNL A   1      41.938  28.369  31.215  1.00  0.00     0.074 A 
ATOM     55  C   UNL A   1      42.267  31.799  36.530  1.00  0.00     0.029 A 
ATOM     56  N   UNL A   1      41.711  30.972  34.541  1.00  0.00    -0.354 N 
ATOM     57  N   UNL A   1      41.904  29.098  32.302  1.00  0.00    -0.248 NA
ATOM     58  C   UNL A   1      43.014  27.368  31.191  1.00  0.00     0.031 C 
ATOM     59  C   UNL A   1      43.101  30.710  36.255  1.00  0.00     0.029 A 
ATOM     60  C   UNL A   1      42.755  30.197  35.016  1.00  0.00     0.049 A 
ATOM     61  H   UNL A   1      41.255  30.841  33.679  1.00  0.00     0.167 HD
ATOM     62  C   UNL A   1      42.946  28.640  33.098  1.00  0.00     0.074 A 
ATOM     63  C   UNL A   1      43.581  27.556  32.376  1.00  0.00     0.031 C 
ATOM     64  C   UNL A   1      43.351  29.094  34.308  1.00  0.00     0.034 A 
BRANCH  51  65
ATOM     65  C   UNL A   1      40.187  33.953  36.396  1.00  0.00     0.023 A 
ATOM     66  C   UNL A   1      40.501  35.304  36.151  1.00  0.00     0.012 A 
ATOM     67  C   UNL A   1      39.617  33.583  37.630  1.00  0.00     0.148 A 
ATOM     68  C   UNL A   1      40.259  36.274  37.122  1.00  0.00     0.002 A 
ATOM     69  C   UNL A   1      39.354  34.560  38.583  1.00  0.00     0.091 A 
ATOM     70  F   UNL A   1      39.343  32.290  37.845  1.00  0.00    -0.205 F 
ATOM     71  C   UNL A   1      39.676  35.905  38.332  1.00  0.00     0.022 A 
BRANCH  69  72
ATOM     72  S   UNL A   1      38.558  34.199  40.153  1.00  0.00     0.127 S 
ATOM     73  O   UNL A   1      37.362  33.477  39.716  1.00  0.00    -0.237 OA
ATOM     74  O   UNL A   1      39.560  33.369  40.822  1.00  0.00    -0.237 OA
ATOM     75  O   UNL A   1      38.312  35.486  40.785  1.00  0.00    -0.744 OA
ENDBRANCH  69  72
ENDBRANCH  51  65
BRANCH  52  76
ATOM     76  C   UNL A   1      41.123  27.413  28.932  1.00  0.00     0.023 A 
ATOM     77  C   UNL A   1      40.212  26.340  28.904  1.00  0.00     0.012 A 
ATOM     78  C   UNL A   1      42.041  27.571  27.876  1.00  0.00     0.148 A 
ATOM     79  C   UNL A   1      40.213  25.440  27.838  1.00  0.00     0.002 A 
ATOM     80  C   UNL A   1      42.006  26.697  26.796  1.00  0.00     0.091 A 
ATOM     81  F   UNL A   1      42.898  28.600  27.932  1.00  0.00    -0.205 F 
ATOM     82  C   UNL A   1      41.100  25.626  26.780  1.00  0.00     0.022 A 
BRANCH  80  83
ATOM     83  S   UNL A   1      43.025  26.921  25.335  1.00  0.00     0.127 S 
ATOM     84  O   UNL A   1      42.379  28.064  24.692  1.00  0.00    -0.237 OA
ATOM     85  O   UNL A   1      44.334  27.205  25.927  1.00  0.00    -0.237 OA
ATOM     86  O   UNL A   1      42.951  25.666  24.601  1.00  0.00    -0.744 OA
ENDBRANCH  80  83
ENDBRANCH  52  76
BRANCH  64  87
ATOM     87  C   UNL A   1      44.541  28.436  34.947  1.00  0.00     0.023 A 
ATOM     88  C   UNL A   1      45.815  29.010  34.772  1.00  0.00     0.012 A 
ATOM     89  C   UNL A   1      44.384  27.336  35.812  1.00  0.00     0.148 A 
ATOM     90  C   UNL A   1      46.920  28.494  35.448  1.00  0.00     0.002 A 
ATOM     91  C   UNL A   1      45.485  26.847  36.505  1.00  0.00     0.091 A 
ATOM     92  F   UNL A   1      43.161  26.804  35.951  1.00  0.00    -0.205 F 
ATOM     93  C   UNL A   1      46.753  27.423  36.322  1.00  0.00     0.022 A 
BRANCH  91  94
ATOM     94  S   UNL A   1      45.359  25.519  37.708  1.00  0.00     0.127 S 
ATOM     95  O   UNL A   1      45.004  24.382  36.860  1.00  0.00    -0.237 OA
ATOM     96  O   UNL A   1      46.714  25.470  38.259  1.00  0.00    -0.237 OA
ATOM     97  O   UNL A   1      44.333  25.929  38.657  1.00  0.00    -0.744 OA
ENDBRANCH  91  94
ENDBRANCH  64  87
ENDBRANCH  38  39
ENDBRANCH  30  33
ENDBRANCH  28  29
ENDBRANCH  27  28
ENDBRANCH  26  27
ENDBRANCH   1  26
TORSDOF 21
ENDMDL
