MODEL 1
REMARK VINA RESULT:     -12.5      0.000      0.000
REMARK SMILES CCc1ccc2[nH]c(C(=O)c3cc(C)ccn3)c(CC(=O)NCCCCCCNC(=O)c3ccc(-c4c5nc(c(-c6cccc(S(=O)(=O)[O-])c6F)c6ccc([nH]6)c(-c6cccc(S(=O)(=O)[O-])c6F)c6nc(c(-c7cccc(S(=O)(=O)[O-])c7F)c7ccc4[nH]7)C=C6)C=C5)cc3)c2c1
REMARK SMILES IDX 25 1 24 2 23 3 22 4 20 5 21 6 19 8 18 9 3 10 4 11 96 12 5 13
REMARK SMILES IDX 95 14 6 15 7 16 8 17 2 19 1 20 9 21 10 22 11 23 12 24 17 25
REMARK SMILES IDX 13 26 16 27 14 28 15 29 26 30 27 31 28 32 29 33 30 34 31 36
REMARK SMILES IDX 32 37 33 38 94 39 34 40 93 41 35 42 36 43 37 44 87 45 38 46
REMARK SMILES IDX 92 47 86 48 88 49 39 50 91 51 85 52 84 53 40 55 72 56 52 57
REMARK SMILES IDX 71 58 53 59 56 60 70 61 89 62 54 63 55 64 69 66 90 67 57 68
REMARK SMILES IDX 41 69 42 70 50 71 43 72 45 73 51 74 44 75 46 76 47 77 48 78
REMARK SMILES IDX 49 79 73 80 74 81 82 82 75 83 77 84 83 85 76 86 78 87 79 88
REMARK SMILES IDX 80 89 81 90 58 91 59 92 67 93 60 94 62 95 68 96 61 97 63 98
REMARK SMILES IDX 64 99 65 100 66 101
REMARK H PARENT 22 7 7 18 29 35 88 54 56 65
REMARK Flexibility Score: inf
ROOT
ATOM      1  C   UNL A   1      32.771  29.540  25.433  1.00  0.00     0.002 C 
ENDROOT
BRANCH   1   2
ATOM      2  C   UNL A   1      33.060  28.407  26.427  1.00  0.00     0.021 C 
BRANCH   2   3
ATOM      3  C   UNL A   1      33.332  27.054  25.771  1.00  0.00     0.116 C 
BRANCH   3   4
ATOM      4  N   UNL A   1      32.521  25.999  26.344  1.00  0.00    -0.356 N 
ATOM      5  C   UNL A   1      32.609  24.645  26.196  1.00  0.00     0.224 C 
ATOM      6  O   UNL A   1      31.887  23.959  26.927  1.00  0.00    -0.275 OA
ATOM      7  H   UNL A   1      31.792  26.307  26.930  1.00  0.00     0.163 HD
BRANCH   5   8
ATOM      8  C   UNL A   1      33.649  24.004  25.284  1.00  0.00     0.138 C 
BRANCH   8   9
ATOM      9  C   UNL A   1      33.107  23.229  24.111  1.00  0.00    -0.002 A 
ATOM     10  C   UNL A   1      32.709  19.452  24.737  1.00  0.00    -0.048 A 
ATOM     11  C   UNL A   1      32.287  19.158  23.434  1.00  0.00     0.006 A 
ATOM     12  C   UNL A   1      32.947  20.792  25.080  1.00  0.00     0.014 A 
ATOM     13  C   UNL A   1      32.137  20.153  22.460  1.00  0.00     0.027 A 
ATOM     14  C   UNL A   1      32.838  21.816  24.109  1.00  0.00     0.004 A 
ATOM     15  C   UNL A   1      32.434  21.469  22.828  1.00  0.00     0.046 A 
ATOM     16  N   UNL A   1      32.415  22.624  22.086  1.00  0.00    -0.352 N 
ATOM     17  C   UNL A   1      32.744  23.722  22.856  1.00  0.00     0.093 A 
ATOM     18  H   UNL A   1      32.196  22.664  21.127  1.00  0.00     0.167 HD
BRANCH  10  19
ATOM     19  C   UNL A   1      32.866  18.314  25.725  1.00  0.00     0.032 C 
ATOM     20  C   UNL A   1      32.505  16.924  25.212  1.00  0.00     0.009 C 
ENDBRANCH  10  19
BRANCH  17  21
ATOM     21  C   UNL A   1      32.729  25.107  22.397  1.00  0.00     0.227 C 
ATOM     22  O   UNL A   1      33.641  25.616  21.746  1.00  0.00    -0.285 OA
BRANCH  21  23
ATOM     23  C   UNL A   1      31.593  25.986  22.780  1.00  0.00     0.113 A 
ATOM     24  C   UNL A   1      31.536  27.291  22.297  1.00  0.00     0.036 A 
ATOM     25  N   UNL A   1      30.643  25.432  23.575  1.00  0.00    -0.253 NA
ATOM     26  C   UNL A   1      30.443  28.082  22.655  1.00  0.00    -0.047 A 
ATOM     27  C   UNL A   1      29.587  26.210  23.885  1.00  0.00     0.112 A 
ATOM     28  C   UNL A   1      30.316  29.496  22.174  1.00  0.00     0.044 C 
ATOM     29  C   UNL A   1      29.446  27.521  23.458  1.00  0.00     0.023 A 
ENDBRANCH  21  23
ENDBRANCH  17  21
ENDBRANCH   8   9
ENDBRANCH   5   8
ENDBRANCH   3   4
ENDBRANCH   2   3
ENDBRANCH   1   2
BRANCH   1  30
ATOM     30  C   UNL A   1      31.393  30.199  25.565  1.00  0.00     0.002 C 
BRANCH  30  31
ATOM     31  C   UNL A   1      31.393  31.611  26.159  1.00  0.00     0.021 C 
BRANCH  31  32
ATOM     32  C   UNL A   1      32.471  31.867  27.209  1.00  0.00     0.116 C 
BRANCH  32  33
ATOM     33  N   UNL A   1      32.776  33.285  27.351  1.00  0.00    -0.352 N 
ATOM     34  C   UNL A   1      33.821  33.890  28.004  1.00  0.00     0.251 C 
ATOM     35  H   UNL A   1      32.141  33.897  26.914  1.00  0.00     0.163 HD
ATOM     36  O   UNL A   1      33.821  35.108  28.169  1.00  0.00    -0.269 OA
BRANCH  34  37
ATOM     37  C   UNL A   1      34.941  33.075  28.525  1.00  0.00     0.039 A 
ATOM     38  C   UNL A   1      36.253  33.502  28.299  1.00  0.00     0.014 A 
ATOM     39  C   UNL A   1      34.697  31.893  29.229  1.00  0.00     0.014 A 
ATOM     40  C   UNL A   1      37.319  32.778  28.839  1.00  0.00     0.010 A 
ATOM     41  C   UNL A   1      35.757  31.206  29.816  1.00  0.00     0.010 A 
ATOM     42  C   UNL A   1      37.078  31.643  29.632  1.00  0.00    -0.014 A 
BRANCH  42  43
ATOM     43  C   UNL A   1      38.186  30.915  30.302  1.00  0.00     0.031 A 
ATOM     44  C   UNL A   1      38.597  31.278  31.702  1.00  0.00     0.074 A 
ATOM     45  C   UNL A   1      38.891  29.999  29.608  1.00  0.00     0.049 A 
ATOM     46  N   UNL A   1      39.594  30.818  32.413  1.00  0.00    -0.248 NA
ATOM     47  C   UNL A   1      37.800  32.311  32.384  1.00  0.00     0.031 C 
ATOM     48  C   UNL A   1      38.638  29.614  28.217  1.00  0.00     0.029 A 
ATOM     49  N   UNL A   1      39.986  29.252  29.965  1.00  0.00    -0.354 N 
ATOM     50  C   UNL A   1      39.569  31.527  33.607  1.00  0.00     0.074 A 
ATOM     51  C   UNL A   1      38.473  32.467  33.516  1.00  0.00     0.031 C 
ATOM     52  C   UNL A   1      39.554  28.709  27.839  1.00  0.00     0.029 A 
ATOM     53  C   UNL A   1      40.474  28.467  28.945  1.00  0.00     0.049 A 
ATOM     54  H   UNL A   1      40.383  29.275  30.865  1.00  0.00     0.167 HD
ATOM     55  C   UNL A   1      40.366  31.388  34.693  1.00  0.00     0.034 A 
ATOM     56  C   UNL A   1      41.548  27.655  28.902  1.00  0.00     0.034 A 
ATOM     57  C   UNL A   1      41.423  30.419  34.801  1.00  0.00     0.049 A 
ATOM     58  C   UNL A   1      42.395  27.492  30.135  1.00  0.00     0.074 A 
ATOM     59  C   UNL A   1      42.221  30.135  35.894  1.00  0.00     0.029 A 
ATOM     60  N   UNL A   1      41.831  29.577  33.778  1.00  0.00    -0.354 N 
ATOM     61  N   UNL A   1      42.253  28.053  31.312  1.00  0.00    -0.248 NA
ATOM     62  C   UNL A   1      43.529  26.562  30.046  1.00  0.00     0.031 C 
ATOM     63  C   UNL A   1      43.123  29.130  35.529  1.00  0.00     0.029 A 
ATOM     64  C   UNL A   1      42.878  28.780  34.211  1.00  0.00     0.049 A 
ATOM     65  H   UNL A   1      41.435  29.549  32.877  1.00  0.00     0.167 HD
ATOM     66  C   UNL A   1      43.260  27.522  32.110  1.00  0.00     0.074 A 
ATOM     67  C   UNL A   1      43.990  26.578  31.290  1.00  0.00     0.031 C 
ATOM     68  C   UNL A   1      43.563  27.805  33.401  1.00  0.00     0.034 A 
BRANCH  55  69
ATOM     69  C   UNL A   1      40.086  32.268  35.883  1.00  0.00     0.023 A 
ATOM     70  C   UNL A   1      40.832  33.451  36.056  1.00  0.00     0.012 A 
ATOM     71  C   UNL A   1      39.052  31.962  36.789  1.00  0.00     0.148 A 
ATOM     72  C   UNL A   1      40.574  34.302  37.130  1.00  0.00     0.002 A 
ATOM     73  C   UNL A   1      38.775  32.836  37.836  1.00  0.00     0.091 A 
ATOM     74  F   UNL A   1      38.369  30.821  36.622  1.00  0.00    -0.205 F 
ATOM     75  C   UNL A   1      39.541  34.001  38.012  1.00  0.00     0.022 A 
BRANCH  73  76
ATOM     76  S   UNL A   1      37.417  32.571  38.983  1.00  0.00     0.127 S 
ATOM     77  O   UNL A   1      36.257  32.775  38.118  1.00  0.00    -0.237 OA
ATOM     78  O   UNL A   1      37.630  31.184  39.400  1.00  0.00    -0.237 OA
ATOM     79  O   UNL A   1      37.592  33.555  40.043  1.00  0.00    -0.744 OA
ENDBRANCH  73  76
ENDBRANCH  55  69
BRANCH  56  80
ATOM     80  C   UNL A   1      41.840  26.880  27.664  1.00  0.00     0.023 A 
ATOM     81  C   UNL A   1      42.375  27.548  26.545  1.00  0.00     0.012 A 
ATOM     82  C   UNL A   1      41.629  25.489  27.598  1.00  0.00     0.148 A 
ATOM     83  C   UNL A   1      42.673  26.849  25.374  1.00  0.00     0.002 A 
ATOM     84  C   UNL A   1      41.977  24.791  26.447  1.00  0.00     0.091 A 
ATOM     85  F   UNL A   1      41.104  24.874  28.667  1.00  0.00    -0.205 F 
ATOM     86  C   UNL A   1      42.484  25.470  25.329  1.00  0.00     0.022 A 
BRANCH  84  87
ATOM     87  S   UNL A   1      41.890  22.998  26.352  1.00  0.00     0.127 S 
ATOM     88  O   UNL A   1      40.451  22.763  26.437  1.00  0.00    -0.237 OA
ATOM     89  O   UNL A   1      42.481  22.734  25.039  1.00  0.00    -0.237 OA
ATOM     90  O   UNL A   1      42.682  22.509  27.472  1.00  0.00    -0.744 OA
ENDBRANCH  84  87
ENDBRANCH  56  80
BRANCH  68  91
ATOM     91  C   UNL A   1      44.723  27.076  34.023  1.00  0.00     0.023 A 
ATOM     92  C   UNL A   1      46.026  27.593  33.879  1.00  0.00     0.012 A 
ATOM     93  C   UNL A   1      44.516  25.932  34.818  1.00  0.00     0.148 A 
ATOM     94  C   UNL A   1      47.108  26.969  34.498  1.00  0.00     0.002 A 
ATOM     95  C   UNL A   1      45.594  25.341  35.468  1.00  0.00     0.091 A 
ATOM     96  F   UNL A   1      43.271  25.445  34.927  1.00  0.00    -0.205 F 
ATOM     97  C   UNL A   1      46.891  25.852  35.302  1.00  0.00     0.022 A 
BRANCH  95  98
ATOM     98  S   UNL A   1      45.397  23.955  36.595  1.00  0.00     0.127 S 
ATOM     99  O   UNL A   1      46.770  23.745  37.051  1.00  0.00    -0.237 OA
ATOM    100  O   UNL A   1      44.496  24.504  37.608  1.00  0.00    -0.237 OA
ATOM    101  O   UNL A   1      44.828  22.873  35.804  1.00  0.00    -0.744 OA
ENDBRANCH  95  98
ENDBRANCH  68  91
ENDBRANCH  42  43
ENDBRANCH  34  37
ENDBRANCH  32  33
ENDBRANCH  31  32
ENDBRANCH  30  31
ENDBRANCH   1  30
TORSDOF 20
ENDMDL
MODEL 2
REMARK VINA RESULT:     -12.4      2.095      8.332
REMARK SMILES CCc1ccc2[nH]c(C(=O)c3cc(C)ccn3)c(CC(=O)NCCCCCCNC(=O)c3ccc(-c4c5nc(c(-c6cccc(S(=O)(=O)[O-])c6F)c6ccc([nH]6)c(-c6cccc(S(=O)(=O)[O-])c6F)c6nc(c(-c7cccc(S(=O)(=O)[O-])c7F)c7ccc4[nH]7)C=C6)C=C5)cc3)c2c1
REMARK SMILES IDX 25 1 24 2 23 3 22 4 20 5 21 6 19 8 18 9 3 10 4 11 96 12 5 13
REMARK SMILES IDX 95 14 6 15 7 16 8 17 2 19 1 20 9 21 10 22 11 23 12 24 17 25
REMARK SMILES IDX 13 26 16 27 14 28 15 29 26 30 27 31 28 32 29 33 30 34 31 36
REMARK SMILES IDX 32 37 33 38 94 39 34 40 93 41 35 42 36 43 37 44 87 45 38 46
REMARK SMILES IDX 92 47 86 48 88 49 39 50 91 51 85 52 84 53 40 55 72 56 52 57
REMARK SMILES IDX 71 58 53 59 56 60 70 61 89 62 54 63 55 64 69 66 90 67 57 68
REMARK SMILES IDX 41 69 42 70 50 71 43 72 45 73 51 74 44 75 46 76 47 77 48 78
REMARK SMILES IDX 49 79 73 80 74 81 82 82 75 83 77 84 83 85 76 86 78 87 79 88
REMARK SMILES IDX 80 89 81 90 58 91 59 92 67 93 60 94 62 95 68 96 61 97 63 98
REMARK SMILES IDX 64 99 65 100 66 101
REMARK H PARENT 22 7 7 18 29 35 88 54 56 65
REMARK Flexibility Score: inf
ROOT
ATOM      1  C   UNL A   1      32.620  29.123  26.699  1.00  0.00     0.002 C 
ENDROOT
BRANCH   1   2
ATOM      2  C   UNL A   1      32.440  27.669  26.243  1.00  0.00     0.021 C 
BRANCH   2   3
ATOM      3  C   UNL A   1      33.631  27.103  25.471  1.00  0.00     0.116 C 
BRANCH   3   4
ATOM      4  N   UNL A   1      33.952  27.901  24.305  1.00  0.00    -0.356 N 
ATOM      5  C   UNL A   1      33.779  27.628  22.979  1.00  0.00     0.224 C 
ATOM      6  O   UNL A   1      33.992  28.554  22.190  1.00  0.00    -0.275 OA
ATOM      7  H   UNL A   1      34.358  28.777  24.500  1.00  0.00     0.163 HD
BRANCH   5   8
ATOM      8  C   UNL A   1      33.208  26.297  22.503  1.00  0.00     0.138 C 
BRANCH   8   9
ATOM      9  C   UNL A   1      31.835  25.949  23.018  1.00  0.00    -0.002 A 
ATOM     10  C   UNL A   1      29.268  28.807  22.787  1.00  0.00    -0.048 A 
ATOM     11  C   UNL A   1      28.238  28.095  23.416  1.00  0.00     0.006 A 
ATOM     12  C   UNL A   1      30.488  28.155  22.551  1.00  0.00     0.014 A 
ATOM     13  C   UNL A   1      28.407  26.774  23.849  1.00  0.00     0.027 A 
ATOM     14  C   UNL A   1      30.701  26.833  23.007  1.00  0.00     0.004 A 
ATOM     15  C   UNL A   1      29.654  26.178  23.641  1.00  0.00     0.046 A 
ATOM     16  N   UNL A   1      30.112  24.932  23.988  1.00  0.00    -0.352 N 
ATOM     17  C   UNL A   1      31.407  24.733  23.556  1.00  0.00     0.093 A 
ATOM     18  H   UNL A   1      29.583  24.265  24.484  1.00  0.00     0.167 HD
BRANCH  10  19
ATOM     19  C   UNL A   1      29.011  30.240  22.367  1.00  0.00     0.032 C 
ATOM     20  C   UNL A   1      28.547  31.189  23.467  1.00  0.00     0.009 C 
ENDBRANCH  10  19
BRANCH  17  21
ATOM     21  C   UNL A   1      32.155  23.486  23.683  1.00  0.00     0.227 C 
ATOM     22  O   UNL A   1      32.050  22.548  22.892  1.00  0.00    -0.285 OA
BRANCH  21  23
ATOM     23  C   UNL A   1      33.046  23.289  24.857  1.00  0.00     0.113 A 
ATOM     24  C   UNL A   1      34.397  23.613  24.761  1.00  0.00     0.036 A 
ATOM     25  N   UNL A   1      32.459  22.822  25.988  1.00  0.00    -0.253 NA
ATOM     26  C   UNL A   1      35.200  23.442  25.890  1.00  0.00    -0.047 A 
ATOM     27  C   UNL A   1      33.252  22.689  27.069  1.00  0.00     0.112 A 
ATOM     28  C   UNL A   1      36.663  23.767  25.860  1.00  0.00     0.044 C 
ATOM     29  C   UNL A   1      34.608  22.978  27.069  1.00  0.00     0.023 A 
ENDBRANCH  21  23
ENDBRANCH  17  21
ENDBRANCH   8   9
ENDBRANCH   5   8
ENDBRANCH   3   4
ENDBRANCH   2   3
ENDBRANCH   1   2
BRANCH   1  30
ATOM     30  C   UNL A   1      31.855  30.171  25.882  1.00  0.00     0.002 C 
BRANCH  30  31
ATOM     31  C   UNL A   1      31.550  31.482  26.614  1.00  0.00     0.021 C 
BRANCH  31  32
ATOM     32  C   UNL A   1      32.762  32.165  27.242  1.00  0.00     0.116 C 
BRANCH  32  33
ATOM     33  N   UNL A   1      32.532  33.584  27.480  1.00  0.00    -0.352 N 
ATOM     34  C   UNL A   1      33.121  34.419  28.397  1.00  0.00     0.251 C 
ATOM     35  H   UNL A   1      31.858  34.004  26.899  1.00  0.00     0.163 HD
ATOM     36  O   UNL A   1      32.675  35.551  28.575  1.00  0.00    -0.269 OA
BRANCH  34  37
ATOM     37  C   UNL A   1      34.283  33.952  29.186  1.00  0.00     0.039 A 
ATOM     38  C   UNL A   1      34.071  33.068  30.248  1.00  0.00     0.014 A 
ATOM     39  C   UNL A   1      35.575  34.389  28.882  1.00  0.00     0.014 A 
ATOM     40  C   UNL A   1      35.163  32.569  30.963  1.00  0.00     0.010 A 
ATOM     41  C   UNL A   1      36.665  33.844  29.557  1.00  0.00     0.010 A 
ATOM     42  C   UNL A   1      36.472  32.926  30.600  1.00  0.00    -0.014 A 
BRANCH  42  43
ATOM     43  C   UNL A   1      37.654  32.331  31.274  1.00  0.00     0.031 A 
ATOM     44  C   UNL A   1      38.386  31.177  30.649  1.00  0.00     0.074 A 
ATOM     45  C   UNL A   1      38.001  32.764  32.504  1.00  0.00     0.049 A 
ATOM     46  N   UNL A   1      39.377  30.472  31.130  1.00  0.00    -0.248 NA
ATOM     47  C   UNL A   1      37.928  30.739  29.320  1.00  0.00     0.031 C 
ATOM     48  C   UNL A   1      37.321  33.826  33.249  1.00  0.00     0.029 A 
ATOM     49  N   UNL A   1      38.989  32.339  33.357  1.00  0.00    -0.354 N 
ATOM     50  C   UNL A   1      39.639  29.488  30.185  1.00  0.00     0.074 A 
ATOM     51  C   UNL A   1      38.684  29.669  29.113  1.00  0.00     0.031 C 
ATOM     52  C   UNL A   1      37.908  33.965  34.448  1.00  0.00     0.029 A 
ATOM     53  C   UNL A   1      38.986  32.988  34.571  1.00  0.00     0.049 A 
ATOM     54  H   UNL A   1      39.639  31.638  33.123  1.00  0.00     0.167 HD
ATOM     55  C   UNL A   1      40.604  28.539  30.194  1.00  0.00     0.034 A 
ATOM     56  C   UNL A   1      39.754  32.809  35.662  1.00  0.00     0.034 A 
ATOM     57  C   UNL A   1      41.583  28.392  31.236  1.00  0.00     0.049 A 
ATOM     58  C   UNL A   1      40.843  31.772  35.630  1.00  0.00     0.074 A 
ATOM     59  C   UNL A   1      42.661  27.525  31.289  1.00  0.00     0.029 A 
ATOM     60  N   UNL A   1      41.605  29.128  32.411  1.00  0.00    -0.354 N 
ATOM     61  N   UNL A   1      41.179  30.959  34.658  1.00  0.00    -0.248 NA
ATOM     62  C   UNL A   1      41.679  31.646  36.833  1.00  0.00     0.031 C 
ATOM     63  C   UNL A   1      43.326  27.726  32.503  1.00  0.00     0.029 A 
ATOM     64  C   UNL A   1      42.670  28.728  33.201  1.00  0.00     0.049 A 
ATOM     65  H   UNL A   1      40.959  29.832  32.648  1.00  0.00     0.167 HD
ATOM     66  C   UNL A   1      42.282  30.249  35.118  1.00  0.00     0.074 A 
ATOM     67  C   UNL A   1      42.572  30.743  36.449  1.00  0.00     0.031 C 
ATOM     68  C   UNL A   1      42.980  29.264  34.501  1.00  0.00     0.034 A 
BRANCH  55  69
ATOM     69  C   UNL A   1      40.690  27.618  29.005  1.00  0.00     0.023 A 
ATOM     70  C   UNL A   1      39.789  26.538  28.903  1.00  0.00     0.012 A 
ATOM     71  C   UNL A   1      41.610  27.852  27.964  1.00  0.00     0.148 A 
ATOM     72  C   UNL A   1      39.822  25.687  27.800  1.00  0.00     0.002 A 
ATOM     73  C   UNL A   1      41.611  27.022  26.848  1.00  0.00     0.091 A 
ATOM     74  F   UNL A   1      42.474  28.869  28.089  1.00  0.00    -0.205 F 
ATOM     75  C   UNL A   1      40.724  25.935  26.769  1.00  0.00     0.022 A 
BRANCH  73  76
ATOM     76  S   UNL A   1      42.687  27.302  25.436  1.00  0.00     0.127 S 
ATOM     77  O   UNL A   1      43.980  27.501  26.087  1.00  0.00    -0.237 OA
ATOM     78  O   UNL A   1      42.563  26.043  24.698  1.00  0.00    -0.237 OA
ATOM     79  O   UNL A   1      42.145  28.464  24.746  1.00  0.00    -0.744 OA
ENDBRANCH  73  76
ENDBRANCH  55  69
BRANCH  56  80
ATOM     80  C   UNL A   1      39.563  33.683  36.853  1.00  0.00     0.023 A 
ATOM     81  C   UNL A   1      39.982  35.027  36.795  1.00  0.00     0.012 A 
ATOM     82  C   UNL A   1      38.940  33.208  38.024  1.00  0.00     0.148 A 
ATOM     83  C   UNL A   1      39.806  35.876  37.888  1.00  0.00     0.002 A 
ATOM     84  C   UNL A   1      38.720  34.074  39.090  1.00  0.00     0.091 A 
ATOM     85  F   UNL A   1      38.563  31.923  38.067  1.00  0.00    -0.205 F 
ATOM     86  C   UNL A   1      39.165  35.403  39.030  1.00  0.00     0.022 A 
BRANCH  84  87
ATOM     87  S   UNL A   1      37.786  33.582  40.545  1.00  0.00     0.127 S 
ATOM     88  O   UNL A   1      36.541  33.102  39.954  1.00  0.00    -0.237 OA
ATOM     89  O   UNL A   1      38.640  32.540  41.116  1.00  0.00    -0.237 OA
ATOM     90  O   UNL A   1      37.682  34.782  41.364  1.00  0.00    -0.744 OA
ENDBRANCH  84  87
ENDBRANCH  56  80
BRANCH  68  91
ATOM     91  C   UNL A   1      44.141  28.660  35.244  1.00  0.00     0.023 A 
ATOM     92  C   UNL A   1      45.434  29.191  35.061  1.00  0.00     0.012 A 
ATOM     93  C   UNL A   1      43.943  27.628  36.182  1.00  0.00     0.148 A 
ATOM     94  C   UNL A   1      46.515  28.688  35.784  1.00  0.00     0.002 A 
ATOM     95  C   UNL A   1      45.017  27.163  36.931  1.00  0.00     0.091 A 
ATOM     96  F   UNL A   1      42.708  27.124  36.327  1.00  0.00    -0.205 F 
ATOM     97  C   UNL A   1      46.304  27.684  36.727  1.00  0.00     0.022 A 
BRANCH  95  98
ATOM     98  S   UNL A   1      44.826  25.936  38.232  1.00  0.00     0.127 S 
ATOM     99  O   UNL A   1      46.213  25.706  38.629  1.00  0.00    -0.237 OA
ATOM    100  O   UNL A   1      44.019  26.655  39.219  1.00  0.00    -0.237 OA
ATOM    101  O   UNL A   1      44.154  24.801  37.615  1.00  0.00    -0.744 OA
ENDBRANCH  95  98
ENDBRANCH  68  91
ENDBRANCH  42  43
ENDBRANCH  34  37
ENDBRANCH  32  33
ENDBRANCH  31  32
ENDBRANCH  30  31
ENDBRANCH   1  30
TORSDOF 20
ENDMDL
MODEL 3
REMARK VINA RESULT:     -12.3      0.995      7.315
REMARK SMILES CCc1ccc2[nH]c(C(=O)c3cc(C)ccn3)c(CC(=O)NCCCCCCNC(=O)c3ccc(-c4c5nc(c(-c6cccc(S(=O)(=O)[O-])c6F)c6ccc([nH]6)c(-c6cccc(S(=O)(=O)[O-])c6F)c6nc(c(-c7cccc(S(=O)(=O)[O-])c7F)c7ccc4[nH]7)C=C6)C=C5)cc3)c2c1
REMARK SMILES IDX 25 1 24 2 23 3 22 4 20 5 21 6 19 8 18 9 3 10 4 11 96 12 5 13
REMARK SMILES IDX 95 14 6 15 7 16 8 17 2 19 1 20 9 21 10 22 11 23 12 24 17 25
REMARK SMILES IDX 13 26 16 27 14 28 15 29 26 30 27 31 28 32 29 33 30 34 31 36
REMARK SMILES IDX 32 37 33 38 94 39 34 40 93 41 35 42 36 43 37 44 87 45 38 46
REMARK SMILES IDX 92 47 86 48 88 49 39 50 91 51 85 52 84 53 40 55 72 56 52 57
REMARK SMILES IDX 71 58 53 59 56 60 70 61 89 62 54 63 55 64 69 66 90 67 57 68
REMARK SMILES IDX 41 69 42 70 50 71 43 72 45 73 51 74 44 75 46 76 47 77 48 78
REMARK SMILES IDX 49 79 73 80 74 81 82 82 75 83 77 84 83 85 76 86 78 87 79 88
REMARK SMILES IDX 80 89 81 90 58 91 59 92 67 93 60 94 62 95 68 96 61 97 63 98
REMARK SMILES IDX 64 99 65 100 66 101
REMARK H PARENT 22 7 7 18 29 35 88 54 56 65
REMARK Flexibility Score: inf
ROOT
ATOM      1  C   UNL A   1      33.014  29.398  25.880  1.00  0.00     0.002 C 
ENDROOT
BRANCH   1   2
ATOM      2  C   UNL A   1      32.951  28.046  26.604  1.00  0.00     0.021 C 
BRANCH   2   3
ATOM      3  C   UNL A   1      33.272  26.844  25.715  1.00  0.00     0.116 C 
BRANCH   3   4
ATOM      4  N   UNL A   1      33.163  25.592  26.435  1.00  0.00    -0.356 N 
ATOM      5  C   UNL A   1      33.608  24.346  26.100  1.00  0.00     0.224 C 
ATOM      6  O   UNL A   1      33.525  23.474  26.972  1.00  0.00    -0.275 OA
ATOM      7  H   UNL A   1      32.694  25.648  27.299  1.00  0.00     0.163 HD
BRANCH   5   8
ATOM      8  C   UNL A   1      34.311  24.074  24.774  1.00  0.00     0.138 C 
BRANCH   8   9
ATOM      9  C   UNL A   1      33.478  23.398  23.716  1.00  0.00    -0.002 A 
ATOM     10  C   UNL A   1      33.068  19.600  24.189  1.00  0.00    -0.048 A 
ATOM     11  C   UNL A   1      32.343  19.409  23.005  1.00  0.00     0.006 A 
ATOM     12  C   UNL A   1      33.438  20.906  24.547  1.00  0.00     0.014 A 
ATOM     13  C   UNL A   1      32.017  20.472  22.155  1.00  0.00     0.027 A 
ATOM     14  C   UNL A   1      33.153  21.997  23.692  1.00  0.00     0.004 A 
ATOM     15  C   UNL A   1      32.448  21.751  22.522  1.00  0.00     0.046 A 
ATOM     16  N   UNL A   1      32.310  22.954  21.876  1.00  0.00    -0.352 N 
ATOM     17  C   UNL A   1      32.857  23.986  22.612  1.00  0.00     0.093 A 
ATOM     18  H   UNL A   1      31.877  23.067  20.999  1.00  0.00     0.167 HD
BRANCH  10  19
ATOM     19  C   UNL A   1      33.398  18.393  25.043  1.00  0.00     0.032 C 
ATOM     20  C   UNL A   1      34.340  17.368  24.421  1.00  0.00     0.009 C 
ENDBRANCH  10  19
BRANCH  17  21
ATOM     21  C   UNL A   1      32.797  25.400  22.253  1.00  0.00     0.227 C 
ATOM     22  O   UNL A   1      33.705  25.990  21.668  1.00  0.00    -0.285 OA
BRANCH  21  23
ATOM     23  C   UNL A   1      31.617  26.205  22.666  1.00  0.00     0.113 A 
ATOM     24  C   UNL A   1      31.491  27.520  22.228  1.00  0.00     0.036 A 
ATOM     25  N   UNL A   1      30.698  25.574  23.440  1.00  0.00    -0.253 NA
ATOM     26  C   UNL A   1      30.358  28.240  22.612  1.00  0.00    -0.047 A 
ATOM     27  C   UNL A   1      29.603  26.284  23.775  1.00  0.00     0.112 A 
ATOM     28  C   UNL A   1      30.157  29.661  22.180  1.00  0.00     0.044 C 
ATOM     29  C   UNL A   1      29.393  27.600  23.394  1.00  0.00     0.023 A 
ENDBRANCH  21  23
ENDBRANCH  17  21
ENDBRANCH   8   9
ENDBRANCH   5   8
ENDBRANCH   3   4
ENDBRANCH   2   3
ENDBRANCH   1   2
BRANCH   1  30
ATOM     30  C   UNL A   1      31.661  30.060  25.598  1.00  0.00     0.002 C 
BRANCH  30  31
ATOM     31  C   UNL A   1      31.414  31.386  26.323  1.00  0.00     0.021 C 
BRANCH  31  32
ATOM     32  C   UNL A   1      32.653  32.015  26.954  1.00  0.00     0.116 C 
BRANCH  32  33
ATOM     33  N   UNL A   1      32.464  33.430  27.247  1.00  0.00    -0.352 N 
ATOM     34  C   UNL A   1      33.094  34.218  28.179  1.00  0.00     0.251 C 
ATOM     35  H   UNL A   1      31.787  33.887  26.697  1.00  0.00     0.163 HD
ATOM     36  O   UNL A   1      32.679  35.353  28.405  1.00  0.00    -0.269 OA
BRANCH  34  37
ATOM     37  C   UNL A   1      34.260  33.697  28.924  1.00  0.00     0.039 A 
ATOM     38  C   UNL A   1      34.066  32.681  29.865  1.00  0.00     0.014 A 
ATOM     39  C   UNL A   1      35.541  34.210  28.698  1.00  0.00     0.014 A 
ATOM     40  C   UNL A   1      35.165  32.133  30.531  1.00  0.00     0.010 A 
ATOM     41  C   UNL A   1      36.640  33.623  29.318  1.00  0.00     0.010 A 
ATOM     42  C   UNL A   1      36.466  32.577  30.237  1.00  0.00    -0.014 A 
BRANCH  42  43
ATOM     43  C   UNL A   1      37.660  31.942  30.853  1.00  0.00     0.031 A 
ATOM     44  C   UNL A   1      38.420  30.875  30.116  1.00  0.00     0.074 A 
ATOM     45  C   UNL A   1      37.992  32.253  32.122  1.00  0.00     0.049 A 
ATOM     46  N   UNL A   1      39.426  30.148  30.527  1.00  0.00    -0.248 NA
ATOM     47  C   UNL A   1      37.976  30.566  28.747  1.00  0.00     0.031 C 
ATOM     48  C   UNL A   1      37.286  33.217  32.970  1.00  0.00     0.029 A 
ATOM     49  N   UNL A   1      38.988  31.766  32.933  1.00  0.00    -0.354 N 
ATOM     50  C   UNL A   1      39.713  29.273  29.488  1.00  0.00     0.074 A 
ATOM     51  C   UNL A   1      38.758  29.542  28.435  1.00  0.00     0.031 C 
ATOM     52  C   UNL A   1      37.866  33.245  34.180  1.00  0.00     0.029 A 
ATOM     53  C   UNL A   1      38.965  32.286  34.207  1.00  0.00     0.049 A 
ATOM     54  H   UNL A   1      39.654  31.107  32.631  1.00  0.00     0.167 HD
ATOM     55  C   UNL A   1      40.700  28.349  29.404  1.00  0.00     0.034 A 
ATOM     56  C   UNL A   1      39.734  32.013  35.278  1.00  0.00     0.034 A 
ATOM     57  C   UNL A   1      41.679  28.118  30.431  1.00  0.00     0.049 A 
ATOM     58  C   UNL A   1      40.847  31.009  35.146  1.00  0.00     0.074 A 
ATOM     59  C   UNL A   1      42.776  27.276  30.400  1.00  0.00     0.029 A 
ATOM     60  N   UNL A   1      41.680  28.730  31.675  1.00  0.00    -0.354 N 
ATOM     61  N   UNL A   1      41.205  30.309  34.097  1.00  0.00    -0.248 NA
ATOM     62  C   UNL A   1      41.682  30.780  36.334  1.00  0.00     0.031 C 
ATOM     63  C   UNL A   1      43.432  27.366  31.632  1.00  0.00     0.029 A 
ATOM     64  C   UNL A   1      42.752  28.274  32.426  1.00  0.00     0.049 A 
ATOM     65  H   UNL A   1      41.017  29.391  31.981  1.00  0.00     0.167 HD
ATOM     66  C   UNL A   1      42.323  29.580  34.487  1.00  0.00     0.074 A 
ATOM     67  C   UNL A   1      42.596  29.941  35.863  1.00  0.00     0.031 C 
ATOM     68  C   UNL A   1      43.045  28.680  33.776  1.00  0.00     0.034 A 
BRANCH  55  69
ATOM     69  C   UNL A   1      40.811  27.558  28.127  1.00  0.00     0.023 A 
ATOM     70  C   UNL A   1      41.448  28.138  27.010  1.00  0.00     0.012 A 
ATOM     71  C   UNL A   1      40.348  26.231  28.048  1.00  0.00     0.148 A 
ATOM     72  C   UNL A   1      41.595  27.420  25.825  1.00  0.00     0.002 A 
ATOM     73  C   UNL A   1      40.533  25.508  26.873  1.00  0.00     0.091 A 
ATOM     74  F   UNL A   1      39.724  25.705  29.111  1.00  0.00    -0.205 F 
ATOM     75  C   UNL A   1      41.148  26.103  25.759  1.00  0.00     0.022 A 
BRANCH  73  76
ATOM     76  S   UNL A   1      40.055  23.782  26.716  1.00  0.00     0.127 S 
ATOM     77  O   UNL A   1      40.199  23.310  28.092  1.00  0.00    -0.237 OA
ATOM     78  O   UNL A   1      38.671  23.885  26.249  1.00  0.00    -0.237 OA
ATOM     79  O   UNL A   1      40.977  23.199  25.751  1.00  0.00    -0.744 OA
ENDBRANCH  73  76
ENDBRANCH  55  69
BRANCH  56  80
ATOM     80  C   UNL A   1      39.519  32.755  36.552  1.00  0.00     0.023 A 
ATOM     81  C   UNL A   1      40.210  33.963  36.769  1.00  0.00     0.012 A 
ATOM     82  C   UNL A   1      38.614  32.296  37.529  1.00  0.00     0.148 A 
ATOM     83  C   UNL A   1      40.021  34.690  37.945  1.00  0.00     0.002 A 
ATOM     84  C   UNL A   1      38.391  33.052  38.675  1.00  0.00     0.091 A 
ATOM     85  F   UNL A   1      37.979  31.136  37.312  1.00  0.00    -0.205 F 
ATOM     86  C   UNL A   1      39.105  34.240  38.892  1.00  0.00     0.022 A 
BRANCH  84  87
ATOM     87  S   UNL A   1      37.134  32.613  39.881  1.00  0.00     0.127 S 
ATOM     88  O   UNL A   1      37.262  33.693  40.855  1.00  0.00    -0.237 OA
ATOM     89  O   UNL A   1      35.913  32.650  39.076  1.00  0.00    -0.237 OA
ATOM     90  O   UNL A   1      37.495  31.284  40.354  1.00  0.00    -0.744 OA
ENDBRANCH  84  87
ENDBRANCH  56  80
BRANCH  68  91
ATOM     91  C   UNL A   1      44.218  28.029  34.459  1.00  0.00     0.023 A 
ATOM     92  C   UNL A   1      45.474  28.667  34.439  1.00  0.00     0.012 A 
ATOM     93  C   UNL A   1      44.059  26.836  35.189  1.00  0.00     0.148 A 
ATOM     94  C   UNL A   1      46.560  28.114  35.116  1.00  0.00     0.002 A 
ATOM     95  C   UNL A   1      45.135  26.314  35.898  1.00  0.00     0.091 A 
ATOM     96  F   UNL A   1      42.860  26.235  35.179  1.00  0.00    -0.205 F 
ATOM     97  C   UNL A   1      46.387  26.946  35.855  1.00  0.00     0.022 A 
BRANCH  95  98
ATOM     98  S   UNL A   1      44.983  24.865  36.950  1.00  0.00     0.127 S 
ATOM     99  O   UNL A   1      46.347  24.719  37.454  1.00  0.00    -0.237 OA
ATOM    100  O   UNL A   1      44.008  25.306  37.948  1.00  0.00    -0.237 OA
ATOM    101  O   UNL A   1      44.516  23.789  36.086  1.00  0.00    -0.744 OA
ENDBRANCH  95  98
ENDBRANCH  68  91
ENDBRANCH  42  43
ENDBRANCH  34  37
ENDBRANCH  32  33
ENDBRANCH  31  32
ENDBRANCH  30  31
ENDBRANCH   1  30
TORSDOF 20
ENDMDL
