MODEL 1
REMARK VINA RESULT:     -10.8      0.000      0.000
REMARK SMILES O=C(NCCCCCCNC(=O)c1ccn(-c2cc(-c3ccncc3)nc(-c3ccccc3F)n2)n1)c1ccc(-c2c3nc(c(-c4cccc(S(=O)(=O)[O-])c4F)c4ccc([nH]4)c(-c4cccc(S(=O)(=O)[O-])c4F)c4nc(c(-c5cccc(S(=O)(=O)[O-])c5F)c5ccc2[nH]5)C=C4)C=C3)cc1
REMARK SMILES IDX 6 1 5 2 4 3 3 4 1 5 2 6 37 8 38 9 99 10 39 11 98 12 40 13
REMARK SMILES IDX 41 14 42 15 92 16 43 17 97 18 91 19 93 20 44 21 96 22 90 23
REMARK SMILES IDX 89 24 45 26 77 27 57 28 76 29 58 30 61 31 75 32 94 33 59 34
REMARK SMILES IDX 60 35 74 37 95 38 62 39 46 40 47 41 55 42 48 43 50 44 56 45
REMARK SMILES IDX 49 46 51 47 52 48 53 49 54 50 78 51 79 52 87 53 80 54 82 55
REMARK SMILES IDX 88 56 81 57 83 58 84 59 85 60 86 61 63 62 64 63 72 64 65 65
REMARK SMILES IDX 67 66 73 67 66 68 68 69 69 70 70 71 71 72 7 73 8 74 9 75
REMARK SMILES IDX 10 76 11 77 12 79 13 80 14 81 36 82 15 83 16 84 17 85 18 86
REMARK SMILES IDX 35 87 19 88 27 89 26 90 20 91 21 92 25 93 22 94 24 95 23 96
REMARK SMILES IDX 28 97 29 98 33 99 30 100 32 101 34 102 31 103
REMARK H PARENT 3 7 93 25 61 36 10 78
REMARK Flexibility Score: inf
ROOT
ATOM      1  C   UNL A   1      44.814  24.546  26.940  1.00  0.00     0.002 C 
ENDROOT
BRANCH   1   2
ATOM      2  C   UNL A   1      45.733  25.368  26.029  1.00  0.00     0.021 C 
BRANCH   2   3
ATOM      3  C   UNL A   1      45.005  26.206  24.978  1.00  0.00     0.116 C 
BRANCH   3   4
ATOM      4  N   UNL A   1      45.683  27.428  24.609  1.00  0.00    -0.352 N 
ATOM      5  O   UNL A   1      46.670  29.401  24.665  1.00  0.00    -0.269 OA
ATOM      6  C   UNL A   1      45.892  28.628  25.230  1.00  0.00     0.251 C 
ATOM      7  H   UNL A   1      46.083  27.387  23.710  1.00  0.00     0.163 HD
BRANCH   6   8
ATOM      8  C   UNL A   1      45.193  29.073  26.465  1.00  0.00     0.039 A 
ATOM      9  C   UNL A   1      43.828  29.343  26.574  1.00  0.00     0.014 A 
ATOM     10  C   UNL A   1      46.009  29.258  27.597  1.00  0.00     0.014 A 
ATOM     11  C   UNL A   1      43.305  29.883  27.742  1.00  0.00     0.010 A 
ATOM     12  C   UNL A   1      45.490  29.777  28.776  1.00  0.00     0.010 A 
ATOM     13  C   UNL A   1      44.142  30.120  28.832  1.00  0.00    -0.014 A 
BRANCH  13  14
ATOM     14  C   UNL A   1      43.524  30.522  30.091  1.00  0.00     0.031 A 
ATOM     15  C   UNL A   1      43.163  29.372  30.971  1.00  0.00     0.074 A 
ATOM     16  C   UNL A   1      43.441  31.807  30.492  1.00  0.00     0.049 A 
ATOM     17  N   UNL A   1      42.000  29.049  31.440  1.00  0.00    -0.248 NA
ATOM     18  C   UNL A   1      44.217  28.380  31.251  1.00  0.00     0.031 C 
ATOM     19  C   UNL A   1      44.038  32.971  29.833  1.00  0.00     0.029 A 
ATOM     20  N   UNL A   1      42.946  32.329  31.654  1.00  0.00    -0.354 N 
ATOM     21  C   UNL A   1      42.235  27.955  32.272  1.00  0.00     0.074 A 
ATOM     22  C   UNL A   1      43.554  27.473  31.966  1.00  0.00     0.031 C 
ATOM     23  C   UNL A   1      44.101  33.994  30.713  1.00  0.00     0.029 A 
ATOM     24  C   UNL A   1      43.450  33.597  31.949  1.00  0.00     0.049 A 
ATOM     25  H   UNL A   1      42.297  31.858  32.226  1.00  0.00     0.167 HD
ATOM     26  C   UNL A   1      41.452  27.693  33.353  1.00  0.00     0.034 A 
ATOM     27  C   UNL A   1      43.428  34.222  33.154  1.00  0.00     0.034 A 
ATOM     28  C   UNL A   1      40.171  28.331  33.266  1.00  0.00     0.049 A 
ATOM     29  C   UNL A   1      42.398  33.558  33.980  1.00  0.00     0.074 A 
ATOM     30  C   UNL A   1      39.131  28.312  32.362  1.00  0.00     0.029 A 
ATOM     31  N   UNL A   1      39.970  29.432  34.059  1.00  0.00    -0.354 N 
ATOM     32  N   UNL A   1      41.119  33.614  33.741  1.00  0.00    -0.248 NA
ATOM     33  C   UNL A   1      42.826  32.500  34.879  1.00  0.00     0.031 C 
ATOM     34  C   UNL A   1      38.635  29.647  32.349  1.00  0.00     0.029 A 
ATOM     35  C   UNL A   1      39.361  30.383  33.289  1.00  0.00     0.049 A 
ATOM     36  H   UNL A   1      40.219  29.521  35.008  1.00  0.00     0.167 HD
ATOM     37  C   UNL A   1      40.656  32.351  34.079  1.00  0.00     0.074 A 
ATOM     38  C   UNL A   1      41.720  31.754  34.879  1.00  0.00     0.031 C 
ATOM     39  C   UNL A   1      39.586  31.803  33.435  1.00  0.00     0.034 A 
BRANCH  26  40
ATOM     40  C   UNL A   1      41.998  27.169  34.659  1.00  0.00     0.023 A 
ATOM     41  C   UNL A   1      41.336  26.086  35.275  1.00  0.00     0.012 A 
ATOM     42  C   UNL A   1      42.967  27.851  35.431  1.00  0.00     0.148 A 
ATOM     43  C   UNL A   1      41.622  25.710  36.593  1.00  0.00     0.002 A 
ATOM     44  C   UNL A   1      43.325  27.406  36.695  1.00  0.00     0.091 A 
ATOM     45  F   UNL A   1      43.449  29.025  35.010  1.00  0.00    -0.205 F 
ATOM     46  C   UNL A   1      42.634  26.355  37.296  1.00  0.00     0.022 A 
BRANCH  44  47
ATOM     47  S   UNL A   1      44.692  28.151  37.590  1.00  0.00     0.127 S 
ATOM     48  O   UNL A   1      44.792  27.279  38.755  1.00  0.00    -0.237 OA
ATOM     49  O   UNL A   1      45.784  28.025  36.623  1.00  0.00    -0.237 OA
ATOM     50  O   UNL A   1      44.281  29.526  37.843  1.00  0.00    -0.744 OA
ENDBRANCH  44  47
ENDBRANCH  26  40
BRANCH  27  51
ATOM     51  C   UNL A   1      44.418  35.143  33.772  1.00  0.00     0.023 A 
ATOM     52  C   UNL A   1      45.707  34.657  34.087  1.00  0.00     0.012 A 
ATOM     53  C   UNL A   1      44.221  36.540  33.769  1.00  0.00     0.148 A 
ATOM     54  C   UNL A   1      46.771  35.533  34.336  1.00  0.00     0.002 A 
ATOM     55  C   UNL A   1      45.280  37.407  34.024  1.00  0.00     0.091 A 
ATOM     56  F   UNL A   1      43.024  37.026  33.419  1.00  0.00    -0.205 F 
ATOM     57  C   UNL A   1      46.561  36.908  34.293  1.00  0.00     0.022 A 
BRANCH  55  58
ATOM     58  S   UNL A   1      45.091  39.194  33.954  1.00  0.00     0.127 S 
ATOM     59  O   UNL A   1      44.109  39.436  35.012  1.00  0.00    -0.237 OA
ATOM     60  O   UNL A   1      46.444  39.652  34.258  1.00  0.00    -0.237 OA
ATOM     61  O   UNL A   1      44.608  39.490  32.612  1.00  0.00    -0.744 OA
ENDBRANCH  55  58
ENDBRANCH  27  51
BRANCH  39  62
ATOM     62  C   UNL A   1      38.720  32.693  32.583  1.00  0.00     0.023 A 
ATOM     63  C   UNL A   1      38.916  32.843  31.195  1.00  0.00     0.012 A 
ATOM     64  C   UNL A   1      37.550  33.206  33.169  1.00  0.00     0.148 A 
ATOM     65  C   UNL A   1      37.961  33.496  30.410  1.00  0.00     0.002 A 
ATOM     66  C   UNL A   1      36.578  33.798  32.375  1.00  0.00     0.091 A 
ATOM     67  F   UNL A   1      37.390  33.062  34.493  1.00  0.00    -0.205 F 
ATOM     68  C   UNL A   1      36.782  33.955  30.996  1.00  0.00     0.022 A 
BRANCH  66  69
ATOM     69  S   UNL A   1      34.976  34.250  33.047  1.00  0.00     0.127 S 
ATOM     70  O   UNL A   1      35.294  35.455  33.811  1.00  0.00    -0.237 OA
ATOM     71  O   UNL A   1      34.185  34.483  31.837  1.00  0.00    -0.237 OA
ATOM     72  O   UNL A   1      34.533  33.106  33.834  1.00  0.00    -0.744 OA
ENDBRANCH  66  69
ENDBRANCH  39  62
ENDBRANCH  13  14
ENDBRANCH   6   8
ENDBRANCH   3   4
ENDBRANCH   2   3
ENDBRANCH   1   2
BRANCH   1  73
ATOM     73  C   UNL A   1      43.938  23.513  26.225  1.00  0.00     0.002 C 
BRANCH  73  74
ATOM     74  C   UNL A   1      44.695  22.525  25.329  1.00  0.00     0.021 C 
BRANCH  74  75
ATOM     75  C   UNL A   1      45.205  21.281  26.055  1.00  0.00     0.116 C 
BRANCH  75  76
ATOM     76  N   UNL A   1      44.991  20.094  25.248  1.00  0.00    -0.351 N 
ATOM     77  C   UNL A   1      43.953  19.207  25.326  1.00  0.00     0.271 C 
ATOM     78  H   UNL A   1      45.674  19.905  24.565  1.00  0.00     0.163 HD
ATOM     79  O   UNL A   1      44.050  18.111  24.752  1.00  0.00    -0.267 OA
BRANCH  77  80
ATOM     80  C   UNL A   1      42.737  19.614  26.028  1.00  0.00     0.150 A 
ATOM     81  C   UNL A   1      42.349  19.213  27.334  1.00  0.00     0.056 A 
ATOM     82  N   UNL A   1      41.839  20.463  25.496  1.00  0.00    -0.161 NA
ATOM     83  C   UNL A   1      41.254  19.984  27.631  1.00  0.00     0.118 A 
ATOM     84  N   UNL A   1      41.007  20.761  26.524  1.00  0.00    -0.222 N 
BRANCH  84  85
ATOM     85  C   UNL A   1      40.033  21.791  26.433  1.00  0.00     0.158 A 
ATOM     86  C   UNL A   1      38.875  21.555  25.724  1.00  0.00     0.078 A 
ATOM     87  N   UNL A   1      40.295  22.959  27.059  1.00  0.00    -0.209 NA
ATOM     88  C   UNL A   1      37.952  22.580  25.723  1.00  0.00     0.077 A 
ATOM     89  C   UNL A   1      39.375  23.924  26.920  1.00  0.00     0.165 A 
ATOM     90  N   UNL A   1      38.205  23.784  26.275  1.00  0.00    -0.228 NA
BRANCH  88  91
ATOM     91  C   UNL A   1      36.600  22.413  25.182  1.00  0.00     0.003 A 
ATOM     92  C   UNL A   1      36.238  22.996  23.960  1.00  0.00     0.030 A 
ATOM     93  C   UNL A   1      35.649  21.628  25.840  1.00  0.00     0.030 A 
ATOM     94  C   UNL A   1      34.963  22.779  23.464  1.00  0.00     0.111 A 
ATOM     95  C   UNL A   1      34.395  21.478  25.269  1.00  0.00     0.111 A 
ATOM     96  N   UNL A   1      34.029  22.039  24.096  1.00  0.00    -0.265 NA
ENDBRANCH  88  91
BRANCH  89  97
ATOM     97  C   UNL A   1      39.726  25.247  27.412  1.00  0.00     0.055 A 
ATOM     98  C   UNL A   1      39.353  25.659  28.706  1.00  0.00     0.015 A 
ATOM     99  C   UNL A   1      40.437  26.149  26.618  1.00  0.00     0.134 A 
ATOM    100  C   UNL A   1      39.695  26.927  29.184  1.00  0.00     0.001 A 
ATOM    101  C   UNL A   1      40.774  27.420  27.084  1.00  0.00     0.040 A 
ATOM    102  F   UNL A   1      40.795  25.817  25.367  1.00  0.00    -0.206 F 
ATOM    103  C   UNL A   1      40.406  27.809  28.371  1.00  0.00     0.003 A 
ENDBRANCH  89  97
ENDBRANCH  84  85
ENDBRANCH  77  80
ENDBRANCH  75  76
ENDBRANCH  74  75
ENDBRANCH  73  74
ENDBRANCH   1  73
TORSDOF 19
ENDMDL
MODEL 2
REMARK VINA RESULT:     -10.5      3.048      7.014
REMARK SMILES O=C(NCCCCCCNC(=O)c1ccn(-c2cc(-c3ccncc3)nc(-c3ccccc3F)n2)n1)c1ccc(-c2c3nc(c(-c4cccc(S(=O)(=O)[O-])c4F)c4ccc([nH]4)c(-c4cccc(S(=O)(=O)[O-])c4F)c4nc(c(-c5cccc(S(=O)(=O)[O-])c5F)c5ccc2[nH]5)C=C4)C=C3)cc1
REMARK SMILES IDX 6 1 5 2 4 3 3 4 1 5 2 6 37 8 38 9 99 10 39 11 98 12 40 13
REMARK SMILES IDX 41 14 42 15 92 16 43 17 97 18 91 19 93 20 44 21 96 22 90 23
REMARK SMILES IDX 89 24 45 26 77 27 57 28 76 29 58 30 61 31 75 32 94 33 59 34
REMARK SMILES IDX 60 35 74 37 95 38 62 39 46 40 47 41 55 42 48 43 50 44 56 45
REMARK SMILES IDX 49 46 51 47 52 48 53 49 54 50 78 51 79 52 87 53 80 54 82 55
REMARK SMILES IDX 88 56 81 57 83 58 84 59 85 60 86 61 63 62 64 63 72 64 65 65
REMARK SMILES IDX 67 66 73 67 66 68 68 69 69 70 70 71 71 72 7 73 8 74 9 75
REMARK SMILES IDX 10 76 11 77 12 79 13 80 14 81 36 82 15 83 16 84 17 85 18 86
REMARK SMILES IDX 35 87 19 88 27 89 26 90 20 91 21 92 25 93 22 94 24 95 23 96
REMARK SMILES IDX 28 97 29 98 33 99 30 100 32 101 34 102 31 103
REMARK H PARENT 3 7 93 25 61 36 10 78
REMARK Flexibility Score: inf
ROOT
ATOM      1  C   UNL A   1      46.371  23.691  25.820  1.00  0.00     0.002 C 
ENDROOT
BRANCH   1   2
ATOM      2  C   UNL A   1      45.109  24.541  25.999  1.00  0.00     0.021 C 
BRANCH   2   3
ATOM      3  C   UNL A   1      44.000  23.874  26.813  1.00  0.00     0.116 C 
BRANCH   3   4
ATOM      4  N   UNL A   1      44.422  23.363  28.098  1.00  0.00    -0.352 N 
ATOM      5  O   UNL A   1      44.641  23.000  30.263  1.00  0.00    -0.269 OA
ATOM      6  C   UNL A   1      44.280  23.792  29.389  1.00  0.00     0.251 C 
ATOM      7  H   UNL A   1      44.925  22.520  28.028  1.00  0.00     0.163 HD
BRANCH   6   8
ATOM      8  C   UNL A   1      43.806  25.146  29.781  1.00  0.00     0.039 A 
ATOM      9  C   UNL A   1      42.683  25.795  29.266  1.00  0.00     0.014 A 
ATOM     10  C   UNL A   1      44.596  25.818  30.733  1.00  0.00     0.014 A 
ATOM     11  C   UNL A   1      42.411  27.114  29.607  1.00  0.00     0.010 A 
ATOM     12  C   UNL A   1      44.318  27.129  31.095  1.00  0.00     0.010 A 
ATOM     13  C   UNL A   1      43.243  27.785  30.502  1.00  0.00    -0.014 A 
BRANCH  13  14
ATOM     14  C   UNL A   1      42.823  29.105  30.964  1.00  0.00     0.031 A 
ATOM     15  C   UNL A   1      43.700  30.211  30.480  1.00  0.00     0.074 A 
ATOM     16  C   UNL A   1      41.665  29.318  31.621  1.00  0.00     0.049 A 
ATOM     17  N   UNL A   1      44.367  31.075  31.176  1.00  0.00    -0.248 NA
ATOM     18  C   UNL A   1      43.968  30.274  29.031  1.00  0.00     0.031 C 
ATOM     19  C   UNL A   1      40.605  28.339  31.871  1.00  0.00     0.029 A 
ATOM     20  N   UNL A   1      41.116  30.489  32.063  1.00  0.00    -0.354 N 
ATOM     21  C   UNL A   1      44.938  31.935  30.238  1.00  0.00     0.074 A 
ATOM     22  C   UNL A   1      44.827  31.290  28.958  1.00  0.00     0.031 C 
ATOM     23  C   UNL A   1      39.462  28.992  32.172  1.00  0.00     0.029 A 
ATOM     24  C   UNL A   1      39.734  30.416  32.248  1.00  0.00     0.049 A 
ATOM     25  H   UNL A   1      41.643  31.303  32.235  1.00  0.00     0.167 HD
ATOM     26  C   UNL A   1      45.202  33.238  30.526  1.00  0.00     0.034 A 
ATOM     27  C   UNL A   1      38.870  31.459  32.344  1.00  0.00     0.034 A 
ATOM     28  C   UNL A   1      45.279  33.480  31.937  1.00  0.00     0.049 A 
ATOM     29  C   UNL A   1      39.660  32.662  32.678  1.00  0.00     0.074 A 
ATOM     30  C   UNL A   1      46.034  32.976  32.975  1.00  0.00     0.029 A 
ATOM     31  N   UNL A   1      44.215  34.126  32.515  1.00  0.00    -0.354 N 
ATOM     32  N   UNL A   1      40.268  32.847  33.815  1.00  0.00    -0.248 NA
ATOM     33  C   UNL A   1      40.091  33.517  31.586  1.00  0.00     0.031 C 
ATOM     34  C   UNL A   1      45.143  32.932  34.085  1.00  0.00     0.029 A 
ATOM     35  C   UNL A   1      43.919  33.466  33.675  1.00  0.00     0.049 A 
ATOM     36  H   UNL A   1      43.751  34.919  32.160  1.00  0.00     0.167 HD
ATOM     37  C   UNL A   1      41.443  33.497  33.469  1.00  0.00     0.074 A 
ATOM     38  C   UNL A   1      41.224  33.985  32.111  1.00  0.00     0.031 C 
ATOM     39  C   UNL A   1      42.581  33.323  34.200  1.00  0.00     0.034 A 
BRANCH  26  40
ATOM     40  C   UNL A   1      45.013  34.357  29.531  1.00  0.00     0.023 A 
ATOM     41  C   UNL A   1      46.075  35.265  29.334  1.00  0.00     0.012 A 
ATOM     42  C   UNL A   1      43.760  34.707  28.977  1.00  0.00     0.148 A 
ATOM     43  C   UNL A   1      45.893  36.459  28.628  1.00  0.00     0.002 A 
ATOM     44  C   UNL A   1      43.612  35.836  28.186  1.00  0.00     0.091 A 
ATOM     45  F   UNL A   1      42.662  34.029  29.330  1.00  0.00    -0.205 F 
ATOM     46  C   UNL A   1      44.667  36.735  28.033  1.00  0.00     0.022 A 
BRANCH  44  47
ATOM     47  S   UNL A   1      42.074  36.171  27.322  1.00  0.00     0.127 S 
ATOM     48  O   UNL A   1      42.066  37.630  27.287  1.00  0.00    -0.237 OA
ATOM     49  O   UNL A   1      42.309  35.519  26.032  1.00  0.00    -0.237 OA
ATOM     50  O   UNL A   1      41.036  35.536  28.125  1.00  0.00    -0.744 OA
ENDBRANCH  44  47
ENDBRANCH  26  40
BRANCH  27  51
ATOM     51  C   UNL A   1      37.463  31.580  31.878  1.00  0.00     0.023 A 
ATOM     52  C   UNL A   1      36.473  32.020  32.783  1.00  0.00     0.012 A 
ATOM     53  C   UNL A   1      37.144  31.572  30.503  1.00  0.00     0.148 A 
ATOM     54  C   UNL A   1      35.230  32.483  32.331  1.00  0.00     0.002 A 
ATOM     55  C   UNL A   1      35.905  32.027  30.058  1.00  0.00     0.091 A 
ATOM     56  F   UNL A   1      38.084  31.214  29.621  1.00  0.00    -0.205 F 
ATOM     57  C   UNL A   1      34.951  32.498  30.968  1.00  0.00     0.022 A 
BRANCH  55  58
ATOM     58  S   UNL A   1      35.487  32.105  28.311  1.00  0.00     0.127 S 
ATOM     59  O   UNL A   1      34.062  32.438  28.356  1.00  0.00    -0.237 OA
ATOM     60  O   UNL A   1      36.352  33.184  27.842  1.00  0.00    -0.237 OA
ATOM     61  O   UNL A   1      35.774  30.782  27.774  1.00  0.00    -0.744 OA
ENDBRANCH  55  58
ENDBRANCH  27  51
BRANCH  39  62
ATOM     62  C   UNL A   1      42.477  32.679  35.557  1.00  0.00     0.023 A 
ATOM     63  C   UNL A   1      42.653  31.294  35.759  1.00  0.00     0.012 A 
ATOM     64  C   UNL A   1      42.423  33.531  36.673  1.00  0.00     0.148 A 
ATOM     65  C   UNL A   1      42.771  30.775  37.051  1.00  0.00     0.002 A 
ATOM     66  C   UNL A   1      42.603  33.018  37.949  1.00  0.00     0.091 A 
ATOM     67  F   UNL A   1      42.244  34.844  36.458  1.00  0.00    -0.205 F 
ATOM     68  C   UNL A   1      42.767  31.638  38.146  1.00  0.00     0.022 A 
BRANCH  66  69
ATOM     69  S   UNL A   1      42.777  34.098  39.372  1.00  0.00     0.127 S 
ATOM     70  O   UNL A   1      41.396  34.511  39.613  1.00  0.00    -0.237 OA
ATOM     71  O   UNL A   1      43.332  33.196  40.383  1.00  0.00    -0.237 OA
ATOM     72  O   UNL A   1      43.687  35.160  38.961  1.00  0.00    -0.744 OA
ENDBRANCH  66  69
ENDBRANCH  39  62
ENDBRANCH  13  14
ENDBRANCH   6   8
ENDBRANCH   3   4
ENDBRANCH   2   3
ENDBRANCH   1   2
BRANCH   1  73
ATOM     73  C   UNL A   1      46.391  22.804  24.571  1.00  0.00     0.002 C 
BRANCH  73  74
ATOM     74  C   UNL A   1      45.915  21.363  24.787  1.00  0.00     0.021 C 
BRANCH  74  75
ATOM     75  C   UNL A   1      44.404  21.174  24.663  1.00  0.00     0.116 C 
BRANCH  75  76
ATOM     76  N   UNL A   1      44.066  19.763  24.621  1.00  0.00    -0.351 N 
ATOM     77  C   UNL A   1      43.213  19.083  25.446  1.00  0.00     0.271 C 
ATOM     78  H   UNL A   1      44.503  19.233  23.916  1.00  0.00     0.163 HD
ATOM     79  O   UNL A   1      43.234  17.841  25.447  1.00  0.00    -0.267 OA
BRANCH  77  80
ATOM     80  C   UNL A   1      42.260  19.846  26.248  1.00  0.00     0.150 A 
ATOM     81  C   UNL A   1      42.247  19.948  27.665  1.00  0.00     0.056 A 
ATOM     82  N   UNL A   1      41.271  20.579  25.702  1.00  0.00    -0.161 NA
ATOM     83  C   UNL A   1      41.304  20.905  27.943  1.00  0.00     0.118 A 
ATOM     84  N   UNL A   1      40.775  21.300  26.737  1.00  0.00    -0.222 N 
BRANCH  84  85
ATOM     85  C   UNL A   1      39.845  22.356  26.545  1.00  0.00     0.158 A 
ATOM     86  C   UNL A   1      38.609  22.069  26.007  1.00  0.00     0.078 A 
ATOM     87  N   UNL A   1      40.225  23.601  26.909  1.00  0.00    -0.209 NA
ATOM     88  C   UNL A   1      37.739  23.134  25.898  1.00  0.00     0.077 A 
ATOM     89  C   UNL A   1      39.341  24.581  26.676  1.00  0.00     0.165 A 
ATOM     90  N   UNL A   1      38.104  24.401  26.184  1.00  0.00    -0.228 NA
BRANCH  88  91
ATOM     91  C   UNL A   1      36.332  22.957  25.530  1.00  0.00     0.003 A 
ATOM     92  C   UNL A   1      35.448  24.046  25.523  1.00  0.00     0.030 A 
ATOM     93  C   UNL A   1      35.839  21.712  25.127  1.00  0.00     0.030 A 
ATOM     94  C   UNL A   1      34.136  23.843  25.129  1.00  0.00     0.111 A 
ATOM     95  C   UNL A   1      34.507  21.607  24.761  1.00  0.00     0.111 A 
ATOM     96  N   UNL A   1      33.642  22.644  24.755  1.00  0.00    -0.265 NA
ENDBRANCH  88  91
BRANCH  89  97
ATOM     97  C   UNL A   1      39.802  25.946  26.871  1.00  0.00     0.055 A 
ATOM     98  C   UNL A   1      39.190  26.787  27.821  1.00  0.00     0.015 A 
ATOM     99  C   UNL A   1      40.859  26.466  26.122  1.00  0.00     0.134 A 
ATOM    100  C   UNL A   1      39.637  28.097  28.016  1.00  0.00     0.001 A 
ATOM    101  C   UNL A   1      41.304  27.776  26.302  1.00  0.00     0.040 A 
ATOM    102  F   UNL A   1      41.460  25.717  25.184  1.00  0.00    -0.206 F 
ATOM    103  C   UNL A   1      40.694  28.592  27.254  1.00  0.00     0.003 A 
ENDBRANCH  89  97
ENDBRANCH  84  85
ENDBRANCH  77  80
ENDBRANCH  75  76
ENDBRANCH  74  75
ENDBRANCH  73  74
ENDBRANCH   1  73
TORSDOF 19
ENDMDL
MODEL 3
REMARK VINA RESULT:     -10.3      1.655      3.294
REMARK SMILES O=C(NCCCCCCNC(=O)c1ccn(-c2cc(-c3ccncc3)nc(-c3ccccc3F)n2)n1)c1ccc(-c2c3nc(c(-c4cccc(S(=O)(=O)[O-])c4F)c4ccc([nH]4)c(-c4cccc(S(=O)(=O)[O-])c4F)c4nc(c(-c5cccc(S(=O)(=O)[O-])c5F)c5ccc2[nH]5)C=C4)C=C3)cc1
REMARK SMILES IDX 6 1 5 2 4 3 3 4 1 5 2 6 37 8 38 9 99 10 39 11 98 12 40 13
REMARK SMILES IDX 41 14 42 15 92 16 43 17 97 18 91 19 93 20 44 21 96 22 90 23
REMARK SMILES IDX 89 24 45 26 77 27 57 28 76 29 58 30 61 31 75 32 94 33 59 34
REMARK SMILES IDX 60 35 74 37 95 38 62 39 46 40 47 41 55 42 48 43 50 44 56 45
REMARK SMILES IDX 49 46 51 47 52 48 53 49 54 50 78 51 79 52 87 53 80 54 82 55
REMARK SMILES IDX 88 56 81 57 83 58 84 59 85 60 86 61 63 62 64 63 72 64 65 65
REMARK SMILES IDX 67 66 73 67 66 68 68 69 69 70 70 71 71 72 7 73 8 74 9 75
REMARK SMILES IDX 10 76 11 77 12 79 13 80 14 81 36 82 15 83 16 84 17 85 18 86
REMARK SMILES IDX 35 87 19 88 27 89 26 90 20 91 21 92 25 93 22 94 24 95 23 96
REMARK SMILES IDX 28 97 29 98 33 99 30 100 32 101 34 102 31 103
REMARK H PARENT 3 7 93 25 61 36 10 78
REMARK Flexibility Score: inf
ROOT
ATOM      1  C   UNL A   1      44.722  24.552  27.235  1.00  0.00     0.002 C 
ENDROOT
BRANCH   1   2
ATOM      2  C   UNL A   1      45.762  25.252  26.355  1.00  0.00     0.021 C 
BRANCH   2   3
ATOM      3  C   UNL A   1      45.202  25.866  25.072  1.00  0.00     0.116 C 
BRANCH   3   4
ATOM      4  N   UNL A   1      45.952  26.995  24.569  1.00  0.00    -0.352 N 
ATOM      5  O   UNL A   1      47.021  28.917  24.394  1.00  0.00    -0.269 OA
ATOM      6  C   UNL A   1      46.181  28.265  25.020  1.00  0.00     0.251 C 
ATOM      7  H   UNL A   1      46.396  26.807  23.710  1.00  0.00     0.163 HD
BRANCH   6   8
ATOM      8  C   UNL A   1      45.439  28.913  26.134  1.00  0.00     0.039 A 
ATOM      9  C   UNL A   1      44.057  28.869  26.323  1.00  0.00     0.014 A 
ATOM     10  C   UNL A   1      46.220  29.651  27.042  1.00  0.00     0.014 A 
ATOM     11  C   UNL A   1      43.456  29.623  27.323  1.00  0.00     0.010 A 
ATOM     12  C   UNL A   1      45.629  30.391  28.058  1.00  0.00     0.010 A 
ATOM     13  C   UNL A   1      44.242  30.400  28.173  1.00  0.00    -0.014 A 
BRANCH  13  14
ATOM     14  C   UNL A   1      43.589  31.036  29.313  1.00  0.00     0.031 A 
ATOM     15  C   UNL A   1      43.378  30.114  30.467  1.00  0.00     0.074 A 
ATOM     16  C   UNL A   1      43.355  32.362  29.380  1.00  0.00     0.049 A 
ATOM     17  N   UNL A   1      42.267  29.790  31.048  1.00  0.00    -0.248 NA
ATOM     18  C   UNL A   1      44.548  29.355  30.948  1.00  0.00     0.031 C 
ATOM     19  C   UNL A   1      43.801  33.381  28.426  1.00  0.00     0.029 A 
ATOM     20  N   UNL A   1      42.809  33.103  30.391  1.00  0.00    -0.354 N 
ATOM     21  C   UNL A   1      42.640  28.978  32.119  1.00  0.00     0.074 A 
ATOM     22  C   UNL A   1      44.006  28.590  31.894  1.00  0.00     0.031 C 
ATOM     23  C   UNL A   1      43.746  34.594  29.017  1.00  0.00     0.029 A 
ATOM     24  C   UNL A   1      43.158  34.453  30.337  1.00  0.00     0.049 A 
ATOM     25  H   UNL A   1      42.227  32.721  31.088  1.00  0.00     0.167 HD
ATOM     26  C   UNL A   1      41.904  28.913  33.261  1.00  0.00     0.034 A 
ATOM     27  C   UNL A   1      43.070  35.358  31.345  1.00  0.00     0.034 A 
ATOM     28  C   UNL A   1      40.554  29.355  33.066  1.00  0.00     0.049 A 
ATOM     29  C   UNL A   1      42.135  34.812  32.352  1.00  0.00     0.074 A 
ATOM     30  C   UNL A   1      39.516  28.986  32.236  1.00  0.00     0.029 A 
ATOM     31  N   UNL A   1      40.227  30.591  33.563  1.00  0.00    -0.354 N 
ATOM     32  N   UNL A   1      40.857  34.657  32.157  1.00  0.00    -0.248 NA
ATOM     33  C   UNL A   1      42.695  34.075  33.471  1.00  0.00     0.031 C 
ATOM     34  C   UNL A   1      38.862  30.207  31.907  1.00  0.00     0.029 A 
ATOM     35  C   UNL A   1      39.500  31.237  32.602  1.00  0.00     0.049 A 
ATOM     36  H   UNL A   1      40.471  30.946  34.448  1.00  0.00     0.167 HD
ATOM     37  C   UNL A   1      40.553  33.478  32.819  1.00  0.00     0.074 A 
ATOM     38  C   UNL A   1      41.689  33.231  33.702  1.00  0.00     0.031 C 
ATOM     39  C   UNL A   1      39.553  32.663  32.376  1.00  0.00     0.034 A 
BRANCH  26  40
ATOM     40  C   UNL A   1      42.520  28.805  34.634  1.00  0.00     0.023 A 
ATOM     41  C   UNL A   1      43.407  29.820  35.052  1.00  0.00     0.012 A 
ATOM     42  C   UNL A   1      42.470  27.633  35.424  1.00  0.00     0.148 A 
ATOM     43  C   UNL A   1      44.204  29.668  36.192  1.00  0.00     0.002 A 
ATOM     44  C   UNL A   1      43.180  27.533  36.611  1.00  0.00     0.091 A 
ATOM     45  F   UNL A   1      41.849  26.543  34.960  1.00  0.00    -0.205 F 
ATOM     46  C   UNL A   1      44.074  28.535  36.986  1.00  0.00     0.022 A 
BRANCH  44  47
ATOM     47  S   UNL A   1      42.961  26.129  37.709  1.00  0.00     0.127 S 
ATOM     48  O   UNL A   1      41.511  26.102  37.870  1.00  0.00    -0.237 OA
ATOM     49  O   UNL A   1      43.519  25.037  36.909  1.00  0.00    -0.237 OA
ATOM     50  O   UNL A   1      43.740  26.448  38.900  1.00  0.00    -0.744 OA
ENDBRANCH  44  47
ENDBRANCH  26  40
BRANCH  27  51
ATOM     51  C   UNL A   1      43.946  36.513  31.673  1.00  0.00     0.023 A 
ATOM     52  C   UNL A   1      44.951  36.360  32.654  1.00  0.00     0.012 A 
ATOM     53  C   UNL A   1      44.012  37.644  30.831  1.00  0.00     0.148 A 
ATOM     54  C   UNL A   1      46.010  37.271  32.756  1.00  0.00     0.002 A 
ATOM     55  C   UNL A   1      45.063  38.551  30.941  1.00  0.00     0.091 A 
ATOM     56  F   UNL A   1      43.104  37.782  29.858  1.00  0.00    -0.205 F 
ATOM     57  C   UNL A   1      46.072  38.359  31.892  1.00  0.00     0.022 A 
BRANCH  55  58
ATOM     58  S   UNL A   1      45.227  39.962  29.839  1.00  0.00     0.127 S 
ATOM     59  O   UNL A   1      46.112  40.842  30.603  1.00  0.00    -0.237 OA
ATOM     60  O   UNL A   1      45.837  39.354  28.660  1.00  0.00    -0.237 OA
ATOM     61  O   UNL A   1      43.878  40.484  29.658  1.00  0.00    -0.744 OA
ENDBRANCH  55  58
ENDBRANCH  27  51
BRANCH  39  62
ATOM     62  C   UNL A   1      38.579  33.201  31.362  1.00  0.00     0.023 A 
ATOM     63  C   UNL A   1      38.776  33.070  29.972  1.00  0.00     0.012 A 
ATOM     64  C   UNL A   1      37.333  33.645  31.837  1.00  0.00     0.148 A 
ATOM     65  C   UNL A   1      37.748  33.379  29.076  1.00  0.00     0.002 A 
ATOM     66  C   UNL A   1      36.297  33.891  30.947  1.00  0.00     0.091 A 
ATOM     67  F   UNL A   1      37.170  33.773  33.163  1.00  0.00    -0.205 F 
ATOM     68  C   UNL A   1      36.502  33.770  29.564  1.00  0.00     0.022 A 
BRANCH  66  69
ATOM     69  S   UNL A   1      34.632  34.230  31.525  1.00  0.00     0.127 S 
ATOM     70  O   UNL A   1      34.185  32.909  31.961  1.00  0.00    -0.237 OA
ATOM     71  O   UNL A   1      34.867  35.186  32.609  1.00  0.00    -0.237 OA
ATOM     72  O   UNL A   1      33.917  34.791  30.385  1.00  0.00    -0.744 OA
ENDBRANCH  66  69
ENDBRANCH  39  62
ENDBRANCH  13  14
ENDBRANCH   6   8
ENDBRANCH   3   4
ENDBRANCH   2   3
ENDBRANCH   1   2
BRANCH   1  73
ATOM     73  C   UNL A   1      43.856  23.509  26.523  1.00  0.00     0.002 C 
BRANCH  73  74
ATOM     74  C   UNL A   1      44.606  22.602  25.539  1.00  0.00     0.021 C 
BRANCH  74  75
ATOM     75  C   UNL A   1      45.182  21.334  26.165  1.00  0.00     0.116 C 
BRANCH  75  76
ATOM     76  N   UNL A   1      45.010  20.200  25.275  1.00  0.00    -0.351 N 
ATOM     77  C   UNL A   1      43.979  19.301  25.256  1.00  0.00     0.271 C 
ATOM     78  H   UNL A   1      45.719  20.062  24.607  1.00  0.00     0.163 HD
ATOM     79  O   UNL A   1      44.109  18.246  24.616  1.00  0.00    -0.267 OA
BRANCH  77  80
ATOM     80  C   UNL A   1      42.735  19.650  25.939  1.00  0.00     0.150 A 
ATOM     81  C   UNL A   1      42.266  19.099  27.162  1.00  0.00     0.056 A 
ATOM     82  N   UNL A   1      41.885  20.583  25.471  1.00  0.00    -0.161 NA
ATOM     83  C   UNL A   1      41.172  19.857  27.495  1.00  0.00     0.118 A 
ATOM     84  N   UNL A   1      41.004  20.773  26.483  1.00  0.00    -0.222 N 
BRANCH  84  85
ATOM     85  C   UNL A   1      40.058  21.833  26.472  1.00  0.00     0.158 A 
ATOM     86  C   UNL A   1      40.369  23.014  27.111  1.00  0.00     0.078 A 
ATOM     87  N   UNL A   1      38.891  21.626  25.823  1.00  0.00    -0.209 NA
ATOM     88  C   UNL A   1      39.426  24.016  27.014  1.00  0.00     0.077 A 
ATOM     89  C   UNL A   1      38.004  22.629  25.866  1.00  0.00     0.165 A 
ATOM     90  N   UNL A   1      38.222  23.825  26.436  1.00  0.00    -0.228 NA
BRANCH  88  91
ATOM     91  C   UNL A   1      39.690  25.383  27.470  1.00  0.00     0.003 A 
ATOM     92  C   UNL A   1      39.237  25.824  28.721  1.00  0.00     0.030 A 
ATOM     93  C   UNL A   1      40.442  26.272  26.696  1.00  0.00     0.030 A 
ATOM     94  C   UNL A   1      39.544  27.111  29.131  1.00  0.00     0.111 A 
ATOM     95  C   UNL A   1      40.689  27.544  27.188  1.00  0.00     0.111 A 
ATOM     96  N   UNL A   1      40.253  27.985  28.389  1.00  0.00    -0.265 NA
ENDBRANCH  88  91
BRANCH  89  97
ATOM     97  C   UNL A   1      36.671  22.354  25.351  1.00  0.00     0.055 A 
ATOM     98  C   UNL A   1      35.692  21.751  26.164  1.00  0.00     0.015 A 
ATOM     99  C   UNL A   1      36.324  22.674  24.037  1.00  0.00     0.134 A 
ATOM    100  C   UNL A   1      34.409  21.492  25.673  1.00  0.00     0.001 A 
ATOM    101  C   UNL A   1      35.049  22.410  23.536  1.00  0.00     0.040 A 
ATOM    102  F   UNL A   1      37.227  23.226  23.211  1.00  0.00    -0.206 F 
ATOM    103  C   UNL A   1      34.088  21.821  24.357  1.00  0.00     0.003 A 
ENDBRANCH  89  97
ENDBRANCH  84  85
ENDBRANCH  77  80
ENDBRANCH  75  76
ENDBRANCH  74  75
ENDBRANCH  73  74
ENDBRANCH   1  73
TORSDOF 19
ENDMDL
