MODEL 1
REMARK VINA RESULT:     -12.3      0.000      0.000
REMARK SMILES CCOC(=O)C1=NN(c2ccc([N+](=O)[O-])cc2C(F)(F)F)[C@@](C)(C(=O)NCCCCCCNC(=O)c2ccc(-c3c4nc(c(-c5cccc(S(=O)(=O)[O-])c5F)c5ccc([nH]5)c(-c5cccc(S(=O)(=O)[O-])c5F)c5nc(c(-c6cccc(S(=O)(=O)[O-])c6F)c6ccc3[nH]6)C=C5)C=C4)cc2)C1
REMARK SMILES IDX 29 1 28 2 27 3 26 4 24 5 25 6 22 8 6 9 7 10 99 11 8 12 23 13
REMARK SMILES IDX 4 14 5 15 3 16 2 17 1 18 9 19 10 20 17 21 11 22 16 23 12 24
REMARK SMILES IDX 18 25 19 26 20 27 21 28 13 29 14 30 15 31 30 32 31 33 32 34
REMARK SMILES IDX 33 35 34 36 35 38 36 39 37 40 98 41 38 42 97 43 39 44 40 45
REMARK SMILES IDX 41 46 91 47 42 48 96 49 90 50 92 51 43 52 95 53 89 54 88 55
REMARK SMILES IDX 44 57 76 58 56 59 75 60 57 61 60 62 74 63 93 64 58 65 59 66
REMARK SMILES IDX 73 68 94 69 61 70 45 71 46 72 54 73 47 74 49 75 55 76 48 77
REMARK SMILES IDX 50 78 51 79 52 80 53 81 77 82 78 83 86 84 79 85 81 86 87 87
REMARK SMILES IDX 80 88 82 89 83 90 84 91 85 92 62 93 63 94 71 95 64 96 66 97
REMARK SMILES IDX 72 98 65 99 67 100 68 101 69 102 70 103
REMARK H PARENT 26 7 33 37 92 56 60 67
REMARK Flexibility Score: inf
ROOT
ATOM      1  C   UNL A   1      32.348  29.880  27.217  1.00  0.00     0.002 C 
ENDROOT
BRANCH   1   2
ATOM      2  C   UNL A   1      31.858  28.497  27.656  1.00  0.00     0.021 C 
BRANCH   2   3
ATOM      3  C   UNL A   1      31.306  27.607  26.540  1.00  0.00     0.116 C 
BRANCH   3   4
ATOM      4  N   UNL A   1      31.169  26.225  26.964  1.00  0.00    -0.354 N 
ATOM      5  C   UNL A   1      31.711  25.062  26.508  1.00  0.00     0.248 C 
ATOM      6  O   UNL A   1      31.308  24.042  27.087  1.00  0.00    -0.272 OA
ATOM      7  H   UNL A   1      30.565  26.105  27.733  1.00  0.00     0.163 HD
BRANCH   5   8
ATOM      8  C   UNL A   1      32.736  24.965  25.336  1.00  0.00     0.144 C 
ATOM      9  C   UNL A   1      32.332  22.988  24.186  1.00  0.00     0.149 C 
ATOM     10  N   UNL A   1      31.728  23.890  23.475  1.00  0.00    -0.169 NA
ATOM     11  C   UNL A   1      33.233  23.494  25.264  1.00  0.00     0.106 C 
ATOM     12  N   UNL A   1      32.088  25.102  24.002  1.00  0.00    -0.249 N 
ATOM     13  C   UNL A   1      33.966  25.856  25.498  1.00  0.00     0.048 C 
BRANCH   9  14
ATOM     14  C   UNL A   1      32.210  21.502  23.952  1.00  0.00     0.354 C 
ATOM     15  O   UNL A   1      32.156  21.034  22.829  1.00  0.00    -0.245 OA
BRANCH  14  16
ATOM     16  O   UNL A   1      32.137  20.840  25.123  1.00  0.00    -0.461 OA
BRANCH  16  17
ATOM     17  C   UNL A   1      33.079  19.777  25.301  1.00  0.00     0.230 C 
ATOM     18  C   UNL A   1      32.613  18.517  24.592  1.00  0.00     0.049 C 
ENDBRANCH  16  17
ENDBRANCH  14  16
ENDBRANCH   9  14
BRANCH  12  19
ATOM     19  C   UNL A   1      31.351  26.198  23.573  1.00  0.00     0.073 A 
ATOM     20  C   UNL A   1      29.956  26.218  23.774  1.00  0.00     0.036 A 
ATOM     21  C   UNL A   1      31.951  27.270  22.882  1.00  0.00     0.088 A 
ATOM     22  C   UNL A   1      29.173  27.305  23.382  1.00  0.00     0.088 A 
ATOM     23  C   UNL A   1      31.161  28.378  22.500  1.00  0.00     0.101 A 
ATOM     24  C   UNL A   1      29.787  28.391  22.760  1.00  0.00     0.270 A 
BRANCH  21  25
ATOM     25  C   UNL A   1      33.426  27.291  22.552  1.00  0.00     0.418 C 
ATOM     26  F   UNL A   1      33.894  26.068  22.166  1.00  0.00    -0.166 F 
ATOM     27  F   UNL A   1      33.695  28.127  21.509  1.00  0.00    -0.166 F 
ATOM     28  F   UNL A   1      34.249  27.683  23.562  1.00  0.00    -0.166 F 
ENDBRANCH  21  25
BRANCH  24  29
ATOM     29  N   UNL A   1      28.980  29.553  22.379  1.00  0.00     0.062 N 
ATOM     30  O   UNL A   1      28.332  30.111  23.275  1.00  0.00    -0.258 OA
ATOM     31  O   UNL A   1      29.008  29.901  21.192  1.00  0.00    -0.258 OA
ENDBRANCH  24  29
ENDBRANCH  12  19
ENDBRANCH   5   8
ENDBRANCH   3   4
ENDBRANCH   2   3
ENDBRANCH   1   2
BRANCH   1  32
ATOM     32  C   UNL A   1      31.358  30.706  26.393  1.00  0.00     0.002 C 
BRANCH  32  33
ATOM     33  C   UNL A   1      31.361  32.220  26.645  1.00  0.00     0.021 C 
BRANCH  33  34
ATOM     34  C   UNL A   1      32.721  32.856  26.940  1.00  0.00     0.116 C 
BRANCH  34  35
ATOM     35  N   UNL A   1      32.631  34.089  27.699  1.00  0.00    -0.352 N 
ATOM     36  C   UNL A   1      33.416  34.515  28.744  1.00  0.00     0.251 C 
ATOM     37  H   UNL A   1      31.909  34.704  27.430  1.00  0.00     0.163 HD
ATOM     38  O   UNL A   1      33.140  35.560  29.326  1.00  0.00    -0.269 OA
BRANCH  36  39
ATOM     39  C   UNL A   1      34.560  33.692  29.205  1.00  0.00     0.039 A 
ATOM     40  C   UNL A   1      35.847  34.073  28.810  1.00  0.00     0.014 A 
ATOM     41  C   UNL A   1      34.379  32.554  29.997  1.00  0.00     0.014 A 
ATOM     42  C   UNL A   1      36.957  33.357  29.265  1.00  0.00     0.010 A 
ATOM     43  C   UNL A   1      35.491  31.850  30.470  1.00  0.00     0.010 A 
ATOM     44  C   UNL A   1      36.786  32.256  30.117  1.00  0.00    -0.014 A 
BRANCH  44  45
ATOM     45  C   UNL A   1      37.966  31.571  30.692  1.00  0.00     0.031 A 
ATOM     46  C   UNL A   1      38.456  31.899  32.071  1.00  0.00     0.074 A 
ATOM     47  C   UNL A   1      38.615  30.655  29.949  1.00  0.00     0.049 A 
ATOM     48  N   UNL A   1      39.397  31.315  32.767  1.00  0.00    -0.248 NA
ATOM     49  C   UNL A   1      37.803  33.022  32.759  1.00  0.00     0.031 C 
ATOM     50  C   UNL A   1      38.260  30.277  28.579  1.00  0.00     0.029 A 
ATOM     51  N   UNL A   1      39.710  29.881  30.237  1.00  0.00    -0.354 N 
ATOM     52  C   UNL A   1      39.449  31.991  33.978  1.00  0.00     0.074 A 
ATOM     53  C   UNL A   1      38.456  33.044  33.914  1.00  0.00     0.031 C 
ATOM     54  C   UNL A   1      39.120  29.339  28.149  1.00  0.00     0.029 A 
ATOM     55  C   UNL A   1      40.083  29.052  29.208  1.00  0.00     0.049 A 
ATOM     56  H   UNL A   1      40.183  29.918  31.099  1.00  0.00     0.167 HD
ATOM     57  C   UNL A   1      40.221  31.726  35.059  1.00  0.00     0.034 A 
ATOM     58  C   UNL A   1      41.081  28.151  29.132  1.00  0.00     0.034 A 
ATOM     59  C   UNL A   1      41.159  30.636  35.142  1.00  0.00     0.049 A 
ATOM     60  C   UNL A   1      41.972  27.935  30.320  1.00  0.00     0.074 A 
ATOM     61  C   UNL A   1      41.853  30.164  36.244  1.00  0.00     0.029 A 
ATOM     62  N   UNL A   1      41.554  29.863  34.062  1.00  0.00    -0.354 N 
ATOM     63  N   UNL A   1      41.861  28.430  31.529  1.00  0.00    -0.248 NA
ATOM     64  C   UNL A   1      43.114  27.028  30.140  1.00  0.00     0.031 C 
ATOM     65  C   UNL A   1      42.669  29.102  35.828  1.00  0.00     0.029 A 
ATOM     66  C   UNL A   1      42.508  28.941  34.461  1.00  0.00     0.049 A 
ATOM     67  H   UNL A   1      41.209  29.954  33.144  1.00  0.00     0.167 HD
ATOM     68  C   UNL A   1      42.894  27.865  32.264  1.00  0.00     0.074 A 
ATOM     69  C   UNL A   1      43.631  27.001  31.362  1.00  0.00     0.031 C 
ATOM     70  C   UNL A   1      43.204  28.051  33.570  1.00  0.00     0.034 A 
BRANCH  57  71
ATOM     71  C   UNL A   1      39.988  32.568  36.281  1.00  0.00     0.023 A 
ATOM     72  C   UNL A   1      40.857  33.650  36.524  1.00  0.00     0.012 A 
ATOM     73  C   UNL A   1      38.948  32.300  37.188  1.00  0.00     0.148 A 
ATOM     74  C   UNL A   1      40.691  34.455  37.651  1.00  0.00     0.002 A 
ATOM     75  C   UNL A   1      38.799  33.096  38.320  1.00  0.00     0.091 A 
ATOM     76  F   UNL A   1      38.136  31.257  36.958  1.00  0.00    -0.205 F 
ATOM     77  C   UNL A   1      39.663  34.176  38.553  1.00  0.00     0.022 A 
BRANCH  75  78
ATOM     78  S   UNL A   1      37.521  32.697  39.519  1.00  0.00     0.127 S 
ATOM     79  O   UNL A   1      37.611  33.801  40.470  1.00  0.00    -0.237 OA
ATOM     80  O   UNL A   1      36.293  32.696  38.721  1.00  0.00    -0.237 OA
ATOM     81  O   UNL A   1      37.922  31.380  40.005  1.00  0.00    -0.744 OA
ENDBRANCH  75  78
ENDBRANCH  57  71
BRANCH  58  82
ATOM     82  C   UNL A   1      41.229  27.321  27.909  1.00  0.00     0.023 A 
ATOM     83  C   UNL A   1      41.806  27.897  26.761  1.00  0.00     0.012 A 
ATOM     84  C   UNL A   1      40.859  25.968  27.886  1.00  0.00     0.148 A 
ATOM     85  C   UNL A   1      42.004  27.135  25.609  1.00  0.00     0.002 A 
ATOM     86  C   UNL A   1      41.085  25.207  26.743  1.00  0.00     0.091 A 
ATOM     87  F   UNL A   1      40.316  25.424  28.987  1.00  0.00    -0.205 F 
ATOM     88  C   UNL A   1      41.649  25.787  25.598  1.00  0.00     0.022 A 
BRANCH  86  89
ATOM     89  S   UNL A   1      40.698  23.455  26.765  1.00  0.00     0.127 S 
ATOM     90  O   UNL A   1      39.272  23.433  26.458  1.00  0.00    -0.237 OA
ATOM     91  O   UNL A   1      41.552  22.906  25.712  1.00  0.00    -0.237 OA
ATOM     92  O   UNL A   1      41.084  23.061  28.117  1.00  0.00    -0.744 OA
ENDBRANCH  86  89
ENDBRANCH  58  82
BRANCH  70  93
ATOM     93  C   UNL A   1      44.390  27.303  34.106  1.00  0.00     0.023 A 
ATOM     94  C   UNL A   1      45.667  27.880  33.980  1.00  0.00     0.012 A 
ATOM     95  C   UNL A   1      44.249  26.064  34.756  1.00  0.00     0.148 A 
ATOM     96  C   UNL A   1      46.791  27.225  34.487  1.00  0.00     0.002 A 
ATOM     97  C   UNL A   1      45.372  25.420  35.266  1.00  0.00     0.091 A 
ATOM     98  F   UNL A   1      43.025  25.525  34.874  1.00  0.00    -0.205 F 
ATOM     99  C   UNL A   1      46.645  25.995  35.131  1.00  0.00     0.022 A 
BRANCH  97 100
ATOM    100  S   UNL A   1      45.182  23.840  36.101  1.00  0.00     0.127 S 
ATOM    101  O   UNL A   1      44.468  24.197  37.323  1.00  0.00    -0.237 OA
ATOM    102  O   UNL A   1      44.389  23.048  35.158  1.00  0.00    -0.237 OA
ATOM    103  O   UNL A   1      46.558  23.382  36.258  1.00  0.00    -0.744 OA
ENDBRANCH  97 100
ENDBRANCH  70  93
ENDBRANCH  44  45
ENDBRANCH  36  39
ENDBRANCH  34  35
ENDBRANCH  33  34
ENDBRANCH  32  33
ENDBRANCH   1  32
TORSDOF 22
ENDMDL
MODEL 2
REMARK VINA RESULT:     -12.1      5.664     10.988
REMARK SMILES CCOC(=O)C1=NN(c2ccc([N+](=O)[O-])cc2C(F)(F)F)[C@@](C)(C(=O)NCCCCCCNC(=O)c2ccc(-c3c4nc(c(-c5cccc(S(=O)(=O)[O-])c5F)c5ccc([nH]5)c(-c5cccc(S(=O)(=O)[O-])c5F)c5nc(c(-c6cccc(S(=O)(=O)[O-])c6F)c6ccc3[nH]6)C=C5)C=C4)cc2)C1
REMARK SMILES IDX 29 1 28 2 27 3 26 4 24 5 25 6 22 8 6 9 7 10 99 11 8 12 23 13
REMARK SMILES IDX 4 14 5 15 3 16 2 17 1 18 9 19 10 20 17 21 11 22 16 23 12 24
REMARK SMILES IDX 18 25 19 26 20 27 21 28 13 29 14 30 15 31 30 32 31 33 32 34
REMARK SMILES IDX 33 35 34 36 35 38 36 39 37 40 98 41 38 42 97 43 39 44 40 45
REMARK SMILES IDX 41 46 91 47 42 48 96 49 90 50 92 51 43 52 95 53 89 54 88 55
REMARK SMILES IDX 44 57 76 58 56 59 75 60 57 61 60 62 74 63 93 64 58 65 59 66
REMARK SMILES IDX 73 68 94 69 61 70 45 71 46 72 54 73 47 74 49 75 55 76 48 77
REMARK SMILES IDX 50 78 51 79 52 80 53 81 77 82 78 83 86 84 79 85 81 86 87 87
REMARK SMILES IDX 80 88 82 89 83 90 84 91 85 92 62 93 63 94 71 95 64 96 66 97
REMARK SMILES IDX 72 98 65 99 67 100 68 101 69 102 70 103
REMARK H PARENT 26 7 33 37 92 56 60 67
REMARK Flexibility Score: inf
ROOT
ATOM      1  C   UNL A   1      37.292  22.308  24.692  1.00  0.00     0.002 C 
ENDROOT
BRANCH   1   2
ATOM      2  C   UNL A   1      36.631  23.213  23.649  1.00  0.00     0.021 C 
BRANCH   2   3
ATOM      3  C   UNL A   1      35.238  22.779  23.185  1.00  0.00     0.116 C 
BRANCH   3   4
ATOM      4  N   UNL A   1      34.580  23.810  22.403  1.00  0.00    -0.354 N 
ATOM      5  C   UNL A   1      33.693  24.791  22.728  1.00  0.00     0.248 C 
ATOM      6  O   UNL A   1      33.287  25.460  21.767  1.00  0.00    -0.272 OA
ATOM      7  H   UNL A   1      34.821  23.797  21.448  1.00  0.00     0.163 HD
BRANCH   5   8
ATOM      8  C   UNL A   1      33.177  25.070  24.175  1.00  0.00     0.144 C 
ATOM      9  C   UNL A   1      30.961  25.751  24.030  1.00  0.00     0.149 C 
ATOM     10  N   UNL A   1      30.881  24.492  24.333  1.00  0.00    -0.169 NA
ATOM     11  C   UNL A   1      32.319  26.365  24.127  1.00  0.00     0.106 C 
ATOM     12  N   UNL A   1      32.156  24.080  24.615  1.00  0.00    -0.249 N 
ATOM     13  C   UNL A   1      34.281  25.290  25.206  1.00  0.00     0.048 C 
BRANCH   9  14
ATOM     14  C   UNL A   1      29.780  26.608  23.647  1.00  0.00     0.354 C 
ATOM     15  O   UNL A   1      28.701  26.493  24.197  1.00  0.00    -0.245 OA
BRANCH  14  16
ATOM     16  O   UNL A   1      30.102  27.434  22.632  1.00  0.00    -0.461 OA
BRANCH  16  17
ATOM     17  C   UNL A   1      29.483  28.726  22.656  1.00  0.00     0.230 C 
ATOM     18  C   UNL A   1      30.086  29.593  23.747  1.00  0.00     0.049 C 
ENDBRANCH  16  17
ENDBRANCH  14  16
ENDBRANCH   9  14
BRANCH  12  19
ATOM     19  C   UNL A   1      32.349  22.707  24.702  1.00  0.00     0.073 A 
ATOM     20  C   UNL A   1      32.091  21.899  23.577  1.00  0.00     0.036 A 
ATOM     21  C   UNL A   1      32.740  22.089  25.906  1.00  0.00     0.088 A 
ATOM     22  C   UNL A   1      32.291  20.517  23.605  1.00  0.00     0.088 A 
ATOM     23  C   UNL A   1      32.959  20.692  25.929  1.00  0.00     0.101 A 
ATOM     24  C   UNL A   1      32.742  19.923  24.782  1.00  0.00     0.270 A 
BRANCH  21  25
ATOM     25  C   UNL A   1      32.959  22.872  27.179  1.00  0.00     0.418 C 
ATOM     26  F   UNL A   1      32.085  23.912  27.313  1.00  0.00    -0.166 F 
ATOM     27  F   UNL A   1      32.768  22.096  28.285  1.00  0.00    -0.166 F 
ATOM     28  F   UNL A   1      34.194  23.425  27.325  1.00  0.00    -0.166 F 
ENDBRANCH  21  25
BRANCH  24  29
ATOM     29  N   UNL A   1      32.991  18.479  24.810  1.00  0.00     0.062 N 
ATOM     30  O   UNL A   1      34.158  18.103  24.633  1.00  0.00    -0.258 OA
ATOM     31  O   UNL A   1      32.023  17.738  25.016  1.00  0.00    -0.258 OA
ENDBRANCH  24  29
ENDBRANCH  12  19
ENDBRANCH   5   8
ENDBRANCH   3   4
ENDBRANCH   2   3
ENDBRANCH   1   2
BRANCH   1  32
ATOM     32  C   UNL A   1      36.766  20.872  24.755  1.00  0.00     0.002 C 
BRANCH  32  33
ATOM     33  C   UNL A   1      37.809  19.777  25.020  1.00  0.00     0.021 C 
BRANCH  33  34
ATOM     34  C   UNL A   1      39.028  20.187  25.849  1.00  0.00     0.116 C 
BRANCH  34  35
ATOM     35  N   UNL A   1      40.093  19.202  25.837  1.00  0.00    -0.352 N 
ATOM     36  C   UNL A   1      41.433  19.382  26.089  1.00  0.00     0.251 C 
ATOM     37  H   UNL A   1      39.820  18.281  25.618  1.00  0.00     0.163 HD
ATOM     38  O   UNL A   1      42.210  18.441  25.951  1.00  0.00    -0.269 OA
BRANCH  36  39
ATOM     39  C   UNL A   1      41.950  20.717  26.473  1.00  0.00     0.039 A 
ATOM     40  C   UNL A   1      42.223  21.636  25.454  1.00  0.00     0.014 A 
ATOM     41  C   UNL A   1      42.184  21.062  27.808  1.00  0.00     0.014 A 
ATOM     42  C   UNL A   1      42.662  22.923  25.775  1.00  0.00     0.010 A 
ATOM     43  C   UNL A   1      42.602  22.357  28.130  1.00  0.00     0.010 A 
ATOM     44  C   UNL A   1      42.831  23.298  27.116  1.00  0.00    -0.014 A 
BRANCH  44  45
ATOM     45  C   UNL A   1      43.182  24.696  27.460  1.00  0.00     0.031 A 
ATOM     46  C   UNL A   1      44.574  25.214  27.264  1.00  0.00     0.074 A 
ATOM     47  C   UNL A   1      42.231  25.498  27.973  1.00  0.00     0.049 A 
ATOM     48  N   UNL A   1      45.020  26.437  27.403  1.00  0.00    -0.248 NA
ATOM     49  C   UNL A   1      45.597  24.241  26.856  1.00  0.00     0.031 C 
ATOM     50  C   UNL A   1      40.849  25.098  28.248  1.00  0.00     0.029 A 
ATOM     51  N   UNL A   1      42.283  26.811  28.362  1.00  0.00    -0.354 N 
ATOM     52  C   UNL A   1      46.372  26.385  27.094  1.00  0.00     0.074 A 
ATOM     53  C   UNL A   1      46.679  25.005  26.780  1.00  0.00     0.031 C 
ATOM     54  C   UNL A   1      40.184  26.148  28.757  1.00  0.00     0.029 A 
ATOM     55  C   UNL A   1      41.089  27.290  28.845  1.00  0.00     0.049 A 
ATOM     56  H   UNL A   1      43.099  27.359  28.303  1.00  0.00     0.167 HD
ATOM     57  C   UNL A   1      47.263  27.404  27.033  1.00  0.00     0.034 A 
ATOM     58  C   UNL A   1      40.758  28.516  29.294  1.00  0.00     0.034 A 
ATOM     59  C   UNL A   1      46.937  28.785  27.281  1.00  0.00     0.049 A 
ATOM     60  C   UNL A   1      41.790  29.606  29.289  1.00  0.00     0.074 A 
ATOM     61  C   UNL A   1      47.709  29.916  27.068  1.00  0.00     0.029 A 
ATOM     62  N   UNL A   1      45.740  29.219  27.829  1.00  0.00    -0.354 N 
ATOM     63  N   UNL A   1      42.999  29.589  28.786  1.00  0.00    -0.248 NA
ATOM     64  C   UNL A   1      41.406  30.887  29.900  1.00  0.00     0.031 C 
ATOM     65  C   UNL A   1      46.975  31.035  27.488  1.00  0.00     0.029 A 
ATOM     66  C   UNL A   1      45.764  30.594  27.995  1.00  0.00     0.049 A 
ATOM     67  H   UNL A   1      44.982  28.636  28.065  1.00  0.00     0.167 HD
ATOM     68  C   UNL A   1      43.508  30.865  28.982  1.00  0.00     0.074 A 
ATOM     69  C   UNL A   1      42.482  31.628  29.665  1.00  0.00     0.031 C 
ATOM     70  C   UNL A   1      44.721  31.356  28.630  1.00  0.00     0.034 A 
BRANCH  57  71
ATOM     71  C   UNL A   1      48.649  27.066  26.566  1.00  0.00     0.023 A 
ATOM     72  C   UNL A   1      49.551  26.510  27.494  1.00  0.00     0.012 A 
ATOM     73  C   UNL A   1      49.072  27.300  25.246  1.00  0.00     0.148 A 
ATOM     74  C   UNL A   1      50.854  26.190  27.113  1.00  0.00     0.002 A 
ATOM     75  C   UNL A   1      50.380  26.994  24.877  1.00  0.00     0.091 A 
ATOM     76  F   UNL A   1      48.212  27.845  24.372  1.00  0.00    -0.205 F 
ATOM     77  C   UNL A   1      51.271  26.435  25.804  1.00  0.00     0.022 A 
BRANCH  75  78
ATOM     78  S   UNL A   1      50.940  27.374  23.212  1.00  0.00     0.127 S 
ATOM     79  O   UNL A   1      50.958  28.834  23.201  1.00  0.00    -0.237 OA
ATOM     80  O   UNL A   1      52.268  26.762  23.151  1.00  0.00    -0.237 OA
ATOM     81  O   UNL A   1      49.940  26.726  22.370  1.00  0.00    -0.744 OA
ENDBRANCH  75  78
ENDBRANCH  57  71
BRANCH  58  82
ATOM     82  C   UNL A   1      39.358  28.794  29.702  1.00  0.00     0.023 A 
ATOM     83  C   UNL A   1      38.938  28.424  30.993  1.00  0.00     0.012 A 
ATOM     84  C   UNL A   1      38.461  29.463  28.854  1.00  0.00     0.148 A 
ATOM     85  C   UNL A   1      37.643  28.712  31.429  1.00  0.00     0.002 A 
ATOM     86  C   UNL A   1      37.181  29.771  29.304  1.00  0.00     0.091 A 
ATOM     87  F   UNL A   1      38.871  29.819  27.627  1.00  0.00    -0.205 F 
ATOM     88  C   UNL A   1      36.764  29.391  30.587  1.00  0.00     0.022 A 
BRANCH  86  89
ATOM     89  S   UNL A   1      36.083  30.714  28.244  1.00  0.00     0.127 S 
ATOM     90  O   UNL A   1      35.852  29.807  27.125  1.00  0.00    -0.237 OA
ATOM     91  O   UNL A   1      34.911  30.943  29.089  1.00  0.00    -0.237 OA
ATOM     92  O   UNL A   1      36.864  31.916  27.964  1.00  0.00    -0.744 OA
ENDBRANCH  86  89
ENDBRANCH  58  82
BRANCH  70  93
ATOM     93  C   UNL A   1      45.006  32.789  28.973  1.00  0.00     0.023 A 
ATOM     94  C   UNL A   1      45.515  33.092  30.250  1.00  0.00     0.012 A 
ATOM     95  C   UNL A   1      44.808  33.824  28.041  1.00  0.00     0.148 A 
ATOM     96  C   UNL A   1      45.813  34.411  30.597  1.00  0.00     0.002 A 
ATOM     97  C   UNL A   1      45.115  35.136  28.392  1.00  0.00     0.091 A 
ATOM     98  F   UNL A   1      44.326  33.524  26.825  1.00  0.00    -0.205 F 
ATOM     99  C   UNL A   1      45.615  35.433  29.668  1.00  0.00     0.022 A 
BRANCH  97 100
ATOM    100  S   UNL A   1      44.866  36.451  27.192  1.00  0.00     0.127 S 
ATOM    101  O   UNL A   1      45.782  36.092  26.114  1.00  0.00    -0.237 OA
ATOM    102  O   UNL A   1      43.450  36.327  26.838  1.00  0.00    -0.237 OA
ATOM    103  O   UNL A   1      45.189  37.655  27.951  1.00  0.00    -0.744 OA
ENDBRANCH  97 100
ENDBRANCH  70  93
ENDBRANCH  44  45
ENDBRANCH  36  39
ENDBRANCH  34  35
ENDBRANCH  33  34
ENDBRANCH  32  33
ENDBRANCH   1  32
TORSDOF 22
ENDMDL
MODEL 3
REMARK VINA RESULT:     -11.8      5.064     10.529
REMARK SMILES CCOC(=O)C1=NN(c2ccc([N+](=O)[O-])cc2C(F)(F)F)[C@@](C)(C(=O)NCCCCCCNC(=O)c2ccc(-c3c4nc(c(-c5cccc(S(=O)(=O)[O-])c5F)c5ccc([nH]5)c(-c5cccc(S(=O)(=O)[O-])c5F)c5nc(c(-c6cccc(S(=O)(=O)[O-])c6F)c6ccc3[nH]6)C=C5)C=C4)cc2)C1
REMARK SMILES IDX 29 1 28 2 27 3 26 4 24 5 25 6 22 8 6 9 7 10 99 11 8 12 23 13
REMARK SMILES IDX 4 14 5 15 3 16 2 17 1 18 9 19 10 20 17 21 11 22 16 23 12 24
REMARK SMILES IDX 18 25 19 26 20 27 21 28 13 29 14 30 15 31 30 32 31 33 32 34
REMARK SMILES IDX 33 35 34 36 35 38 36 39 37 40 98 41 38 42 97 43 39 44 40 45
REMARK SMILES IDX 41 46 91 47 42 48 96 49 90 50 92 51 43 52 95 53 89 54 88 55
REMARK SMILES IDX 44 57 76 58 56 59 75 60 57 61 60 62 74 63 93 64 58 65 59 66
REMARK SMILES IDX 73 68 94 69 61 70 45 71 46 72 54 73 47 74 49 75 55 76 48 77
REMARK SMILES IDX 50 78 51 79 52 80 53 81 77 82 78 83 86 84 79 85 81 86 87 87
REMARK SMILES IDX 80 88 82 89 83 90 84 91 85 92 62 93 63 94 71 95 64 96 66 97
REMARK SMILES IDX 72 98 65 99 67 100 68 101 69 102 70 103
REMARK H PARENT 26 7 33 37 92 56 60 67
REMARK Flexibility Score: inf
ROOT
ATOM      1  C   UNL A   1      34.683  22.824  23.281  1.00  0.00     0.002 C 
ENDROOT
BRANCH   1   2
ATOM      2  C   UNL A   1      33.754  24.038  23.371  1.00  0.00     0.021 C 
BRANCH   2   3
ATOM      3  C   UNL A   1      34.062  25.179  22.398  1.00  0.00     0.116 C 
BRANCH   3   4
ATOM      4  N   UNL A   1      32.879  25.617  21.680  1.00  0.00    -0.354 N 
ATOM      5  C   UNL A   1      32.055  26.691  21.827  1.00  0.00     0.248 C 
ATOM      6  O   UNL A   1      31.084  26.707  21.056  1.00  0.00    -0.272 OA
ATOM      7  H   UNL A   1      32.621  25.019  20.941  1.00  0.00     0.163 HD
BRANCH   5   8
ATOM      8  C   UNL A   1      32.257  27.821  22.884  1.00  0.00     0.144 C 
ATOM      9  C   UNL A   1      30.365  29.169  22.869  1.00  0.00     0.149 C 
ATOM     10  N   UNL A   1      30.173  28.374  23.876  1.00  0.00    -0.169 NA
ATOM     11  C   UNL A   1      31.731  29.146  22.265  1.00  0.00     0.106 C 
ATOM     12  N   UNL A   1      31.341  27.679  24.049  1.00  0.00    -0.249 N 
ATOM     13  C   UNL A   1      33.711  28.052  23.290  1.00  0.00     0.048 C 
BRANCH   9  14
ATOM     14  C   UNL A   1      29.326  30.120  22.330  1.00  0.00     0.354 C 
ATOM     15  O   UNL A   1      28.836  29.972  21.225  1.00  0.00    -0.245 OA
BRANCH  14  16
ATOM     16  O   UNL A   1      29.087  31.112  23.209  1.00  0.00    -0.461 OA
BRANCH  16  17
ATOM     17  C   UNL A   1      28.155  32.114  22.785  1.00  0.00     0.230 C 
ATOM     18  C   UNL A   1      28.743  33.504  22.954  1.00  0.00     0.049 C 
ENDBRANCH  16  17
ENDBRANCH  14  16
ENDBRANCH   9  14
BRANCH  12  19
ATOM     19  C   UNL A   1      31.279  26.581  24.897  1.00  0.00     0.073 A 
ATOM     20  C   UNL A   1      30.590  25.423  24.482  1.00  0.00     0.036 A 
ATOM     21  C   UNL A   1      31.836  26.611  26.190  1.00  0.00     0.088 A 
ATOM     22  C   UNL A   1      30.517  24.285  25.287  1.00  0.00     0.088 A 
ATOM     23  C   UNL A   1      31.778  25.452  26.998  1.00  0.00     0.101 A 
ATOM     24  C   UNL A   1      31.129  24.301  26.538  1.00  0.00     0.270 A 
BRANCH  21  25
ATOM     25  C   UNL A   1      32.521  27.839  26.744  1.00  0.00     0.418 C 
ATOM     26  F   UNL A   1      32.322  27.990  28.086  1.00  0.00    -0.166 F 
ATOM     27  F   UNL A   1      33.874  27.774  26.585  1.00  0.00    -0.166 F 
ATOM     28  F   UNL A   1      32.141  29.024  26.193  1.00  0.00    -0.166 F 
ENDBRANCH  21  25
BRANCH  24  29
ATOM     29  N   UNL A   1      31.092  23.098  27.374  1.00  0.00     0.062 N 
ATOM     30  O   UNL A   1      32.178  22.646  27.764  1.00  0.00    -0.258 OA
ATOM     31  O   UNL A   1      29.981  22.623  27.639  1.00  0.00    -0.258 OA
ENDBRANCH  24  29
ENDBRANCH  12  19
ENDBRANCH   5   8
ENDBRANCH   3   4
ENDBRANCH   2   3
ENDBRANCH   1   2
BRANCH   1  32
ATOM     32  C   UNL A   1      36.153  23.085  23.618  1.00  0.00     0.002 C 
BRANCH  32  33
ATOM     33  C   UNL A   1      36.999  21.852  23.967  1.00  0.00     0.021 C 
BRANCH  33  34
ATOM     34  C   UNL A   1      37.275  21.618  25.453  1.00  0.00     0.116 C 
BRANCH  34  35
ATOM     35  N   UNL A   1      38.316  20.636  25.700  1.00  0.00    -0.352 N 
ATOM     36  C   UNL A   1      39.567  20.827  26.236  1.00  0.00     0.251 C 
ATOM     37  H   UNL A   1      38.096  19.709  25.448  1.00  0.00     0.163 HD
ATOM     38  O   UNL A   1      40.354  19.886  26.296  1.00  0.00    -0.269 OA
BRANCH  36  39
ATOM     39  C   UNL A   1      39.989  22.173  26.693  1.00  0.00     0.039 A 
ATOM     40  C   UNL A   1      40.969  22.255  27.688  1.00  0.00     0.014 A 
ATOM     41  C   UNL A   1      39.424  23.342  26.170  1.00  0.00     0.014 A 
ATOM     42  C   UNL A   1      41.434  23.503  28.109  1.00  0.00     0.010 A 
ATOM     43  C   UNL A   1      39.905  24.590  26.576  1.00  0.00     0.010 A 
ATOM     44  C   UNL A   1      40.920  24.677  27.539  1.00  0.00    -0.014 A 
BRANCH  44  45
ATOM     45  C   UNL A   1      41.496  25.993  27.900  1.00  0.00     0.031 A 
ATOM     46  C   UNL A   1      42.899  26.356  27.516  1.00  0.00     0.074 A 
ATOM     47  C   UNL A   1      40.745  26.862  28.603  1.00  0.00     0.049 A 
ATOM     48  N   UNL A   1      43.514  27.503  27.650  1.00  0.00    -0.248 NA
ATOM     49  C   UNL A   1      43.713  25.301  26.896  1.00  0.00     0.031 C 
ATOM     50  C   UNL A   1      39.380  26.609  29.071  1.00  0.00     0.029 A 
ATOM     51  N   UNL A   1      41.024  28.126  29.052  1.00  0.00    -0.354 N 
ATOM     52  C   UNL A   1      44.787  27.314  27.128  1.00  0.00     0.074 A 
ATOM     53  C   UNL A   1      44.861  25.935  26.692  1.00  0.00     0.031 C 
ATOM     54  C   UNL A   1      38.941  27.689  29.737  1.00  0.00     0.029 A 
ATOM     55  C   UNL A   1      39.989  28.705  29.744  1.00  0.00     0.049 A 
ATOM     56  H   UNL A   1      41.886  28.576  28.894  1.00  0.00     0.167 HD
ATOM     57  C   UNL A   1      45.782  28.222  26.984  1.00  0.00     0.034 A 
ATOM     58  C   UNL A   1      39.890  29.924  30.308  1.00  0.00     0.034 A 
ATOM     59  C   UNL A   1      45.678  29.609  27.358  1.00  0.00     0.049 A 
ATOM     60  C   UNL A   1      41.042  30.882  30.201  1.00  0.00     0.074 A 
ATOM     61  C   UNL A   1      46.549  30.652  27.089  1.00  0.00     0.029 A 
ATOM     62  N   UNL A   1      44.643  30.139  28.112  1.00  0.00    -0.354 N 
ATOM     63  N   UNL A   1      42.149  30.759  29.512  1.00  0.00    -0.248 NA
ATOM     64  C   UNL A   1      40.924  32.149  30.936  1.00  0.00     0.031 C 
ATOM     65  C   UNL A   1      46.038  31.816  27.682  1.00  0.00     0.029 A 
ATOM     66  C   UNL A   1      44.870  31.485  28.349  1.00  0.00     0.049 A 
ATOM     67  H   UNL A   1      43.861  29.634  28.433  1.00  0.00     0.167 HD
ATOM     68  C   UNL A   1      42.843  31.947  29.696  1.00  0.00     0.074 A 
ATOM     69  C   UNL A   1      42.039  32.773  30.575  1.00  0.00     0.031 C 
ATOM     70  C   UNL A   1      44.042  32.315  29.184  1.00  0.00     0.034 A 
BRANCH  57  71
ATOM     71  C   UNL A   1      47.026  27.757  26.284  1.00  0.00     0.023 A 
ATOM     72  C   UNL A   1      48.086  27.254  27.064  1.00  0.00     0.012 A 
ATOM     73  C   UNL A   1      47.169  27.824  24.887  1.00  0.00     0.148 A 
ATOM     74  C   UNL A   1      49.267  26.822  26.464  1.00  0.00     0.002 A 
ATOM     75  C   UNL A   1      48.359  27.406  24.295  1.00  0.00     0.091 A 
ATOM     76  F   UNL A   1      46.162  28.320  24.152  1.00  0.00    -0.205 F 
ATOM     77  C   UNL A   1      49.407  26.901  25.078  1.00  0.00     0.022 A 
BRANCH  75  78
ATOM     78  S   UNL A   1      48.567  27.573  22.517  1.00  0.00     0.127 S 
ATOM     79  O   UNL A   1      49.839  28.281  22.405  1.00  0.00    -0.237 OA
ATOM     80  O   UNL A   1      48.613  26.188  22.048  1.00  0.00    -0.237 OA
ATOM     81  O   UNL A   1      47.372  28.306  22.111  1.00  0.00    -0.744 OA
ENDBRANCH  75  78
ENDBRANCH  57  71
BRANCH  58  82
ATOM     82  C   UNL A   1      38.616  30.336  30.948  1.00  0.00     0.023 A 
ATOM     83  C   UNL A   1      38.398  30.015  32.301  1.00  0.00     0.012 A 
ATOM     84  C   UNL A   1      37.648  31.080  30.256  1.00  0.00     0.148 A 
ATOM     85  C   UNL A   1      37.232  30.426  32.950  1.00  0.00     0.002 A 
ATOM     86  C   UNL A   1      36.502  31.510  30.916  1.00  0.00     0.091 A 
ATOM     87  F   UNL A   1      37.866  31.389  28.968  1.00  0.00    -0.205 F 
ATOM     88  C   UNL A   1      36.284  31.179  32.260  1.00  0.00     0.022 A 
BRANCH  86  89
ATOM     89  S   UNL A   1      35.324  32.545  30.043  1.00  0.00     0.127 S 
ATOM     90  O   UNL A   1      34.357  32.886  31.081  1.00  0.00    -0.237 OA
ATOM     91  O   UNL A   1      36.138  33.670  29.581  1.00  0.00    -0.237 OA
ATOM     92  O   UNL A   1      34.857  31.666  28.975  1.00  0.00    -0.744 OA
ENDBRANCH  86  89
ENDBRANCH  58  82
BRANCH  70  93
ATOM     93  C   UNL A   1      44.558  33.674  29.558  1.00  0.00     0.023 A 
ATOM     94  C   UNL A   1      45.462  33.784  30.630  1.00  0.00     0.012 A 
ATOM     95  C   UNL A   1      44.186  34.827  28.843  1.00  0.00     0.148 A 
ATOM     96  C   UNL A   1      45.981  35.029  30.992  1.00  0.00     0.002 A 
ATOM     97  C   UNL A   1      44.713  36.064  29.204  1.00  0.00     0.091 A 
ATOM     98  F   UNL A   1      43.326  34.710  27.819  1.00  0.00    -0.205 F 
ATOM     99  C   UNL A   1      45.608  36.169  30.279  1.00  0.00     0.022 A 
BRANCH  97 100
ATOM    100  S   UNL A   1      44.238  37.530  28.280  1.00  0.00     0.127 S 
ATOM    101  O   UNL A   1      45.379  38.420  28.464  1.00  0.00    -0.237 OA
ATOM    102  O   UNL A   1      44.081  37.036  26.910  1.00  0.00    -0.237 OA
ATOM    103  O   UNL A   1      42.988  37.930  28.918  1.00  0.00    -0.744 OA
ENDBRANCH  97 100
ENDBRANCH  70  93
ENDBRANCH  44  45
ENDBRANCH  36  39
ENDBRANCH  34  35
ENDBRANCH  33  34
ENDBRANCH  32  33
ENDBRANCH   1  32
TORSDOF 22
ENDMDL
