MODEL 1
REMARK VINA RESULT:     -12.2      0.000      0.000
REMARK SMILES CCc1cc(C(=O)c2[nH]c3cc(Cl)ccc3c2CC(=O)NCCCCCCNC(=O)c2ccc(-c3c4nc(c(-c5cccc(S(=O)(=O)[O-])c5F)c5ccc([nH]5)c(-c5cccc(S(=O)(=O)[O-])c5F)c5nc(c(-c6cccc(S(=O)(=O)[O-])c6F)c6ccc3[nH]6)C=C5)C=C4)cc2)ncc1Cl
REMARK SMILES IDX 24 1 23 2 22 3 21 4 19 5 20 6 18 8 17 9 8 10 9 11 10 12
REMARK SMILES IDX 16 14 11 15 15 16 12 17 14 18 13 19 6 20 7 21 5 22 3 23 4 24
REMARK SMILES IDX 96 25 95 26 97 27 94 28 2 29 1 30 25 31 26 32 27 33 28 34
REMARK SMILES IDX 29 35 30 37 31 38 32 39 93 40 33 41 92 42 34 43 35 44 36 45
REMARK SMILES IDX 86 46 37 47 91 48 85 49 87 50 38 51 90 52 84 53 83 54 39 56
REMARK SMILES IDX 71 57 51 58 70 59 52 60 55 61 69 62 88 63 53 64 54 65 68 67
REMARK SMILES IDX 89 68 56 69 40 70 41 71 49 72 42 73 44 74 50 75 43 76 45 77
REMARK SMILES IDX 46 78 47 79 48 80 72 81 73 82 81 83 74 84 76 85 82 86 75 87
REMARK SMILES IDX 77 88 78 89 79 90 80 91 57 92 58 93 66 94 59 95 61 96 67 97
REMARK SMILES IDX 60 98 62 99 63 100 64 101 65 102
REMARK H PARENT 21 7 9 13 28 36 87 55 55 66
REMARK Flexibility Score: inf
ROOT
ATOM      1  C   UNL A   1      31.396  29.350  27.109  1.00  0.00     0.002 C 
ENDROOT
BRANCH   1   2
ATOM      2  C   UNL A   1      32.578  28.379  27.225  1.00  0.00     0.021 C 
BRANCH   2   3
ATOM      3  C   UNL A   1      32.521  27.189  26.265  1.00  0.00     0.116 C 
BRANCH   3   4
ATOM      4  N   UNL A   1      31.676  26.123  26.761  1.00  0.00    -0.356 N 
ATOM      5  C   UNL A   1      31.796  24.773  26.595  1.00  0.00     0.224 C 
ATOM      6  O   UNL A   1      31.003  24.038  27.193  1.00  0.00    -0.275 OA
ATOM      7  H   UNL A   1      30.902  26.413  27.295  1.00  0.00     0.163 HD
BRANCH   5   8
ATOM      8  C   UNL A   1      32.953  24.181  25.809  1.00  0.00     0.138 C 
BRANCH   8   9
ATOM      9  C   UNL A   1      32.605  23.576  24.476  1.00  0.00    -0.002 A 
ATOM     10  C   UNL A   1      32.295  24.239  23.291  1.00  0.00     0.093 A 
ATOM     11  N   UNL A   1      32.114  23.280  22.320  1.00  0.00    -0.351 N 
ATOM     12  C   UNL A   1      32.214  22.019  22.853  1.00  0.00     0.048 A 
ATOM     13  H   UNL A   1      31.937  23.473  21.371  1.00  0.00     0.167 HD
ATOM     14  C   UNL A   1      32.509  22.168  24.207  1.00  0.00     0.004 A 
ATOM     15  C   UNL A   1      32.091  20.768  22.236  1.00  0.00     0.047 A 
ATOM     16  C   UNL A   1      32.684  21.003  24.986  1.00  0.00     0.012 A 
ATOM     17  C   UNL A   1      32.278  19.635  23.033  1.00  0.00     0.043 A 
ATOM     18  C   UNL A   1      32.571  19.743  24.387  1.00  0.00     0.021 A 
ATOM     19  Cl  UNL A   1      32.142  18.075  22.317  1.00  0.00    -0.084 Cl
BRANCH  10  20
ATOM     20  C   UNL A   1      32.287  25.665  23.012  1.00  0.00     0.227 C 
ATOM     21  O   UNL A   1      33.309  26.239  22.648  1.00  0.00    -0.285 OA
BRANCH  20  22
ATOM     22  C   UNL A   1      30.997  26.442  23.148  1.00  0.00     0.113 A 
ATOM     23  C   UNL A   1      29.643  28.468  22.938  1.00  0.00    -0.026 A 
ATOM     24  C   UNL A   1      30.874  27.784  22.779  1.00  0.00     0.037 A 
ATOM     25  C   UNL A   1      28.555  27.722  23.408  1.00  0.00     0.062 A 
ATOM     26  C   UNL A   1      28.768  26.389  23.753  1.00  0.00     0.132 A 
ATOM     27  Cl  UNL A   1      26.946  28.311  23.556  1.00  0.00    -0.082 Cl
ATOM     28  N   UNL A   1      29.952  25.746  23.652  1.00  0.00    -0.251 NA
BRANCH  23  29
ATOM     29  C   UNL A   1      29.630  29.923  22.509  1.00  0.00     0.034 C 
ATOM     30  C   UNL A   1      28.969  30.965  23.401  1.00  0.00     0.009 C 
ENDBRANCH  23  29
ENDBRANCH  20  22
ENDBRANCH  10  20
ENDBRANCH   8   9
ENDBRANCH   5   8
ENDBRANCH   3   4
ENDBRANCH   2   3
ENDBRANCH   1   2
BRANCH   1  31
ATOM     31  C   UNL A   1      31.537  30.441  26.043  1.00  0.00     0.002 C 
BRANCH  31  32
ATOM     32  C   UNL A   1      31.449  31.884  26.551  1.00  0.00     0.021 C 
BRANCH  32  33
ATOM     33  C   UNL A   1      32.785  32.537  26.900  1.00  0.00     0.116 C 
BRANCH  33  34
ATOM     34  N   UNL A   1      32.616  33.818  27.565  1.00  0.00    -0.352 N 
ATOM     35  C   UNL A   1      33.290  34.348  28.637  1.00  0.00     0.251 C 
ATOM     36  H   UNL A   1      31.912  34.395  27.188  1.00  0.00     0.163 HD
ATOM     37  O   UNL A   1      32.882  35.385  29.153  1.00  0.00    -0.269 OA
BRANCH  35  38
ATOM     38  C   UNL A   1      34.493  33.679  29.186  1.00  0.00     0.039 A 
ATOM     39  C   UNL A   1      34.321  32.675  30.146  1.00  0.00     0.014 A 
ATOM     40  C   UNL A   1      35.783  34.064  28.809  1.00  0.00     0.014 A 
ATOM     41  C   UNL A   1      35.435  32.033  30.696  1.00  0.00     0.010 A 
ATOM     42  C   UNL A   1      36.892  33.386  29.317  1.00  0.00     0.010 A 
ATOM     43  C   UNL A   1      36.729  32.372  30.273  1.00  0.00    -0.014 A 
BRANCH  43  44
ATOM     44  C   UNL A   1      37.922  31.681  30.828  1.00  0.00     0.031 A 
ATOM     45  C   UNL A   1      38.467  32.068  32.176  1.00  0.00     0.074 A 
ATOM     46  C   UNL A   1      38.558  30.753  30.087  1.00  0.00     0.049 A 
ATOM     47  N   UNL A   1      39.511  31.595  32.809  1.00  0.00    -0.248 NA
ATOM     48  C   UNL A   1      37.764  33.141  32.898  1.00  0.00     0.031 C 
ATOM     49  C   UNL A   1      38.176  30.346  28.734  1.00  0.00     0.029 A 
ATOM     50  N   UNL A   1      39.674  30.000  30.358  1.00  0.00    -0.354 N 
ATOM     51  C   UNL A   1      39.610  32.332  33.983  1.00  0.00     0.074 A 
ATOM     52  C   UNL A   1      38.538  33.303  33.963  1.00  0.00     0.031 C 
ATOM     53  C   UNL A   1      39.041  29.417  28.294  1.00  0.00     0.029 A 
ATOM     54  C   UNL A   1      40.045  29.171  29.326  1.00  0.00     0.049 A 
ATOM     55  H   UNL A   1      40.163  30.050  31.212  1.00  0.00     0.167 HD
ATOM     56  C   UNL A   1      40.492  32.193  35.002  1.00  0.00     0.034 A 
ATOM     57  C   UNL A   1      41.070  28.302  29.226  1.00  0.00     0.034 A 
ATOM     58  C   UNL A   1      41.519  31.188  35.049  1.00  0.00     0.049 A 
ATOM     59  C   UNL A   1      41.990  28.115  30.402  1.00  0.00     0.074 A 
ATOM     60  C   UNL A   1      42.405  30.910  36.076  1.00  0.00     0.029 A 
ATOM     61  N   UNL A   1      41.794  30.290  34.030  1.00  0.00    -0.354 N 
ATOM     62  N   UNL A   1      41.966  28.708  31.570  1.00  0.00    -0.248 NA
ATOM     63  C   UNL A   1      43.053  27.108  30.262  1.00  0.00     0.031 C 
ATOM     64  C   UNL A   1      43.215  29.842  35.676  1.00  0.00     0.029 A 
ATOM     65  C   UNL A   1      42.832  29.455  34.402  1.00  0.00     0.049 A 
ATOM     66  H   UNL A   1      41.321  30.253  33.168  1.00  0.00     0.167 HD
ATOM     67  C   UNL A   1      42.983  28.124  32.317  1.00  0.00     0.074 A 
ATOM     68  C   UNL A   1      43.594  27.116  31.474  1.00  0.00     0.031 C 
ATOM     69  C   UNL A   1      43.385  28.411  33.579  1.00  0.00     0.034 A 
BRANCH  56  70
ATOM     70  C   UNL A   1      40.332  33.104  36.190  1.00  0.00     0.023 A 
ATOM     71  C   UNL A   1      40.969  34.361  36.180  1.00  0.00     0.012 A 
ATOM     72  C   UNL A   1      39.519  32.750  37.283  1.00  0.00     0.148 A 
ATOM     73  C   UNL A   1      40.823  35.241  37.252  1.00  0.00     0.002 A 
ATOM     74  C   UNL A   1      39.348  33.648  38.332  1.00  0.00     0.091 A 
ATOM     75  F   UNL A   1      38.940  31.539  37.288  1.00  0.00    -0.205 F 
ATOM     76  C   UNL A   1      40.007  34.889  38.322  1.00  0.00     0.022 A 
BRANCH  74  77
ATOM     77  S   UNL A   1      38.260  33.305  39.721  1.00  0.00     0.127 S 
ATOM     78  O   UNL A   1      38.938  32.177  40.357  1.00  0.00    -0.237 OA
ATOM     79  O   UNL A   1      38.315  34.555  40.480  1.00  0.00    -0.237 OA
ATOM     80  O   UNL A   1      36.958  33.013  39.137  1.00  0.00    -0.744 OA
ENDBRANCH  74  77
ENDBRANCH  56  70
BRANCH  57  81
ATOM     81  C   UNL A   1      41.212  27.468  28.001  1.00  0.00     0.023 A 
ATOM     82  C   UNL A   1      41.784  28.038  26.847  1.00  0.00     0.012 A 
ATOM     83  C   UNL A   1      40.835  26.111  27.982  1.00  0.00     0.148 A 
ATOM     84  C   UNL A   1      41.957  27.279  25.688  1.00  0.00     0.002 A 
ATOM     85  C   UNL A   1      41.056  25.348  26.840  1.00  0.00     0.091 A 
ATOM     86  F   UNL A   1      40.275  25.590  29.082  1.00  0.00    -0.205 F 
ATOM     87  C   UNL A   1      41.604  25.934  25.688  1.00  0.00     0.022 A 
BRANCH  85  88
ATOM     88  S   UNL A   1      40.749  23.577  26.806  1.00  0.00     0.127 S 
ATOM     89  O   UNL A   1      41.597  23.147  25.696  1.00  0.00    -0.237 OA
ATOM     90  O   UNL A   1      41.210  23.158  28.130  1.00  0.00    -0.237 OA
ATOM     91  O   UNL A   1      39.314  23.440  26.606  1.00  0.00    -0.744 OA
ENDBRANCH  85  88
ENDBRANCH  57  81
BRANCH  69  92
ATOM     92  C   UNL A   1      44.528  27.611  34.147  1.00  0.00     0.023 A 
ATOM     93  C   UNL A   1      45.848  28.072  33.973  1.00  0.00     0.012 A 
ATOM     94  C   UNL A   1      44.292  26.456  34.917  1.00  0.00     0.148 A 
ATOM     95  C   UNL A   1      46.919  27.382  34.541  1.00  0.00     0.002 A 
ATOM     96  C   UNL A   1      45.361  25.796  35.512  1.00  0.00     0.091 A 
ATOM     97  F   UNL A   1      43.031  26.019  35.050  1.00  0.00    -0.205 F 
ATOM     98  C   UNL A   1      46.675  26.253  35.319  1.00  0.00     0.022 A 
BRANCH  96  99
ATOM     99  S   UNL A   1      45.120  24.385  36.598  1.00  0.00     0.127 S 
ATOM    100  O   UNL A   1      44.558  23.395  35.684  1.00  0.00    -0.237 OA
ATOM    101  O   UNL A   1      46.483  24.094  37.049  1.00  0.00    -0.237 OA
ATOM    102  O   UNL A   1      44.230  24.850  37.654  1.00  0.00    -0.744 OA
ENDBRANCH  96  99
ENDBRANCH  69  92
ENDBRANCH  43  44
ENDBRANCH  35  38
ENDBRANCH  33  34
ENDBRANCH  32  33
ENDBRANCH  31  32
ENDBRANCH   1  31
TORSDOF 20
ENDMDL
MODEL 2
REMARK VINA RESULT:     -11.8      1.569      7.429
REMARK SMILES CCc1cc(C(=O)c2[nH]c3cc(Cl)ccc3c2CC(=O)NCCCCCCNC(=O)c2ccc(-c3c4nc(c(-c5cccc(S(=O)(=O)[O-])c5F)c5ccc([nH]5)c(-c5cccc(S(=O)(=O)[O-])c5F)c5nc(c(-c6cccc(S(=O)(=O)[O-])c6F)c6ccc3[nH]6)C=C5)C=C4)cc2)ncc1Cl
REMARK SMILES IDX 24 1 23 2 22 3 21 4 19 5 20 6 18 8 17 9 8 10 9 11 10 12
REMARK SMILES IDX 16 14 11 15 15 16 12 17 14 18 13 19 6 20 7 21 5 22 3 23 4 24
REMARK SMILES IDX 96 25 95 26 97 27 94 28 2 29 1 30 25 31 26 32 27 33 28 34
REMARK SMILES IDX 29 35 30 37 31 38 32 39 93 40 33 41 92 42 34 43 35 44 36 45
REMARK SMILES IDX 86 46 37 47 91 48 85 49 87 50 38 51 90 52 84 53 83 54 39 56
REMARK SMILES IDX 71 57 51 58 70 59 52 60 55 61 69 62 88 63 53 64 54 65 68 67
REMARK SMILES IDX 89 68 56 69 40 70 41 71 49 72 42 73 44 74 50 75 43 76 45 77
REMARK SMILES IDX 46 78 47 79 48 80 72 81 73 82 81 83 74 84 76 85 82 86 75 87
REMARK SMILES IDX 77 88 78 89 79 90 80 91 57 92 58 93 66 94 59 95 61 96 67 97
REMARK SMILES IDX 60 98 62 99 63 100 64 101 65 102
REMARK H PARENT 21 7 9 13 28 36 87 55 55 66
REMARK Flexibility Score: inf
ROOT
ATOM      1  C   UNL A   1      32.561  29.988  26.584  1.00  0.00     0.002 C 
ENDROOT
BRANCH   1   2
ATOM      2  C   UNL A   1      32.663  28.735  25.704  1.00  0.00     0.021 C 
BRANCH   2   3
ATOM      3  C   UNL A   1      32.767  27.420  26.478  1.00  0.00     0.116 C 
BRANCH   3   4
ATOM      4  N   UNL A   1      33.924  26.641  26.085  1.00  0.00    -0.356 N 
ATOM      5  C   UNL A   1      34.007  25.322  25.743  1.00  0.00     0.224 C 
ATOM      6  O   UNL A   1      35.093  24.888  25.347  1.00  0.00    -0.275 OA
ATOM      7  H   UNL A   1      34.775  27.135  26.060  1.00  0.00     0.163 HD
BRANCH   5   8
ATOM      8  C   UNL A   1      32.769  24.441  25.720  1.00  0.00     0.138 C 
BRANCH   8   9
ATOM      9  C   UNL A   1      32.460  23.770  24.410  1.00  0.00    -0.002 A 
ATOM     10  C   UNL A   1      32.145  24.372  23.194  1.00  0.00     0.093 A 
ATOM     11  N   UNL A   1      32.009  23.367  22.262  1.00  0.00    -0.351 N 
ATOM     12  C   UNL A   1      32.144  22.134  22.849  1.00  0.00     0.048 A 
ATOM     13  H   UNL A   1      31.839  23.514  21.304  1.00  0.00     0.167 HD
ATOM     14  C   UNL A   1      32.415  22.349  24.199  1.00  0.00     0.004 A 
ATOM     15  C   UNL A   1      32.072  20.854  22.284  1.00  0.00     0.047 A 
ATOM     16  C   UNL A   1      32.618  21.225  25.029  1.00  0.00     0.012 A 
ATOM     17  C   UNL A   1      32.285  19.763  23.130  1.00  0.00     0.043 A 
ATOM     18  C   UNL A   1      32.556  19.937  24.482  1.00  0.00     0.021 A 
ATOM     19  Cl  UNL A   1      32.212  18.170  22.480  1.00  0.00    -0.084 Cl
BRANCH  10  20
ATOM     20  C   UNL A   1      32.094  25.784  22.855  1.00  0.00     0.227 C 
ATOM     21  O   UNL A   1      33.078  26.356  22.396  1.00  0.00    -0.285 OA
BRANCH  20  22
ATOM     22  C   UNL A   1      30.802  26.547  23.045  1.00  0.00     0.113 A 
ATOM     23  C   UNL A   1      29.418  28.558  22.889  1.00  0.00    -0.026 A 
ATOM     24  C   UNL A   1      30.648  27.886  22.678  1.00  0.00     0.037 A 
ATOM     25  C   UNL A   1      28.361  27.801  23.410  1.00  0.00     0.062 A 
ATOM     26  C   UNL A   1      28.602  26.472  23.749  1.00  0.00     0.132 A 
ATOM     27  Cl  UNL A   1      26.753  28.374  23.627  1.00  0.00    -0.082 Cl
ATOM     28  N   UNL A   1      29.788  25.842  23.598  1.00  0.00    -0.251 NA
BRANCH  23  29
ATOM     29  C   UNL A   1      29.371  30.010  22.457  1.00  0.00     0.034 C 
ATOM     30  C   UNL A   1      29.015  31.087  23.473  1.00  0.00     0.009 C 
ENDBRANCH  23  29
ENDBRANCH  20  22
ENDBRANCH  10  20
ENDBRANCH   8   9
ENDBRANCH   5   8
ENDBRANCH   3   4
ENDBRANCH   2   3
ENDBRANCH   1   2
BRANCH   1  31
ATOM     31  C   UNL A   1      31.268  30.795  26.441  1.00  0.00     0.002 C 
BRANCH  31  32
ATOM     32  C   UNL A   1      31.422  32.318  26.515  1.00  0.00     0.021 C 
BRANCH  32  33
ATOM     33  C   UNL A   1      32.693  32.814  27.203  1.00  0.00     0.116 C 
BRANCH  33  34
ATOM     34  N   UNL A   1      32.568  34.183  27.673  1.00  0.00    -0.352 N 
ATOM     35  C   UNL A   1      33.214  34.821  28.703  1.00  0.00     0.251 C 
ATOM     36  H   UNL A   1      31.923  34.738  27.177  1.00  0.00     0.163 HD
ATOM     37  O   UNL A   1      32.843  35.942  29.045  1.00  0.00    -0.269 OA
BRANCH  35  38
ATOM     38  C   UNL A   1      34.341  34.172  29.413  1.00  0.00     0.039 A 
ATOM     39  C   UNL A   1      35.643  34.404  28.955  1.00  0.00     0.014 A 
ATOM     40  C   UNL A   1      34.127  33.298  30.483  1.00  0.00     0.014 A 
ATOM     41  C   UNL A   1      36.728  33.795  29.593  1.00  0.00     0.010 A 
ATOM     42  C   UNL A   1      35.213  32.734  31.153  1.00  0.00     0.010 A 
ATOM     43  C   UNL A   1      36.523  32.968  30.709  1.00  0.00    -0.014 A 
BRANCH  43  44
ATOM     44  C   UNL A   1      37.667  32.335  31.414  1.00  0.00     0.031 A 
ATOM     45  C   UNL A   1      38.443  31.223  30.761  1.00  0.00     0.074 A 
ATOM     46  C   UNL A   1      37.965  32.712  32.672  1.00  0.00     0.049 A 
ATOM     47  N   UNL A   1      39.452  30.536  31.232  1.00  0.00    -0.248 NA
ATOM     48  C   UNL A   1      38.017  30.813  29.413  1.00  0.00     0.031 C 
ATOM     49  C   UNL A   1      37.239  33.722  33.445  1.00  0.00     0.029 A 
ATOM     50  N   UNL A   1      38.941  32.274  33.533  1.00  0.00    -0.354 N 
ATOM     51  C   UNL A   1      39.760  29.593  30.257  1.00  0.00     0.074 A 
ATOM     52  C   UNL A   1      38.811  29.777  29.180  1.00  0.00     0.031 C 
ATOM     53  C   UNL A   1      37.796  33.828  34.663  1.00  0.00     0.029 A 
ATOM     54  C   UNL A   1      38.909  32.887  34.763  1.00  0.00     0.049 A 
ATOM     55  H   UNL A   1      39.603  31.585  33.291  1.00  0.00     0.167 HD
ATOM     56  C   UNL A   1      40.759  28.680  30.244  1.00  0.00     0.034 A 
ATOM     57  C   UNL A   1      39.692  32.718  35.846  1.00  0.00     0.034 A 
ATOM     58  C   UNL A   1      41.738  28.538  31.287  1.00  0.00     0.049 A 
ATOM     59  C   UNL A   1      40.842  31.749  35.776  1.00  0.00     0.074 A 
ATOM     60  C   UNL A   1      42.840  27.702  31.326  1.00  0.00     0.029 A 
ATOM     61  N   UNL A   1      41.739  29.255  32.473  1.00  0.00    -0.354 N 
ATOM     62  N   UNL A   1      41.214  30.983  34.780  1.00  0.00    -0.248 NA
ATOM     63  C   UNL A   1      41.704  31.651  36.964  1.00  0.00     0.031 C 
ATOM     64  C   UNL A   1      43.508  27.915  32.537  1.00  0.00     0.029 A 
ATOM     65  C   UNL A   1      42.822  28.885  33.249  1.00  0.00     0.049 A 
ATOM     66  H   UNL A   1      41.066  29.928  32.726  1.00  0.00     0.167 HD
ATOM     67  C   UNL A   1      42.371  30.340  35.205  1.00  0.00     0.074 A 
ATOM     68  C   UNL A   1      42.649  30.820  36.543  1.00  0.00     0.031 C 
ATOM     69  C   UNL A   1      43.124  29.421  34.552  1.00  0.00     0.034 A 
BRANCH  56  70
ATOM     70  C   UNL A   1      40.891  27.811  29.021  1.00  0.00     0.023 A 
ATOM     71  C   UNL A   1      39.976  26.757  28.827  1.00  0.00     0.012 A 
ATOM     72  C   UNL A   1      41.873  28.063  28.044  1.00  0.00     0.148 A 
ATOM     73  C   UNL A   1      40.054  25.948  27.694  1.00  0.00     0.002 A 
ATOM     74  C   UNL A   1      41.921  27.275  26.898  1.00  0.00     0.091 A 
ATOM     75  F   UNL A   1      42.752  29.054  28.256  1.00  0.00    -0.205 F 
ATOM     76  C   UNL A   1      41.018  26.212  26.726  1.00  0.00     0.022 A 
BRANCH  74  77
ATOM     77  S   UNL A   1      43.088  27.587  25.567  1.00  0.00     0.127 S 
ATOM     78  O   UNL A   1      43.530  26.233  25.238  1.00  0.00    -0.237 OA
ATOM     79  O   UNL A   1      42.245  28.216  24.550  1.00  0.00    -0.237 OA
ATOM     80  O   UNL A   1      44.104  28.464  26.133  1.00  0.00    -0.744 OA
ENDBRANCH  74  77
ENDBRANCH  56  70
BRANCH  57  81
ATOM     81  C   UNL A   1      39.478  33.566  37.051  1.00  0.00     0.023 A 
ATOM     82  C   UNL A   1      39.921  34.903  37.035  1.00  0.00     0.012 A 
ATOM     83  C   UNL A   1      38.800  33.081  38.186  1.00  0.00     0.148 A 
ATOM     84  C   UNL A   1      39.715  35.735  38.136  1.00  0.00     0.002 A 
ATOM     85  C   UNL A   1      38.554  33.931  39.260  1.00  0.00     0.091 A 
ATOM     86  F   UNL A   1      38.401  31.802  38.192  1.00  0.00    -0.205 F 
ATOM     87  C   UNL A   1      39.022  35.253  39.242  1.00  0.00     0.022 A 
BRANCH  85  88
ATOM     88  S   UNL A   1      37.554  33.422  40.665  1.00  0.00     0.127 S 
ATOM     89  O   UNL A   1      37.442  34.668  41.420  1.00  0.00    -0.237 OA
ATOM     90  O   UNL A   1      36.316  32.982  40.019  1.00  0.00    -0.237 OA
ATOM     91  O   UNL A   1      38.305  32.352  41.302  1.00  0.00    -0.744 OA
ENDBRANCH  85  88
ENDBRANCH  57  81
BRANCH  69  92
ATOM     92  C   UNL A   1      44.340  28.884  35.258  1.00  0.00     0.023 A 
ATOM     93  C   UNL A   1      45.613  29.387  34.925  1.00  0.00     0.012 A 
ATOM     94  C   UNL A   1      44.217  27.946  36.302  1.00  0.00     0.148 A 
ATOM     95  C   UNL A   1      46.748  28.949  35.608  1.00  0.00     0.002 A 
ATOM     96  C   UNL A   1      45.348  27.544  37.004  1.00  0.00     0.091 A 
ATOM     97  F   UNL A   1      43.000  27.460  36.588  1.00  0.00    -0.205 F 
ATOM     98  C   UNL A   1      46.615  28.039  36.653  1.00  0.00     0.022 A 
BRANCH  96  99
ATOM     99  S   UNL A   1      45.246  26.440  38.417  1.00  0.00     0.127 S 
ATOM    100  O   UNL A   1      44.432  25.349  37.889  1.00  0.00    -0.237 OA
ATOM    101  O   UNL A   1      46.650  26.094  38.652  1.00  0.00    -0.237 OA
ATOM    102  O   UNL A   1      44.639  27.224  39.485  1.00  0.00    -0.744 OA
ENDBRANCH  96  99
ENDBRANCH  69  92
ENDBRANCH  43  44
ENDBRANCH  35  38
ENDBRANCH  33  34
ENDBRANCH  32  33
ENDBRANCH  31  32
ENDBRANCH   1  31
TORSDOF 20
ENDMDL
MODEL 3
REMARK VINA RESULT:     -11.5      2.052      2.401
REMARK SMILES CCc1cc(C(=O)c2[nH]c3cc(Cl)ccc3c2CC(=O)NCCCCCCNC(=O)c2ccc(-c3c4nc(c(-c5cccc(S(=O)(=O)[O-])c5F)c5ccc([nH]5)c(-c5cccc(S(=O)(=O)[O-])c5F)c5nc(c(-c6cccc(S(=O)(=O)[O-])c6F)c6ccc3[nH]6)C=C5)C=C4)cc2)ncc1Cl
REMARK SMILES IDX 24 1 23 2 22 3 21 4 19 5 20 6 18 8 17 9 8 10 9 11 10 12
REMARK SMILES IDX 16 14 11 15 15 16 12 17 14 18 13 19 6 20 7 21 5 22 3 23 4 24
REMARK SMILES IDX 96 25 95 26 97 27 94 28 2 29 1 30 25 31 26 32 27 33 28 34
REMARK SMILES IDX 29 35 30 37 31 38 32 39 93 40 33 41 92 42 34 43 35 44 36 45
REMARK SMILES IDX 86 46 37 47 91 48 85 49 87 50 38 51 90 52 84 53 83 54 39 56
REMARK SMILES IDX 71 57 51 58 70 59 52 60 55 61 69 62 88 63 53 64 54 65 68 67
REMARK SMILES IDX 89 68 56 69 40 70 41 71 49 72 42 73 44 74 50 75 43 76 45 77
REMARK SMILES IDX 46 78 47 79 48 80 72 81 73 82 81 83 74 84 76 85 82 86 75 87
REMARK SMILES IDX 77 88 78 89 79 90 80 91 57 92 58 93 66 94 59 95 61 96 67 97
REMARK SMILES IDX 60 98 62 99 63 100 64 101 65 102
REMARK H PARENT 21 7 9 13 28 36 87 55 55 66
REMARK Flexibility Score: inf
ROOT
ATOM      1  C   UNL A   1      31.500  29.358  27.154  1.00  0.00     0.002 C 
ENDROOT
BRANCH   1   2
ATOM      2  C   UNL A   1      32.668  28.370  27.272  1.00  0.00     0.021 C 
BRANCH   2   3
ATOM      3  C   UNL A   1      32.604  27.189  26.302  1.00  0.00     0.116 C 
BRANCH   3   4
ATOM      4  N   UNL A   1      31.701  26.152  26.757  1.00  0.00    -0.356 N 
ATOM      5  C   UNL A   1      31.769  24.800  26.575  1.00  0.00     0.224 C 
ATOM      6  O   UNL A   1      30.929  24.091  27.139  1.00  0.00    -0.275 OA
ATOM      7  H   UNL A   1      30.924  26.467  27.274  1.00  0.00     0.163 HD
BRANCH   5   8
ATOM      8  C   UNL A   1      32.923  24.171  25.813  1.00  0.00     0.138 C 
BRANCH   8   9
ATOM      9  C   UNL A   1      32.582  23.569  24.477  1.00  0.00    -0.002 A 
ATOM     10  C   UNL A   1      32.282  24.235  23.291  1.00  0.00     0.093 A 
ATOM     11  N   UNL A   1      32.104  23.277  22.317  1.00  0.00    -0.351 N 
ATOM     12  C   UNL A   1      32.196  22.015  22.850  1.00  0.00     0.048 A 
ATOM     13  H   UNL A   1      31.935  23.471  21.368  1.00  0.00     0.167 HD
ATOM     14  C   UNL A   1      32.482  22.161  24.206  1.00  0.00     0.004 A 
ATOM     15  C   UNL A   1      32.073  20.765  22.231  1.00  0.00     0.047 A 
ATOM     16  C   UNL A   1      32.648  20.996  24.986  1.00  0.00     0.012 A 
ATOM     17  C   UNL A   1      32.250  19.631  23.028  1.00  0.00     0.043 A 
ATOM     18  C   UNL A   1      32.534  19.736  24.385  1.00  0.00     0.021 A 
ATOM     19  Cl  UNL A   1      32.113  18.072  22.310  1.00  0.00    -0.084 Cl
BRANCH  10  20
ATOM     20  C   UNL A   1      32.282  25.661  23.013  1.00  0.00     0.227 C 
ATOM     21  O   UNL A   1      33.302  26.226  22.629  1.00  0.00    -0.285 OA
BRANCH  20  22
ATOM     22  C   UNL A   1      31.002  26.449  23.173  1.00  0.00     0.113 A 
ATOM     23  C   UNL A   1      29.681  28.505  23.060  1.00  0.00    -0.026 A 
ATOM     24  C   UNL A   1      30.904  27.811  22.881  1.00  0.00     0.037 A 
ATOM     25  C   UNL A   1      28.575  27.750  23.469  1.00  0.00     0.062 A 
ATOM     26  C   UNL A   1      28.762  26.396  23.740  1.00  0.00     0.132 A 
ATOM     27  Cl  UNL A   1      26.972  28.355  23.625  1.00  0.00    -0.082 Cl
ATOM     28  N   UNL A   1      29.938  25.741  23.620  1.00  0.00    -0.251 NA
BRANCH  23  29
ATOM     29  C   UNL A   1      29.698  29.981  22.716  1.00  0.00     0.034 C 
ATOM     30  C   UNL A   1      28.823  30.948  23.504  1.00  0.00     0.009 C 
ENDBRANCH  23  29
ENDBRANCH  20  22
ENDBRANCH  10  20
ENDBRANCH   8   9
ENDBRANCH   5   8
ENDBRANCH   3   4
ENDBRANCH   2   3
ENDBRANCH   1   2
BRANCH   1  31
ATOM     31  C   UNL A   1      31.746  30.569  26.249  1.00  0.00     0.002 C 
BRANCH  31  32
ATOM     32  C   UNL A   1      31.618  31.940  26.922  1.00  0.00     0.021 C 
BRANCH  32  33
ATOM     33  C   UNL A   1      32.940  32.631  27.256  1.00  0.00     0.116 C 
BRANCH  33  34
ATOM     34  N   UNL A   1      32.742  33.936  27.863  1.00  0.00    -0.352 N 
ATOM     35  C   UNL A   1      33.362  34.504  28.948  1.00  0.00     0.251 C 
ATOM     36  H   UNL A   1      32.061  34.500  27.428  1.00  0.00     0.163 HD
ATOM     37  O   UNL A   1      32.932  35.561  29.403  1.00  0.00    -0.269 OA
BRANCH  35  38
ATOM     38  C   UNL A   1      34.532  33.853  29.583  1.00  0.00     0.039 A 
ATOM     39  C   UNL A   1      34.305  32.855  30.538  1.00  0.00     0.014 A 
ATOM     40  C   UNL A   1      35.840  34.250  29.292  1.00  0.00     0.014 A 
ATOM     41  C   UNL A   1      35.386  32.230  31.168  1.00  0.00     0.010 A 
ATOM     42  C   UNL A   1      36.919  33.589  29.880  1.00  0.00     0.010 A 
ATOM     43  C   UNL A   1      36.702  32.581  30.832  1.00  0.00    -0.014 A 
BRANCH  43  44
ATOM     44  C   UNL A   1      37.862  31.908  31.472  1.00  0.00     0.031 A 
ATOM     45  C   UNL A   1      38.339  32.344  32.832  1.00  0.00     0.074 A 
ATOM     46  C   UNL A   1      38.531  30.951  30.801  1.00  0.00     0.049 A 
ATOM     47  N   UNL A   1      39.346  31.892  33.534  1.00  0.00    -0.248 NA
ATOM     48  C   UNL A   1      37.605  33.444  33.477  1.00  0.00     0.031 C 
ATOM     49  C   UNL A   1      38.217  30.495  29.445  1.00  0.00     0.029 A 
ATOM     50  N   UNL A   1      39.629  30.206  31.156  1.00  0.00    -0.354 N 
ATOM     51  C   UNL A   1      39.388  32.672  34.685  1.00  0.00     0.074 A 
ATOM     52  C   UNL A   1      38.323  33.644  34.573  1.00  0.00     0.031 C 
ATOM     53  C   UNL A   1      39.099  29.548  29.085  1.00  0.00     0.029 A 
ATOM     54  C   UNL A   1      40.048  29.338  30.176  1.00  0.00     0.049 A 
ATOM     55  H   UNL A   1      40.073  30.287  32.031  1.00  0.00     0.167 HD
ATOM     56  C   UNL A   1      40.216  32.568  35.751  1.00  0.00     0.034 A 
ATOM     57  C   UNL A   1      41.073  28.464  30.161  1.00  0.00     0.034 A 
ATOM     58  C   UNL A   1      41.235  31.564  35.889  1.00  0.00     0.049 A 
ATOM     59  C   UNL A   1      41.930  28.317  31.389  1.00  0.00     0.074 A 
ATOM     60  C   UNL A   1      42.065  31.322  36.969  1.00  0.00     0.029 A 
ATOM     61  N   UNL A   1      41.558  30.627  34.919  1.00  0.00    -0.354 N 
ATOM     62  N   UNL A   1      41.849  28.954  32.532  1.00  0.00    -0.248 NA
ATOM     63  C   UNL A   1      42.995  27.304  31.342  1.00  0.00     0.031 C 
ATOM     64  C   UNL A   1      42.891  30.237  36.652  1.00  0.00     0.029 A 
ATOM     65  C   UNL A   1      42.572  29.804  35.376  1.00  0.00     0.049 A 
ATOM     66  H   UNL A   1      41.129  30.559  34.036  1.00  0.00     0.167 HD
ATOM     67  C   UNL A   1      42.823  28.396  33.351  1.00  0.00     0.074 A 
ATOM     68  C   UNL A   1      43.473  27.356  32.579  1.00  0.00     0.031 C 
ATOM     69  C   UNL A   1      43.162  28.728  34.621  1.00  0.00     0.034 A 
BRANCH  56  70
ATOM     70  C   UNL A   1      40.000  33.523  36.895  1.00  0.00     0.023 A 
ATOM     71  C   UNL A   1      38.938  33.288  37.792  1.00  0.00     0.012 A 
ATOM     72  C   UNL A   1      40.865  34.612  37.118  1.00  0.00     0.148 A 
ATOM     73  C   UNL A   1      38.723  34.138  38.877  1.00  0.00     0.002 A 
ATOM     74  C   UNL A   1      40.665  35.433  38.222  1.00  0.00     0.091 A 
ATOM     75  F   UNL A   1      41.854  34.836  36.240  1.00  0.00    -0.205 F 
ATOM     76  C   UNL A   1      39.590  35.203  39.097  1.00  0.00     0.022 A 
BRANCH  74  77
ATOM     77  S   UNL A   1      41.775  36.790  38.622  1.00  0.00     0.127 S 
ATOM     78  O   UNL A   1      42.655  36.171  39.612  1.00  0.00    -0.237 OA
ATOM     79  O   UNL A   1      42.409  37.067  37.332  1.00  0.00    -0.237 OA
ATOM     80  O   UNL A   1      40.923  37.863  39.115  1.00  0.00    -0.744 OA
ENDBRANCH  74  77
ENDBRANCH  56  70
BRANCH  57  81
ATOM     81  C   UNL A   1      41.274  27.583  28.977  1.00  0.00     0.023 A 
ATOM     82  C   UNL A   1      40.472  26.435  28.834  1.00  0.00     0.012 A 
ATOM     83  C   UNL A   1      42.212  27.896  27.974  1.00  0.00     0.148 A 
ATOM     84  C   UNL A   1      40.614  25.600  27.725  1.00  0.00     0.002 A 
ATOM     85  C   UNL A   1      42.314  27.087  26.847  1.00  0.00     0.091 A 
ATOM     86  F   UNL A   1      42.980  28.982  28.136  1.00  0.00    -0.205 F 
ATOM     87  C   UNL A   1      41.526  25.932  26.727  1.00  0.00     0.022 A 
BRANCH  85  88
ATOM     88  S   UNL A   1      43.370  27.520  25.458  1.00  0.00     0.127 S 
ATOM     89  O   UNL A   1      43.929  26.221  25.090  1.00  0.00    -0.237 OA
ATOM     90  O   UNL A   1      42.410  28.070  24.499  1.00  0.00    -0.237 OA
ATOM     91  O   UNL A   1      44.312  28.497  25.983  1.00  0.00    -0.744 OA
ENDBRANCH  85  88
ENDBRANCH  57  81
BRANCH  69  92
ATOM     92  C   UNL A   1      44.271  27.948  35.276  1.00  0.00     0.023 A 
ATOM     93  C   UNL A   1      43.961  26.775  35.992  1.00  0.00     0.012 A 
ATOM     94  C   UNL A   1      45.617  28.327  35.114  1.00  0.00     0.148 A 
ATOM     95  C   UNL A   1      44.977  26.002  36.556  1.00  0.00     0.002 A 
ATOM     96  C   UNL A   1      46.625  27.531  35.646  1.00  0.00     0.091 A 
ATOM     97  F   UNL A   1      45.890  29.460  34.450  1.00  0.00    -0.205 F 
ATOM     98  C   UNL A   1      46.306  26.372  36.374  1.00  0.00     0.022 A 
BRANCH  96  99
ATOM     99  S   UNL A   1      48.364  27.895  35.380  1.00  0.00     0.127 S 
ATOM    100  O   UNL A   1      48.596  28.971  36.340  1.00  0.00    -0.237 OA
ATOM    101  O   UNL A   1      49.011  26.626  35.719  1.00  0.00    -0.237 OA
ATOM    102  O   UNL A   1      48.477  28.265  33.975  1.00  0.00    -0.744 OA
ENDBRANCH  96  99
ENDBRANCH  69  92
ENDBRANCH  43  44
ENDBRANCH  35  38
ENDBRANCH  33  34
ENDBRANCH  32  33
ENDBRANCH  31  32
ENDBRANCH   1  31
TORSDOF 20
ENDMDL
