MODEL 1
REMARK VINA RESULT:     -12.5      0.000      0.000
REMARK SMILES CC1=C(C(=O)Nc2ccccc2)[C@@H](c2ccc(C(=O)NCCCCCCNC(=O)c3ccc(-c4c5nc(c(-c6cccc(S(=O)(=O)[O-])c6F)c6ccc([nH]6)c(-c6cccc(S(=O)(=O)[O-])c6F)c6nc(c(-c7cccc(S(=O)(=O)[O-])c7F)c7ccc4[nH]7)C=C6)C=C5)cc3)cc2)n2ncnc2N1
REMARK SMILES IDX 23 1 22 2 21 3 20 4 18 5 19 6 17 8 14 9 15 10 94 11 16 12
REMARK SMILES IDX 93 13 13 14 1 15 2 16 3 17 100 18 99 19 95 21 98 22 96 23
REMARK SMILES IDX 97 24 4 25 5 26 6 27 7 29 8 30 12 31 9 32 11 33 10 34 24 35
REMARK SMILES IDX 25 36 26 37 27 38 28 39 29 41 30 42 31 43 92 44 32 45 91 46
REMARK SMILES IDX 33 47 34 48 35 49 85 50 36 51 90 52 84 53 86 54 37 55 89 56
REMARK SMILES IDX 83 57 82 58 38 60 70 61 50 62 69 63 51 64 54 65 68 66 87 67
REMARK SMILES IDX 52 68 53 69 67 71 88 72 55 73 39 74 40 75 48 76 41 77 43 78
REMARK SMILES IDX 49 79 42 80 44 81 45 82 46 83 47 84 71 85 72 86 80 87 73 88
REMARK SMILES IDX 75 89 81 90 74 91 76 92 77 93 78 94 79 95 56 96 57 97 65 98
REMARK SMILES IDX 58 99 60 100 66 101 59 102 61 103 62 104 63 105 64 106
REMARK H PARENT 20 7 100 20 6 28 27 40 86 59 54 70
REMARK Flexibility Score: inf
ROOT
ATOM      1  C   UNL A   1      33.530  29.530  27.010  1.00  0.00     0.002 C 
ENDROOT
BRANCH   1   2
ATOM      2  C   UNL A   1      32.023  29.258  26.920  1.00  0.00     0.021 C 
BRANCH   2   3
ATOM      3  C   UNL A   1      31.638  28.367  25.737  1.00  0.00     0.116 C 
BRANCH   3   4
ATOM      4  N   UNL A   1      32.134  28.932  24.493  1.00  0.00    -0.352 N 
ATOM      5  C   UNL A   1      32.934  28.420  23.501  1.00  0.00     0.251 C 
ATOM      6  O   UNL A   1      33.157  29.129  22.520  1.00  0.00    -0.269 OA
ATOM      7  H   UNL A   1      31.840  29.857  24.331  1.00  0.00     0.163 HD
BRANCH   5   8
ATOM      8  C   UNL A   1      33.467  27.030  23.532  1.00  0.00     0.039 A 
ATOM      9  C   UNL A   1      34.242  24.314  23.482  1.00  0.00    -0.019 A 
ATOM     10  C   UNL A   1      33.892  24.965  22.295  1.00  0.00     0.007 A 
ATOM     11  C   UNL A   1      34.270  25.064  24.671  1.00  0.00     0.007 A 
ATOM     12  C   UNL A   1      33.490  26.308  22.327  1.00  0.00     0.014 A 
ATOM     13  C   UNL A   1      33.943  26.415  24.684  1.00  0.00     0.014 A 
BRANCH   9  14
ATOM     14  C   UNL A   1      34.614  22.840  23.566  1.00  0.00     0.179 C 
ATOM     15  C   UNL A   1      32.916  19.422  24.351  1.00  0.00     0.065 C 
ATOM     16  C   UNL A   1      33.723  20.692  24.460  1.00  0.00     0.026 C 
ATOM     17  C   UNL A   1      33.462  21.847  23.791  1.00  0.00     0.065 C 
ATOM     18  N   UNL A   1      34.887  20.557  25.210  1.00  0.00    -0.328 N 
ATOM     19  C   UNL A   1      35.869  21.472  25.239  1.00  0.00     0.226 A 
ATOM     20  H   UNL A   1      34.997  19.742  25.752  1.00  0.00     0.169 HD
ATOM     21  N   UNL A   1      35.743  22.606  24.482  1.00  0.00    -0.219 N 
ATOM     22  N   UNL A   1      37.032  21.465  25.839  1.00  0.00    -0.200 NA
ATOM     23  N   UNL A   1      36.885  23.330  24.512  1.00  0.00    -0.157 NA
ATOM     24  C   UNL A   1      37.622  22.602  25.356  1.00  0.00     0.248 A 
BRANCH  17  25
ATOM     25  C   UNL A   1      32.263  22.125  22.948  1.00  0.00     0.255 C 
ATOM     26  O   UNL A   1      32.188  21.565  21.853  1.00  0.00    -0.269 OA
ATOM     27  N   UNL A   1      31.236  22.946  23.313  1.00  0.00    -0.322 N 
ATOM     28  H   UNL A   1      30.634  23.202  22.576  1.00  0.00     0.170 HD
BRANCH  27  29
ATOM     29  C   UNL A   1      30.892  23.486  24.558  1.00  0.00     0.041 A 
ATOM     30  C   UNL A   1      30.540  24.841  24.552  1.00  0.00     0.026 A 
ATOM     31  C   UNL A   1      30.767  22.743  25.730  1.00  0.00     0.026 A 
ATOM     32  C   UNL A   1      29.916  25.409  25.661  1.00  0.00     0.002 A 
ATOM     33  C   UNL A   1      30.187  23.331  26.860  1.00  0.00     0.002 A 
ATOM     34  C   UNL A   1      29.725  24.648  26.811  1.00  0.00     0.000 A 
ENDBRANCH  27  29
ENDBRANCH  17  25
ENDBRANCH   9  14
ENDBRANCH   5   8
ENDBRANCH   3   4
ENDBRANCH   2   3
ENDBRANCH   1   2
BRANCH   1  35
ATOM     35  C   UNL A   1      33.909  30.953  27.443  1.00  0.00     0.002 C 
BRANCH  35  36
ATOM     36  C   UNL A   1      32.728  31.892  27.735  1.00  0.00     0.021 C 
BRANCH  36  37
ATOM     37  C   UNL A   1      32.887  33.268  27.104  1.00  0.00     0.116 C 
BRANCH  37  38
ATOM     38  N   UNL A   1      32.546  34.320  28.056  1.00  0.00    -0.352 N 
ATOM     39  C   UNL A   1      33.138  34.628  29.259  1.00  0.00     0.251 C 
ATOM     40  H   UNL A   1      31.786  34.890  27.800  1.00  0.00     0.163 HD
ATOM     41  O   UNL A   1      32.533  35.289  30.087  1.00  0.00    -0.269 OA
BRANCH  39  42
ATOM     42  C   UNL A   1      34.501  34.142  29.543  1.00  0.00     0.039 A 
ATOM     43  C   UNL A   1      34.693  33.210  30.566  1.00  0.00     0.014 A 
ATOM     44  C   UNL A   1      35.580  34.619  28.797  1.00  0.00     0.014 A 
ATOM     45  C   UNL A   1      35.969  32.701  30.779  1.00  0.00     0.010 A 
ATOM     46  C   UNL A   1      36.827  34.046  28.948  1.00  0.00     0.010 A 
ATOM     47  C   UNL A   1      37.029  33.098  29.948  1.00  0.00    -0.014 A 
BRANCH  47  48
ATOM     48  C   UNL A   1      38.287  32.350  29.995  1.00  0.00     0.031 A 
ATOM     49  C   UNL A   1      38.177  30.989  29.402  1.00  0.00     0.074 A 
ATOM     50  C   UNL A   1      39.480  32.876  30.346  1.00  0.00     0.049 A 
ATOM     51  N   UNL A   1      38.206  29.859  30.028  1.00  0.00    -0.248 NA
ATOM     52  C   UNL A   1      37.809  30.872  27.982  1.00  0.00     0.031 C 
ATOM     53  C   UNL A   1      39.765  34.282  30.653  1.00  0.00     0.029 A 
ATOM     54  N   UNL A   1      40.721  32.302  30.368  1.00  0.00    -0.354 N 
ATOM     55  C   UNL A   1      38.152  28.889  29.030  1.00  0.00     0.074 A 
ATOM     56  C   UNL A   1      37.666  29.551  27.851  1.00  0.00     0.031 C 
ATOM     57  C   UNL A   1      41.096  34.498  30.575  1.00  0.00     0.029 A 
ATOM     58  C   UNL A   1      41.766  33.226  30.379  1.00  0.00     0.049 A 
ATOM     59  H   UNL A   1      40.864  31.328  30.375  1.00  0.00     0.167 HD
ATOM     60  C   UNL A   1      38.838  27.720  29.173  1.00  0.00     0.034 A 
ATOM     61  C   UNL A   1      43.087  32.976  30.212  1.00  0.00     0.034 A 
ATOM     62  C   UNL A   1      39.272  27.549  30.537  1.00  0.00     0.049 A 
ATOM     63  C   UNL A   1      43.312  31.555  30.540  1.00  0.00     0.074 A 
ATOM     64  C   UNL A   1      38.683  27.364  31.767  1.00  0.00     0.029 A 
ATOM     65  N   UNL A   1      40.558  27.969  30.756  1.00  0.00    -0.354 N 
ATOM     66  N   UNL A   1      43.215  31.078  31.748  1.00  0.00    -0.248 NA
ATOM     67  C   UNL A   1      43.363  30.564  29.475  1.00  0.00     0.031 C 
ATOM     68  C   UNL A   1      39.587  27.928  32.717  1.00  0.00     0.029 A 
ATOM     69  C   UNL A   1      40.718  28.390  32.043  1.00  0.00     0.049 A 
ATOM     70  H   UNL A   1      41.268  27.970  30.075  1.00  0.00     0.167 HD
ATOM     71  C   UNL A   1      42.704  29.808  31.556  1.00  0.00     0.074 A 
ATOM     72  C   UNL A   1      43.019  29.479  30.172  1.00  0.00     0.031 C 
ATOM     73  C   UNL A   1      41.779  29.300  32.422  1.00  0.00     0.034 A 
BRANCH  60  74
ATOM     74  C   UNL A   1      39.573  26.991  28.054  1.00  0.00     0.023 A 
ATOM     75  C   UNL A   1      39.344  25.597  27.948  1.00  0.00     0.012 A 
ATOM     76  C   UNL A   1      40.681  27.504  27.342  1.00  0.00     0.148 A 
ATOM     77  C   UNL A   1      40.207  24.758  27.233  1.00  0.00     0.002 A 
ATOM     78  C   UNL A   1      41.490  26.677  26.568  1.00  0.00     0.091 A 
ATOM     79  F   UNL A   1      41.059  28.772  27.505  1.00  0.00    -0.205 F 
ATOM     80  C   UNL A   1      41.279  25.298  26.538  1.00  0.00     0.022 A 
BRANCH  78  81
ATOM     81  S   UNL A   1      42.870  27.333  25.619  1.00  0.00     0.127 S 
ATOM     82  O   UNL A   1      43.393  26.124  24.990  1.00  0.00    -0.237 OA
ATOM     83  O   UNL A   1      42.191  28.261  24.714  1.00  0.00    -0.237 OA
ATOM     84  O   UNL A   1      43.745  27.980  26.589  1.00  0.00    -0.744 OA
ENDBRANCH  78  81
ENDBRANCH  60  74
BRANCH  61  85
ATOM     85  C   UNL A   1      44.190  33.817  29.691  1.00  0.00     0.023 A 
ATOM     86  C   UNL A   1      45.090  34.416  30.597  1.00  0.00     0.012 A 
ATOM     87  C   UNL A   1      44.540  33.785  28.325  1.00  0.00     0.148 A 
ATOM     88  C   UNL A   1      46.327  34.907  30.169  1.00  0.00     0.002 A 
ATOM     89  C   UNL A   1      45.773  34.275  27.903  1.00  0.00     0.091 A 
ATOM     90  F   UNL A   1      43.706  33.191  27.461  1.00  0.00    -0.205 F 
ATOM     91  C   UNL A   1      46.676  34.823  28.824  1.00  0.00     0.022 A 
BRANCH  89  92
ATOM     92  S   UNL A   1      46.314  34.169  26.191  1.00  0.00     0.127 S 
ATOM     93  O   UNL A   1      45.122  34.612  25.467  1.00  0.00    -0.237 OA
ATOM     94  O   UNL A   1      47.429  35.112  26.166  1.00  0.00    -0.237 OA
ATOM     95  O   UNL A   1      46.664  32.772  25.971  1.00  0.00    -0.744 OA
ENDBRANCH  89  92
ENDBRANCH  61  85
BRANCH  73  96
ATOM     96  C   UNL A   1      41.747  29.868  33.812  1.00  0.00     0.023 A 
ATOM     97  C   UNL A   1      42.633  29.473  34.833  1.00  0.00     0.012 A 
ATOM     98  C   UNL A   1      40.829  30.900  34.067  1.00  0.00     0.148 A 
ATOM     99  C   UNL A   1      42.577  30.073  36.095  1.00  0.00     0.002 A 
ATOM    100  C   UNL A   1      40.811  31.529  35.304  1.00  0.00     0.091 A 
ATOM    101  F   UNL A   1      39.982  31.257  33.088  1.00  0.00    -0.205 F 
ATOM    102  C   UNL A   1      41.674  31.110  36.326  1.00  0.00     0.022 A 
BRANCH 100 103
ATOM    103  S   UNL A   1      39.750  32.943  35.600  1.00  0.00     0.127 S 
ATOM    104  O   UNL A   1      40.017  33.238  37.005  1.00  0.00    -0.237 OA
ATOM    105  O   UNL A   1      40.270  33.936  34.656  1.00  0.00    -0.237 OA
ATOM    106  O   UNL A   1      38.398  32.491  35.292  1.00  0.00    -0.744 OA
ENDBRANCH 100 103
ENDBRANCH  73  96
ENDBRANCH  47  48
ENDBRANCH  39  42
ENDBRANCH  37  38
ENDBRANCH  36  37
ENDBRANCH  35  36
ENDBRANCH   1  35
TORSDOF 19
ENDMDL
MODEL 2
REMARK VINA RESULT:     -12.0      3.018      4.224
REMARK SMILES CC1=C(C(=O)Nc2ccccc2)[C@@H](c2ccc(C(=O)NCCCCCCNC(=O)c3ccc(-c4c5nc(c(-c6cccc(S(=O)(=O)[O-])c6F)c6ccc([nH]6)c(-c6cccc(S(=O)(=O)[O-])c6F)c6nc(c(-c7cccc(S(=O)(=O)[O-])c7F)c7ccc4[nH]7)C=C6)C=C5)cc3)cc2)n2ncnc2N1
REMARK SMILES IDX 23 1 22 2 21 3 20 4 18 5 19 6 17 8 14 9 15 10 94 11 16 12
REMARK SMILES IDX 93 13 13 14 1 15 2 16 3 17 100 18 99 19 95 21 98 22 96 23
REMARK SMILES IDX 97 24 4 25 5 26 6 27 7 29 8 30 12 31 9 32 11 33 10 34 24 35
REMARK SMILES IDX 25 36 26 37 27 38 28 39 29 41 30 42 31 43 92 44 32 45 91 46
REMARK SMILES IDX 33 47 34 48 35 49 85 50 36 51 90 52 84 53 86 54 37 55 89 56
REMARK SMILES IDX 83 57 82 58 38 60 70 61 50 62 69 63 51 64 54 65 68 66 87 67
REMARK SMILES IDX 52 68 53 69 67 71 88 72 55 73 39 74 40 75 48 76 41 77 43 78
REMARK SMILES IDX 49 79 42 80 44 81 45 82 46 83 47 84 71 85 72 86 80 87 73 88
REMARK SMILES IDX 75 89 81 90 74 91 76 92 77 93 78 94 79 95 56 96 57 97 65 98
REMARK SMILES IDX 58 99 60 100 66 101 59 102 61 103 62 104 63 105 64 106
REMARK H PARENT 20 7 100 20 6 28 27 40 86 59 54 70
REMARK Flexibility Score: inf
ROOT
ATOM      1  C   UNL A   1      31.777  29.644  24.842  1.00  0.00     0.002 C 
ENDROOT
BRANCH   1   2
ATOM      2  C   UNL A   1      30.603  28.880  24.218  1.00  0.00     0.021 C 
BRANCH   2   3
ATOM      3  C   UNL A   1      30.946  28.240  22.870  1.00  0.00     0.116 C 
BRANCH   3   4
ATOM      4  N   UNL A   1      32.262  28.665  22.427  1.00  0.00    -0.352 N 
ATOM      5  C   UNL A   1      33.449  27.990  22.279  1.00  0.00     0.251 C 
ATOM      6  O   UNL A   1      34.413  28.612  21.831  1.00  0.00    -0.269 OA
ATOM      7  H   UNL A   1      32.314  29.619  22.187  1.00  0.00     0.163 HD
BRANCH   5   8
ATOM      8  C   UNL A   1      33.589  26.534  22.559  1.00  0.00     0.039 A 
ATOM      9  C   UNL A   1      34.110  23.823  23.161  1.00  0.00    -0.019 A 
ATOM     10  C   UNL A   1      34.262  24.802  24.148  1.00  0.00     0.007 A 
ATOM     11  C   UNL A   1      33.623  24.216  21.902  1.00  0.00     0.007 A 
ATOM     12  C   UNL A   1      34.020  26.149  23.840  1.00  0.00     0.014 A 
ATOM     13  C   UNL A   1      33.312  25.542  21.625  1.00  0.00     0.014 A 
BRANCH   9  14
ATOM     14  C   UNL A   1      34.424  22.349  23.371  1.00  0.00     0.179 C 
ATOM     15  C   UNL A   1      32.629  19.107  24.576  1.00  0.00     0.065 C 
ATOM     16  C   UNL A   1      33.494  20.342  24.517  1.00  0.00     0.026 C 
ATOM     17  C   UNL A   1      33.245  21.438  23.752  1.00  0.00     0.065 C 
ATOM     18  N   UNL A   1      34.690  20.225  25.218  1.00  0.00    -0.328 N 
ATOM     19  C   UNL A   1      35.710  21.091  25.106  1.00  0.00     0.226 A 
ATOM     20  H   UNL A   1      34.796  19.462  25.832  1.00  0.00     0.169 HD
ATOM     21  N   UNL A   1      35.591  22.151  24.249  1.00  0.00    -0.219 N 
ATOM     22  N   UNL A   1      36.903  21.087  25.645  1.00  0.00    -0.200 NA
ATOM     23  N   UNL A   1      36.762  22.820  24.149  1.00  0.00    -0.157 NA
ATOM     24  C   UNL A   1      37.513  22.143  25.023  1.00  0.00     0.248 A 
BRANCH  17  25
ATOM     25  C   UNL A   1      32.015  21.690  22.948  1.00  0.00     0.255 C 
ATOM     26  O   UNL A   1      31.817  20.978  21.961  1.00  0.00    -0.269 OA
ATOM     27  N   UNL A   1      31.085  22.646  23.236  1.00  0.00    -0.322 N 
ATOM     28  H   UNL A   1      30.454  22.838  22.505  1.00  0.00     0.170 HD
BRANCH  27  29
ATOM     29  C   UNL A   1      30.876  23.399  24.398  1.00  0.00     0.041 A 
ATOM     30  C   UNL A   1      30.626  24.762  24.197  1.00  0.00     0.026 A 
ATOM     31  C   UNL A   1      30.783  22.859  25.679  1.00  0.00     0.026 A 
ATOM     32  C   UNL A   1      30.130  25.546  25.237  1.00  0.00     0.002 A 
ATOM     33  C   UNL A   1      30.333  23.662  26.734  1.00  0.00     0.002 A 
ATOM     34  C   UNL A   1      29.968  24.991  26.503  1.00  0.00     0.000 A 
ENDBRANCH  27  29
ENDBRANCH  17  25
ENDBRANCH   9  14
ENDBRANCH   5   8
ENDBRANCH   3   4
ENDBRANCH   2   3
ENDBRANCH   1   2
BRANCH   1  35
ATOM     35  C   UNL A   1      32.502  28.907  25.978  1.00  0.00     0.002 C 
BRANCH  35  36
ATOM     36  C   UNL A   1      34.037  28.958  25.923  1.00  0.00     0.021 C 
BRANCH  36  37
ATOM     37  C   UNL A   1      34.692  28.699  27.273  1.00  0.00     0.116 C 
BRANCH  37  38
ATOM     38  N   UNL A   1      34.843  29.940  28.026  1.00  0.00    -0.352 N 
ATOM     39  C   UNL A   1      35.861  30.329  28.865  1.00  0.00     0.251 C 
ATOM     40  H   UNL A   1      34.113  30.591  27.915  1.00  0.00     0.163 HD
ATOM     41  O   UNL A   1      35.677  31.221  29.678  1.00  0.00    -0.269 OA
BRANCH  39  42
ATOM     42  C   UNL A   1      37.168  29.651  28.784  1.00  0.00     0.039 A 
ATOM     43  C   UNL A   1      38.009  29.919  27.701  1.00  0.00     0.014 A 
ATOM     44  C   UNL A   1      37.547  28.748  29.778  1.00  0.00     0.014 A 
ATOM     45  C   UNL A   1      39.269  29.334  27.668  1.00  0.00     0.010 A 
ATOM     46  C   UNL A   1      38.831  28.240  29.793  1.00  0.00     0.010 A 
ATOM     47  C   UNL A   1      39.690  28.519  28.732  1.00  0.00    -0.014 A 
BRANCH  47  48
ATOM     48  C   UNL A   1      41.103  28.146  28.827  1.00  0.00     0.031 A 
ATOM     49  C   UNL A   1      41.472  27.031  27.912  1.00  0.00     0.074 A 
ATOM     50  C   UNL A   1      42.038  28.843  29.507  1.00  0.00     0.049 A 
ATOM     51  N   UNL A   1      41.774  25.819  28.239  1.00  0.00    -0.248 NA
ATOM     52  C   UNL A   1      41.308  27.232  26.463  1.00  0.00     0.031 C 
ATOM     53  C   UNL A   1      41.850  30.127  30.193  1.00  0.00     0.029 A 
ATOM     54  N   UNL A   1      43.384  28.633  29.616  1.00  0.00    -0.354 N 
ATOM     55  C   UNL A   1      42.122  25.195  27.044  1.00  0.00     0.074 A 
ATOM     56  C   UNL A   1      41.586  26.013  25.992  1.00  0.00     0.031 C 
ATOM     57  C   UNL A   1      43.055  30.697  30.416  1.00  0.00     0.029 A 
ATOM     58  C   UNL A   1      44.094  29.756  30.043  1.00  0.00     0.049 A 
ATOM     59  H   UNL A   1      43.813  27.770  29.413  1.00  0.00     0.167 HD
ATOM     60  C   UNL A   1      43.109  24.255  27.022  1.00  0.00     0.034 A 
ATOM     61  C   UNL A   1      45.438  29.919  30.065  1.00  0.00     0.034 A 
ATOM     62  C   UNL A   1      43.428  23.822  28.360  1.00  0.00     0.049 A 
ATOM     63  C   UNL A   1      46.046  28.574  30.075  1.00  0.00     0.074 A 
ATOM     64  C   UNL A   1      42.796  23.147  29.379  1.00  0.00     0.029 A 
ATOM     65  N   UNL A   1      44.496  24.485  28.906  1.00  0.00    -0.354 N 
ATOM     66  N   UNL A   1      45.971  27.765  31.091  1.00  0.00    -0.248 NA
ATOM     67  C   UNL A   1      46.506  27.977  28.829  1.00  0.00     0.031 C 
ATOM     68  C   UNL A   1      43.382  23.633  30.586  1.00  0.00     0.029 A 
ATOM     69  C   UNL A   1      44.386  24.547  30.264  1.00  0.00     0.049 A 
ATOM     70  H   UNL A   1      45.241  24.865  28.387  1.00  0.00     0.167 HD
ATOM     71  C   UNL A   1      45.891  26.514  30.507  1.00  0.00     0.074 A 
ATOM     72  C   UNL A   1      46.435  26.688  29.167  1.00  0.00     0.031 C 
ATOM     73  C   UNL A   1      45.076  25.557  31.039  1.00  0.00     0.034 A 
BRANCH  60  74
ATOM     74  C   UNL A   1      44.143  24.095  25.914  1.00  0.00     0.023 A 
ATOM     75  C   UNL A   1      44.301  22.794  25.377  1.00  0.00     0.012 A 
ATOM     76  C   UNL A   1      45.160  25.029  25.611  1.00  0.00     0.148 A 
ATOM     77  C   UNL A   1      45.436  22.428  24.642  1.00  0.00     0.002 A 
ATOM     78  C   UNL A   1      46.248  24.683  24.815  1.00  0.00     0.091 A 
ATOM     79  F   UNL A   1      45.172  26.226  26.196  1.00  0.00    -0.205 F 
ATOM     80  C   UNL A   1      46.409  23.375  24.356  1.00  0.00     0.022 A 
BRANCH  78  81
ATOM     81  S   UNL A   1      47.518  25.882  24.384  1.00  0.00     0.127 S 
ATOM     82  O   UNL A   1      48.259  25.985  25.638  1.00  0.00    -0.237 OA
ATOM     83  O   UNL A   1      48.220  25.193  23.302  1.00  0.00    -0.237 OA
ATOM     84  O   UNL A   1      46.802  27.081  23.964  1.00  0.00    -0.744 OA
ENDBRANCH  78  81
ENDBRANCH  60  74
BRANCH  61  85
ATOM     85  C   UNL A   1      46.284  31.132  29.975  1.00  0.00     0.023 A 
ATOM     86  C   UNL A   1      47.352  31.299  30.882  1.00  0.00     0.012 A 
ATOM     87  C   UNL A   1      46.242  31.959  28.834  1.00  0.00     0.148 A 
ATOM     88  C   UNL A   1      48.379  32.214  30.628  1.00  0.00     0.002 A 
ATOM     89  C   UNL A   1      47.267  32.868  28.584  1.00  0.00     0.091 A 
ATOM     90  F   UNL A   1      45.250  31.786  27.950  1.00  0.00    -0.205 F 
ATOM     91  C   UNL A   1      48.345  32.987  29.472  1.00  0.00     0.022 A 
BRANCH  89  92
ATOM     92  S   UNL A   1      47.318  33.875  27.096  1.00  0.00     0.127 S 
ATOM     93  O   UNL A   1      48.438  34.775  27.375  1.00  0.00    -0.237 OA
ATOM     94  O   UNL A   1      47.580  32.878  26.062  1.00  0.00    -0.237 OA
ATOM     95  O   UNL A   1      46.022  34.538  27.020  1.00  0.00    -0.744 OA
ENDBRANCH  89  92
ENDBRANCH  61  85
BRANCH  73  96
ATOM     96  C   UNL A   1      44.727  25.676  32.495  1.00  0.00     0.023 A 
ATOM     97  C   UNL A   1      45.467  25.060  33.524  1.00  0.00     0.012 A 
ATOM     98  C   UNL A   1      43.651  26.511  32.836  1.00  0.00     0.148 A 
ATOM     99  C   UNL A   1      45.114  25.245  34.864  1.00  0.00     0.002 A 
ATOM    100  C   UNL A   1      43.335  26.735  34.169  1.00  0.00     0.091 A 
ATOM    101  F   UNL A   1      42.948  27.081  31.845  1.00  0.00    -0.205 F 
ATOM    102  C   UNL A   1      44.054  26.093  35.187  1.00  0.00     0.022 A 
BRANCH 100 103
ATOM    103  S   UNL A   1      42.061  27.910  34.625  1.00  0.00     0.127 S 
ATOM    104  O   UNL A   1      42.169  27.928  36.082  1.00  0.00    -0.237 OA
ATOM    105  O   UNL A   1      42.507  29.138  33.963  1.00  0.00    -0.237 OA
ATOM    106  O   UNL A   1      40.818  27.370  34.087  1.00  0.00    -0.744 OA
ENDBRANCH 100 103
ENDBRANCH  73  96
ENDBRANCH  47  48
ENDBRANCH  39  42
ENDBRANCH  37  38
ENDBRANCH  36  37
ENDBRANCH  35  36
ENDBRANCH   1  35
TORSDOF 19
ENDMDL
MODEL 3
REMARK VINA RESULT:     -11.9      3.355      7.184
REMARK SMILES CC1=C(C(=O)Nc2ccccc2)[C@@H](c2ccc(C(=O)NCCCCCCNC(=O)c3ccc(-c4c5nc(c(-c6cccc(S(=O)(=O)[O-])c6F)c6ccc([nH]6)c(-c6cccc(S(=O)(=O)[O-])c6F)c6nc(c(-c7cccc(S(=O)(=O)[O-])c7F)c7ccc4[nH]7)C=C6)C=C5)cc3)cc2)n2ncnc2N1
REMARK SMILES IDX 23 1 22 2 21 3 20 4 18 5 19 6 17 8 14 9 15 10 94 11 16 12
REMARK SMILES IDX 93 13 13 14 1 15 2 16 3 17 100 18 99 19 95 21 98 22 96 23
REMARK SMILES IDX 97 24 4 25 5 26 6 27 7 29 8 30 12 31 9 32 11 33 10 34 24 35
REMARK SMILES IDX 25 36 26 37 27 38 28 39 29 41 30 42 31 43 92 44 32 45 91 46
REMARK SMILES IDX 33 47 34 48 35 49 85 50 36 51 90 52 84 53 86 54 37 55 89 56
REMARK SMILES IDX 83 57 82 58 38 60 70 61 50 62 69 63 51 64 54 65 68 66 87 67
REMARK SMILES IDX 52 68 53 69 67 71 88 72 55 73 39 74 40 75 48 76 41 77 43 78
REMARK SMILES IDX 49 79 42 80 44 81 45 82 46 83 47 84 71 85 72 86 80 87 73 88
REMARK SMILES IDX 75 89 81 90 74 91 76 92 77 93 78 94 79 95 56 96 57 97 65 98
REMARK SMILES IDX 58 99 60 100 66 101 59 102 61 103 62 104 63 105 64 106
REMARK H PARENT 20 7 100 20 6 28 27 40 86 59 54 70
REMARK Flexibility Score: inf
ROOT
ATOM      1  C   UNL A   1      31.471  29.703  24.957  1.00  0.00     0.002 C 
ENDROOT
BRANCH   1   2
ATOM      2  C   UNL A   1      30.465  28.787  24.249  1.00  0.00     0.021 C 
BRANCH   2   3
ATOM      3  C   UNL A   1      30.905  28.381  22.840  1.00  0.00     0.116 C 
BRANCH   3   4
ATOM      4  N   UNL A   1      32.260  28.836  22.580  1.00  0.00    -0.352 N 
ATOM      5  C   UNL A   1      33.464  28.175  22.544  1.00  0.00     0.251 C 
ATOM      6  O   UNL A   1      34.467  28.825  22.246  1.00  0.00    -0.269 OA
ATOM      7  H   UNL A   1      32.329  29.800  22.394  1.00  0.00     0.163 HD
BRANCH   5   8
ATOM      8  C   UNL A   1      33.586  26.708  22.768  1.00  0.00     0.039 A 
ATOM      9  C   UNL A   1      34.068  23.972  23.282  1.00  0.00    -0.019 A 
ATOM     10  C   UNL A   1      34.151  24.906  24.320  1.00  0.00     0.007 A 
ATOM     11  C   UNL A   1      33.667  24.421  22.012  1.00  0.00     0.007 A 
ATOM     12  C   UNL A   1      33.929  26.265  24.056  1.00  0.00     0.014 A 
ATOM     13  C   UNL A   1      33.374  25.759  21.774  1.00  0.00     0.014 A 
BRANCH   9  14
ATOM     14  C   UNL A   1      34.369  22.489  23.447  1.00  0.00     0.179 C 
ATOM     15  C   UNL A   1      32.523  19.215  24.474  1.00  0.00     0.065 C 
ATOM     16  C   UNL A   1      33.394  20.446  24.488  1.00  0.00     0.026 C 
ATOM     17  C   UNL A   1      33.174  21.571  23.757  1.00  0.00     0.065 C 
ATOM     18  N   UNL A   1      34.568  20.297  25.221  1.00  0.00    -0.328 N 
ATOM     19  C   UNL A   1      35.594  21.161  25.173  1.00  0.00     0.226 A 
ATOM     20  H   UNL A   1      34.650  19.511  25.809  1.00  0.00     0.169 HD
ATOM     21  N   UNL A   1      35.506  22.253  24.352  1.00  0.00    -0.219 N 
ATOM     22  N   UNL A   1      36.769  21.130  25.748  1.00  0.00    -0.200 NA
ATOM     23  N   UNL A   1      36.684  22.919  24.314  1.00  0.00    -0.157 NA
ATOM     24  C   UNL A   1      37.403  22.205  25.185  1.00  0.00     0.248 A 
BRANCH  17  25
ATOM     25  C   UNL A   1      31.971  21.860  22.924  1.00  0.00     0.255 C 
ATOM     26  O   UNL A   1      31.787  21.169  21.920  1.00  0.00    -0.269 OA
ATOM     27  N   UNL A   1      31.051  22.828  23.205  1.00  0.00    -0.322 N 
ATOM     28  H   UNL A   1      30.444  23.044  22.460  1.00  0.00     0.170 HD
BRANCH  27  29
ATOM     29  C   UNL A   1      30.824  23.564  24.373  1.00  0.00     0.041 A 
ATOM     30  C   UNL A   1      30.486  24.910  24.183  1.00  0.00     0.026 A 
ATOM     31  C   UNL A   1      30.795  23.017  25.655  1.00  0.00     0.026 A 
ATOM     32  C   UNL A   1      29.968  25.660  25.237  1.00  0.00     0.002 A 
ATOM     33  C   UNL A   1      30.323  23.789  26.723  1.00  0.00     0.002 A 
ATOM     34  C   UNL A   1      29.871  25.093  26.505  1.00  0.00     0.000 A 
ENDBRANCH  27  29
ENDBRANCH  17  25
ENDBRANCH   9  14
ENDBRANCH   5   8
ENDBRANCH   3   4
ENDBRANCH   2   3
ENDBRANCH   1   2
BRANCH   1  35
ATOM     35  C   UNL A   1      32.005  29.170  26.295  1.00  0.00     0.002 C 
BRANCH  35  36
ATOM     36  C   UNL A   1      33.493  28.791  26.309  1.00  0.00     0.021 C 
BRANCH  36  37
ATOM     37  C   UNL A   1      34.246  29.363  27.502  1.00  0.00     0.116 C 
BRANCH  37  38
ATOM     38  N   UNL A   1      34.657  30.739  27.247  1.00  0.00    -0.352 N 
ATOM     39  C   UNL A   1      35.700  31.450  27.794  1.00  0.00     0.251 C 
ATOM     40  H   UNL A   1      34.111  31.227  26.589  1.00  0.00     0.163 HD
ATOM     41  O   UNL A   1      35.700  32.671  27.748  1.00  0.00    -0.269 OA
BRANCH  39  42
ATOM     42  C   UNL A   1      36.807  30.728  28.446  1.00  0.00     0.039 A 
ATOM     43  C   UNL A   1      36.801  29.331  28.453  1.00  0.00     0.014 A 
ATOM     44  C   UNL A   1      37.842  31.442  29.054  1.00  0.00     0.014 A 
ATOM     45  C   UNL A   1      37.884  28.657  29.003  1.00  0.00     0.010 A 
ATOM     46  C   UNL A   1      38.958  30.775  29.517  1.00  0.00     0.010 A 
ATOM     47  C   UNL A   1      38.977  29.382  29.508  1.00  0.00    -0.014 A 
BRANCH  47  48
ATOM     48  C   UNL A   1      40.219  28.671  29.818  1.00  0.00     0.031 A 
ATOM     49  C   UNL A   1      40.614  28.788  31.248  1.00  0.00     0.074 A 
ATOM     50  C   UNL A   1      40.855  27.830  28.974  1.00  0.00     0.049 A 
ATOM     51  N   UNL A   1      41.607  29.455  31.734  1.00  0.00    -0.248 NA
ATOM     52  C   UNL A   1      39.698  28.257  32.272  1.00  0.00     0.031 C 
ATOM     53  C   UNL A   1      40.393  27.400  27.649  1.00  0.00     0.029 A 
ATOM     54  N   UNL A   1      41.973  27.069  29.168  1.00  0.00    -0.354 N 
ATOM     55  C   UNL A   1      41.600  29.179  33.099  1.00  0.00     0.074 A 
ATOM     56  C   UNL A   1      40.293  28.660  33.397  1.00  0.00     0.031 C 
ATOM     57  C   UNL A   1      41.066  26.289  27.278  1.00  0.00     0.029 A 
ATOM     58  C   UNL A   1      42.109  26.027  28.252  1.00  0.00     0.049 A 
ATOM     59  H   UNL A   1      42.623  27.241  29.888  1.00  0.00     0.167 HD
ATOM     60  C   UNL A   1      42.773  29.076  33.784  1.00  0.00     0.034 A 
ATOM     61  C   UNL A   1      42.993  25.001  28.297  1.00  0.00     0.034 A 
ATOM     62  C   UNL A   1      43.865  29.605  33.005  1.00  0.00     0.049 A 
ATOM     63  C   UNL A   1      44.119  25.427  29.150  1.00  0.00     0.074 A 
ATOM     64  C   UNL A   1      44.250  30.830  32.510  1.00  0.00     0.029 A 
ATOM     65  N   UNL A   1      44.548  28.646  32.304  1.00  0.00    -0.354 N 
ATOM     66  N   UNL A   1      44.968  26.351  28.802  1.00  0.00    -0.248 NA
ATOM     67  C   UNL A   1      44.154  25.037  30.552  1.00  0.00     0.031 C 
ATOM     68  C   UNL A   1      44.998  30.552  31.328  1.00  0.00     0.029 A 
ATOM     69  C   UNL A   1      45.090  29.168  31.167  1.00  0.00     0.049 A 
ATOM     70  H   UNL A   1      44.635  27.706  32.584  1.00  0.00     0.167 HD
ATOM     71  C   UNL A   1      45.271  26.981  29.995  1.00  0.00     0.074 A 
ATOM     72  C   UNL A   1      44.925  26.016  31.031  1.00  0.00     0.031 C 
ATOM     73  C   UNL A   1      45.437  28.335  30.035  1.00  0.00     0.034 A 
BRANCH  60  74
ATOM     74  C   UNL A   1      43.059  28.065  34.887  1.00  0.00     0.023 A 
ATOM     75  C   UNL A   1      43.562  28.581  36.107  1.00  0.00     0.012 A 
ATOM     76  C   UNL A   1      43.177  26.669  34.699  1.00  0.00     0.148 A 
ATOM     77  C   UNL A   1      44.204  27.767  37.048  1.00  0.00     0.002 A 
ATOM     78  C   UNL A   1      43.745  25.851  35.672  1.00  0.00     0.091 A 
ATOM     79  F   UNL A   1      42.871  26.119  33.524  1.00  0.00    -0.205 F 
ATOM     80  C   UNL A   1      44.292  26.399  36.833  1.00  0.00     0.022 A 
BRANCH  78  81
ATOM     81  S   UNL A   1      43.850  24.069  35.458  1.00  0.00     0.127 S 
ATOM     82  O   UNL A   1      44.521  23.666  36.691  1.00  0.00    -0.237 OA
ATOM     83  O   UNL A   1      42.438  23.698  35.369  1.00  0.00    -0.237 OA
ATOM     84  O   UNL A   1      44.601  23.862  34.225  1.00  0.00    -0.744 OA
ENDBRANCH  78  81
ENDBRANCH  60  74
BRANCH  61  85
ATOM     85  C   UNL A   1      42.931  23.624  27.756  1.00  0.00     0.023 A 
ATOM     86  C   UNL A   1      41.783  22.838  27.992  1.00  0.00     0.012 A 
ATOM     87  C   UNL A   1      43.842  23.194  26.769  1.00  0.00     0.148 A 
ATOM     88  C   UNL A   1      41.517  21.698  27.227  1.00  0.00     0.002 A 
ATOM     89  C   UNL A   1      43.573  22.058  26.009  1.00  0.00     0.091 A 
ATOM     90  F   UNL A   1      44.920  23.949  26.514  1.00  0.00    -0.205 F 
ATOM     91  C   UNL A   1      42.404  21.317  26.225  1.00  0.00     0.022 A 
BRANCH  89  92
ATOM     92  S   UNL A   1      44.648  21.520  24.672  1.00  0.00     0.127 S 
ATOM     93  O   UNL A   1      44.444  22.573  23.675  1.00  0.00    -0.237 OA
ATOM     94  O   UNL A   1      45.960  21.533  25.312  1.00  0.00    -0.237 OA
ATOM     95  O   UNL A   1      44.155  20.210  24.268  1.00  0.00    -0.744 OA
ENDBRANCH  89  92
ENDBRANCH  61  85
BRANCH  73  96
ATOM     96  C   UNL A   1      45.827  29.023  28.758  1.00  0.00     0.023 A 
ATOM     97  C   UNL A   1      44.895  29.557  27.847  1.00  0.00     0.012 A 
ATOM     98  C   UNL A   1      47.198  29.203  28.513  1.00  0.00     0.148 A 
ATOM     99  C   UNL A   1      45.326  30.224  26.696  1.00  0.00     0.002 A 
ATOM    100  C   UNL A   1      47.623  29.911  27.398  1.00  0.00     0.091 A 
ATOM    101  F   UNL A   1      48.075  28.677  29.384  1.00  0.00    -0.205 F 
ATOM    102  C   UNL A   1      46.691  30.411  26.478  1.00  0.00     0.022 A 
BRANCH 100 103
ATOM    103  S   UNL A   1      49.359  30.275  27.147  1.00  0.00     0.127 S 
ATOM    104  O   UNL A   1      49.780  29.179  26.277  1.00  0.00    -0.237 OA
ATOM    105  O   UNL A   1      49.320  31.590  26.502  1.00  0.00    -0.237 OA
ATOM    106  O   UNL A   1      49.953  30.292  28.479  1.00  0.00    -0.744 OA
ENDBRANCH 100 103
ENDBRANCH  73  96
ENDBRANCH  47  48
ENDBRANCH  39  42
ENDBRANCH  37  38
ENDBRANCH  36  37
ENDBRANCH  35  36
ENDBRANCH   1  35
TORSDOF 19
ENDMDL
