MODEL 1
REMARK VINA RESULT:     -12.0      0.000      0.000
REMARK SMILES Cc1c(CC(=O)NCCCCCCNC(=O)c2ccc(-c3c4nc(c(-c5cccc(S(=O)(=O)[O-])c5F)c5ccc([nH]5)c(-c5cccc(S(=O)(=O)[O-])c5F)c5nc(c(-c6cccc(S(=O)(=O)[O-])c6F)c6ccc3[nH]6)C=C5)C=C4)cc2)cccc1-c1ccn(C(F)F)c(=O)c1
REMARK SMILES IDX 10 1 9 2 8 3 7 4 5 5 6 6 4 8 3 9 1 10 2 11 83 12 80 13 82 14
REMARK SMILES IDX 81 15 84 16 85 17 93 18 86 19 91 20 87 21 92 22 88 23 89 24
REMARK SMILES IDX 90 25 11 26 12 27 13 28 14 29 15 30 16 32 17 33 18 34 79 35
REMARK SMILES IDX 19 36 78 37 20 38 21 39 22 40 72 41 23 42 77 43 71 44 73 45
REMARK SMILES IDX 24 46 76 47 70 48 69 49 25 51 57 52 37 53 56 54 38 55 41 56
REMARK SMILES IDX 55 57 74 58 39 59 40 60 54 62 75 63 42 64 26 65 27 66 35 67
REMARK SMILES IDX 28 68 30 69 36 70 29 71 31 72 32 73 33 74 34 75 58 76 59 77
REMARK SMILES IDX 67 78 60 79 62 80 68 81 61 82 63 83 64 84 65 85 66 86 43 87
REMARK SMILES IDX 44 88 52 89 45 90 47 91 53 92 46 93 48 94 49 95 50 96 51 97
REMARK H PARENT 7 7 14 31 73 50 41 61
REMARK Flexibility Score: inf
ROOT
ATOM      1  C   UNL A   1      38.525  22.788  26.135  1.00  0.00     0.002 C 
ENDROOT
BRANCH   1   2
ATOM      2  C   UNL A   1      37.324  23.052  25.220  1.00  0.00     0.021 C 
BRANCH   2   3
ATOM      3  C   UNL A   1      35.967  22.902  25.903  1.00  0.00     0.116 C 
BRANCH   3   4
ATOM      4  N   UNL A   1      35.389  21.590  25.715  1.00  0.00    -0.356 N 
ATOM      5  C   UNL A   1      34.358  21.214  24.905  1.00  0.00     0.224 C 
ATOM      6  O   UNL A   1      34.051  20.020  24.862  1.00  0.00    -0.275 OA
ATOM      7  H   UNL A   1      35.795  20.867  26.246  1.00  0.00     0.163 HD
BRANCH   5   8
ATOM      8  C   UNL A   1      33.650  22.237  24.022  1.00  0.00     0.135 C 
BRANCH   8   9
ATOM      9  C   UNL A   1      32.559  23.029  24.721  1.00  0.00    -0.035 A 
ATOM     10  C   UNL A   1      32.464  24.749  22.846  1.00  0.00     0.045 C 
ATOM     11  C   UNL A   1      32.030  24.243  24.205  1.00  0.00    -0.040 A 
ATOM     12  C   UNL A   1      31.077  24.960  24.976  1.00  0.00    -0.015 A 
ATOM     13  C   UNL A   1      32.079  22.532  25.948  1.00  0.00     0.004 A 
ATOM     14  C   UNL A   1      30.634  24.439  26.203  1.00  0.00     0.009 A 
ATOM     15  C   UNL A   1      31.126  23.230  26.681  1.00  0.00     0.001 A 
BRANCH  12  16
ATOM     16  C   UNL A   1      30.574  26.290  24.565  1.00  0.00    -0.011 A 
ATOM     17  C   UNL A   1      29.384  26.478  23.757  1.00  0.00     0.027 A 
ATOM     18  C   UNL A   1      31.317  27.361  24.895  1.00  0.00     0.080 A 
ATOM     19  C   UNL A   1      29.078  27.688  23.275  1.00  0.00     0.095 A 
ATOM     20  C   UNL A   1      30.976  28.717  24.383  1.00  0.00     0.255 A 
ATOM     21  N   UNL A   1      29.862  28.789  23.563  1.00  0.00    -0.258 N 
ATOM     22  O   UNL A   1      31.717  29.650  24.669  1.00  0.00    -0.269 OA
BRANCH  21  23
ATOM     23  C   UNL A   1      29.558  30.078  22.998  1.00  0.00     0.451 C 
ATOM     24  F   UNL A   1      28.922  29.965  21.811  1.00  0.00    -0.185 F 
ATOM     25  F   UNL A   1      28.776  30.803  23.837  1.00  0.00    -0.185 F 
ENDBRANCH  21  23
ENDBRANCH  12  16
ENDBRANCH   8   9
ENDBRANCH   5   8
ENDBRANCH   3   4
ENDBRANCH   2   3
ENDBRANCH   1   2
BRANCH   1  26
ATOM     26  C   UNL A   1      39.032  23.989  26.951  1.00  0.00     0.002 C 
BRANCH  26  27
ATOM     27  C   UNL A   1      40.405  23.833  27.608  1.00  0.00     0.021 C 
BRANCH  27  28
ATOM     28  C   UNL A   1      41.093  25.148  27.929  1.00  0.00     0.116 C 
BRANCH  28  29
ATOM     29  N   UNL A   1      41.864  25.670  26.820  1.00  0.00    -0.352 N 
ATOM     30  C   UNL A   1      41.695  26.846  26.117  1.00  0.00     0.251 C 
ATOM     31  H   UNL A   1      42.615  25.106  26.526  1.00  0.00     0.163 HD
ATOM     32  O   UNL A   1      42.234  26.949  25.017  1.00  0.00    -0.269 OA
BRANCH  30  33
ATOM     33  C   UNL A   1      41.023  28.005  26.757  1.00  0.00     0.039 A 
ATOM     34  C   UNL A   1      41.851  28.958  27.366  1.00  0.00     0.014 A 
ATOM     35  C   UNL A   1      39.652  28.031  26.989  1.00  0.00     0.014 A 
ATOM     36  C   UNL A   1      41.356  29.739  28.405  1.00  0.00     0.010 A 
ATOM     37  C   UNL A   1      39.172  28.740  28.066  1.00  0.00     0.010 A 
ATOM     38  C   UNL A   1      40.047  29.526  28.819  1.00  0.00    -0.014 A 
BRANCH  38  39
ATOM     39  C   UNL A   1      39.482  30.043  30.051  1.00  0.00     0.031 A 
ATOM     40  C   UNL A   1      38.689  31.278  30.025  1.00  0.00     0.074 A 
ATOM     41  C   UNL A   1      39.548  29.257  31.146  1.00  0.00     0.049 A 
ATOM     42  N   UNL A   1      38.421  31.995  31.060  1.00  0.00    -0.248 NA
ATOM     43  C   UNL A   1      38.160  31.819  28.782  1.00  0.00     0.031 C 
ATOM     44  C   UNL A   1      38.745  29.338  32.356  1.00  0.00     0.029 A 
ATOM     45  N   UNL A   1      40.532  28.308  31.447  1.00  0.00    -0.354 N 
ATOM     46  C   UNL A   1      37.466  32.917  30.679  1.00  0.00     0.074 A 
ATOM     47  C   UNL A   1      37.416  32.827  29.239  1.00  0.00     0.031 C 
ATOM     48  C   UNL A   1      39.393  28.698  33.344  1.00  0.00     0.029 A 
ATOM     49  C   UNL A   1      40.717  28.367  32.837  1.00  0.00     0.049 A 
ATOM     50  H   UNL A   1      41.000  27.719  30.813  1.00  0.00     0.167 HD
ATOM     51  C   UNL A   1      36.712  33.520  31.642  1.00  0.00     0.034 A 
ATOM     52  C   UNL A   1      41.900  28.722  33.422  1.00  0.00     0.034 A 
ATOM     53  C   UNL A   1      37.161  33.102  32.981  1.00  0.00     0.049 A 
ATOM     54  C   UNL A   1      41.765  29.948  34.308  1.00  0.00     0.074 A 
ATOM     55  C   UNL A   1      36.720  32.105  33.836  1.00  0.00     0.029 A 
ATOM     56  N   UNL A   1      38.400  33.512  33.462  1.00  0.00    -0.354 N 
ATOM     57  N   UNL A   1      40.713  30.718  34.334  1.00  0.00    -0.248 NA
ATOM     58  C   UNL A   1      42.814  30.418  35.209  1.00  0.00     0.031 C 
ATOM     59  C   UNL A   1      37.754  31.841  34.772  1.00  0.00     0.029 A 
ATOM     60  C   UNL A   1      38.808  32.703  34.514  1.00  0.00     0.049 A 
ATOM     61  H   UNL A   1      38.916  34.270  33.105  1.00  0.00     0.167 HD
ATOM     62  C   UNL A   1      40.963  31.820  35.104  1.00  0.00     0.074 A 
ATOM     63  C   UNL A   1      42.263  31.544  35.695  1.00  0.00     0.031 C 
ATOM     64  C   UNL A   1      40.114  32.894  35.137  1.00  0.00     0.034 A 
BRANCH  51  65
ATOM     65  C   UNL A   1      35.361  34.186  31.397  1.00  0.00     0.023 A 
ATOM     66  C   UNL A   1      34.734  33.923  30.157  1.00  0.00     0.012 A 
ATOM     67  C   UNL A   1      34.689  35.102  32.240  1.00  0.00     0.148 A 
ATOM     68  C   UNL A   1      33.588  34.605  29.729  1.00  0.00     0.002 A 
ATOM     69  C   UNL A   1      33.583  35.833  31.789  1.00  0.00     0.091 A 
ATOM     70  F   UNL A   1      35.046  35.214  33.522  1.00  0.00    -0.205 F 
ATOM     71  C   UNL A   1      33.035  35.590  30.528  1.00  0.00     0.022 A 
BRANCH  69  72
ATOM     72  S   UNL A   1      32.839  37.168  32.747  1.00  0.00     0.127 S 
ATOM     73  O   UNL A   1      31.453  36.714  32.885  1.00  0.00    -0.237 OA
ATOM     74  O   UNL A   1      33.612  37.133  33.987  1.00  0.00    -0.237 OA
ATOM     75  O   UNL A   1      32.993  38.377  31.947  1.00  0.00    -0.744 OA
ENDBRANCH  69  72
ENDBRANCH  51  65
BRANCH  52  76
ATOM     76  C   UNL A   1      43.100  28.394  32.591  1.00  0.00     0.023 A 
ATOM     77  C   UNL A   1      43.754  29.478  31.955  1.00  0.00     0.012 A 
ATOM     78  C   UNL A   1      43.802  27.188  32.765  1.00  0.00     0.148 A 
ATOM     79  C   UNL A   1      45.117  29.417  31.656  1.00  0.00     0.002 A 
ATOM     80  C   UNL A   1      45.161  27.133  32.455  1.00  0.00     0.091 A 
ATOM     81  F   UNL A   1      43.162  26.142  33.298  1.00  0.00    -0.205 F 
ATOM     82  C   UNL A   1      45.830  28.259  31.946  1.00  0.00     0.022 A 
BRANCH  80  83
ATOM     83  S   UNL A   1      46.130  25.663  32.815  1.00  0.00     0.127 S 
ATOM     84  O   UNL A   1      45.468  24.665  31.981  1.00  0.00    -0.237 OA
ATOM     85  O   UNL A   1      47.470  26.042  32.369  1.00  0.00    -0.237 OA
ATOM     86  O   UNL A   1      46.010  25.491  34.255  1.00  0.00    -0.744 OA
ENDBRANCH  80  83
ENDBRANCH  52  76
BRANCH  64  87
ATOM     87  C   UNL A   1      40.449  34.230  35.766  1.00  0.00     0.023 A 
ATOM     88  C   UNL A   1      39.937  34.612  37.021  1.00  0.00     0.012 A 
ATOM     89  C   UNL A   1      41.414  35.087  35.180  1.00  0.00     0.148 A 
ATOM     90  C   UNL A   1      40.296  35.819  37.630  1.00  0.00     0.002 A 
ATOM     91  C   UNL A   1      41.853  36.231  35.843  1.00  0.00     0.091 A 
ATOM     92  F   UNL A   1      41.902  34.808  33.962  1.00  0.00    -0.205 F 
ATOM     93  C   UNL A   1      41.271  36.618  37.052  1.00  0.00     0.022 A 
BRANCH  91  94
ATOM     94  S   UNL A   1      43.279  37.154  35.252  1.00  0.00     0.127 S 
ATOM     95  O   UNL A   1      42.668  38.086  34.308  1.00  0.00    -0.237 OA
ATOM     96  O   UNL A   1      43.785  37.775  36.478  1.00  0.00    -0.237 OA
ATOM     97  O   UNL A   1      44.169  36.151  34.683  1.00  0.00    -0.744 OA
ENDBRANCH  91  94
ENDBRANCH  64  87
ENDBRANCH  38  39
ENDBRANCH  30  33
ENDBRANCH  28  29
ENDBRANCH  27  28
ENDBRANCH  26  27
ENDBRANCH   1  26
TORSDOF 19
ENDMDL
MODEL 2
REMARK VINA RESULT:     -11.7      1.803      2.094
REMARK SMILES Cc1c(CC(=O)NCCCCCCNC(=O)c2ccc(-c3c4nc(c(-c5cccc(S(=O)(=O)[O-])c5F)c5ccc([nH]5)c(-c5cccc(S(=O)(=O)[O-])c5F)c5nc(c(-c6cccc(S(=O)(=O)[O-])c6F)c6ccc3[nH]6)C=C5)C=C4)cc2)cccc1-c1ccn(C(F)F)c(=O)c1
REMARK SMILES IDX 10 1 9 2 8 3 7 4 5 5 6 6 4 8 3 9 1 10 2 11 83 12 80 13 82 14
REMARK SMILES IDX 81 15 84 16 85 17 93 18 86 19 91 20 87 21 92 22 88 23 89 24
REMARK SMILES IDX 90 25 11 26 12 27 13 28 14 29 15 30 16 32 17 33 18 34 79 35
REMARK SMILES IDX 19 36 78 37 20 38 21 39 22 40 72 41 23 42 77 43 71 44 73 45
REMARK SMILES IDX 24 46 76 47 70 48 69 49 25 51 57 52 37 53 56 54 38 55 41 56
REMARK SMILES IDX 55 57 74 58 39 59 40 60 54 62 75 63 42 64 26 65 27 66 35 67
REMARK SMILES IDX 28 68 30 69 36 70 29 71 31 72 32 73 33 74 34 75 58 76 59 77
REMARK SMILES IDX 67 78 60 79 62 80 68 81 61 82 63 83 64 84 65 85 66 86 43 87
REMARK SMILES IDX 44 88 52 89 45 90 47 91 53 92 46 93 48 94 49 95 50 96 51 97
REMARK H PARENT 7 7 14 31 73 50 41 61
REMARK Flexibility Score: inf
ROOT
ATOM      1  C   UNL A   1      37.770  23.048  25.984  1.00  0.00     0.002 C 
ENDROOT
BRANCH   1   2
ATOM      2  C   UNL A   1      36.405  23.579  25.534  1.00  0.00     0.021 C 
BRANCH   2   3
ATOM      3  C   UNL A   1      35.222  23.035  26.332  1.00  0.00     0.116 C 
BRANCH   3   4
ATOM      4  N   UNL A   1      34.926  21.654  26.021  1.00  0.00    -0.356 N 
ATOM      5  C   UNL A   1      34.110  21.148  25.052  1.00  0.00     0.224 C 
ATOM      6  O   UNL A   1      34.035  19.923  24.929  1.00  0.00    -0.275 OA
ATOM      7  H   UNL A   1      35.376  20.986  26.587  1.00  0.00     0.163 HD
BRANCH   5   8
ATOM      8  C   UNL A   1      33.364  22.078  24.101  1.00  0.00     0.135 C 
BRANCH   8   9
ATOM      9  C   UNL A   1      32.253  22.887  24.748  1.00  0.00    -0.035 A 
ATOM     10  C   UNL A   1      32.341  24.659  22.921  1.00  0.00     0.045 C 
ATOM     11  C   UNL A   1      31.799  24.131  24.232  1.00  0.00    -0.040 A 
ATOM     12  C   UNL A   1      30.819  24.859  24.958  1.00  0.00    -0.015 A 
ATOM     13  C   UNL A   1      31.676  22.373  25.924  1.00  0.00     0.004 A 
ATOM     14  C   UNL A   1      30.278  24.320  26.137  1.00  0.00     0.009 A 
ATOM     15  C   UNL A   1      30.697  23.083  26.612  1.00  0.00     0.001 A 
BRANCH  12  16
ATOM     16  C   UNL A   1      30.387  26.216  24.553  1.00  0.00    -0.011 A 
ATOM     17  C   UNL A   1      29.177  26.474  23.796  1.00  0.00     0.027 A 
ATOM     18  C   UNL A   1      31.213  27.238  24.837  1.00  0.00     0.080 A 
ATOM     19  C   UNL A   1      28.931  27.698  23.312  1.00  0.00     0.095 A 
ATOM     20  C   UNL A   1      30.941  28.608  24.324  1.00  0.00     0.255 A 
ATOM     21  N   UNL A   1      29.799  28.747  23.552  1.00  0.00    -0.258 N 
ATOM     22  O   UNL A   1      31.754  29.492  24.564  1.00  0.00    -0.269 OA
BRANCH  21  23
ATOM     23  C   UNL A   1      29.556  30.048  22.985  1.00  0.00     0.451 C 
ATOM     24  F   UNL A   1      28.966  29.961  21.772  1.00  0.00    -0.185 F 
ATOM     25  F   UNL A   1      28.761  30.789  23.797  1.00  0.00    -0.185 F 
ENDBRANCH  21  23
ENDBRANCH  12  16
ENDBRANCH   8   9
ENDBRANCH   5   8
ENDBRANCH   3   4
ENDBRANCH   2   3
ENDBRANCH   1   2
BRANCH   1  26
ATOM     26  C   UNL A   1      38.621  24.004  26.836  1.00  0.00     0.002 C 
BRANCH  26  27
ATOM     27  C   UNL A   1      40.082  23.602  27.054  1.00  0.00     0.021 C 
BRANCH  27  28
ATOM     28  C   UNL A   1      40.949  24.704  27.636  1.00  0.00     0.116 C 
BRANCH  28  29
ATOM     29  N   UNL A   1      41.797  25.339  26.648  1.00  0.00    -0.352 N 
ATOM     30  C   UNL A   1      41.626  26.544  25.997  1.00  0.00     0.251 C 
ATOM     31  H   UNL A   1      42.610  24.840  26.406  1.00  0.00     0.163 HD
ATOM     32  O   UNL A   1      42.270  26.748  24.970  1.00  0.00    -0.269 OA
BRANCH  30  33
ATOM     33  C   UNL A   1      40.816  27.620  26.623  1.00  0.00     0.039 A 
ATOM     34  C   UNL A   1      41.472  28.827  26.898  1.00  0.00     0.014 A 
ATOM     35  C   UNL A   1      39.556  27.379  27.163  1.00  0.00     0.014 A 
ATOM     36  C   UNL A   1      41.004  29.652  27.916  1.00  0.00     0.010 A 
ATOM     37  C   UNL A   1      39.129  28.145  28.223  1.00  0.00     0.010 A 
ATOM     38  C   UNL A   1      39.901  29.229  28.647  1.00  0.00    -0.014 A 
BRANCH  38  39
ATOM     39  C   UNL A   1      39.472  29.820  29.900  1.00  0.00     0.031 A 
ATOM     40  C   UNL A   1      38.691  31.062  29.889  1.00  0.00     0.074 A 
ATOM     41  C   UNL A   1      39.646  29.093  31.024  1.00  0.00     0.049 A 
ATOM     42  N   UNL A   1      38.538  31.837  30.905  1.00  0.00    -0.248 NA
ATOM     43  C   UNL A   1      38.039  31.542  28.679  1.00  0.00     0.031 C 
ATOM     44  C   UNL A   1      38.974  29.249  32.305  1.00  0.00     0.029 A 
ATOM     45  N   UNL A   1      40.648  28.148  31.272  1.00  0.00    -0.354 N 
ATOM     46  C   UNL A   1      37.557  32.751  30.575  1.00  0.00     0.074 A 
ATOM     47  C   UNL A   1      37.355  32.584  29.155  1.00  0.00     0.031 C 
ATOM     48  C   UNL A   1      39.717  28.655  33.253  1.00  0.00     0.029 A 
ATOM     49  C   UNL A   1      40.978  28.279  32.631  1.00  0.00     0.049 A 
ATOM     50  H   UNL A   1      41.043  27.518  30.626  1.00  0.00     0.167 HD
ATOM     51  C   UNL A   1      36.912  33.415  31.576  1.00  0.00     0.034 A 
ATOM     52  C   UNL A   1      42.218  28.649  33.069  1.00  0.00     0.034 A 
ATOM     53  C   UNL A   1      37.495  33.064  32.882  1.00  0.00     0.049 A 
ATOM     54  C   UNL A   1      42.187  29.922  33.895  1.00  0.00     0.074 A 
ATOM     55  C   UNL A   1      37.138  32.121  33.833  1.00  0.00     0.029 A 
ATOM     56  N   UNL A   1      38.781  33.482  33.209  1.00  0.00    -0.354 N 
ATOM     57  N   UNL A   1      41.150  30.707  33.988  1.00  0.00    -0.248 NA
ATOM     58  C   UNL A   1      43.328  30.425  34.655  1.00  0.00     0.031 C 
ATOM     59  C   UNL A   1      38.263  31.893  34.669  1.00  0.00     0.029 A 
ATOM     60  C   UNL A   1      39.290  32.725  34.256  1.00  0.00     0.049 A 
ATOM     61  H   UNL A   1      39.264  34.212  32.759  1.00  0.00     0.167 HD
ATOM     62  C   UNL A   1      41.488  31.846  34.666  1.00  0.00     0.074 A 
ATOM     63  C   UNL A   1      42.840  31.583  35.133  1.00  0.00     0.031 C 
ATOM     64  C   UNL A   1      40.656  32.931  34.728  1.00  0.00     0.034 A 
BRANCH  51  65
ATOM     65  C   UNL A   1      35.549  34.086  31.438  1.00  0.00     0.023 A 
ATOM     66  C   UNL A   1      34.794  33.767  30.285  1.00  0.00     0.012 A 
ATOM     67  C   UNL A   1      34.975  35.054  32.295  1.00  0.00     0.148 A 
ATOM     68  C   UNL A   1      33.616  34.440  29.941  1.00  0.00     0.002 A 
ATOM     69  C   UNL A   1      33.834  35.775  31.922  1.00  0.00     0.091 A 
ATOM     70  F   UNL A   1      35.464  35.228  33.525  1.00  0.00    -0.205 F 
ATOM     71  C   UNL A   1      33.156  35.474  30.739  1.00  0.00     0.022 A 
BRANCH  69  72
ATOM     72  S   UNL A   1      33.205  37.168  32.879  1.00  0.00     0.127 S 
ATOM     73  O   UNL A   1      31.825  36.757  33.152  1.00  0.00    -0.237 OA
ATOM     74  O   UNL A   1      34.079  37.165  34.050  1.00  0.00    -0.237 OA
ATOM     75  O   UNL A   1      33.317  38.338  32.016  1.00  0.00    -0.744 OA
ENDBRANCH  69  72
ENDBRANCH  51  65
BRANCH  52  76
ATOM     76  C   UNL A   1      43.322  28.260  32.137  1.00  0.00     0.023 A 
ATOM     77  C   UNL A   1      43.521  26.874  31.922  1.00  0.00     0.012 A 
ATOM     78  C   UNL A   1      43.845  29.170  31.201  1.00  0.00     0.148 A 
ATOM     79  C   UNL A   1      44.073  26.405  30.728  1.00  0.00     0.002 A 
ATOM     80  C   UNL A   1      44.402  28.693  30.015  1.00  0.00     0.091 A 
ATOM     81  F   UNL A   1      43.722  30.481  31.441  1.00  0.00    -0.205 F 
ATOM     82  C   UNL A   1      44.473  27.315  29.756  1.00  0.00     0.022 A 
BRANCH  80  83
ATOM     83  S   UNL A   1      44.930  29.827  28.724  1.00  0.00     0.127 S 
ATOM     84  O   UNL A   1      46.251  30.221  29.203  1.00  0.00    -0.237 OA
ATOM     85  O   UNL A   1      44.940  28.978  27.534  1.00  0.00    -0.237 OA
ATOM     86  O   UNL A   1      43.908  30.862  28.707  1.00  0.00    -0.744 OA
ENDBRANCH  80  83
ENDBRANCH  52  76
BRANCH  64  87
ATOM     87  C   UNL A   1      41.065  34.295  35.244  1.00  0.00     0.023 A 
ATOM     88  C   UNL A   1      41.553  35.300  34.387  1.00  0.00     0.012 A 
ATOM     89  C   UNL A   1      40.829  34.661  36.594  1.00  0.00     0.148 A 
ATOM     90  C   UNL A   1      41.870  36.579  34.855  1.00  0.00     0.002 A 
ATOM     91  C   UNL A   1      41.040  35.968  37.028  1.00  0.00     0.091 A 
ATOM     92  F   UNL A   1      40.415  33.737  37.473  1.00  0.00    -0.205 F 
ATOM     93  C   UNL A   1      41.594  36.920  36.170  1.00  0.00     0.022 A 
BRANCH  91  94
ATOM     94  S   UNL A   1      40.466  36.510  38.644  1.00  0.00     0.127 S 
ATOM     95  O   UNL A   1      40.708  35.326  39.466  1.00  0.00    -0.237 OA
ATOM     96  O   UNL A   1      41.352  37.640  38.932  1.00  0.00    -0.237 OA
ATOM     97  O   UNL A   1      39.073  36.883  38.445  1.00  0.00    -0.744 OA
ENDBRANCH  91  94
ENDBRANCH  64  87
ENDBRANCH  38  39
ENDBRANCH  30  33
ENDBRANCH  28  29
ENDBRANCH  27  28
ENDBRANCH  26  27
ENDBRANCH   1  26
TORSDOF 19
ENDMDL
MODEL 3
REMARK VINA RESULT:     -11.2      5.661     11.704
REMARK SMILES Cc1c(CC(=O)NCCCCCCNC(=O)c2ccc(-c3c4nc(c(-c5cccc(S(=O)(=O)[O-])c5F)c5ccc([nH]5)c(-c5cccc(S(=O)(=O)[O-])c5F)c5nc(c(-c6cccc(S(=O)(=O)[O-])c6F)c6ccc3[nH]6)C=C5)C=C4)cc2)cccc1-c1ccn(C(F)F)c(=O)c1
REMARK SMILES IDX 10 1 9 2 8 3 7 4 5 5 6 6 4 8 3 9 1 10 2 11 83 12 80 13 82 14
REMARK SMILES IDX 81 15 84 16 85 17 93 18 86 19 91 20 87 21 92 22 88 23 89 24
REMARK SMILES IDX 90 25 11 26 12 27 13 28 14 29 15 30 16 32 17 33 18 34 79 35
REMARK SMILES IDX 19 36 78 37 20 38 21 39 22 40 72 41 23 42 77 43 71 44 73 45
REMARK SMILES IDX 24 46 76 47 70 48 69 49 25 51 57 52 37 53 56 54 38 55 41 56
REMARK SMILES IDX 55 57 74 58 39 59 40 60 54 62 75 63 42 64 26 65 27 66 35 67
REMARK SMILES IDX 28 68 30 69 36 70 29 71 31 72 32 73 33 74 34 75 58 76 59 77
REMARK SMILES IDX 67 78 60 79 62 80 68 81 61 82 63 83 64 84 65 85 66 86 43 87
REMARK SMILES IDX 44 88 52 89 45 90 47 91 53 92 46 93 48 94 49 95 50 96 51 97
REMARK H PARENT 7 7 14 31 73 50 41 61
REMARK Flexibility Score: inf
ROOT
ATOM      1  C   UNL A   1      44.673  24.157  31.808  1.00  0.00     0.002 C 
ENDROOT
BRANCH   1   2
ATOM      2  C   UNL A   1      43.914  24.639  33.049  1.00  0.00     0.021 C 
BRANCH   2   3
ATOM      3  C   UNL A   1      44.775  25.387  34.063  1.00  0.00     0.116 C 
BRANCH   3   4
ATOM      4  N   UNL A   1      44.341  25.180  35.427  1.00  0.00    -0.356 N 
ATOM      5  C   UNL A   1      45.061  24.739  36.499  1.00  0.00     0.224 C 
ATOM      6  O   UNL A   1      44.501  24.677  37.596  1.00  0.00    -0.275 OA
ATOM      7  H   UNL A   1      43.396  25.386  35.608  1.00  0.00     0.163 HD
BRANCH   5   8
ATOM      8  C   UNL A   1      46.541  24.397  36.354  1.00  0.00     0.135 C 
BRANCH   8   9
ATOM      9  C   UNL A   1      46.819  22.986  35.866  1.00  0.00    -0.035 A 
ATOM     10  C   UNL A   1      49.337  23.295  36.095  1.00  0.00     0.045 C 
ATOM     11  C   UNL A   1      48.133  22.473  35.687  1.00  0.00    -0.040 A 
ATOM     12  C   UNL A   1      48.294  21.173  35.139  1.00  0.00    -0.015 A 
ATOM     13  C   UNL A   1      45.712  22.173  35.560  1.00  0.00     0.004 A 
ATOM     14  C   UNL A   1      47.164  20.398  34.831  1.00  0.00     0.009 A 
ATOM     15  C   UNL A   1      45.882  20.891  35.048  1.00  0.00     0.001 A 
BRANCH  12  16
ATOM     16  C   UNL A   1      49.626  20.619  34.807  1.00  0.00    -0.011 A 
ATOM     17  C   UNL A   1      50.391  19.785  35.715  1.00  0.00     0.027 A 
ATOM     18  C   UNL A   1      50.175  20.987  33.636  1.00  0.00     0.080 A 
ATOM     19  C   UNL A   1      51.657  19.459  35.429  1.00  0.00     0.095 A 
ATOM     20  C   UNL A   1      51.575  20.613  33.295  1.00  0.00     0.255 A 
ATOM     21  N   UNL A   1      52.251  19.875  34.252  1.00  0.00    -0.258 N 
ATOM     22  O   UNL A   1      52.046  21.021  32.240  1.00  0.00    -0.269 OA
BRANCH  21  23
ATOM     23  C   UNL A   1      53.630  19.566  33.975  1.00  0.00     0.451 C 
ATOM     24  F   UNL A   1      54.327  19.329  35.109  1.00  0.00    -0.185 F 
ATOM     25  F   UNL A   1      53.731  18.475  33.174  1.00  0.00    -0.185 F 
ENDBRANCH  21  23
ENDBRANCH  12  16
ENDBRANCH   8   9
ENDBRANCH   5   8
ENDBRANCH   3   4
ENDBRANCH   2   3
ENDBRANCH   1   2
BRANCH   1  26
ATOM     26  C   UNL A   1      43.878  24.144  30.491  1.00  0.00     0.002 C 
BRANCH  26  27
ATOM     27  C   UNL A   1      44.189  23.003  29.521  1.00  0.00     0.021 C 
BRANCH  27  28
ATOM     28  C   UNL A   1      42.961  22.375  28.886  1.00  0.00     0.116 C 
BRANCH  28  29
ATOM     29  N   UNL A   1      43.067  22.251  27.447  1.00  0.00    -0.352 N 
ATOM     30  C   UNL A   1      42.383  22.932  26.460  1.00  0.00     0.251 C 
ATOM     31  H   UNL A   1      43.720  21.587  27.128  1.00  0.00     0.163 HD
ATOM     32  O   UNL A   1      42.372  22.459  25.326  1.00  0.00    -0.269 OA
BRANCH  30  33
ATOM     33  C   UNL A   1      41.826  24.281  26.736  1.00  0.00     0.039 A 
ATOM     34  C   UNL A   1      42.577  25.378  26.290  1.00  0.00     0.014 A 
ATOM     35  C   UNL A   1      40.767  24.479  27.617  1.00  0.00     0.014 A 
ATOM     36  C   UNL A   1      42.451  26.606  26.931  1.00  0.00     0.010 A 
ATOM     37  C   UNL A   1      40.691  25.666  28.309  1.00  0.00     0.010 A 
ATOM     38  C   UNL A   1      41.590  26.694  28.017  1.00  0.00    -0.014 A 
BRANCH  38  39
ATOM     39  C   UNL A   1      41.562  27.801  28.954  1.00  0.00     0.031 A 
ATOM     40  C   UNL A   1      40.511  28.820  28.844  1.00  0.00     0.074 A 
ATOM     41  C   UNL A   1      42.395  27.743  30.013  1.00  0.00     0.049 A 
ATOM     42  N   UNL A   1      40.565  29.986  29.385  1.00  0.00    -0.248 NA
ATOM     43  C   UNL A   1      39.306  28.590  28.061  1.00  0.00     0.031 C 
ATOM     44  C   UNL A   1      42.301  28.473  31.268  1.00  0.00     0.029 A 
ATOM     45  N   UNL A   1      43.644  27.115  30.073  1.00  0.00    -0.354 N 
ATOM     46  C   UNL A   1      39.309  30.548  29.266  1.00  0.00     0.074 A 
ATOM     47  C   UNL A   1      38.600  29.684  28.353  1.00  0.00     0.031 C 
ATOM     48  C   UNL A   1      43.511  28.480  31.852  1.00  0.00     0.029 A 
ATOM     49  C   UNL A   1      44.450  27.926  30.888  1.00  0.00     0.049 A 
ATOM     50  H   UNL A   1      43.907  26.274  29.632  1.00  0.00     0.167 HD
ATOM     51  C   UNL A   1      38.969  31.580  30.091  1.00  0.00     0.034 A 
ATOM     52  C   UNL A   1      45.585  28.544  30.443  1.00  0.00     0.034 A 
ATOM     53  C   UNL A   1      40.116  31.964  30.931  1.00  0.00     0.049 A 
ATOM     54  C   UNL A   1      45.514  30.054  30.578  1.00  0.00     0.074 A 
ATOM     55  C   UNL A   1      40.487  31.598  32.215  1.00  0.00     0.029 A 
ATOM     56  N   UNL A   1      41.229  32.571  30.358  1.00  0.00    -0.354 N 
ATOM     57  N   UNL A   1      44.425  30.712  30.861  1.00  0.00    -0.248 NA
ATOM     58  C   UNL A   1      46.656  30.942  30.375  1.00  0.00     0.031 C 
ATOM     59  C   UNL A   1      41.868  31.891  32.372  1.00  0.00     0.029 A 
ATOM     60  C   UNL A   1      42.328  32.471  31.201  1.00  0.00     0.049 A 
ATOM     61  H   UNL A   1      41.237  33.010  29.477  1.00  0.00     0.167 HD
ATOM     62  C   UNL A   1      44.652  32.057  30.750  1.00  0.00     0.074 A 
ATOM     63  C   UNL A   1      46.085  32.150  30.524  1.00  0.00     0.031 C 
ATOM     64  C   UNL A   1      43.635  32.973  30.784  1.00  0.00     0.034 A 
BRANCH  51  65
ATOM     65  C   UNL A   1      37.538  32.002  30.409  1.00  0.00     0.023 A 
ATOM     66  C   UNL A   1      36.959  31.467  31.583  1.00  0.00     0.012 A 
ATOM     67  C   UNL A   1      36.687  32.815  29.624  1.00  0.00     0.148 A 
ATOM     68  C   UNL A   1      35.605  31.624  31.899  1.00  0.00     0.002 A 
ATOM     69  C   UNL A   1      35.318  32.920  29.901  1.00  0.00     0.091 A 
ATOM     70  F   UNL A   1      37.201  33.578  28.656  1.00  0.00    -0.205 F 
ATOM     71  C   UNL A   1      34.773  32.317  31.036  1.00  0.00     0.022 A 
BRANCH  69  72
ATOM     72  S   UNL A   1      34.162  33.759  28.801  1.00  0.00     0.127 S 
ATOM     73  O   UNL A   1      33.220  34.365  29.746  1.00  0.00    -0.237 OA
ATOM     74  O   UNL A   1      35.024  34.716  28.110  1.00  0.00    -0.237 OA
ATOM     75  O   UNL A   1      33.577  32.722  27.959  1.00  0.00    -0.744 OA
ENDBRANCH  69  72
ENDBRANCH  51  65
BRANCH  52  76
ATOM     76  C   UNL A   1      46.265  27.815  29.327  1.00  0.00     0.023 A 
ATOM     77  C   UNL A   1      46.662  26.479  29.583  1.00  0.00     0.012 A 
ATOM     78  C   UNL A   1      46.140  28.239  27.993  1.00  0.00     0.148 A 
ATOM     79  C   UNL A   1      46.764  25.550  28.545  1.00  0.00     0.002 A 
ATOM     80  C   UNL A   1      46.252  27.307  26.962  1.00  0.00     0.091 A 
ATOM     81  F   UNL A   1      45.838  29.520  27.750  1.00  0.00    -0.205 F 
ATOM     82  C   UNL A   1      46.516  25.955  27.239  1.00  0.00     0.022 A 
BRANCH  80  83
ATOM     83  S   UNL A   1      45.936  27.777  25.255  1.00  0.00     0.127 S 
ATOM     84  O   UNL A   1      46.029  26.488  24.576  1.00  0.00    -0.237 OA
ATOM     85  O   UNL A   1      44.589  28.339  25.320  1.00  0.00    -0.237 OA
ATOM     86  O   UNL A   1      46.973  28.751  24.948  1.00  0.00    -0.744 OA
ENDBRANCH  80  83
ENDBRANCH  52  76
BRANCH  64  87
ATOM     87  C   UNL A   1      43.787  34.436  30.423  1.00  0.00     0.023 A 
ATOM     88  C   UNL A   1      44.193  35.398  31.368  1.00  0.00     0.012 A 
ATOM     89  C   UNL A   1      43.672  34.867  29.077  1.00  0.00     0.148 A 
ATOM     90  C   UNL A   1      44.395  36.737  31.018  1.00  0.00     0.002 A 
ATOM     91  C   UNL A   1      43.985  36.175  28.715  1.00  0.00     0.091 A 
ATOM     92  F   UNL A   1      43.240  34.013  28.138  1.00  0.00    -0.205 F 
ATOM     93  C   UNL A   1      44.312  37.122  29.688  1.00  0.00     0.022 A 
BRANCH  91  94
ATOM     94  S   UNL A   1      44.129  36.648  26.986  1.00  0.00     0.127 S 
ATOM     95  O   UNL A   1      45.028  37.797  27.059  1.00  0.00    -0.237 OA
ATOM     96  O   UNL A   1      44.719  35.453  26.379  1.00  0.00    -0.237 OA
ATOM     97  O   UNL A   1      42.766  36.923  26.554  1.00  0.00    -0.744 OA
ENDBRANCH  91  94
ENDBRANCH  64  87
ENDBRANCH  38  39
ENDBRANCH  30  33
ENDBRANCH  28  29
ENDBRANCH  27  28
ENDBRANCH  26  27
ENDBRANCH   1  26
TORSDOF 19
ENDMDL
