MODEL 1
REMARK VINA RESULT:     -10.7      0.000      0.000
REMARK SMILES CS(=O)(=O)N1CCC[C@@H]1C(=O)Nc1nc(CC(=O)NCCCCCCNC(=O)c2ccc(-c3c4nc(c(-c5cccc(S(=O)(=O)[O-])c5F)c5ccc([nH]5)c(-c5cccc(S(=O)(=O)[O-])c5F)c5nc(c(-c6cccc(S(=O)(=O)[O-])c6F)c6ccc3[nH]6)C=C5)C=C4)cc2)cs1
REMARK SMILES IDX 22 1 21 2 20 3 19 4 17 5 18 6 16 8 15 9 13 10 14 11 93 12
REMARK SMILES IDX 92 13 12 14 10 15 11 16 9 18 5 19 6 20 7 21 8 22 2 23 1 24
REMARK SMILES IDX 3 25 4 26 23 27 24 28 25 29 26 30 27 31 28 33 29 34 30 35
REMARK SMILES IDX 91 36 31 37 90 38 32 39 33 40 34 41 84 42 35 43 89 44 83 45
REMARK SMILES IDX 85 46 36 47 88 48 82 49 81 50 37 52 69 53 49 54 68 55 50 56
REMARK SMILES IDX 53 57 67 58 86 59 51 60 52 61 66 63 87 64 54 65 38 66 39 67
REMARK SMILES IDX 47 68 40 69 42 70 48 71 41 72 43 73 44 74 45 75 46 76 70 77
REMARK SMILES IDX 71 78 79 79 72 80 74 81 80 82 73 83 75 84 76 85 77 86 78 87
REMARK SMILES IDX 55 88 56 89 64 90 57 91 59 92 65 93 58 94 60 95 61 96 62 97
REMARK SMILES IDX 63 98
REMARK H PARENT 19 7 12 17 26 32 85 51 53 62
REMARK Flexibility Score: inf
ROOT
ATOM      1  C   UNL A   1      36.772  22.903  25.033  1.00  0.00     0.002 C 
ENDROOT
BRANCH   1   2
ATOM      2  C   UNL A   1      35.761  23.262  26.120  1.00  0.00     0.021 C 
BRANCH   2   3
ATOM      3  C   UNL A   1      35.013  22.068  26.716  1.00  0.00     0.116 C 
BRANCH   3   4
ATOM      4  N   UNL A   1      33.803  22.510  27.390  1.00  0.00    -0.356 N 
ATOM      5  C   UNL A   1      32.519  22.499  26.923  1.00  0.00     0.226 C 
ATOM      6  O   UNL A   1      31.647  23.064  27.589  1.00  0.00    -0.275 OA
ATOM      7  H   UNL A   1      33.925  22.866  28.300  1.00  0.00     0.163 HD
BRANCH   5   8
ATOM      8  C   UNL A   1      32.167  21.740  25.658  1.00  0.00     0.157 C 
BRANCH   8   9
ATOM      9  C   UNL A   1      32.427  22.505  24.403  1.00  0.00     0.063 A 
ATOM     10  C   UNL A   1      31.832  24.030  22.924  1.00  0.00     0.189 A 
ATOM     11  N   UNL A   1      31.580  23.563  24.112  1.00  0.00    -0.224 NA
ATOM     12  S   UNL A   1      33.068  23.243  22.052  1.00  0.00    -0.105 S 
ATOM     13  C   UNL A   1      33.405  22.287  23.448  1.00  0.00     0.093 A 
BRANCH  10  14
ATOM     14  N   UNL A   1      31.245  25.075  22.286  1.00  0.00    -0.301 N 
ATOM     15  C   UNL A   1      31.539  26.395  22.439  1.00  0.00     0.244 C 
ATOM     16  O   UNL A   1      30.777  27.197  21.887  1.00  0.00    -0.273 OA
ATOM     17  H   UNL A   1      30.530  24.855  21.646  1.00  0.00     0.172 HD
BRANCH  15  18
ATOM     18  C   UNL A   1      32.779  26.906  23.168  1.00  0.00     0.162 C 
ATOM     19  N   UNL A   1      32.574  27.678  24.430  1.00  0.00    -0.190 NA
ATOM     20  C   UNL A   1      33.803  28.460  24.646  1.00  0.00     0.103 C 
ATOM     21  C   UNL A   1      34.167  28.916  23.245  1.00  0.00     0.019 C 
ATOM     22  C   UNL A   1      33.728  27.776  22.329  1.00  0.00     0.032 C 
BRANCH  19  23
ATOM     23  S   UNL A   1      31.874  26.944  25.768  1.00  0.00     0.211 S 
ATOM     24  C   UNL A   1      31.934  28.250  26.970  1.00  0.00     0.176 C 
ATOM     25  O   UNL A   1      32.779  25.918  26.238  1.00  0.00    -0.212 OA
ATOM     26  O   UNL A   1      30.487  26.653  25.476  1.00  0.00    -0.212 OA
ENDBRANCH  19  23
ENDBRANCH  15  18
ENDBRANCH  10  14
ENDBRANCH   8   9
ENDBRANCH   5   8
ENDBRANCH   3   4
ENDBRANCH   2   3
ENDBRANCH   1   2
BRANCH   1  27
ATOM     27  C   UNL A   1      36.948  21.404  24.808  1.00  0.00     0.002 C 
BRANCH  27  28
ATOM     28  C   UNL A   1      38.397  20.916  24.894  1.00  0.00     0.021 C 
BRANCH  28  29
ATOM     29  C   UNL A   1      38.810  20.412  26.275  1.00  0.00     0.116 C 
BRANCH  29  30
ATOM     30  N   UNL A   1      39.878  19.426  26.186  1.00  0.00    -0.352 N 
ATOM     31  C   UNL A   1      41.232  19.620  26.093  1.00  0.00     0.251 C 
ATOM     32  H   UNL A   1      39.585  18.486  26.197  1.00  0.00     0.163 HD
ATOM     33  O   UNL A   1      41.964  18.697  25.750  1.00  0.00    -0.269 OA
BRANCH  31  34
ATOM     34  C   UNL A   1      41.801  20.947  26.404  1.00  0.00     0.039 A 
ATOM     35  C   UNL A   1      42.089  21.826  25.358  1.00  0.00     0.014 A 
ATOM     36  C   UNL A   1      42.052  21.318  27.728  1.00  0.00     0.014 A 
ATOM     37  C   UNL A   1      42.574  23.102  25.646  1.00  0.00     0.010 A 
ATOM     38  C   UNL A   1      42.461  22.615  28.016  1.00  0.00     0.010 A 
ATOM     39  C   UNL A   1      42.730  23.520  26.980  1.00  0.00    -0.014 A 
BRANCH  39  40
ATOM     40  C   UNL A   1      43.139  24.910  27.303  1.00  0.00     0.031 A 
ATOM     41  C   UNL A   1      42.171  25.862  27.950  1.00  0.00     0.074 A 
ATOM     42  C   UNL A   1      44.362  25.339  26.932  1.00  0.00     0.049 A 
ATOM     43  N   UNL A   1      42.344  27.119  28.269  1.00  0.00    -0.248 NA
ATOM     44  C   UNL A   1      40.827  25.345  28.255  1.00  0.00     0.031 C 
ATOM     45  C   UNL A   1      45.358  24.535  26.222  1.00  0.00     0.029 A 
ATOM     46  N   UNL A   1      44.964  26.563  27.074  1.00  0.00    -0.354 N 
ATOM     47  C   UNL A   1      41.126  27.554  28.777  1.00  0.00     0.074 A 
ATOM     48  C   UNL A   1      40.213  26.434  28.696  1.00  0.00     0.031 C 
ATOM     49  C   UNL A   1      46.448  25.283  25.997  1.00  0.00     0.029 A 
ATOM     50  C   UNL A   1      46.216  26.630  26.508  1.00  0.00     0.049 A 
ATOM     51  H   UNL A   1      44.540  27.322  27.537  1.00  0.00     0.167 HD
ATOM     52  C   UNL A   1      40.803  28.766  29.287  1.00  0.00     0.034 A 
ATOM     53  C   UNL A   1      47.074  27.662  26.396  1.00  0.00     0.034 A 
ATOM     54  C   UNL A   1      41.724  29.868  29.388  1.00  0.00     0.049 A 
ATOM     55  C   UNL A   1      46.702  28.991  26.991  1.00  0.00     0.074 A 
ATOM     56  C   UNL A   1      41.524  31.102  29.978  1.00  0.00     0.029 A 
ATOM     57  N   UNL A   1      43.008  29.879  28.865  1.00  0.00    -0.354 N 
ATOM     58  N   UNL A   1      45.606  29.331  27.626  1.00  0.00    -0.248 NA
ATOM     59  C   UNL A   1      47.695  30.069  26.885  1.00  0.00     0.031 C 
ATOM     60  C   UNL A   1      42.671  31.877  29.771  1.00  0.00     0.029 A 
ATOM     61  C   UNL A   1      43.603  31.108  29.093  1.00  0.00     0.049 A 
ATOM     62  H   UNL A   1      43.434  29.123  28.399  1.00  0.00     0.167 HD
ATOM     63  C   UNL A   1      45.788  30.653  28.017  1.00  0.00     0.074 A 
ATOM     64  C   UNL A   1      47.111  31.040  27.572  1.00  0.00     0.031 C 
ATOM     65  C   UNL A   1      44.932  31.474  28.675  1.00  0.00     0.034 A 
BRANCH  52  66
ATOM     66  C   UNL A   1      39.400  28.958  29.803  1.00  0.00     0.023 A 
ATOM     67  C   UNL A   1      39.065  28.532  31.105  1.00  0.00     0.012 A 
ATOM     68  C   UNL A   1      38.426  29.607  29.018  1.00  0.00     0.148 A 
ATOM     69  C   UNL A   1      37.773  28.710  31.602  1.00  0.00     0.002 A 
ATOM     70  C   UNL A   1      37.156  29.825  29.538  1.00  0.00     0.091 A 
ATOM     71  F   UNL A   1      38.755  29.987  27.776  1.00  0.00    -0.205 F 
ATOM     72  C   UNL A   1      36.824  29.366  30.823  1.00  0.00     0.022 A 
BRANCH  70  73
ATOM     73  S   UNL A   1      35.886  30.732  28.648  1.00  0.00     0.127 S 
ATOM     74  O   UNL A   1      35.096  31.285  29.746  1.00  0.00    -0.237 OA
ATOM     75  O   UNL A   1      36.676  31.718  27.910  1.00  0.00    -0.237 OA
ATOM     76  O   UNL A   1      35.201  29.753  27.815  1.00  0.00    -0.744 OA
ENDBRANCH  70  73
ENDBRANCH  52  66
BRANCH  53  77
ATOM     77  C   UNL A   1      48.389  27.459  25.724  1.00  0.00     0.023 A 
ATOM     78  C   UNL A   1      49.512  27.091  26.488  1.00  0.00     0.012 A 
ATOM     79  C   UNL A   1      48.519  27.590  24.327  1.00  0.00     0.148 A 
ATOM     80  C   UNL A   1      50.750  26.886  25.877  1.00  0.00     0.002 A 
ATOM     81  C   UNL A   1      49.740  27.325  23.719  1.00  0.00     0.091 A 
ATOM     82  F   UNL A   1      47.438  27.947  23.620  1.00  0.00    -0.205 F 
ATOM     83  C   UNL A   1      50.861  26.992  24.494  1.00  0.00     0.022 A 
BRANCH  81  84
ATOM     84  S   UNL A   1      49.942  27.299  21.934  1.00  0.00     0.127 S 
ATOM     85  O   UNL A   1      49.726  28.702  21.588  1.00  0.00    -0.237 OA
ATOM     86  O   UNL A   1      51.323  26.835  21.797  1.00  0.00    -0.237 OA
ATOM     87  O   UNL A   1      48.943  26.365  21.434  1.00  0.00    -0.744 OA
ENDBRANCH  81  84
ENDBRANCH  53  77
BRANCH  65  88
ATOM     88  C   UNL A   1      45.402  32.874  28.980  1.00  0.00     0.023 A 
ATOM     89  C   UNL A   1      46.099  33.138  30.176  1.00  0.00     0.012 A 
ATOM     90  C   UNL A   1      45.212  33.913  28.048  1.00  0.00     0.148 A 
ATOM     91  C   UNL A   1      46.567  34.421  30.456  1.00  0.00     0.002 A 
ATOM     92  C   UNL A   1      45.728  35.177  28.308  1.00  0.00     0.091 A 
ATOM     93  F   UNL A   1      44.532  33.646  26.923  1.00  0.00    -0.205 F 
ATOM     94  C   UNL A   1      46.393  35.436  29.518  1.00  0.00     0.022 A 
BRANCH  92  95
ATOM     95  S   UNL A   1      45.637  36.521  27.121  1.00  0.00     0.127 S 
ATOM     96  O   UNL A   1      46.293  35.931  25.953  1.00  0.00    -0.237 OA
ATOM     97  O   UNL A   1      44.194  36.710  26.979  1.00  0.00    -0.237 OA
ATOM     98  O   UNL A   1      46.341  37.643  27.726  1.00  0.00    -0.744 OA
ENDBRANCH  92  95
ENDBRANCH  65  88
ENDBRANCH  39  40
ENDBRANCH  31  34
ENDBRANCH  29  30
ENDBRANCH  28  29
ENDBRANCH  27  28
ENDBRANCH   1  27
TORSDOF 20
ENDMDL
MODEL 2
REMARK VINA RESULT:     -10.6      5.800     10.954
REMARK SMILES CS(=O)(=O)N1CCC[C@@H]1C(=O)Nc1nc(CC(=O)NCCCCCCNC(=O)c2ccc(-c3c4nc(c(-c5cccc(S(=O)(=O)[O-])c5F)c5ccc([nH]5)c(-c5cccc(S(=O)(=O)[O-])c5F)c5nc(c(-c6cccc(S(=O)(=O)[O-])c6F)c6ccc3[nH]6)C=C5)C=C4)cc2)cs1
REMARK SMILES IDX 22 1 21 2 20 3 19 4 17 5 18 6 16 8 15 9 13 10 14 11 93 12
REMARK SMILES IDX 92 13 12 14 10 15 11 16 9 18 5 19 6 20 7 21 8 22 2 23 1 24
REMARK SMILES IDX 3 25 4 26 23 27 24 28 25 29 26 30 27 31 28 33 29 34 30 35
REMARK SMILES IDX 91 36 31 37 90 38 32 39 33 40 34 41 84 42 35 43 89 44 83 45
REMARK SMILES IDX 85 46 36 47 88 48 82 49 81 50 37 52 69 53 49 54 68 55 50 56
REMARK SMILES IDX 53 57 67 58 86 59 51 60 52 61 66 63 87 64 54 65 38 66 39 67
REMARK SMILES IDX 47 68 40 69 42 70 48 71 41 72 43 73 44 74 45 75 46 76 70 77
REMARK SMILES IDX 71 78 79 79 72 80 74 81 80 82 73 83 75 84 76 85 77 86 78 87
REMARK SMILES IDX 55 88 56 89 64 90 57 91 59 92 65 93 58 94 60 95 61 96 62 97
REMARK SMILES IDX 63 98
REMARK H PARENT 19 7 12 17 26 32 85 51 53 62
REMARK Flexibility Score: inf
ROOT
ATOM      1  C   UNL A   1      34.069  28.617  25.620  1.00  0.00     0.002 C 
ENDROOT
BRANCH   1   2
ATOM      2  C   UNL A   1      33.509  29.232  24.339  1.00  0.00     0.021 C 
BRANCH   2   3
ATOM      3  C   UNL A   1      33.283  28.237  23.199  1.00  0.00     0.116 C 
BRANCH   3   4
ATOM      4  N   UNL A   1      32.077  28.575  22.461  1.00  0.00    -0.356 N 
ATOM      5  C   UNL A   1      30.775  28.378  22.824  1.00  0.00     0.226 C 
ATOM      6  O   UNL A   1      29.892  28.592  21.989  1.00  0.00    -0.275 OA
ATOM      7  H   UNL A   1      32.217  29.000  21.584  1.00  0.00     0.163 HD
BRANCH   5   8
ATOM      8  C   UNL A   1      30.425  27.984  24.247  1.00  0.00     0.157 C 
BRANCH   8   9
ATOM      9  C   UNL A   1      30.623  26.533  24.537  1.00  0.00     0.063 A 
ATOM     10  C   UNL A   1      30.873  24.451  23.848  1.00  0.00     0.189 A 
ATOM     11  N   UNL A   1      30.878  25.694  23.463  1.00  0.00    -0.224 NA
ATOM     12  S   UNL A   1      30.542  24.176  25.498  1.00  0.00    -0.105 S 
ATOM     13  C   UNL A   1      30.561  25.882  25.757  1.00  0.00     0.093 A 
BRANCH  10  14
ATOM     14  N   UNL A   1      31.107  23.337  23.108  1.00  0.00    -0.301 N 
ATOM     15  C   UNL A   1      32.302  22.710  22.933  1.00  0.00     0.244 C 
ATOM     16  O   UNL A   1      32.331  21.806  22.090  1.00  0.00    -0.273 OA
ATOM     17  H   UNL A   1      30.331  22.943  22.648  1.00  0.00     0.172 HD
BRANCH  15  18
ATOM     18  C   UNL A   1      33.544  23.006  23.770  1.00  0.00     0.162 C 
ATOM     19  N   UNL A   1      33.473  22.736  25.237  1.00  0.00    -0.190 NA
ATOM     20  C   UNL A   1      34.535  23.542  25.863  1.00  0.00     0.103 C 
ATOM     21  C   UNL A   1      34.479  24.843  25.083  1.00  0.00     0.019 C 
ATOM     22  C   UNL A   1      34.086  24.440  23.664  1.00  0.00     0.032 C 
BRANCH  19  23
ATOM     23  S   UNL A   1      33.251  21.170  25.800  1.00  0.00     0.211 S 
ATOM     24  C   UNL A   1      34.424  20.263  24.821  1.00  0.00     0.176 C 
ATOM     25  O   UNL A   1      31.941  20.725  25.377  1.00  0.00    -0.212 OA
ATOM     26  O   UNL A   1      33.660  21.102  27.186  1.00  0.00    -0.212 OA
ENDBRANCH  19  23
ENDBRANCH  15  18
ENDBRANCH  10  14
ENDBRANCH   8   9
ENDBRANCH   5   8
ENDBRANCH   3   4
ENDBRANCH   2   3
ENDBRANCH   1   2
BRANCH   1  27
ATOM     27  C   UNL A   1      33.699  29.372  26.894  1.00  0.00     0.002 C 
BRANCH  27  28
ATOM     28  C   UNL A   1      33.559  30.886  26.715  1.00  0.00     0.021 C 
BRANCH  28  29
ATOM     29  C   UNL A   1      32.254  31.465  27.259  1.00  0.00     0.116 C 
BRANCH  29  30
ATOM     30  N   UNL A   1      32.257  32.920  27.217  1.00  0.00    -0.352 N 
ATOM     31  C   UNL A   1      33.010  33.808  27.942  1.00  0.00     0.251 C 
ATOM     32  H   UNL A   1      31.629  33.324  26.575  1.00  0.00     0.163 HD
ATOM     33  O   UNL A   1      32.694  34.993  27.984  1.00  0.00    -0.269 OA
BRANCH  31  34
ATOM     34  C   UNL A   1      34.200  33.327  28.673  1.00  0.00     0.039 A 
ATOM     35  C   UNL A   1      34.034  32.734  29.927  1.00  0.00     0.014 A 
ATOM     36  C   UNL A   1      35.476  33.466  28.121  1.00  0.00     0.014 A 
ATOM     37  C   UNL A   1      35.146  32.226  30.600  1.00  0.00     0.010 A 
ATOM     38  C   UNL A   1      36.570  32.891  28.757  1.00  0.00     0.010 A 
ATOM     39  C   UNL A   1      36.419  32.269  30.004  1.00  0.00    -0.014 A 
BRANCH  39  40
ATOM     40  C   UNL A   1      37.591  31.634  30.658  1.00  0.00     0.031 A 
ATOM     41  C   UNL A   1      38.377  30.565  29.951  1.00  0.00     0.074 A 
ATOM     42  C   UNL A   1      37.893  31.965  31.929  1.00  0.00     0.049 A 
ATOM     43  N   UNL A   1      39.404  29.878  30.382  1.00  0.00    -0.248 NA
ATOM     44  C   UNL A   1      37.940  30.201  28.593  1.00  0.00     0.031 C 
ATOM     45  C   UNL A   1      37.153  32.925  32.750  1.00  0.00     0.029 A 
ATOM     46  N   UNL A   1      38.883  31.510  32.763  1.00  0.00    -0.354 N 
ATOM     47  C   UNL A   1      39.712  28.979  29.369  1.00  0.00     0.074 A 
ATOM     48  C   UNL A   1      38.745  29.186  28.313  1.00  0.00     0.031 C 
ATOM     49  C   UNL A   1      37.718  32.993  33.965  1.00  0.00     0.029 A 
ATOM     50  C   UNL A   1      38.832  32.053  34.026  1.00  0.00     0.049 A 
ATOM     51  H   UNL A   1      39.565  30.856  32.484  1.00  0.00     0.167 HD
ATOM     52  C   UNL A   1      40.723  28.078  29.313  1.00  0.00     0.034 A 
ATOM     53  C   UNL A   1      39.585  31.811  35.116  1.00  0.00     0.034 A 
ATOM     54  C   UNL A   1      41.696  27.895  30.357  1.00  0.00     0.049 A 
ATOM     55  C   UNL A   1      40.715  30.825  35.020  1.00  0.00     0.074 A 
ATOM     56  C   UNL A   1      42.814  27.081  30.355  1.00  0.00     0.029 A 
ATOM     57  N   UNL A   1      41.655  28.512  31.598  1.00  0.00    -0.354 N 
ATOM     58  N   UNL A   1      41.100  30.110  33.990  1.00  0.00    -0.248 NA
ATOM     59  C   UNL A   1      41.537  30.636  36.224  1.00  0.00     0.031 C 
ATOM     60  C   UNL A   1      43.423  27.171  31.611  1.00  0.00     0.029 A 
ATOM     61  C   UNL A   1      42.711  28.077  32.380  1.00  0.00     0.049 A 
ATOM     62  H   UNL A   1      40.973  29.164  31.881  1.00  0.00     0.167 HD
ATOM     63  C   UNL A   1      42.221  29.406  34.413  1.00  0.00     0.074 A 
ATOM     64  C   UNL A   1      42.470  29.804  35.784  1.00  0.00     0.031 C 
ATOM     65  C   UNL A   1      42.970  28.503  33.731  1.00  0.00     0.034 A 
BRANCH  52  66
ATOM     66  C   UNL A   1      40.845  27.240  28.067  1.00  0.00     0.023 A 
ATOM     67  C   UNL A   1      41.468  27.772  26.919  1.00  0.00     0.012 A 
ATOM     68  C   UNL A   1      40.389  25.906  28.047  1.00  0.00     0.148 A 
ATOM     69  C   UNL A   1      41.598  27.007  25.760  1.00  0.00     0.002 A 
ATOM     70  C   UNL A   1      40.566  25.135  26.905  1.00  0.00     0.091 A 
ATOM     71  F   UNL A   1      39.782  25.423  29.139  1.00  0.00    -0.205 F 
ATOM     72  C   UNL A   1      41.157  25.686  25.757  1.00  0.00     0.022 A 
BRANCH  70  73
ATOM     73  S   UNL A   1      40.109  23.399  26.827  1.00  0.00     0.127 S 
ATOM     74  O   UNL A   1      38.688  23.485  26.491  1.00  0.00    -0.237 OA
ATOM     75  O   UNL A   1      40.961  22.906  25.745  1.00  0.00    -0.237 OA
ATOM     76  O   UNL A   1      40.408  22.844  28.140  1.00  0.00    -0.744 OA
ENDBRANCH  70  73
ENDBRANCH  52  66
BRANCH  53  77
ATOM     77  C   UNL A   1      39.313  32.552  36.380  1.00  0.00     0.023 A 
ATOM     78  C   UNL A   1      39.887  33.822  36.581  1.00  0.00     0.012 A 
ATOM     79  C   UNL A   1      38.457  32.021  37.365  1.00  0.00     0.148 A 
ATOM     80  C   UNL A   1      39.637  34.537  37.753  1.00  0.00     0.002 A 
ATOM     81  C   UNL A   1      38.164  32.764  38.501  1.00  0.00     0.091 A 
ATOM     82  F   UNL A   1      37.927  30.807  37.155  1.00  0.00    -0.205 F 
ATOM     83  C   UNL A   1      38.768  34.014  38.706  1.00  0.00     0.022 A 
BRANCH  81  84
ATOM     84  S   UNL A   1      36.951  32.233  39.714  1.00  0.00     0.127 S 
ATOM     85  O   UNL A   1      37.005  33.320  40.688  1.00  0.00    -0.237 OA
ATOM     86  O   UNL A   1      35.728  32.183  38.911  1.00  0.00    -0.237 OA
ATOM     87  O   UNL A   1      37.407  30.935  40.192  1.00  0.00    -0.744 OA
ENDBRANCH  81  84
ENDBRANCH  53  77
BRANCH  65  88
ATOM     88  C   UNL A   1      44.150  27.894  34.445  1.00  0.00     0.023 A 
ATOM     89  C   UNL A   1      45.371  28.595  34.512  1.00  0.00     0.012 A 
ATOM     90  C   UNL A   1      44.028  26.656  35.106  1.00  0.00     0.148 A 
ATOM     91  C   UNL A   1      46.461  28.056  35.195  1.00  0.00     0.002 A 
ATOM     92  C   UNL A   1      45.100  26.151  35.831  1.00  0.00     0.091 A 
ATOM     93  F   UNL A   1      42.863  25.997  35.017  1.00  0.00    -0.205 F 
ATOM     94  C   UNL A   1      46.322  26.843  35.864  1.00  0.00     0.022 A 
BRANCH  92  95
ATOM     95  S   UNL A   1      44.987  24.646  36.803  1.00  0.00     0.127 S 
ATOM     96  O   UNL A   1      46.392  24.385  37.114  1.00  0.00    -0.237 OA
ATOM     97  O   UNL A   1      44.179  25.076  37.944  1.00  0.00    -0.237 OA
ATOM     98  O   UNL A   1      44.348  23.657  35.945  1.00  0.00    -0.744 OA
ENDBRANCH  92  95
ENDBRANCH  65  88
ENDBRANCH  39  40
ENDBRANCH  31  34
ENDBRANCH  29  30
ENDBRANCH  28  29
ENDBRANCH  27  28
ENDBRANCH   1  27
TORSDOF 20
ENDMDL
MODEL 3
REMARK VINA RESULT:     -10.4      6.566     10.208
REMARK SMILES CS(=O)(=O)N1CCC[C@@H]1C(=O)Nc1nc(CC(=O)NCCCCCCNC(=O)c2ccc(-c3c4nc(c(-c5cccc(S(=O)(=O)[O-])c5F)c5ccc([nH]5)c(-c5cccc(S(=O)(=O)[O-])c5F)c5nc(c(-c6cccc(S(=O)(=O)[O-])c6F)c6ccc3[nH]6)C=C5)C=C4)cc2)cs1
REMARK SMILES IDX 22 1 21 2 20 3 19 4 17 5 18 6 16 8 15 9 13 10 14 11 93 12
REMARK SMILES IDX 92 13 12 14 10 15 11 16 9 18 5 19 6 20 7 21 8 22 2 23 1 24
REMARK SMILES IDX 3 25 4 26 23 27 24 28 25 29 26 30 27 31 28 33 29 34 30 35
REMARK SMILES IDX 91 36 31 37 90 38 32 39 33 40 34 41 84 42 35 43 89 44 83 45
REMARK SMILES IDX 85 46 36 47 88 48 82 49 81 50 37 52 69 53 49 54 68 55 50 56
REMARK SMILES IDX 53 57 67 58 86 59 51 60 52 61 66 63 87 64 54 65 38 66 39 67
REMARK SMILES IDX 47 68 40 69 42 70 48 71 41 72 43 73 44 74 45 75 46 76 70 77
REMARK SMILES IDX 71 78 79 79 72 80 74 81 80 82 73 83 75 84 76 85 77 86 78 87
REMARK SMILES IDX 55 88 56 89 64 90 57 91 59 92 65 93 58 94 60 95 61 96 62 97
REMARK SMILES IDX 63 98
REMARK H PARENT 19 7 12 17 26 32 85 51 53 62
REMARK Flexibility Score: inf
ROOT
ATOM      1  C   UNL A   1      33.808  31.770  27.644  1.00  0.00     0.002 C 
ENDROOT
BRANCH   1   2
ATOM      2  C   UNL A   1      34.753  30.596  27.893  1.00  0.00     0.021 C 
BRANCH   2   3
ATOM      3  C   UNL A   1      34.462  29.353  27.051  1.00  0.00     0.116 C 
BRANCH   3   4
ATOM      4  N   UNL A   1      33.410  28.558  27.664  1.00  0.00    -0.356 N 
ATOM      5  C   UNL A   1      32.119  28.392  27.249  1.00  0.00     0.226 C 
ATOM      6  O   UNL A   1      31.333  27.801  27.994  1.00  0.00    -0.275 OA
ATOM      7  H   UNL A   1      33.660  28.078  28.487  1.00  0.00     0.163 HD
BRANCH   5   8
ATOM      8  C   UNL A   1      31.690  28.855  25.869  1.00  0.00     0.157 C 
BRANCH   8   9
ATOM      9  C   UNL A   1      31.699  27.775  24.840  1.00  0.00     0.063 A 
ATOM     10  C   UNL A   1      32.793  26.391  23.514  1.00  0.00     0.189 A 
ATOM     11  N   UNL A   1      32.920  27.199  24.527  1.00  0.00    -0.224 NA
ATOM     12  S   UNL A   1      31.231  26.268  22.841  1.00  0.00    -0.105 S 
ATOM     13  C   UNL A   1      30.635  27.267  24.115  1.00  0.00     0.093 A 
BRANCH  10  14
ATOM     14  N   UNL A   1      33.743  25.620  22.926  1.00  0.00    -0.301 N 
ATOM     15  C   UNL A   1      33.974  24.297  23.147  1.00  0.00     0.244 C 
ATOM     16  O   UNL A   1      34.992  23.822  22.631  1.00  0.00    -0.273 OA
ATOM     17  H   UNL A   1      34.327  26.065  22.270  1.00  0.00     0.172 HD
BRANCH  15  18
ATOM     18  C   UNL A   1      33.014  23.387  23.910  1.00  0.00     0.162 C 
ATOM     19  N   UNL A   1      33.572  22.577  25.033  1.00  0.00    -0.190 NA
ATOM     20  C   UNL A   1      32.632  21.464  25.253  1.00  0.00     0.103 C 
ATOM     21  C   UNL A   1      32.232  21.073  23.842  1.00  0.00     0.019 C 
ATOM     22  C   UNL A   1      32.236  22.379  23.051  1.00  0.00     0.032 C 
BRANCH  19  23
ATOM     23  S   UNL A   1      34.211  23.334  26.389  1.00  0.00     0.211 S 
ATOM     24  C   UNL A   1      33.571  22.324  27.703  1.00  0.00     0.176 C 
ATOM     25  O   UNL A   1      33.571  24.625  26.522  1.00  0.00    -0.212 OA
ATOM     26  O   UNL A   1      35.651  23.203  26.369  1.00  0.00    -0.212 OA
ENDBRANCH  19  23
ENDBRANCH  15  18
ENDBRANCH  10  14
ENDBRANCH   8   9
ENDBRANCH   5   8
ENDBRANCH   3   4
ENDBRANCH   2   3
ENDBRANCH   1   2
BRANCH   1  27
ATOM     27  C   UNL A   1      34.285  33.097  28.229  1.00  0.00     0.002 C 
BRANCH  27  28
ATOM     28  C   UNL A   1      33.224  34.201  28.243  1.00  0.00     0.021 C 
BRANCH  28  29
ATOM     29  C   UNL A   1      33.695  35.518  28.857  1.00  0.00     0.116 C 
BRANCH  29  30
ATOM     30  N   UNL A   1      32.997  35.806  30.102  1.00  0.00    -0.352 N 
ATOM     31  C   UNL A   1      33.156  35.235  31.338  1.00  0.00     0.251 C 
ATOM     32  H   UNL A   1      32.315  36.514  30.048  1.00  0.00     0.163 HD
ATOM     33  O   UNL A   1      32.303  35.398  32.206  1.00  0.00    -0.269 OA
BRANCH  31  34
ATOM     34  C   UNL A   1      34.356  34.419  31.616  1.00  0.00     0.039 A 
ATOM     35  C   UNL A   1      35.618  34.958  31.360  1.00  0.00     0.014 A 
ATOM     36  C   UNL A   1      34.230  33.124  32.124  1.00  0.00     0.014 A 
ATOM     37  C   UNL A   1      36.758  34.216  31.672  1.00  0.00     0.010 A 
ATOM     38  C   UNL A   1      35.366  32.418  32.506  1.00  0.00     0.010 A 
ATOM     39  C   UNL A   1      36.641  32.954  32.281  1.00  0.00    -0.014 A 
BRANCH  39  40
ATOM     40  C   UNL A   1      37.844  32.202  32.719  1.00  0.00     0.031 A 
ATOM     41  C   UNL A   1      38.567  32.581  33.982  1.00  0.00     0.074 A 
ATOM     42  C   UNL A   1      38.335  31.228  31.927  1.00  0.00     0.049 A 
ATOM     43  N   UNL A   1      39.651  32.061  34.497  1.00  0.00    -0.248 NA
ATOM     44  C   UNL A   1      38.017  33.707  34.755  1.00  0.00     0.031 C 
ATOM     45  C   UNL A   1      37.772  30.826  30.637  1.00  0.00     0.029 A 
ATOM     46  N   UNL A   1      39.434  30.419  32.076  1.00  0.00    -0.354 N 
ATOM     47  C   UNL A   1      39.934  32.814  35.630  1.00  0.00     0.074 A 
ATOM     48  C   UNL A   1      38.924  33.847  35.711  1.00  0.00     0.031 C 
ATOM     49  C   UNL A   1      38.523  29.844  30.116  1.00  0.00     0.029 A 
ATOM     50  C   UNL A   1      39.643  29.574  31.012  1.00  0.00     0.049 A 
ATOM     51  H   UNL A   1      40.016  30.442  32.870  1.00  0.00     0.167 HD
ATOM     52  C   UNL A   1      40.929  32.647  36.533  1.00  0.00     0.034 A 
ATOM     53  C   UNL A   1      40.633  28.692  30.773  1.00  0.00     0.034 A 
ATOM     54  C   UNL A   1      41.915  31.602  36.460  1.00  0.00     0.049 A 
ATOM     55  C   UNL A   1      41.712  28.508  31.802  1.00  0.00     0.074 A 
ATOM     56  C   UNL A   1      42.903  31.286  37.376  1.00  0.00     0.029 A 
ATOM     57  N   UNL A   1      42.058  30.718  35.401  1.00  0.00    -0.354 N 
ATOM     58  N   UNL A   1      41.862  29.114  32.956  1.00  0.00    -0.248 NA
ATOM     59  C   UNL A   1      42.740  27.498  31.515  1.00  0.00     0.031 C 
ATOM     60  C   UNL A   1      43.671  30.242  36.849  1.00  0.00     0.029 A 
ATOM     61  C   UNL A   1      43.133  29.875  35.626  1.00  0.00     0.049 A 
ATOM     62  H   UNL A   1      41.478  30.693  34.604  1.00  0.00     0.167 HD
ATOM     63  C   UNL A   1      42.984  28.541  33.544  1.00  0.00     0.074 A 
ATOM     64  C   UNL A   1      43.458  27.521  32.630  1.00  0.00     0.031 C 
ATOM     65  C   UNL A   1      43.577  28.841  34.727  1.00  0.00     0.034 A 
BRANCH  52  66
ATOM     66  C   UNL A   1      40.985  33.601  37.698  1.00  0.00     0.023 A 
ATOM     67  C   UNL A   1      41.794  34.754  37.625  1.00  0.00     0.012 A 
ATOM     68  C   UNL A   1      40.197  33.384  38.847  1.00  0.00     0.148 A 
ATOM     69  C   UNL A   1      41.850  35.653  38.690  1.00  0.00     0.002 A 
ATOM     70  C   UNL A   1      40.221  34.310  39.883  1.00  0.00     0.091 A 
ATOM     71  F   UNL A   1      39.450  32.273  38.908  1.00  0.00    -0.205 F 
ATOM     72  C   UNL A   1      41.056  35.436  39.813  1.00  0.00     0.022 A 
BRANCH  70  73
ATOM     73  S   UNL A   1      39.175  34.165  41.336  1.00  0.00     0.127 S 
ATOM     74  O   UNL A   1      39.487  35.404  42.047  1.00  0.00    -0.237 OA
ATOM     75  O   UNL A   1      37.836  34.124  40.746  1.00  0.00    -0.237 OA
ATOM     76  O   UNL A   1      39.583  32.939  42.006  1.00  0.00    -0.744 OA
ENDBRANCH  70  73
ENDBRANCH  52  66
BRANCH  53  77
ATOM     77  C   UNL A   1      40.618  27.888  29.519  1.00  0.00     0.023 A 
ATOM     78  C   UNL A   1      39.683  26.846  29.370  1.00  0.00     0.012 A 
ATOM     79  C   UNL A   1      41.501  28.178  28.459  1.00  0.00     0.148 A 
ATOM     80  C   UNL A   1      39.646  26.088  28.198  1.00  0.00     0.002 A 
ATOM     81  C   UNL A   1      41.417  27.459  27.274  1.00  0.00     0.091 A 
ATOM     82  F   UNL A   1      42.387  29.170  28.626  1.00  0.00    -0.205 F 
ATOM     83  C   UNL A   1      40.504  26.401  27.148  1.00  0.00     0.022 A 
BRANCH  81  84
ATOM     84  S   UNL A   1      42.384  27.881  25.820  1.00  0.00     0.127 S 
ATOM     85  O   UNL A   1      41.996  26.828  24.886  1.00  0.00    -0.237 OA
ATOM     86  O   UNL A   1      41.871  29.213  25.497  1.00  0.00    -0.237 OA
ATOM     87  O   UNL A   1      43.776  27.863  26.249  1.00  0.00    -0.744 OA
ENDBRANCH  81  84
ENDBRANCH  53  77
BRANCH  65  88
ATOM     88  C   UNL A   1      44.792  28.042  35.122  1.00  0.00     0.023 A 
ATOM     89  C   UNL A   1      46.080  28.501  34.777  1.00  0.00     0.012 A 
ATOM     90  C   UNL A   1      44.661  26.871  35.893  1.00  0.00     0.148 A 
ATOM     91  C   UNL A   1      47.213  27.787  35.162  1.00  0.00     0.002 A 
ATOM     92  C   UNL A   1      45.797  26.194  36.321  1.00  0.00     0.091 A 
ATOM     93  F   UNL A   1      43.427  26.442  36.198  1.00  0.00    -0.205 F 
ATOM     94  C   UNL A   1      47.073  26.643  35.944  1.00  0.00     0.022 A 
BRANCH  92  95
ATOM     95  S   UNL A   1      45.720  24.768  37.409  1.00  0.00     0.127 S 
ATOM     96  O   UNL A   1      47.016  24.837  38.083  1.00  0.00    -0.237 OA
ATOM     97  O   UNL A   1      44.573  25.090  38.259  1.00  0.00    -0.237 OA
ATOM     98  O   UNL A   1      45.530  23.610  36.546  1.00  0.00    -0.744 OA
ENDBRANCH  92  95
ENDBRANCH  65  88
ENDBRANCH  39  40
ENDBRANCH  31  34
ENDBRANCH  29  30
ENDBRANCH  28  29
ENDBRANCH  27  28
ENDBRANCH   1  27
TORSDOF 20
ENDMDL
