MODEL 1
REMARK VINA RESULT:     -10.7      0.000      0.000
REMARK SMILES CCCCCCNC(=O)Oc1cccc(-c2ccc([C@@H](C)C(=O)NCCCCCCNC(=O)c3ccc(-c4c5nc(c(-c6cccc(S(=O)(=O)[O-])c6F)c6ccc([nH]6)c(-c6cccc(S(=O)(=O)[O-])c6F)c6nc(c(-c7cccc(S(=O)(=O)[O-])c7F)c7ccc4[nH]7)C=C6)C=C5)cc3)cc2O)c1
REMARK SMILES IDX 22 1 23 2 24 3 20 5 21 6 19 7 16 8 17 9 98 10 18 11 97 12
REMARK SMILES IDX 15 13 11 14 12 15 100 16 13 17 14 18 10 19 8 20 7 21 9 23
REMARK SMILES IDX 6 24 5 25 4 26 3 27 2 28 1 29 99 30 25 32 26 33 27 34 28 35
REMARK SMILES IDX 29 36 30 37 31 38 32 39 33 41 34 42 35 43 96 44 36 45 95 46
REMARK SMILES IDX 37 47 38 48 39 49 89 50 40 51 94 52 88 53 90 54 41 55 93 56
REMARK SMILES IDX 87 57 86 58 42 60 74 61 54 62 73 63 55 64 58 65 72 66 91 67
REMARK SMILES IDX 56 68 57 69 71 71 92 72 59 73 43 74 44 75 52 76 45 77 47 78
REMARK SMILES IDX 53 79 46 80 48 81 49 82 50 83 51 84 75 85 76 86 84 87 77 88
REMARK SMILES IDX 79 89 85 90 78 91 80 92 81 93 82 94 83 95 60 96 61 97 69 98
REMARK SMILES IDX 62 99 64 100 70 101 63 102 65 103 66 104 67 105 68 106
REMARK H PARENT 24 4 7 22 99 31 31 40 90 59 58 70
REMARK Flexibility Score: inf
ROOT
ATOM      1  C   UNL A   1      34.665  19.330  24.738  1.00  0.00     0.227 C 
ATOM      2  O   UNL A   1      34.873  18.192  24.297  1.00  0.00    -0.274 OA
ATOM      3  N   UNL A   1      35.762  20.027  25.142  1.00  0.00    -0.356 N 
ATOM      4  H   UNL A   1      36.616  19.566  24.976  1.00  0.00     0.163 HD
ENDROOT
BRANCH   1   5
ATOM      5  C   UNL A   1      33.234  19.889  24.773  1.00  0.00     0.105 C 
ATOM      6  C   UNL A   1      32.196  18.984  24.109  1.00  0.00     0.023 C 
BRANCH   5   7
ATOM      7  C   UNL A   1      33.131  21.366  24.426  1.00  0.00    -0.032 A 
ATOM      8  C   UNL A   1      32.864  24.124  23.691  1.00  0.00     0.024 A 
ATOM      9  C   UNL A   1      32.867  23.709  25.032  1.00  0.00     0.013 A 
ATOM     10  C   UNL A   1      33.046  23.116  22.728  1.00  0.00     0.123 A 
ATOM     11  C   UNL A   1      33.046  22.369  25.392  1.00  0.00     0.005 A 
ATOM     12  C   UNL A   1      33.132  21.764  23.082  1.00  0.00     0.051 A 
BRANCH   8  13
ATOM     13  C   UNL A   1      32.679  25.560  23.374  1.00  0.00    -0.011 A 
ATOM     14  C   UNL A   1      31.504  27.672  23.638  1.00  0.00     0.133 A 
ATOM     15  C   UNL A   1      32.350  28.298  22.729  1.00  0.00     0.047 A 
ATOM     16  C   UNL A   1      31.667  26.327  23.976  1.00  0.00     0.056 A 
ATOM     17  C   UNL A   1      33.378  27.567  22.148  1.00  0.00     0.004 A 
ATOM     18  C   UNL A   1      33.529  26.212  22.457  1.00  0.00     0.009 A 
BRANCH  14  19
ATOM     19  O   UNL A   1      30.388  28.410  24.065  1.00  0.00    -0.410 OA
BRANCH  19  20
ATOM     20  C   UNL A   1      30.374  29.788  23.921  1.00  0.00     0.412 C 
ATOM     21  N   UNL A   1      31.066  30.426  24.913  1.00  0.00    -0.321 N 
ATOM     22  H   UNL A   1      31.059  31.411  24.894  1.00  0.00     0.167 HD
ATOM     23  O   UNL A   1      29.822  30.417  23.028  1.00  0.00    -0.224 OA
BRANCH  21  24
ATOM     24  C   UNL A   1      31.808  29.800  25.989  1.00  0.00     0.119 C 
BRANCH  24  25
ATOM     25  C   UNL A   1      32.518  30.832  26.865  1.00  0.00     0.021 C 
BRANCH  25  26
ATOM     26  C   UNL A   1      33.965  30.480  27.228  1.00  0.00     0.002 C 
BRANCH  26  27
ATOM     27  C   UNL A   1      34.600  31.351  28.316  1.00  0.00    -0.000 C 
BRANCH  27  28
ATOM     28  C   UNL A   1      35.670  32.332  27.829  1.00  0.00    -0.003 C 
ATOM     29  C   UNL A   1      36.199  33.238  28.929  1.00  0.00     0.004 C 
ENDBRANCH  27  28
ENDBRANCH  26  27
ENDBRANCH  25  26
ENDBRANCH  24  25
ENDBRANCH  21  24
ENDBRANCH  19  20
ENDBRANCH  14  19
ENDBRANCH   8  13
BRANCH  10  30
ATOM     30  O   UNL A   1      33.202  23.383  21.392  1.00  0.00    -0.507 OA
ATOM     31  H   UNL A   1      34.058  23.521  21.038  1.00  0.00     0.293 HD
ENDBRANCH  10  30
ENDBRANCH   5   7
ENDBRANCH   1   5
BRANCH   3  32
ATOM     32  C   UNL A   1      35.900  21.322  25.774  1.00  0.00     0.116 C 
BRANCH  32  33
ATOM     33  C   UNL A   1      36.957  22.179  25.075  1.00  0.00     0.021 C 
BRANCH  33  34
ATOM     34  C   UNL A   1      37.727  23.103  26.025  1.00  0.00     0.002 C 
BRANCH  34  35
ATOM     35  C   UNL A   1      39.159  22.651  26.345  1.00  0.00     0.002 C 
BRANCH  35  36
ATOM     36  C   UNL A   1      39.599  21.342  25.681  1.00  0.00     0.021 C 
BRANCH  36  37
ATOM     37  C   UNL A   1      39.650  20.138  26.617  1.00  0.00     0.116 C 
BRANCH  37  38
ATOM     38  N   UNL A   1      40.726  19.224  26.257  1.00  0.00    -0.352 N 
ATOM     39  C   UNL A   1      42.040  19.492  25.970  1.00  0.00     0.251 C 
ATOM     40  H   UNL A   1      40.473  18.273  26.213  1.00  0.00     0.163 HD
ATOM     41  O   UNL A   1      42.740  18.630  25.444  1.00  0.00    -0.269 OA
BRANCH  39  42
ATOM     42  C   UNL A   1      42.615  20.815  26.292  1.00  0.00     0.039 A 
ATOM     43  C   UNL A   1      43.021  21.652  25.248  1.00  0.00     0.014 A 
ATOM     44  C   UNL A   1      42.777  21.220  27.620  1.00  0.00     0.014 A 
ATOM     45  C   UNL A   1      43.541  22.916  25.536  1.00  0.00     0.010 A 
ATOM     46  C   UNL A   1      43.232  22.506  27.902  1.00  0.00     0.010 A 
ATOM     47  C   UNL A   1      43.624  23.365  26.865  1.00  0.00    -0.014 A 
BRANCH  47  48
ATOM     48  C   UNL A   1      44.096  24.737  27.187  1.00  0.00     0.031 A 
ATOM     49  C   UNL A   1      43.137  25.767  27.722  1.00  0.00     0.074 A 
ATOM     50  C   UNL A   1      45.367  25.085  26.901  1.00  0.00     0.049 A 
ATOM     51  N   UNL A   1      43.351  27.027  27.994  1.00  0.00    -0.248 NA
ATOM     52  C   UNL A   1      41.749  25.333  27.955  1.00  0.00     0.031 C 
ATOM     53  C   UNL A   1      46.368  24.203  26.295  1.00  0.00     0.029 A 
ATOM     54  N   UNL A   1      46.025  26.281  27.044  1.00  0.00    -0.354 N 
ATOM     55  C   UNL A   1      42.123  27.548  28.384  1.00  0.00     0.074 A 
ATOM     56  C   UNL A   1      41.161  26.472  28.297  1.00  0.00     0.031 C 
ATOM     57  C   UNL A   1      47.505  24.892  26.108  1.00  0.00     0.029 A 
ATOM     58  C   UNL A   1      47.309  26.267  26.552  1.00  0.00     0.049 A 
ATOM     59  H   UNL A   1      45.615  27.075  27.459  1.00  0.00     0.167 HD
ATOM     60  C   UNL A   1      41.828  28.804  28.796  1.00  0.00     0.034 A 
ATOM     61  C   UNL A   1      48.221  27.254  26.450  1.00  0.00     0.034 A 
ATOM     62  C   UNL A   1      42.798  29.856  28.935  1.00  0.00     0.049 A 
ATOM     63  C   UNL A   1      47.882  28.621  26.979  1.00  0.00     0.074 A 
ATOM     64  C   UNL A   1      42.620  31.121  29.466  1.00  0.00     0.029 A 
ATOM     65  N   UNL A   1      44.120  29.773  28.532  1.00  0.00    -0.354 N 
ATOM     66  N   UNL A   1      46.767  29.041  27.526  1.00  0.00    -0.248 NA
ATOM     67  C   UNL A   1      48.938  29.643  26.914  1.00  0.00     0.031 C 
ATOM     68  C   UNL A   1      43.829  31.816  29.353  1.00  0.00     0.029 A 
ATOM     69  C   UNL A   1      44.766  30.971  28.782  1.00  0.00     0.049 A 
ATOM     70  H   UNL A   1      44.540  28.980  28.128  1.00  0.00     0.167 HD
ATOM     71  C   UNL A   1      46.996  30.360  27.898  1.00  0.00     0.074 A 
ATOM     72  C   UNL A   1      48.366  30.663  27.539  1.00  0.00     0.031 C 
ATOM     73  C   UNL A   1      46.145  31.245  28.471  1.00  0.00     0.034 A 
BRANCH  60  74
ATOM     74  C   UNL A   1      40.404  29.112  29.176  1.00  0.00     0.023 A 
ATOM     75  C   UNL A   1      39.464  29.423  28.172  1.00  0.00     0.012 A 
ATOM     76  C   UNL A   1      39.975  28.995  30.513  1.00  0.00     0.148 A 
ATOM     77  C   UNL A   1      38.124  29.636  28.496  1.00  0.00     0.002 A 
ATOM     78  C   UNL A   1      38.630  29.164  30.822  1.00  0.00     0.091 A 
ATOM     79  F   UNL A   1      40.888  28.716  31.454  1.00  0.00    -0.205 F 
ATOM     80  C   UNL A   1      37.707  29.494  29.817  1.00  0.00     0.022 A 
BRANCH  78  81
ATOM     81  S   UNL A   1      37.977  28.922  32.477  1.00  0.00     0.127 S 
ATOM     82  O   UNL A   1      38.816  29.828  33.262  1.00  0.00    -0.237 OA
ATOM     83  O   UNL A   1      36.588  29.357  32.325  1.00  0.00    -0.237 OA
ATOM     84  O   UNL A   1      38.144  27.507  32.776  1.00  0.00    -0.744 OA
ENDBRANCH  78  81
ENDBRANCH  60  74
BRANCH  61  85
ATOM     85  C   UNL A   1      49.562  26.975  25.860  1.00  0.00     0.023 A 
ATOM     86  C   UNL A   1      50.568  26.398  26.658  1.00  0.00     0.012 A 
ATOM     87  C   UNL A   1      49.839  27.266  24.511  1.00  0.00     0.148 A 
ATOM     88  C   UNL A   1      51.838  26.153  26.135  1.00  0.00     0.002 A 
ATOM     89  C   UNL A   1      51.088  26.966  23.980  1.00  0.00     0.091 A 
ATOM     90  F   UNL A   1      48.875  27.830  23.770  1.00  0.00    -0.205 F 
ATOM     91  C   UNL A   1      52.096  26.427  24.795  1.00  0.00     0.022 A 
BRANCH  89  92
ATOM     92  S   UNL A   1      51.454  27.159  22.232  1.00  0.00     0.127 S 
ATOM     93  O   UNL A   1      50.218  26.690  21.613  1.00  0.00    -0.237 OA
ATOM     94  O   UNL A   1      51.688  28.600  22.127  1.00  0.00    -0.237 OA
ATOM     95  O   UNL A   1      52.638  26.346  21.991  1.00  0.00    -0.744 OA
ENDBRANCH  89  92
ENDBRANCH  61  85
BRANCH  73  96
ATOM     96  C   UNL A   1      46.669  32.622  28.781  1.00  0.00     0.023 A 
ATOM     97  C   UNL A   1      47.230  32.892  30.045  1.00  0.00     0.012 A 
ATOM     98  C   UNL A   1      46.679  33.626  27.792  1.00  0.00     0.148 A 
ATOM     99  C   UNL A   1      47.763  34.148  30.331  1.00  0.00     0.002 A 
ATOM    100  C   UNL A   1      47.258  34.858  28.067  1.00  0.00     0.091 A 
ATOM    101  F   UNL A   1      46.125  33.355  26.601  1.00  0.00    -0.205 F 
ATOM    102  C   UNL A   1      47.789  35.125  29.339  1.00  0.00     0.022 A 
BRANCH 100 103
ATOM    103  S   UNL A   1      47.425  36.143  26.822  1.00  0.00     0.127 S 
ATOM    104  O   UNL A   1      46.029  36.496  26.568  1.00  0.00    -0.237 OA
ATOM    105  O   UNL A   1      48.193  37.166  27.532  1.00  0.00    -0.237 OA
ATOM    106  O   UNL A   1      48.127  35.528  25.703  1.00  0.00    -0.744 OA
ENDBRANCH 100 103
ENDBRANCH  73  96
ENDBRANCH  47  48
ENDBRANCH  39  42
ENDBRANCH  37  38
ENDBRANCH  36  37
ENDBRANCH  35  36
ENDBRANCH  34  35
ENDBRANCH  33  34
ENDBRANCH  32  33
ENDBRANCH   3  32
TORSDOF 26
ENDMDL
MODEL 2
REMARK VINA RESULT:     -10.3      4.782      9.618
REMARK SMILES CCCCCCNC(=O)Oc1cccc(-c2ccc([C@@H](C)C(=O)NCCCCCCNC(=O)c3ccc(-c4c5nc(c(-c6cccc(S(=O)(=O)[O-])c6F)c6ccc([nH]6)c(-c6cccc(S(=O)(=O)[O-])c6F)c6nc(c(-c7cccc(S(=O)(=O)[O-])c7F)c7ccc4[nH]7)C=C6)C=C5)cc3)cc2O)c1
REMARK SMILES IDX 22 1 23 2 24 3 20 5 21 6 19 7 16 8 17 9 98 10 18 11 97 12
REMARK SMILES IDX 15 13 11 14 12 15 100 16 13 17 14 18 10 19 8 20 7 21 9 23
REMARK SMILES IDX 6 24 5 25 4 26 3 27 2 28 1 29 99 30 25 32 26 33 27 34 28 35
REMARK SMILES IDX 29 36 30 37 31 38 32 39 33 41 34 42 35 43 96 44 36 45 95 46
REMARK SMILES IDX 37 47 38 48 39 49 89 50 40 51 94 52 88 53 90 54 41 55 93 56
REMARK SMILES IDX 87 57 86 58 42 60 74 61 54 62 73 63 55 64 58 65 72 66 91 67
REMARK SMILES IDX 56 68 57 69 71 71 92 72 59 73 43 74 44 75 52 76 45 77 47 78
REMARK SMILES IDX 53 79 46 80 48 81 49 82 50 83 51 84 75 85 76 86 84 87 77 88
REMARK SMILES IDX 79 89 85 90 78 91 80 92 81 93 82 94 83 95 60 96 61 97 69 98
REMARK SMILES IDX 62 99 64 100 70 101 63 102 65 103 66 104 67 105 68 106
REMARK H PARENT 24 4 7 22 99 31 31 40 90 59 58 70
REMARK Flexibility Score: inf
ROOT
ATOM      1  C   UNL A   1      41.231  24.136  27.311  1.00  0.00     0.227 C 
ATOM      2  O   UNL A   1      40.300  23.802  28.056  1.00  0.00    -0.274 OA
ATOM      3  N   UNL A   1      41.368  23.421  26.161  1.00  0.00    -0.356 N 
ATOM      4  H   UNL A   1      40.661  22.751  26.018  1.00  0.00     0.163 HD
ENDROOT
BRANCH   1   5
ATOM      5  C   UNL A   1      42.131  25.321  27.694  1.00  0.00     0.105 C 
ATOM      6  C   UNL A   1      43.291  24.949  28.618  1.00  0.00     0.023 C 
BRANCH   5   7
ATOM      7  C   UNL A   1      41.373  26.585  28.073  1.00  0.00    -0.032 A 
ATOM      8  C   UNL A   1      40.037  29.003  28.838  1.00  0.00     0.024 A 
ATOM      9  C   UNL A   1      39.930  28.473  27.543  1.00  0.00     0.013 A 
ATOM     10  C   UNL A   1      40.800  28.257  29.754  1.00  0.00     0.123 A 
ATOM     11  C   UNL A   1      40.543  27.267  27.183  1.00  0.00     0.005 A 
ATOM     12  C   UNL A   1      41.489  27.099  29.371  1.00  0.00     0.051 A 
BRANCH   8  13
ATOM     13  C   UNL A   1      39.357  30.279  29.160  1.00  0.00    -0.011 A 
ATOM     14  C   UNL A   1      37.432  31.761  29.054  1.00  0.00     0.133 A 
ATOM     15  C   UNL A   1      38.099  32.739  29.785  1.00  0.00     0.047 A 
ATOM     16  C   UNL A   1      38.037  30.538  28.755  1.00  0.00     0.056 A 
ATOM     17  C   UNL A   1      39.392  32.490  30.226  1.00  0.00     0.004 A 
ATOM     18  C   UNL A   1      40.016  31.281  29.903  1.00  0.00     0.009 A 
BRANCH  14  19
ATOM     19  O   UNL A   1      36.197  32.130  28.496  1.00  0.00    -0.410 OA
BRANCH  19  20
ATOM     20  C   UNL A   1      35.024  31.887  29.193  1.00  0.00     0.412 C 
ATOM     21  N   UNL A   1      34.127  31.150  28.469  1.00  0.00    -0.321 N 
ATOM     22  H   UNL A   1      33.253  30.978  28.890  1.00  0.00     0.167 HD
ATOM     23  O   UNL A   1      34.765  32.263  30.328  1.00  0.00    -0.224 OA
BRANCH  21  24
ATOM     24  C   UNL A   1      34.333  30.597  27.145  1.00  0.00     0.119 C 
BRANCH  24  25
ATOM     25  C   UNL A   1      34.324  29.068  27.162  1.00  0.00     0.021 C 
BRANCH  25  26
ATOM     26  C   UNL A   1      33.952  28.414  25.826  1.00  0.00     0.002 C 
BRANCH  26  27
ATOM     27  C   UNL A   1      33.677  26.907  25.886  1.00  0.00    -0.000 C 
BRANCH  27  28
ATOM     28  C   UNL A   1      32.324  26.512  26.483  1.00  0.00    -0.003 C 
ATOM     29  C   UNL A   1      32.032  25.024  26.375  1.00  0.00     0.004 C 
ENDBRANCH  27  28
ENDBRANCH  26  27
ENDBRANCH  25  26
ENDBRANCH  24  25
ENDBRANCH  21  24
ENDBRANCH  19  20
ENDBRANCH  14  19
ENDBRANCH   8  13
BRANCH  10  30
ATOM     30  O   UNL A   1      40.882  28.574  31.086  1.00  0.00    -0.507 OA
ATOM     31  H   UNL A   1      40.110  28.573  31.617  1.00  0.00     0.293 HD
ENDBRANCH  10  30
ENDBRANCH   5   7
ENDBRANCH   1   5
BRANCH   3  32
ATOM     32  C   UNL A   1      42.364  23.466  25.113  1.00  0.00     0.116 C 
BRANCH  32  33
ATOM     33  C   UNL A   1      43.768  23.194  25.658  1.00  0.00     0.021 C 
BRANCH  33  34
ATOM     34  C   UNL A   1      44.784  24.289  25.316  1.00  0.00     0.002 C 
BRANCH  34  35
ATOM     35  C   UNL A   1      46.181  24.084  25.918  1.00  0.00     0.002 C 
BRANCH  35  36
ATOM     36  C   UNL A   1      47.348  24.235  24.936  1.00  0.00     0.021 C 
BRANCH  36  37
ATOM     37  C   UNL A   1      48.224  25.463  25.171  1.00  0.00     0.116 C 
BRANCH  37  38
ATOM     38  N   UNL A   1      47.994  26.487  24.161  1.00  0.00    -0.352 N 
ATOM     39  C   UNL A   1      47.139  27.560  24.184  1.00  0.00     0.251 C 
ATOM     40  H   UNL A   1      48.531  26.396  23.341  1.00  0.00     0.163 HD
ATOM     41  O   UNL A   1      46.896  28.170  23.146  1.00  0.00    -0.269 OA
BRANCH  39  42
ATOM     42  C   UNL A   1      46.510  27.979  25.454  1.00  0.00     0.039 A 
ATOM     43  C   UNL A   1      47.294  28.613  26.423  1.00  0.00     0.014 A 
ATOM     44  C   UNL A   1      45.158  27.726  25.701  1.00  0.00     0.014 A 
ATOM     45  C   UNL A   1      46.707  29.039  27.618  1.00  0.00     0.010 A 
ATOM     46  C   UNL A   1      44.561  28.211  26.862  1.00  0.00     0.010 A 
ATOM     47  C   UNL A   1      45.330  28.867  27.835  1.00  0.00    -0.014 A 
BRANCH  47  48
ATOM     48  C   UNL A   1      44.672  29.387  29.062  1.00  0.00     0.031 A 
ATOM     49  C   UNL A   1      44.187  30.811  29.121  1.00  0.00     0.074 A 
ATOM     50  C   UNL A   1      44.603  28.605  30.158  1.00  0.00     0.049 A 
ATOM     51  N   UNL A   1      43.654  31.457  30.125  1.00  0.00    -0.248 NA
ATOM     52  C   UNL A   1      44.348  31.626  27.905  1.00  0.00     0.031 C 
ATOM     53  C   UNL A   1      45.120  27.238  30.255  1.00  0.00     0.029 A 
ATOM     54  N   UNL A   1      44.108  28.861  31.413  1.00  0.00    -0.354 N 
ATOM     55  C   UNL A   1      43.459  32.759  29.680  1.00  0.00     0.074 A 
ATOM     56  C   UNL A   1      43.947  32.819  28.320  1.00  0.00     0.031 C 
ATOM     57  C   UNL A   1      44.926  26.782  31.503  1.00  0.00     0.029 A 
ATOM     58  C   UNL A   1      44.298  27.828  32.302  1.00  0.00     0.049 A 
ATOM     59  H   UNL A   1      43.658  29.703  31.654  1.00  0.00     0.167 HD
ATOM     60  C   UNL A   1      42.905  33.804  30.339  1.00  0.00     0.034 A 
ATOM     61  C   UNL A   1      44.018  27.740  33.617  1.00  0.00     0.034 A 
ATOM     62  C   UNL A   1      42.369  33.726  31.671  1.00  0.00     0.049 A 
ATOM     63  C   UNL A   1      43.342  28.896  34.301  1.00  0.00     0.074 A 
ATOM     64  C   UNL A   1      41.674  34.694  32.374  1.00  0.00     0.029 A 
ATOM     65  N   UNL A   1      42.478  32.627  32.505  1.00  0.00    -0.354 N 
ATOM     66  N   UNL A   1      42.989  30.057  33.804  1.00  0.00    -0.248 NA
ATOM     67  C   UNL A   1      42.988  28.720  35.718  1.00  0.00     0.031 C 
ATOM     68  C   UNL A   1      41.391  34.191  33.648  1.00  0.00     0.029 A 
ATOM     69  C   UNL A   1      41.883  32.898  33.725  1.00  0.00     0.049 A 
ATOM     70  H   UNL A   1      42.915  31.777  32.268  1.00  0.00     0.167 HD
ATOM     71  C   UNL A   1      42.346  30.734  34.833  1.00  0.00     0.074 A 
ATOM     72  C   UNL A   1      42.334  29.844  35.975  1.00  0.00     0.031 C 
ATOM     73  C   UNL A   1      41.827  31.985  34.837  1.00  0.00     0.034 A 
BRANCH  60  74
ATOM     74  C   UNL A   1      42.800  35.124  29.620  1.00  0.00     0.023 A 
ATOM     75  C   UNL A   1      41.717  35.361  28.750  1.00  0.00     0.012 A 
ATOM     76  C   UNL A   1      43.717  36.161  29.884  1.00  0.00     0.148 A 
ATOM     77  C   UNL A   1      41.560  36.603  28.134  1.00  0.00     0.002 A 
ATOM     78  C   UNL A   1      43.528  37.410  29.302  1.00  0.00     0.091 A 
ATOM     79  F   UNL A   1      44.749  35.909  30.700  1.00  0.00    -0.205 F 
ATOM     80  C   UNL A   1      42.457  37.629  28.420  1.00  0.00     0.022 A 
BRANCH  78  81
ATOM     81  S   UNL A   1      44.579  38.820  29.670  1.00  0.00     0.127 S 
ATOM     82  O   UNL A   1      45.478  38.827  28.515  1.00  0.00    -0.237 OA
ATOM     83  O   UNL A   1      43.615  39.920  29.698  1.00  0.00    -0.237 OA
ATOM     84  O   UNL A   1      45.212  38.531  30.948  1.00  0.00    -0.744 OA
ENDBRANCH  78  81
ENDBRANCH  60  74
BRANCH  61  85
ATOM     85  C   UNL A   1      44.337  26.490  34.366  1.00  0.00     0.023 A 
ATOM     86  C   UNL A   1      43.413  25.428  34.377  1.00  0.00     0.012 A 
ATOM     87  C   UNL A   1      45.556  26.345  35.056  1.00  0.00     0.148 A 
ATOM     88  C   UNL A   1      43.678  24.260  35.093  1.00  0.00     0.002 A 
ATOM     89  C   UNL A   1      45.840  25.157  35.719  1.00  0.00     0.091 A 
ATOM     90  F   UNL A   1      46.418  27.372  35.048  1.00  0.00    -0.205 F 
ATOM     91  C   UNL A   1      44.894  24.121  35.756  1.00  0.00     0.022 A 
BRANCH  89  92
ATOM     92  S   UNL A   1      47.438  24.846  36.477  1.00  0.00     0.127 S 
ATOM     93  O   UNL A   1      47.239  23.524  37.065  1.00  0.00    -0.237 OA
ATOM     94  O   UNL A   1      48.336  24.877  35.321  1.00  0.00    -0.237 OA
ATOM     95  O   UNL A   1      47.641  25.939  37.418  1.00  0.00    -0.744 OA
ENDBRANCH  89  92
ENDBRANCH  61  85
BRANCH  73  96
ATOM     96  C   UNL A   1      41.169  32.468  36.102  1.00  0.00     0.023 A 
ATOM     97  C   UNL A   1      41.886  33.283  37.000  1.00  0.00     0.012 A 
ATOM     98  C   UNL A   1      39.814  32.180  36.361  1.00  0.00     0.148 A 
ATOM     99  C   UNL A   1      41.275  33.777  38.152  1.00  0.00     0.002 A 
ATOM    100  C   UNL A   1      39.198  32.717  37.484  1.00  0.00     0.091 A 
ATOM    101  F   UNL A   1      39.153  31.388  35.504  1.00  0.00    -0.205 F 
ATOM    102  C   UNL A   1      39.929  33.506  38.387  1.00  0.00     0.022 A 
BRANCH 100 103
ATOM    103  S   UNL A   1      37.445  32.503  37.816  1.00  0.00     0.127 S 
ATOM    104  O   UNL A   1      37.322  31.046  37.841  1.00  0.00    -0.237 OA
ATOM    105  O   UNL A   1      37.293  33.151  39.119  1.00  0.00    -0.237 OA
ATOM    106  O   UNL A   1      36.746  33.171  36.726  1.00  0.00    -0.744 OA
ENDBRANCH 100 103
ENDBRANCH  73  96
ENDBRANCH  47  48
ENDBRANCH  39  42
ENDBRANCH  37  38
ENDBRANCH  36  37
ENDBRANCH  35  36
ENDBRANCH  34  35
ENDBRANCH  33  34
ENDBRANCH  32  33
ENDBRANCH   3  32
TORSDOF 26
ENDMDL
MODEL 3
REMARK VINA RESULT:     -10.2      5.358      9.794
REMARK SMILES CCCCCCNC(=O)Oc1cccc(-c2ccc([C@@H](C)C(=O)NCCCCCCNC(=O)c3ccc(-c4c5nc(c(-c6cccc(S(=O)(=O)[O-])c6F)c6ccc([nH]6)c(-c6cccc(S(=O)(=O)[O-])c6F)c6nc(c(-c7cccc(S(=O)(=O)[O-])c7F)c7ccc4[nH]7)C=C6)C=C5)cc3)cc2O)c1
REMARK SMILES IDX 22 1 23 2 24 3 20 5 21 6 19 7 16 8 17 9 98 10 18 11 97 12
REMARK SMILES IDX 15 13 11 14 12 15 100 16 13 17 14 18 10 19 8 20 7 21 9 23
REMARK SMILES IDX 6 24 5 25 4 26 3 27 2 28 1 29 99 30 25 32 26 33 27 34 28 35
REMARK SMILES IDX 29 36 30 37 31 38 32 39 33 41 34 42 35 43 96 44 36 45 95 46
REMARK SMILES IDX 37 47 38 48 39 49 89 50 40 51 94 52 88 53 90 54 41 55 93 56
REMARK SMILES IDX 87 57 86 58 42 60 74 61 54 62 73 63 55 64 58 65 72 66 91 67
REMARK SMILES IDX 56 68 57 69 71 71 92 72 59 73 43 74 44 75 52 76 45 77 47 78
REMARK SMILES IDX 53 79 46 80 48 81 49 82 50 83 51 84 75 85 76 86 84 87 77 88
REMARK SMILES IDX 79 89 85 90 78 91 80 92 81 93 82 94 83 95 60 96 61 97 69 98
REMARK SMILES IDX 62 99 64 100 70 101 63 102 65 103 66 104 67 105 68 106
REMARK H PARENT 24 4 7 22 99 31 31 40 90 59 58 70
REMARK Flexibility Score: inf
ROOT
ATOM      1  C   UNL A   1      40.694  24.203  27.324  1.00  0.00     0.227 C 
ATOM      2  O   UNL A   1      39.656  23.934  27.944  1.00  0.00    -0.274 OA
ATOM      3  N   UNL A   1      40.938  23.462  26.209  1.00  0.00    -0.356 N 
ATOM      4  H   UNL A   1      40.218  22.830  25.980  1.00  0.00     0.163 HD
ENDROOT
BRANCH   1   5
ATOM      5  C   UNL A   1      41.603  25.342  27.811  1.00  0.00     0.105 C 
ATOM      6  C   UNL A   1      42.700  24.894  28.777  1.00  0.00     0.023 C 
BRANCH   5   7
ATOM      7  C   UNL A   1      40.860  26.608  28.208  1.00  0.00    -0.032 A 
ATOM      8  C   UNL A   1      39.544  29.020  29.026  1.00  0.00     0.024 A 
ATOM      9  C   UNL A   1      39.624  28.638  27.678  1.00  0.00     0.013 A 
ATOM     10  C   UNL A   1      40.105  28.130  29.959  1.00  0.00     0.123 A 
ATOM     11  C   UNL A   1      40.224  27.437  27.283  1.00  0.00     0.005 A 
ATOM     12  C   UNL A   1      40.787  26.974  29.559  1.00  0.00     0.051 A 
BRANCH   8  13
ATOM     13  C   UNL A   1      38.887  30.300  29.382  1.00  0.00    -0.011 A 
ATOM     14  C   UNL A   1      36.900  31.646  29.774  1.00  0.00     0.133 A 
ATOM     15  C   UNL A   1      37.672  32.769  30.052  1.00  0.00     0.047 A 
ATOM     16  C   UNL A   1      37.489  30.419  29.459  1.00  0.00     0.056 A 
ATOM     17  C   UNL A   1      39.056  32.664  30.016  1.00  0.00     0.004 A 
ATOM     18  C   UNL A   1      39.653  31.449  29.670  1.00  0.00     0.009 A 
BRANCH  14  19
ATOM     19  O   UNL A   1      35.515  31.849  29.663  1.00  0.00    -0.410 OA
BRANCH  19  20
ATOM     20  C   UNL A   1      34.813  32.412  30.716  1.00  0.00     0.412 C 
ATOM     21  N   UNL A   1      34.178  33.570  30.364  1.00  0.00    -0.321 N 
ATOM     22  H   UNL A   1      33.695  34.046  31.078  1.00  0.00     0.167 HD
ATOM     23  O   UNL A   1      34.733  31.967  31.853  1.00  0.00    -0.224 OA
BRANCH  21  24
ATOM     24  C   UNL A   1      34.144  34.170  29.044  1.00  0.00     0.119 C 
BRANCH  24  25
ATOM     25  C   UNL A   1      33.133  35.314  28.966  1.00  0.00     0.021 C 
BRANCH  25  26
ATOM     26  C   UNL A   1      32.578  35.773  30.320  1.00  0.00     0.002 C 
BRANCH  26  27
ATOM     27  C   UNL A   1      33.337  36.927  30.984  1.00  0.00    -0.000 C 
BRANCH  27  28
ATOM     28  C   UNL A   1      33.001  37.172  32.457  1.00  0.00    -0.003 C 
ATOM     29  C   UNL A   1      34.081  36.684  33.408  1.00  0.00     0.004 C 
ENDBRANCH  27  28
ENDBRANCH  26  27
ENDBRANCH  25  26
ENDBRANCH  24  25
ENDBRANCH  21  24
ENDBRANCH  19  20
ENDBRANCH  14  19
ENDBRANCH   8  13
BRANCH  10  30
ATOM     30  O   UNL A   1      39.983  28.299  31.315  1.00  0.00    -0.507 OA
ATOM     31  H   UNL A   1      39.134  28.350  31.706  1.00  0.00     0.293 HD
ENDBRANCH  10  30
ENDBRANCH   5   7
ENDBRANCH   1   5
BRANCH   3  32
ATOM     32  C   UNL A   1      42.063  23.434  25.300  1.00  0.00     0.116 C 
BRANCH  32  33
ATOM     33  C   UNL A   1      43.370  23.120  26.030  1.00  0.00     0.021 C 
BRANCH  33  34
ATOM     34  C   UNL A   1      44.456  24.182  25.833  1.00  0.00     0.002 C 
BRANCH  34  35
ATOM     35  C   UNL A   1      45.753  23.932  26.616  1.00  0.00     0.002 C 
BRANCH  35  36
ATOM     36  C   UNL A   1      47.037  23.944  25.780  1.00  0.00     0.021 C 
BRANCH  36  37
ATOM     37  C   UNL A   1      47.922  25.170  25.988  1.00  0.00     0.116 C 
BRANCH  37  38
ATOM     38  N   UNL A   1      47.768  26.134  24.907  1.00  0.00    -0.352 N 
ATOM     39  C   UNL A   1      46.908  27.197  24.801  1.00  0.00     0.251 C 
ATOM     40  H   UNL A   1      48.369  26.003  24.138  1.00  0.00     0.163 HD
ATOM     41  O   UNL A   1      46.745  27.746  23.714  1.00  0.00    -0.269 OA
BRANCH  39  42
ATOM     42  C   UNL A   1      46.178  27.681  25.992  1.00  0.00     0.039 A 
ATOM     43  C   UNL A   1      46.899  28.244  27.049  1.00  0.00     0.014 A 
ATOM     44  C   UNL A   1      44.789  27.556  26.079  1.00  0.00     0.014 A 
ATOM     45  C   UNL A   1      46.221  28.730  28.169  1.00  0.00     0.010 A 
ATOM     46  C   UNL A   1      44.109  28.102  27.165  1.00  0.00     0.010 A 
ATOM     47  C   UNL A   1      44.817  28.689  28.224  1.00  0.00    -0.014 A 
BRANCH  47  48
ATOM     48  C   UNL A   1      44.073  29.275  29.369  1.00  0.00     0.031 A 
ATOM     49  C   UNL A   1      43.692  30.731  29.364  1.00  0.00     0.074 A 
ATOM     50  C   UNL A   1      43.830  28.519  30.458  1.00  0.00     0.049 A 
ATOM     51  N   UNL A   1      43.104  31.431  30.300  1.00  0.00    -0.248 NA
ATOM     52  C   UNL A   1      44.041  31.512  28.166  1.00  0.00     0.031 C 
ATOM     53  C   UNL A   1      44.232  27.119  30.622  1.00  0.00     0.029 A 
ATOM     54  N   UNL A   1      43.224  28.829  31.651  1.00  0.00    -0.354 N 
ATOM     55  C   UNL A   1      43.054  32.736  29.826  1.00  0.00     0.074 A 
ATOM     56  C   UNL A   1      43.687  32.738  28.526  1.00  0.00     0.031 C 
ATOM     57  C   UNL A   1      43.872  26.698  31.845  1.00  0.00     0.029 A 
ATOM     58  C   UNL A   1      43.242  27.800  32.563  1.00  0.00     0.049 A 
ATOM     59  H   UNL A   1      42.816  29.706  31.835  1.00  0.00     0.167 HD
ATOM     60  C   UNL A   1      42.512  33.829  30.413  1.00  0.00     0.034 A 
ATOM     61  C   UNL A   1      42.818  27.753  33.841  1.00  0.00     0.034 A 
ATOM     62  C   UNL A   1      41.833  33.812  31.680  1.00  0.00     0.049 A 
ATOM     63  C   UNL A   1      42.160  28.967  34.439  1.00  0.00     0.074 A 
ATOM     64  C   UNL A   1      41.141  34.839  32.296  1.00  0.00     0.029 A 
ATOM     65  N   UNL A   1      41.771  32.721  32.531  1.00  0.00    -0.354 N 
ATOM     66  N   UNL A   1      41.949  30.142  33.897  1.00  0.00    -0.248 NA
ATOM     67  C   UNL A   1      41.646  28.840  35.812  1.00  0.00     0.031 C 
ATOM     68  C   UNL A   1      40.688  34.378  33.537  1.00  0.00     0.029 A 
ATOM     69  C   UNL A   1      41.071  33.055  33.677  1.00  0.00     0.049 A 
ATOM     70  H   UNL A   1      42.167  31.838  32.348  1.00  0.00     0.167 HD
ATOM     71  C   UNL A   1      41.252  30.881  34.846  1.00  0.00     0.074 A 
ATOM     72  C   UNL A   1      41.052  30.012  35.987  1.00  0.00     0.031 C 
ATOM     73  C   UNL A   1      40.830  32.166  34.784  1.00  0.00     0.034 A 
BRANCH  60  74
ATOM     74  C   UNL A   1      42.582  35.141  29.676  1.00  0.00     0.023 A 
ATOM     75  C   UNL A   1      41.618  35.443  28.693  1.00  0.00     0.012 A 
ATOM     76  C   UNL A   1      43.540  36.113  30.027  1.00  0.00     0.148 A 
ATOM     77  C   UNL A   1      41.620  36.683  28.054  1.00  0.00     0.002 A 
ATOM     78  C   UNL A   1      43.508  37.362  29.418  1.00  0.00     0.091 A 
ATOM     79  F   UNL A   1      44.459  35.799  30.951  1.00  0.00    -0.205 F 
ATOM     80  C   UNL A   1      42.555  37.645  28.426  1.00  0.00     0.022 A 
BRANCH  78  81
ATOM     81  S   UNL A   1      44.616  38.697  29.884  1.00  0.00     0.127 S 
ATOM     82  O   UNL A   1      44.441  39.629  28.769  1.00  0.00    -0.237 OA
ATOM     83  O   UNL A   1      44.036  39.147  31.150  1.00  0.00    -0.237 OA
ATOM     84  O   UNL A   1      45.940  38.105  29.996  1.00  0.00    -0.744 OA
ENDBRANCH  78  81
ENDBRANCH  60  74
BRANCH  61  85
ATOM     85  C   UNL A   1      42.962  26.496  34.631  1.00  0.00     0.023 A 
ATOM     86  C   UNL A   1      41.867  25.621  34.753  1.00  0.00     0.012 A 
ATOM     87  C   UNL A   1      44.182  26.159  35.248  1.00  0.00     0.148 A 
ATOM     88  C   UNL A   1      41.970  24.452  35.510  1.00  0.00     0.002 A 
ATOM     89  C   UNL A   1      44.296  24.966  35.951  1.00  0.00     0.091 A 
ATOM     90  F   UNL A   1      45.210  27.012  35.134  1.00  0.00    -0.205 F 
ATOM     91  C   UNL A   1      43.186  24.120  36.100  1.00  0.00     0.022 A 
BRANCH  89  92
ATOM     92  S   UNL A   1      45.864  24.399  36.621  1.00  0.00     0.127 S 
ATOM     93  O   UNL A   1      46.702  24.353  35.427  1.00  0.00    -0.237 OA
ATOM     94  O   UNL A   1      46.195  25.467  37.566  1.00  0.00    -0.237 OA
ATOM     95  O   UNL A   1      45.576  23.117  37.250  1.00  0.00    -0.744 OA
ENDBRANCH  89  92
ENDBRANCH  61  85
BRANCH  73  96
ATOM     96  C   UNL A   1      40.078  32.716  35.967  1.00  0.00     0.023 A 
ATOM     97  C   UNL A   1      38.680  32.880  35.896  1.00  0.00     0.012 A 
ATOM     98  C   UNL A   1      40.745  32.993  37.177  1.00  0.00     0.148 A 
ATOM     99  C   UNL A   1      37.964  33.342  36.999  1.00  0.00     0.002 A 
ATOM    100  C   UNL A   1      40.019  33.404  38.287  1.00  0.00     0.091 A 
ATOM    101  F   UNL A   1      42.078  32.846  37.220  1.00  0.00    -0.205 F 
ATOM    102  C   UNL A   1      38.630  33.591  38.196  1.00  0.00     0.022 A 
BRANCH 100 103
ATOM    103  S   UNL A   1      40.777  33.652  39.897  1.00  0.00     0.127 S 
ATOM    104  O   UNL A   1      39.959  34.732  40.447  1.00  0.00    -0.237 OA
ATOM    105  O   UNL A   1      40.581  32.352  40.537  1.00  0.00    -0.237 OA
ATOM    106  O   UNL A   1      42.169  33.994  39.636  1.00  0.00    -0.744 OA
ENDBRANCH 100 103
ENDBRANCH  73  96
ENDBRANCH  47  48
ENDBRANCH  39  42
ENDBRANCH  37  38
ENDBRANCH  36  37
ENDBRANCH  35  36
ENDBRANCH  34  35
ENDBRANCH  33  34
ENDBRANCH  32  33
ENDBRANCH   3  32
TORSDOF 26
ENDMDL
