MODEL 1
REMARK VINA RESULT:     -10.8      0.000      0.000
REMARK SMILES C[C@@H](CC(=O)NCCCCCCNC(=O)c1ccc(-c2c3nc(c(-c4cccc(S(=O)(=O)[O-])c4F)c4ccc([nH]4)c(-c4cccc(S(=O)(=O)[O-])c4F)c4nc(c(-c5cccc(S(=O)(=O)[O-])c5F)c5ccc2[nH]5)C=C4)C=C3)cc1)N1C(=O)CCCC1=O
REMARK SMILES IDX 10 1 9 2 8 3 7 4 6 5 4 6 5 7 3 9 2 10 1 11 79 12 80 13 85 14
REMARK SMILES IDX 81 15 82 16 84 17 86 18 83 19 11 20 12 21 13 22 14 23 15 25
REMARK SMILES IDX 16 26 17 27 78 28 18 29 77 30 19 31 20 32 21 33 71 34 22 35
REMARK SMILES IDX 76 36 70 37 72 38 23 39 75 40 69 41 68 42 24 44 56 45 36 46
REMARK SMILES IDX 55 47 37 48 40 49 54 50 73 51 38 52 39 53 53 55 74 56 41 57
REMARK SMILES IDX 25 58 26 59 34 60 27 61 29 62 35 63 28 64 30 65 31 66 32 67
REMARK SMILES IDX 33 68 57 69 58 70 66 71 59 72 61 73 67 74 60 75 62 76 63 77
REMARK SMILES IDX 64 78 65 79 42 80 43 81 51 82 44 83 46 84 52 85 45 86 47 87
REMARK SMILES IDX 48 88 49 89 50 90
REMARK H PARENT 6 8 13 24 72 43 40 54
REMARK Flexibility Score: inf
ROOT
ATOM      1  C   UNL A   1      31.409  28.400  26.002  1.00  0.00     0.002 C 
ENDROOT
BRANCH   1   2
ATOM      2  C   UNL A   1      31.428  27.852  24.576  1.00  0.00     0.002 C 
BRANCH   2   3
ATOM      3  C   UNL A   1      30.328  26.828  24.290  1.00  0.00     0.021 C 
BRANCH   3   4
ATOM      4  C   UNL A   1      30.757  25.371  24.460  1.00  0.00     0.116 C 
BRANCH   4   5
ATOM      5  N   UNL A   1      30.052  24.727  25.552  1.00  0.00    -0.356 N 
ATOM      6  C   UNL A   1      30.535  24.027  26.613  1.00  0.00     0.222 C 
ATOM      7  O   UNL A   1      29.736  23.449  27.355  1.00  0.00    -0.275 OA
ATOM      8  H   UNL A   1      29.071  24.810  25.520  1.00  0.00     0.163 HD
BRANCH   6   9
ATOM      9  C   UNL A   1      32.014  24.016  26.924  1.00  0.00     0.125 C 
BRANCH   9  10
ATOM     10  C   UNL A   1      32.833  22.765  26.561  1.00  0.00     0.099 C 
ATOM     11  C   UNL A   1      34.130  22.589  27.357  1.00  0.00     0.032 C 
BRANCH  10  12
ATOM     12  N   UNL A   1      32.994  22.495  25.114  1.00  0.00    -0.279 N 
ATOM     13  C   UNL A   1      33.856  23.336  24.405  1.00  0.00     0.229 C 
ATOM     14  C   UNL A   1      32.339  21.406  24.542  1.00  0.00     0.229 C 
ATOM     15  O   UNL A   1      34.516  24.239  24.924  1.00  0.00    -0.274 OA
ATOM     16  C   UNL A   1      34.015  23.057  22.930  1.00  0.00     0.101 C 
ATOM     17  C   UNL A   1      32.395  21.242  23.043  1.00  0.00     0.101 C 
ATOM     18  O   UNL A   1      31.744  20.545  25.188  1.00  0.00    -0.274 OA
ATOM     19  C   UNL A   1      32.723  22.538  22.347  1.00  0.00     0.020 C 
ENDBRANCH  10  12
ENDBRANCH   9  10
ENDBRANCH   6   9
ENDBRANCH   4   5
ENDBRANCH   3   4
ENDBRANCH   2   3
ENDBRANCH   1   2
BRANCH   1  20
ATOM     20  C   UNL A   1      32.676  28.108  26.812  1.00  0.00     0.021 C 
BRANCH  20  21
ATOM     21  C   UNL A   1      33.910  28.883  26.357  1.00  0.00     0.116 C 
BRANCH  21  22
ATOM     22  N   UNL A   1      33.844  30.278  26.764  1.00  0.00    -0.352 N 
ATOM     23  C   UNL A   1      34.642  30.943  27.657  1.00  0.00     0.251 C 
ATOM     24  H   UNL A   1      33.133  30.814  26.344  1.00  0.00     0.163 HD
ATOM     25  O   UNL A   1      34.307  32.047  28.089  1.00  0.00    -0.269 OA
BRANCH  23  26
ATOM     26  C   UNL A   1      35.905  30.322  28.103  1.00  0.00     0.039 A 
ATOM     27  C   UNL A   1      37.036  30.418  27.292  1.00  0.00     0.014 A 
ATOM     28  C   UNL A   1      35.966  29.651  29.328  1.00  0.00     0.014 A 
ATOM     29  C   UNL A   1      38.246  29.878  27.733  1.00  0.00     0.010 A 
ATOM     30  C   UNL A   1      37.188  29.180  29.798  1.00  0.00     0.010 A 
ATOM     31  C   UNL A   1      38.338  29.278  29.000  1.00  0.00    -0.014 A 
BRANCH  31  32
ATOM     32  C   UNL A   1      39.630  28.747  29.508  1.00  0.00     0.031 A 
ATOM     33  C   UNL A   1      40.350  29.453  30.624  1.00  0.00     0.074 A 
ATOM     34  C   UNL A   1      40.190  27.677  28.911  1.00  0.00     0.049 A 
ATOM     35  N   UNL A   1      41.506  29.170  31.168  1.00  0.00    -0.248 NA
ATOM     36  C   UNL A   1      39.701  30.648  31.189  1.00  0.00     0.031 C 
ATOM     37  C   UNL A   1      39.626  26.953  27.770  1.00  0.00     0.029 A 
ATOM     38  N   UNL A   1      41.372  27.026  29.165  1.00  0.00    -0.354 N 
ATOM     39  C   UNL A   1      41.737  30.165  32.110  1.00  0.00     0.074 A 
ATOM     40  C   UNL A   1      40.620  31.079  32.042  1.00  0.00     0.031 C 
ATOM     41  C   UNL A   1      40.457  25.955  27.427  1.00  0.00     0.029 A 
ATOM     42  C   UNL A   1      41.626  25.988  28.299  1.00  0.00     0.049 A 
ATOM     43  H   UNL A   1      41.978  27.278  29.899  1.00  0.00     0.167 HD
ATOM     44  C   UNL A   1      42.771  30.289  32.977  1.00  0.00     0.034 A 
ATOM     45  C   UNL A   1      42.688  25.162  28.212  1.00  0.00     0.034 A 
ATOM     46  C   UNL A   1      43.861  29.355  33.067  1.00  0.00     0.049 A 
ATOM     47  C   UNL A   1      43.809  25.307  29.205  1.00  0.00     0.074 A 
ATOM     48  C   UNL A   1      44.913  29.348  33.965  1.00  0.00     0.029 A 
ATOM     49  N   UNL A   1      44.047  28.270  32.224  1.00  0.00    -0.354 N 
ATOM     50  N   UNL A   1      43.934  26.161  30.191  1.00  0.00    -0.248 NA
ATOM     51  C   UNL A   1      44.920  24.349  29.098  1.00  0.00     0.031 C 
ATOM     52  C   UNL A   1      45.752  28.274  33.647  1.00  0.00     0.029 A 
ATOM     53  C   UNL A   1      45.202  27.592  32.574  1.00  0.00     0.049 A 
ATOM     54  H   UNL A   1      43.445  28.020  31.487  1.00  0.00     0.167 HD
ATOM     55  C   UNL A   1      45.113  25.821  30.845  1.00  0.00     0.074 A 
ATOM     56  C   UNL A   1      45.654  24.668  30.154  1.00  0.00     0.031 C 
ATOM     57  C   UNL A   1      45.701  26.416  31.911  1.00  0.00     0.034 A 
BRANCH  44  58
ATOM     58  C   UNL A   1      42.749  31.453  33.934  1.00  0.00     0.023 A 
ATOM     59  C   UNL A   1      43.330  32.680  33.553  1.00  0.00     0.012 A 
ATOM     60  C   UNL A   1      42.100  31.354  35.181  1.00  0.00     0.148 A 
ATOM     61  C   UNL A   1      43.297  33.779  34.409  1.00  0.00     0.002 A 
ATOM     62  C   UNL A   1      42.030  32.468  36.010  1.00  0.00     0.091 A 
ATOM     63  F   UNL A   1      41.570  30.175  35.535  1.00  0.00    -0.205 F 
ATOM     64  C   UNL A   1      42.638  33.677  35.631  1.00  0.00     0.022 A 
BRANCH  62  65
ATOM     65  S   UNL A   1      41.135  32.465  37.567  1.00  0.00     0.127 S 
ATOM     66  O   UNL A   1      41.972  31.588  38.386  1.00  0.00    -0.237 OA
ATOM     67  O   UNL A   1      41.177  33.877  37.948  1.00  0.00    -0.237 OA
ATOM     68  O   UNL A   1      39.805  31.954  37.267  1.00  0.00    -0.744 OA
ENDBRANCH  62  65
ENDBRANCH  44  58
BRANCH  45  69
ATOM     69  C   UNL A   1      42.716  24.088  27.178  1.00  0.00     0.023 A 
ATOM     70  C   UNL A   1      43.409  24.304  25.972  1.00  0.00     0.012 A 
ATOM     71  C   UNL A   1      42.075  22.852  27.389  1.00  0.00     0.148 A 
ATOM     72  C   UNL A   1      43.431  23.325  24.978  1.00  0.00     0.002 A 
ATOM     73  C   UNL A   1      42.148  21.859  26.420  1.00  0.00     0.091 A 
ATOM     74  F   UNL A   1      41.412  22.668  28.540  1.00  0.00    -0.205 F 
ATOM     75  C   UNL A   1      42.810  22.100  25.205  1.00  0.00     0.022 A 
BRANCH  73  76
ATOM     76  S   UNL A   1      41.490  20.208  26.680  1.00  0.00     0.127 S 
ATOM     77  O   UNL A   1      41.881  19.533  25.446  1.00  0.00    -0.237 OA
ATOM     78  O   UNL A   1      42.217  19.779  27.876  1.00  0.00    -0.237 OA
ATOM     79  O   UNL A   1      40.059  20.383  26.881  1.00  0.00    -0.744 OA
ENDBRANCH  73  76
ENDBRANCH  45  69
BRANCH  57  80
ATOM     80  C   UNL A   1      46.978  25.809  32.434  1.00  0.00     0.023 A 
ATOM     81  C   UNL A   1      48.222  26.241  31.932  1.00  0.00     0.012 A 
ATOM     82  C   UNL A   1      46.944  24.863  33.478  1.00  0.00     0.148 A 
ATOM     83  C   UNL A   1      49.410  25.715  32.436  1.00  0.00     0.002 A 
ATOM     84  C   UNL A   1      48.133  24.382  34.012  1.00  0.00     0.091 A 
ATOM     85  F   UNL A   1      45.750  24.452  33.930  1.00  0.00    -0.205 F 
ATOM     86  C   UNL A   1      49.367  24.796  33.483  1.00  0.00     0.022 A 
BRANCH  84  87
ATOM     87  S   UNL A   1      48.178  23.274  35.424  1.00  0.00     0.127 S 
ATOM     88  O   UNL A   1      47.513  22.086  34.892  1.00  0.00    -0.237 OA
ATOM     89  O   UNL A   1      49.615  23.120  35.651  1.00  0.00    -0.237 OA
ATOM     90  O   UNL A   1      47.468  23.959  36.495  1.00  0.00    -0.744 OA
ENDBRANCH  84  87
ENDBRANCH  57  80
ENDBRANCH  31  32
ENDBRANCH  23  26
ENDBRANCH  21  22
ENDBRANCH  20  21
ENDBRANCH   1  20
TORSDOF 18
ENDMDL
MODEL 2
REMARK VINA RESULT:     -10.6      5.348      8.570
REMARK SMILES C[C@@H](CC(=O)NCCCCCCNC(=O)c1ccc(-c2c3nc(c(-c4cccc(S(=O)(=O)[O-])c4F)c4ccc([nH]4)c(-c4cccc(S(=O)(=O)[O-])c4F)c4nc(c(-c5cccc(S(=O)(=O)[O-])c5F)c5ccc2[nH]5)C=C4)C=C3)cc1)N1C(=O)CCCC1=O
REMARK SMILES IDX 10 1 9 2 8 3 7 4 6 5 4 6 5 7 3 9 2 10 1 11 79 12 80 13 85 14
REMARK SMILES IDX 81 15 82 16 84 17 86 18 83 19 11 20 12 21 13 22 14 23 15 25
REMARK SMILES IDX 16 26 17 27 78 28 18 29 77 30 19 31 20 32 21 33 71 34 22 35
REMARK SMILES IDX 76 36 70 37 72 38 23 39 75 40 69 41 68 42 24 44 56 45 36 46
REMARK SMILES IDX 55 47 37 48 40 49 54 50 73 51 38 52 39 53 53 55 74 56 41 57
REMARK SMILES IDX 25 58 26 59 34 60 27 61 29 62 35 63 28 64 30 65 31 66 32 67
REMARK SMILES IDX 33 68 57 69 58 70 66 71 59 72 61 73 67 74 60 75 62 76 63 77
REMARK SMILES IDX 64 78 65 79 42 80 43 81 51 82 44 83 46 84 52 85 45 86 47 87
REMARK SMILES IDX 48 88 49 89 50 90
REMARK H PARENT 6 8 13 24 72 43 40 54
REMARK Flexibility Score: inf
ROOT
ATOM      1  C   UNL A   1      36.271  19.878  24.978  1.00  0.00     0.002 C 
ENDROOT
BRANCH   1   2
ATOM      2  C   UNL A   1      36.027  21.377  25.139  1.00  0.00     0.002 C 
BRANCH   2   3
ATOM      3  C   UNL A   1      35.089  21.733  26.295  1.00  0.00     0.021 C 
BRANCH   3   4
ATOM      4  C   UNL A   1      33.776  22.388  25.868  1.00  0.00     0.116 C 
BRANCH   4   5
ATOM      5  N   UNL A   1      33.236  21.775  24.669  1.00  0.00    -0.356 N 
ATOM      6  C   UNL A   1      32.932  22.329  23.464  1.00  0.00     0.222 C 
ATOM      7  O   UNL A   1      32.352  21.636  22.623  1.00  0.00    -0.275 OA
ATOM      8  H   UNL A   1      33.062  20.809  24.738  1.00  0.00     0.163 HD
BRANCH   6   9
ATOM      9  C   UNL A   1      33.359  23.740  23.131  1.00  0.00     0.125 C 
BRANCH   9  10
ATOM     10  C   UNL A   1      32.466  24.907  23.588  1.00  0.00     0.099 C 
ATOM     11  C   UNL A   1      31.028  24.864  23.062  1.00  0.00     0.032 C 
BRANCH  10  12
ATOM     12  N   UNL A   1      33.076  26.255  23.514  1.00  0.00    -0.279 N 
ATOM     13  C   UNL A   1      33.292  26.919  24.724  1.00  0.00     0.229 C 
ATOM     14  C   UNL A   1      33.452  26.770  22.275  1.00  0.00     0.229 C 
ATOM     15  O   UNL A   1      33.055  26.428  25.829  1.00  0.00    -0.274 OA
ATOM     16  C   UNL A   1      33.913  28.292  24.642  1.00  0.00     0.101 C 
ATOM     17  C   UNL A   1      33.928  28.201  22.208  1.00  0.00     0.101 C 
ATOM     18  O   UNL A   1      33.453  26.120  21.231  1.00  0.00    -0.274 OA
ATOM     19  C   UNL A   1      33.457  29.006  23.392  1.00  0.00     0.020 C 
ENDBRANCH  10  12
ENDBRANCH   9  10
ENDBRANCH   6   9
ENDBRANCH   4   5
ENDBRANCH   3   4
ENDBRANCH   2   3
ENDBRANCH   1   2
BRANCH   1  20
ATOM     20  C   UNL A   1      37.731  19.497  24.718  1.00  0.00     0.021 C 
BRANCH  20  21
ATOM     21  C   UNL A   1      38.727  20.096  25.708  1.00  0.00     0.116 C 
BRANCH  21  22
ATOM     22  N   UNL A   1      39.838  19.191  25.960  1.00  0.00    -0.352 N 
ATOM     23  C   UNL A   1      41.151  19.500  26.200  1.00  0.00     0.251 C 
ATOM     24  H   UNL A   1      39.618  18.231  25.957  1.00  0.00     0.163 HD
ATOM     25  O   UNL A   1      42.017  18.626  26.141  1.00  0.00    -0.269 OA
BRANCH  23  26
ATOM     26  C   UNL A   1      41.520  20.892  26.524  1.00  0.00     0.039 A 
ATOM     27  C   UNL A   1      42.016  21.189  27.793  1.00  0.00     0.014 A 
ATOM     28  C   UNL A   1      41.379  21.899  25.564  1.00  0.00     0.014 A 
ATOM     29  C   UNL A   1      42.417  22.494  28.087  1.00  0.00     0.010 A 
ATOM     30  C   UNL A   1      41.847  23.181  25.835  1.00  0.00     0.010 A 
ATOM     31  C   UNL A   1      42.359  23.495  27.103  1.00  0.00    -0.014 A 
BRANCH  31  32
ATOM     32  C   UNL A   1      42.832  24.876  27.381  1.00  0.00     0.031 A 
ATOM     33  C   UNL A   1      41.911  25.876  28.025  1.00  0.00     0.074 A 
ATOM     34  C   UNL A   1      44.065  25.250  26.984  1.00  0.00     0.049 A 
ATOM     35  N   UNL A   1      42.126  27.136  28.302  1.00  0.00    -0.248 NA
ATOM     36  C   UNL A   1      40.560  25.408  28.381  1.00  0.00     0.031 C 
ATOM     37  C   UNL A   1      45.023  24.393  26.282  1.00  0.00     0.029 A 
ATOM     38  N   UNL A   1      44.714  26.455  27.091  1.00  0.00    -0.354 N 
ATOM     39  C   UNL A   1      40.936  27.618  28.832  1.00  0.00     0.074 A 
ATOM     40  C   UNL A   1      39.989  26.526  28.806  1.00  0.00     0.031 C 
ATOM     41  C   UNL A   1      46.138  25.097  26.027  1.00  0.00     0.029 A 
ATOM     42  C   UNL A   1      45.963  26.461  26.516  1.00  0.00     0.049 A 
ATOM     43  H   UNL A   1      44.321  27.239  27.538  1.00  0.00     0.167 HD
ATOM     44  C   UNL A   1      40.664  28.849  29.326  1.00  0.00     0.034 A 
ATOM     45  C   UNL A   1      46.862  27.457  26.387  1.00  0.00     0.034 A 
ATOM     46  C   UNL A   1      41.621  29.922  29.385  1.00  0.00     0.049 A 
ATOM     47  C   UNL A   1      46.544  28.807  26.969  1.00  0.00     0.074 A 
ATOM     48  C   UNL A   1      41.468  31.180  29.940  1.00  0.00     0.029 A 
ATOM     49  N   UNL A   1      42.904  29.868  28.863  1.00  0.00    -0.354 N 
ATOM     50  N   UNL A   1      45.468  29.199  27.607  1.00  0.00    -0.248 NA
ATOM     51  C   UNL A   1      47.579  29.844  26.848  1.00  0.00     0.031 C 
ATOM     52  C   UNL A   1      42.650  31.897  29.727  1.00  0.00     0.029 A 
ATOM     53  C   UNL A   1      43.551  31.073  29.072  1.00  0.00     0.049 A 
ATOM     54  H   UNL A   1      43.296  29.087  28.410  1.00  0.00     0.167 HD
ATOM     55  C   UNL A   1      45.710  30.511  27.996  1.00  0.00     0.074 A 
ATOM     56  C   UNL A   1      47.045  30.841  27.540  1.00  0.00     0.031 C 
ATOM     57  C   UNL A   1      44.898  31.370  28.660  1.00  0.00     0.034 A 
BRANCH  44  58
ATOM     58  C   UNL A   1      39.287  29.093  29.889  1.00  0.00     0.023 A 
ATOM     59  C   UNL A   1      38.968  28.621  31.179  1.00  0.00     0.012 A 
ATOM     60  C   UNL A   1      38.332  29.840  29.171  1.00  0.00     0.148 A 
ATOM     61  C   UNL A   1      37.712  28.859  31.733  1.00  0.00     0.002 A 
ATOM     62  C   UNL A   1      37.097  30.114  29.749  1.00  0.00     0.091 A 
ATOM     63  F   UNL A   1      38.646  30.264  27.939  1.00  0.00    -0.205 F 
ATOM     64  C   UNL A   1      36.781  29.614  31.024  1.00  0.00     0.022 A 
BRANCH  62  65
ATOM     65  S   UNL A   1      35.860  31.144  28.954  1.00  0.00     0.127 S 
ATOM     66  O   UNL A   1      36.685  32.209  28.383  1.00  0.00    -0.237 OA
ATOM     67  O   UNL A   1      35.283  30.227  27.970  1.00  0.00    -0.237 OA
ATOM     68  O   UNL A   1      34.945  31.562  30.007  1.00  0.00    -0.744 OA
ENDBRANCH  62  65
ENDBRANCH  44  58
BRANCH  45  69
ATOM     69  C   UNL A   1      48.174  27.199  25.728  1.00  0.00     0.023 A 
ATOM     70  C   UNL A   1      49.251  26.710  26.493  1.00  0.00     0.012 A 
ATOM     71  C   UNL A   1      48.357  27.421  24.349  1.00  0.00     0.148 A 
ATOM     72  C   UNL A   1      50.496  26.483  25.906  1.00  0.00     0.002 A 
ATOM     73  C   UNL A   1      49.583  27.139  23.759  1.00  0.00     0.091 A 
ATOM     74  F   UNL A   1      47.324  27.896  23.640  1.00  0.00    -0.205 F 
ATOM     75  C   UNL A   1      50.660  26.688  24.538  1.00  0.00     0.022 A 
BRANCH  73  76
ATOM     76  S   UNL A   1      49.845  27.248  21.985  1.00  0.00     0.127 S 
ATOM     77  O   UNL A   1      49.579  28.661  21.730  1.00  0.00    -0.237 OA
ATOM     78  O   UNL A   1      51.249  26.853  21.863  1.00  0.00    -0.237 OA
ATOM     79  O   UNL A   1      48.905  26.308  21.391  1.00  0.00    -0.744 OA
ENDBRANCH  73  76
ENDBRANCH  45  69
BRANCH  57  80
ATOM     80  C   UNL A   1      45.439  32.741  28.977  1.00  0.00     0.023 A 
ATOM     81  C   UNL A   1      46.192  32.947  30.150  1.00  0.00     0.012 A 
ATOM     82  C   UNL A   1      45.262  33.806  28.072  1.00  0.00     0.148 A 
ATOM     83  C   UNL A   1      46.730  34.201  30.434  1.00  0.00     0.002 A 
ATOM     84  C   UNL A   1      45.845  35.038  28.336  1.00  0.00     0.091 A 
ATOM     85  F   UNL A   1      44.527  33.593  26.970  1.00  0.00    -0.205 F 
ATOM     86  C   UNL A   1      46.568  35.242  29.523  1.00  0.00     0.022 A 
BRANCH  84  87
ATOM     87  S   UNL A   1      45.774  36.408  27.175  1.00  0.00     0.127 S 
ATOM     88  O   UNL A   1      44.342  36.695  27.142  1.00  0.00    -0.237 OA
ATOM     89  O   UNL A   1      46.586  37.424  27.845  1.00  0.00    -0.237 OA
ATOM     90  O   UNL A   1      46.339  35.908  25.929  1.00  0.00    -0.744 OA
ENDBRANCH  84  87
ENDBRANCH  57  80
ENDBRANCH  31  32
ENDBRANCH  23  26
ENDBRANCH  21  22
ENDBRANCH  20  21
ENDBRANCH   1  20
TORSDOF 18
ENDMDL
MODEL 3
REMARK VINA RESULT:     -10.5      2.138      3.077
REMARK SMILES C[C@@H](CC(=O)NCCCCCCNC(=O)c1ccc(-c2c3nc(c(-c4cccc(S(=O)(=O)[O-])c4F)c4ccc([nH]4)c(-c4cccc(S(=O)(=O)[O-])c4F)c4nc(c(-c5cccc(S(=O)(=O)[O-])c5F)c5ccc2[nH]5)C=C4)C=C3)cc1)N1C(=O)CCCC1=O
REMARK SMILES IDX 10 1 9 2 8 3 7 4 6 5 4 6 5 7 3 9 2 10 1 11 79 12 80 13 85 14
REMARK SMILES IDX 81 15 82 16 84 17 86 18 83 19 11 20 12 21 13 22 14 23 15 25
REMARK SMILES IDX 16 26 17 27 78 28 18 29 77 30 19 31 20 32 21 33 71 34 22 35
REMARK SMILES IDX 76 36 70 37 72 38 23 39 75 40 69 41 68 42 24 44 56 45 36 46
REMARK SMILES IDX 55 47 37 48 40 49 54 50 73 51 38 52 39 53 53 55 74 56 41 57
REMARK SMILES IDX 25 58 26 59 34 60 27 61 29 62 35 63 28 64 30 65 31 66 32 67
REMARK SMILES IDX 33 68 57 69 58 70 66 71 59 72 61 73 67 74 60 75 62 76 63 77
REMARK SMILES IDX 64 78 65 79 42 80 43 81 51 82 44 83 46 84 52 85 45 86 47 87
REMARK SMILES IDX 48 88 49 89 50 90
REMARK H PARENT 6 8 13 24 72 43 40 54
REMARK Flexibility Score: inf
ROOT
ATOM      1  C   UNL A   1      33.055  27.830  24.754  1.00  0.00     0.002 C 
ENDROOT
BRANCH   1   2
ATOM      2  C   UNL A   1      31.996  27.115  23.917  1.00  0.00     0.002 C 
BRANCH   2   3
ATOM      3  C   UNL A   1      30.873  26.483  24.742  1.00  0.00     0.021 C 
BRANCH   3   4
ATOM      4  C   UNL A   1      31.160  26.396  26.242  1.00  0.00     0.116 C 
BRANCH   4   5
ATOM      5  N   UNL A   1      30.762  25.113  26.790  1.00  0.00    -0.356 N 
ATOM      6  C   UNL A   1      31.396  23.910  26.751  1.00  0.00     0.222 C 
ATOM      7  O   UNL A   1      30.803  22.913  27.173  1.00  0.00    -0.275 OA
ATOM      8  H   UNL A   1      29.899  25.113  27.263  1.00  0.00     0.163 HD
BRANCH   6   9
ATOM      9  C   UNL A   1      32.825  23.804  26.271  1.00  0.00     0.125 C 
BRANCH   9  10
ATOM     10  C   UNL A   1      33.081  23.453  24.795  1.00  0.00     0.099 C 
ATOM     11  C   UNL A   1      31.911  22.770  24.081  1.00  0.00     0.032 C 
BRANCH  10  12
ATOM     12  N   UNL A   1      34.392  22.830  24.497  1.00  0.00    -0.279 N 
ATOM     13  C   UNL A   1      34.739  21.699  25.241  1.00  0.00     0.229 C 
ATOM     14  C   UNL A   1      35.183  23.351  23.473  1.00  0.00     0.229 C 
ATOM     15  O   UNL A   1      34.002  21.175  26.078  1.00  0.00    -0.274 OA
ATOM     16  C   UNL A   1      36.076  21.070  24.934  1.00  0.00     0.101 C 
ATOM     17  C   UNL A   1      36.575  22.798  23.291  1.00  0.00     0.101 C 
ATOM     18  O   UNL A   1      34.803  24.212  22.683  1.00  0.00    -0.274 OA
ATOM     19  C   UNL A   1      37.081  22.126  24.541  1.00  0.00     0.020 C 
ENDBRANCH  10  12
ENDBRANCH   9  10
ENDBRANCH   6   9
ENDBRANCH   4   5
ENDBRANCH   3   4
ENDBRANCH   2   3
ENDBRANCH   1   2
BRANCH   1  20
ATOM     20  C   UNL A   1      32.825  29.336  24.916  1.00  0.00     0.021 C 
BRANCH  20  21
ATOM     21  C   UNL A   1      32.493  29.775  26.340  1.00  0.00     0.116 C 
BRANCH  21  22
ATOM     22  N   UNL A   1      32.419  31.224  26.447  1.00  0.00    -0.352 N 
ATOM     23  C   UNL A   1      33.186  32.062  27.213  1.00  0.00     0.251 C 
ATOM     24  H   UNL A   1      31.727  31.660  25.898  1.00  0.00     0.163 HD
ATOM     25  O   UNL A   1      32.841  33.230  27.394  1.00  0.00    -0.269 OA
BRANCH  23  26
ATOM     26  C   UNL A   1      34.427  31.549  27.826  1.00  0.00     0.039 A 
ATOM     27  C   UNL A   1      35.512  32.410  27.993  1.00  0.00     0.014 A 
ATOM     28  C   UNL A   1      34.510  30.217  28.241  1.00  0.00     0.014 A 
ATOM     29  C   UNL A   1      36.670  31.945  28.620  1.00  0.00     0.010 A 
ATOM     30  C   UNL A   1      35.635  29.776  28.932  1.00  0.00     0.010 A 
ATOM     31  C   UNL A   1      36.731  30.632  29.117  1.00  0.00    -0.014 A 
BRANCH  31  32
ATOM     32  C   UNL A   1      37.933  30.137  29.836  1.00  0.00     0.031 A 
ATOM     33  C   UNL A   1      38.247  30.639  31.220  1.00  0.00     0.074 A 
ATOM     34  C   UNL A   1      38.782  29.296  29.213  1.00  0.00     0.049 A 
ATOM     35  N   UNL A   1      39.272  30.361  31.984  1.00  0.00    -0.248 NA
ATOM     36  C   UNL A   1      37.301  31.598  31.814  1.00  0.00     0.031 C 
ATOM     37  C   UNL A   1      38.627  28.799  27.844  1.00  0.00     0.029 A 
ATOM     38  N   UNL A   1      39.959  28.731  29.639  1.00  0.00    -0.354 N 
ATOM     39  C   UNL A   1      39.112  31.131  33.130  1.00  0.00     0.074 A 
ATOM     40  C   UNL A   1      37.911  31.915  32.947  1.00  0.00     0.031 C 
ATOM     41  C   UNL A   1      39.664  27.999  27.546  1.00  0.00     0.029 A 
ATOM     42  C   UNL A   1      40.573  27.952  28.687  1.00  0.00     0.049 A 
ATOM     43  H   UNL A   1      40.326  28.870  30.542  1.00  0.00     0.167 HD
ATOM     44  C   UNL A   1      39.877  31.160  34.247  1.00  0.00     0.034 A 
ATOM     45  C   UNL A   1      41.743  27.284  28.724  1.00  0.00     0.034 A 
ATOM     46  C   UNL A   1      41.050  30.350  34.439  1.00  0.00     0.049 A 
ATOM     47  C   UNL A   1      42.560  27.313  29.988  1.00  0.00     0.074 A 
ATOM     48  C   UNL A   1      41.847  30.247  35.565  1.00  0.00     0.029 A 
ATOM     49  N   UNL A   1      41.600  29.513  33.481  1.00  0.00    -0.354 N 
ATOM     50  N   UNL A   1      42.310  27.926  31.119  1.00  0.00    -0.248 NA
ATOM     51  C   UNL A   1      43.802  26.527  29.995  1.00  0.00     0.031 C 
ATOM     52  C   UNL A   1      42.897  29.368  35.278  1.00  0.00     0.029 A 
ATOM     53  C   UNL A   1      42.733  28.897  33.985  1.00  0.00     0.049 A 
ATOM     54  H   UNL A   1      41.238  29.377  32.576  1.00  0.00     0.167 HD
ATOM     55  C   UNL A   1      43.339  27.570  31.983  1.00  0.00     0.074 A 
ATOM     56  C   UNL A   1      44.205  26.670  31.249  1.00  0.00     0.031 C 
ATOM     57  C   UNL A   1      43.556  27.963  33.262  1.00  0.00     0.034 A 
BRANCH  44  58
ATOM     58  C   UNL A   1      39.444  32.065  35.372  1.00  0.00     0.023 A 
ATOM     59  C   UNL A   1      38.573  31.572  36.365  1.00  0.00     0.012 A 
ATOM     60  C   UNL A   1      39.947  33.376  35.482  1.00  0.00     0.148 A 
ATOM     61  C   UNL A   1      38.181  32.380  37.432  1.00  0.00     0.002 A 
ATOM     62  C   UNL A   1      39.589  34.160  36.574  1.00  0.00     0.091 A 
ATOM     63  F   UNL A   1      40.759  33.833  34.519  1.00  0.00    -0.205 F 
ATOM     64  C   UNL A   1      38.697  33.668  37.542  1.00  0.00     0.022 A 
BRANCH  62  65
ATOM     65  S   UNL A   1      40.262  35.802  36.852  1.00  0.00     0.127 S 
ATOM     66  O   UNL A   1      39.583  36.578  35.814  1.00  0.00    -0.237 OA
ATOM     67  O   UNL A   1      39.817  36.089  38.216  1.00  0.00    -0.237 OA
ATOM     68  O   UNL A   1      41.704  35.679  36.695  1.00  0.00    -0.744 OA
ENDBRANCH  62  65
ENDBRANCH  44  58
BRANCH  45  69
ATOM     69  C   UNL A   1      42.186  26.485  27.546  1.00  0.00     0.023 A 
ATOM     70  C   UNL A   1      42.951  27.101  26.538  1.00  0.00     0.012 A 
ATOM     71  C   UNL A   1      41.866  25.119  27.427  1.00  0.00     0.148 A 
ATOM     72  C   UNL A   1      43.358  26.383  25.413  1.00  0.00     0.002 A 
ATOM     73  C   UNL A   1      42.322  24.394  26.332  1.00  0.00     0.091 A 
ATOM     74  F   UNL A   1      41.128  24.552  28.391  1.00  0.00    -0.205 F 
ATOM     75  C   UNL A   1      43.053  25.028  25.315  1.00  0.00     0.022 A 
BRANCH  73  76
ATOM     76  S   UNL A   1      42.088  22.619  26.188  1.00  0.00     0.127 S 
ATOM     77  O   UNL A   1      42.770  22.129  27.383  1.00  0.00    -0.237 OA
ATOM     78  O   UNL A   1      40.630  22.504  26.217  1.00  0.00    -0.237 OA
ATOM     79  O   UNL A   1      42.692  22.246  24.916  1.00  0.00    -0.744 OA
ENDBRANCH  73  76
ENDBRANCH  45  69
BRANCH  57  80
ATOM     80  C   UNL A   1      44.753  27.389  33.977  1.00  0.00     0.023 A 
ATOM     81  C   UNL A   1      45.987  28.067  33.941  1.00  0.00     0.012 A 
ATOM     82  C   UNL A   1      44.630  26.214  34.745  1.00  0.00     0.148 A 
ATOM     83  C   UNL A   1      47.090  27.565  34.630  1.00  0.00     0.002 A 
ATOM     84  C   UNL A   1      45.718  25.749  35.471  1.00  0.00     0.091 A 
ATOM     85  F   UNL A   1      43.451  25.574  34.751  1.00  0.00    -0.205 F 
ATOM     86  C   UNL A   1      46.953  26.415  35.404  1.00  0.00     0.022 A 
BRANCH  84  87
ATOM     87  S   UNL A   1      45.610  24.334  36.573  1.00  0.00     0.127 S 
ATOM     88  O   UNL A   1      46.914  24.370  37.232  1.00  0.00    -0.237 OA
ATOM     89  O   UNL A   1      44.481  24.695  37.431  1.00  0.00    -0.237 OA
ATOM     90  O   UNL A   1      45.375  23.178  35.720  1.00  0.00    -0.744 OA
ENDBRANCH  84  87
ENDBRANCH  57  80
ENDBRANCH  31  32
ENDBRANCH  23  26
ENDBRANCH  21  22
ENDBRANCH  20  21
ENDBRANCH   1  20
TORSDOF 18
ENDMDL
