MODEL 1
REMARK VINA RESULT:     -12.1      0.000      0.000
REMARK SMILES O=C(NCCCCCCNC(=O)[C@H]1C[C@](O)(c2ccc(Cl)cc2)[C@@H](c2ccc(Cl)cc2)O1)c1ccc(-c2c3nc(c(-c4cccc(S(=O)(=O)[O-])c4F)c4ccc([nH]4)c(-c4cccc(S(=O)(=O)[O-])c4F)c4nc(c(-c5cccc(S(=O)(=O)[O-])c5F)c5ccc2[nH]5)C=C4)C=C3)cc1
REMARK SMILES IDX 5 1 4 2 3 3 1 4 2 5 33 7 34 8 95 9 35 10 94 11 36 12 37 13
REMARK SMILES IDX 38 14 88 15 39 16 93 17 87 18 89 19 40 20 92 21 86 22 85 23
REMARK SMILES IDX 41 25 73 26 53 27 72 28 54 29 57 30 71 31 90 32 55 33 56 34
REMARK SMILES IDX 70 36 91 37 58 38 42 39 43 40 51 41 44 42 46 43 52 44 45 45
REMARK SMILES IDX 47 46 48 47 49 48 50 49 74 50 75 51 83 52 76 53 78 54 84 55
REMARK SMILES IDX 77 56 79 57 80 58 81 59 82 60 59 61 60 62 68 63 61 64 63 65
REMARK SMILES IDX 69 66 62 67 64 68 65 69 66 70 67 71 6 72 7 73 8 74 9 75
REMARK SMILES IDX 10 76 11 77 12 79 13 80 14 81 32 82 15 83 24 84 17 85 18 86
REMARK SMILES IDX 23 87 19 88 22 89 20 90 21 91 16 92 25 94 26 95 31 96 27 97
REMARK SMILES IDX 30 98 28 99 29 100
REMARK H PARENT 3 6 89 24 57 35 10 78 16 93
REMARK Flexibility Score: inf
ROOT
ATOM      1  C   UNL A   1      37.810  19.981  24.599  1.00  0.00     0.021 C 
ENDROOT
BRANCH   1   2
ATOM      2  C   UNL A   1      38.731  20.265  25.780  1.00  0.00     0.116 C 
BRANCH   2   3
ATOM      3  N   UNL A   1      39.816  19.304  25.865  1.00  0.00    -0.352 N 
ATOM      4  O   UNL A   1      41.965  18.630  25.870  1.00  0.00    -0.269 OA
ATOM      5  C   UNL A   1      41.158  19.534  26.047  1.00  0.00     0.251 C 
ATOM      6  H   UNL A   1      39.554  18.359  25.782  1.00  0.00     0.163 HD
BRANCH   5   7
ATOM      7  C   UNL A   1      41.614  20.886  26.438  1.00  0.00     0.039 A 
ATOM      8  C   UNL A   1      41.786  21.215  27.786  1.00  0.00     0.014 A 
ATOM      9  C   UNL A   1      41.874  21.829  25.443  1.00  0.00     0.014 A 
ATOM     10  C   UNL A   1      42.101  22.521  28.147  1.00  0.00     0.010 A 
ATOM     11  C   UNL A   1      42.268  23.118  25.805  1.00  0.00     0.010 A 
ATOM     12  C   UNL A   1      42.362  23.481  27.159  1.00  0.00    -0.014 A 
BRANCH  12  13
ATOM     13  C   UNL A   1      42.809  24.843  27.543  1.00  0.00     0.031 A 
ATOM     14  C   UNL A   1      41.852  25.829  28.145  1.00  0.00     0.074 A 
ATOM     15  C   UNL A   1      44.079  25.204  27.277  1.00  0.00     0.049 A 
ATOM     16  N   UNL A   1      42.050  27.084  28.453  1.00  0.00    -0.248 NA
ATOM     17  C   UNL A   1      40.491  25.348  28.429  1.00  0.00     0.031 C 
ATOM     18  C   UNL A   1      45.086  24.340  26.656  1.00  0.00     0.029 A 
ATOM     19  N   UNL A   1      44.728  26.399  27.456  1.00  0.00    -0.354 N 
ATOM     20  C   UNL A   1      40.831  27.559  28.918  1.00  0.00     0.074 A 
ATOM     21  C   UNL A   1      39.896  26.455  28.851  1.00  0.00     0.031 C 
ATOM     22  C   UNL A   1      46.217  25.037  26.487  1.00  0.00     0.029 A 
ATOM     23  C   UNL A   1      45.999  26.408  26.930  1.00  0.00     0.049 A 
ATOM     24  H   UNL A   1      44.326  27.172  27.914  1.00  0.00     0.167 HD
ATOM     25  C   UNL A   1      40.521  28.802  29.363  1.00  0.00     0.034 A 
ATOM     26  C   UNL A   1      46.877  27.418  26.773  1.00  0.00     0.034 A 
ATOM     27  C   UNL A   1      41.463  29.887  29.433  1.00  0.00     0.049 A 
ATOM     28  C   UNL A   1      46.514  28.785  27.270  1.00  0.00     0.074 A 
ATOM     29  C   UNL A   1      41.271  31.159  29.943  1.00  0.00     0.029 A 
ATOM     30  N   UNL A   1      42.764  29.840  28.955  1.00  0.00    -0.354 N 
ATOM     31  N   UNL A   1      45.400  29.185  27.834  1.00  0.00    -0.248 NA
ATOM     32  C   UNL A   1      47.534  29.835  27.141  1.00  0.00     0.031 C 
ATOM     33  C   UNL A   1      42.442  31.895  29.733  1.00  0.00     0.029 A 
ATOM     34  C   UNL A   1      43.381  31.067  29.136  1.00  0.00     0.049 A 
ATOM     35  H   UNL A   1      43.188  29.052  28.547  1.00  0.00     0.167 HD
ATOM     36  C   UNL A   1      45.594  30.520  28.158  1.00  0.00     0.074 A 
ATOM     37  C   UNL A   1      46.937  30.862  27.733  1.00  0.00     0.031 C 
ATOM     38  C   UNL A   1      44.734  31.383  28.751  1.00  0.00     0.034 A 
BRANCH  25  39
ATOM     39  C   UNL A   1      39.102  29.052  29.808  1.00  0.00     0.023 A 
ATOM     40  C   UNL A   1      38.722  28.781  31.139  1.00  0.00     0.012 A 
ATOM     41  C   UNL A   1      38.152  29.590  28.917  1.00  0.00     0.148 A 
ATOM     42  C   UNL A   1      37.409  28.992  31.561  1.00  0.00     0.002 A 
ATOM     43  C   UNL A   1      36.858  29.843  29.358  1.00  0.00     0.091 A 
ATOM     44  F   UNL A   1      38.523  29.825  27.650  1.00  0.00    -0.205 F 
ATOM     45  C   UNL A   1      36.481  29.529  30.674  1.00  0.00     0.022 A 
BRANCH  43  46
ATOM     46  S   UNL A   1      35.617  30.611  28.312  1.00  0.00     0.127 S 
ATOM     47  O   UNL A   1      34.677  31.132  29.304  1.00  0.00    -0.237 OA
ATOM     48  O   UNL A   1      36.393  31.635  27.611  1.00  0.00    -0.237 OA
ATOM     49  O   UNL A   1      35.105  29.550  27.455  1.00  0.00    -0.744 OA
ENDBRANCH  43  46
ENDBRANCH  25  39
BRANCH  26  50
ATOM     50  C   UNL A   1      48.185  27.139  26.121  1.00  0.00     0.023 A 
ATOM     51  C   UNL A   1      49.205  26.498  26.848  1.00  0.00     0.012 A 
ATOM     52  C   UNL A   1      48.382  27.422  24.754  1.00  0.00     0.148 A 
ATOM     53  C   UNL A   1      50.407  26.155  26.227  1.00  0.00     0.002 A 
ATOM     54  C   UNL A   1      49.556  27.024  24.129  1.00  0.00     0.091 A 
ATOM     55  F   UNL A   1      47.394  28.033  24.085  1.00  0.00    -0.205 F 
ATOM     56  C   UNL A   1      50.577  26.405  24.867  1.00  0.00     0.022 A 
BRANCH  54  57
ATOM     57  S   UNL A   1      49.806  27.173  22.356  1.00  0.00     0.127 S 
ATOM     58  O   UNL A   1      51.200  26.760  22.216  1.00  0.00    -0.237 OA
ATOM     59  O   UNL A   1      48.825  26.217  21.838  1.00  0.00    -0.237 OA
ATOM     60  O   UNL A   1      49.526  28.563  22.030  1.00  0.00    -0.744 OA
ENDBRANCH  54  57
ENDBRANCH  26  50
BRANCH  38  61
ATOM     61  C   UNL A   1      45.221  32.780  29.036  1.00  0.00     0.023 A 
ATOM     62  C   UNL A   1      45.970  33.046  30.198  1.00  0.00     0.012 A 
ATOM     63  C   UNL A   1      45.028  33.801  28.085  1.00  0.00     0.148 A 
ATOM     64  C   UNL A   1      46.510  34.314  30.414  1.00  0.00     0.002 A 
ATOM     65  C   UNL A   1      45.613  35.045  28.282  1.00  0.00     0.091 A 
ATOM     66  F   UNL A   1      44.295  33.528  26.996  1.00  0.00    -0.205 F 
ATOM     67  C   UNL A   1      46.345  35.307  29.450  1.00  0.00     0.022 A 
BRANCH  65  68
ATOM     68  S   UNL A   1      45.542  36.350  27.049  1.00  0.00     0.127 S 
ATOM     69  O   UNL A   1      46.197  37.455  27.747  1.00  0.00    -0.237 OA
ATOM     70  O   UNL A   1      46.318  35.777  25.949  1.00  0.00    -0.237 OA
ATOM     71  O   UNL A   1      44.130  36.555  26.755  1.00  0.00    -0.744 OA
ENDBRANCH  65  68
ENDBRANCH  38  61
ENDBRANCH  12  13
ENDBRANCH   5   7
ENDBRANCH   2   3
ENDBRANCH   1   2
BRANCH   1  72
ATOM     72  C   UNL A   1      36.469  19.360  24.987  1.00  0.00     0.002 C 
BRANCH  72  73
ATOM     73  C   UNL A   1      35.291  20.340  24.990  1.00  0.00     0.002 C 
BRANCH  73  74
ATOM     74  C   UNL A   1      33.926  19.722  24.638  1.00  0.00     0.021 C 
BRANCH  74  75
ATOM     75  C   UNL A   1      32.816  20.749  24.388  1.00  0.00     0.116 C 
BRANCH  75  76
ATOM     76  N   UNL A   1      32.158  21.061  25.639  1.00  0.00    -0.354 N 
ATOM     77  C   UNL A   1      31.856  22.316  26.087  1.00  0.00     0.249 C 
ATOM     78  H   UNL A   1      31.907  20.304  26.216  1.00  0.00     0.163 HD
ATOM     79  O   UNL A   1      32.095  22.560  27.269  1.00  0.00    -0.272 OA
BRANCH  77  80
ATOM     80  C   UNL A   1      31.202  23.327  25.116  1.00  0.00     0.211 C 
ATOM     81  C   UNL A   1      31.085  24.730  25.722  1.00  0.00     0.085 C 
ATOM     82  O   UNL A   1      31.977  23.451  23.913  1.00  0.00    -0.357 OA
ATOM     83  C   UNL A   1      31.942  25.648  24.842  1.00  0.00     0.123 C 
ATOM     84  C   UNL A   1      32.794  24.634  24.022  1.00  0.00     0.186 C 
BRANCH  83  85
ATOM     85  C   UNL A   1      31.049  26.605  24.016  1.00  0.00    -0.013 A 
ATOM     86  C   UNL A   1      29.643  26.531  24.134  1.00  0.00     0.008 A 
ATOM     87  C   UNL A   1      31.562  27.591  23.153  1.00  0.00     0.008 A 
ATOM     88  C   UNL A   1      28.803  27.452  23.496  1.00  0.00     0.021 A 
ATOM     89  C   UNL A   1      30.723  28.514  22.513  1.00  0.00     0.021 A 
ATOM     90  C   UNL A   1      29.348  28.453  22.702  1.00  0.00     0.041 A 
ATOM     91  Cl  UNL A   1      28.326  29.612  21.950  1.00  0.00    -0.084 Cl
ENDBRANCH  83  85
BRANCH  83  92
ATOM     92  O   UNL A   1      32.792  26.437  25.690  1.00  0.00    -0.382 OA
ATOM     93  H   UNL A   1      33.232  27.120  25.160  1.00  0.00     0.212 HD
ENDBRANCH  83  92
BRANCH  84  94
ATOM     94  C   UNL A   1      34.203  24.263  24.480  1.00  0.00    -0.016 A 
ATOM     95  C   UNL A   1      35.195  23.770  23.617  1.00  0.00     0.008 A 
ATOM     96  C   UNL A   1      34.549  24.457  25.832  1.00  0.00     0.008 A 
ATOM     97  C   UNL A   1      36.492  23.519  24.072  1.00  0.00     0.021 A 
ATOM     98  C   UNL A   1      35.836  24.175  26.298  1.00  0.00     0.021 A 
ATOM     99  C   UNL A   1      36.806  23.719  25.411  1.00  0.00     0.041 A 
ATOM    100  Cl  UNL A   1      38.401  23.403  25.974  1.00  0.00    -0.084 Cl
ENDBRANCH  84  94
ENDBRANCH  77  80
ENDBRANCH  75  76
ENDBRANCH  74  75
ENDBRANCH  73  74
ENDBRANCH  72  73
ENDBRANCH   1  72
TORSDOF 19
ENDMDL
MODEL 2
REMARK VINA RESULT:     -11.9      5.868     10.983
REMARK SMILES O=C(NCCCCCCNC(=O)[C@H]1C[C@](O)(c2ccc(Cl)cc2)[C@@H](c2ccc(Cl)cc2)O1)c1ccc(-c2c3nc(c(-c4cccc(S(=O)(=O)[O-])c4F)c4ccc([nH]4)c(-c4cccc(S(=O)(=O)[O-])c4F)c4nc(c(-c5cccc(S(=O)(=O)[O-])c5F)c5ccc2[nH]5)C=C4)C=C3)cc1
REMARK SMILES IDX 5 1 4 2 3 3 1 4 2 5 33 7 34 8 95 9 35 10 94 11 36 12 37 13
REMARK SMILES IDX 38 14 88 15 39 16 93 17 87 18 89 19 40 20 92 21 86 22 85 23
REMARK SMILES IDX 41 25 73 26 53 27 72 28 54 29 57 30 71 31 90 32 55 33 56 34
REMARK SMILES IDX 70 36 91 37 58 38 42 39 43 40 51 41 44 42 46 43 52 44 45 45
REMARK SMILES IDX 47 46 48 47 49 48 50 49 74 50 75 51 83 52 76 53 78 54 84 55
REMARK SMILES IDX 77 56 79 57 80 58 81 59 82 60 59 61 60 62 68 63 61 64 63 65
REMARK SMILES IDX 69 66 62 67 64 68 65 69 66 70 67 71 6 72 7 73 8 74 9 75
REMARK SMILES IDX 10 76 11 77 12 79 13 80 14 81 32 82 15 83 24 84 17 85 18 86
REMARK SMILES IDX 23 87 19 88 22 89 20 90 21 91 16 92 25 94 26 95 31 96 27 97
REMARK SMILES IDX 30 98 28 99 29 100
REMARK H PARENT 3 6 89 24 57 35 10 78 16 93
REMARK Flexibility Score: inf
ROOT
ATOM      1  C   UNL A   1      31.373  31.526  26.799  1.00  0.00     0.021 C 
ENDROOT
BRANCH   1   2
ATOM      2  C   UNL A   1      32.672  32.322  26.836  1.00  0.00     0.116 C 
BRANCH   2   3
ATOM      3  N   UNL A   1      32.463  33.680  27.307  1.00  0.00    -0.352 N 
ATOM      4  O   UNL A   1      32.641  35.403  28.746  1.00  0.00    -0.269 OA
ATOM      5  C   UNL A   1      33.091  34.342  28.334  1.00  0.00     0.251 C 
ATOM      6  H   UNL A   1      31.778  34.196  26.824  1.00  0.00     0.163 HD
BRANCH   5   7
ATOM      7  C   UNL A   1      34.301  33.748  28.944  1.00  0.00     0.039 A 
ATOM      8  C   UNL A   1      35.573  34.218  28.602  1.00  0.00     0.014 A 
ATOM      9  C   UNL A   1      34.157  32.714  29.870  1.00  0.00     0.014 A 
ATOM     10  C   UNL A   1      36.705  33.576  29.092  1.00  0.00     0.010 A 
ATOM     11  C   UNL A   1      35.294  32.122  30.422  1.00  0.00     0.010 A 
ATOM     12  C   UNL A   1      36.576  32.533  30.021  1.00  0.00    -0.014 A 
BRANCH  12  13
ATOM     13  C   UNL A   1      37.785  31.924  30.629  1.00  0.00     0.031 A 
ATOM     14  C   UNL A   1      38.552  30.851  29.916  1.00  0.00     0.074 A 
ATOM     15  C   UNL A   1      38.144  32.304  31.870  1.00  0.00     0.049 A 
ATOM     16  N   UNL A   1      39.572  30.149  30.338  1.00  0.00    -0.248 NA
ATOM     17  C   UNL A   1      38.113  30.511  28.554  1.00  0.00     0.031 C 
ATOM     18  C   UNL A   1      37.447  33.310  32.675  1.00  0.00     0.029 A 
ATOM     19  N   UNL A   1      39.155  31.865  32.687  1.00  0.00    -0.354 N 
ATOM     20  C   UNL A   1      39.865  29.252  29.320  1.00  0.00     0.074 A 
ATOM     21  C   UNL A   1      38.914  29.497  28.256  1.00  0.00     0.031 C 
ATOM     22  C   UNL A   1      38.036  33.398  33.875  1.00  0.00     0.029 A 
ATOM     23  C   UNL A   1      39.110  32.415  33.946  1.00  0.00     0.049 A 
ATOM     24  H   UNL A   1      39.842  31.222  32.400  1.00  0.00     0.167 HD
ATOM     25  C   UNL A   1      40.841  28.311  29.276  1.00  0.00     0.034 A 
ATOM     26  C   UNL A   1      39.820  32.129  35.055  1.00  0.00     0.034 A 
ATOM     27  C   UNL A   1      41.787  28.085  30.336  1.00  0.00     0.049 A 
ATOM     28  C   UNL A   1      40.894  31.084  34.986  1.00  0.00     0.074 A 
ATOM     29  C   UNL A   1      42.862  27.215  30.357  1.00  0.00     0.029 A 
ATOM     30  N   UNL A   1      41.755  28.711  31.574  1.00  0.00    -0.354 N 
ATOM     31  N   UNL A   1      41.248  30.338  33.968  1.00  0.00    -0.248 NA
ATOM     32  C   UNL A   1      41.687  30.861  36.202  1.00  0.00     0.031 C 
ATOM     33  C   UNL A   1      43.453  27.282  31.623  1.00  0.00     0.029 A 
ATOM     34  C   UNL A   1      42.777  28.230  32.375  1.00  0.00     0.049 A 
ATOM     35  H   UNL A   1      41.102  29.396  31.844  1.00  0.00     0.167 HD
ATOM     36  C   UNL A   1      42.325  29.581  34.406  1.00  0.00     0.074 A 
ATOM     37  C   UNL A   1      42.571  29.964  35.782  1.00  0.00     0.031 C 
ATOM     38  C   UNL A   1      43.042  28.651  33.728  1.00  0.00     0.034 A 
BRANCH  25  39
ATOM     39  C   UNL A   1      40.933  27.456  28.037  1.00  0.00     0.023 A 
ATOM     40  C   UNL A   1      41.582  27.949  26.886  1.00  0.00     0.012 A 
ATOM     41  C   UNL A   1      40.407  26.149  28.023  1.00  0.00     0.148 A 
ATOM     42  C   UNL A   1      41.661  27.176  25.728  1.00  0.00     0.002 A 
ATOM     43  C   UNL A   1      40.532  25.367  26.881  1.00  0.00     0.091 A 
ATOM     44  F   UNL A   1      39.776  25.701  29.118  1.00  0.00    -0.205 F 
ATOM     45  C   UNL A   1      41.143  25.884  25.728  1.00  0.00     0.022 A 
BRANCH  43  46
ATOM     46  S   UNL A   1      39.969  23.662  26.815  1.00  0.00     0.127 S 
ATOM     47  O   UNL A   1      40.827  23.110  25.767  1.00  0.00    -0.237 OA
ATOM     48  O   UNL A   1      40.273  23.184  28.165  1.00  0.00    -0.237 OA
ATOM     49  O   UNL A   1      38.549  23.722  26.501  1.00  0.00    -0.744 OA
ENDBRANCH  43  46
ENDBRANCH  25  39
BRANCH  26  50
ATOM     50  C   UNL A   1      39.522  32.869  36.311  1.00  0.00     0.023 A 
ATOM     51  C   UNL A   1      40.055  34.156  36.506  1.00  0.00     0.012 A 
ATOM     52  C   UNL A   1      38.634  32.336  37.267  1.00  0.00     0.148 A 
ATOM     53  C   UNL A   1      39.719  34.896  37.640  1.00  0.00     0.002 A 
ATOM     54  C   UNL A   1      38.257  33.101  38.362  1.00  0.00     0.091 A 
ATOM     55  F   UNL A   1      38.140  31.107  37.056  1.00  0.00    -0.205 F 
ATOM     56  C   UNL A   1      38.810  34.376  38.559  1.00  0.00     0.022 A 
BRANCH  54  57
ATOM     57  S   UNL A   1      36.987  32.575  39.518  1.00  0.00     0.127 S 
ATOM     58  O   UNL A   1      35.786  32.635  38.689  1.00  0.00    -0.237 OA
ATOM     59  O   UNL A   1      37.436  31.222  39.856  1.00  0.00    -0.237 OA
ATOM     60  O   UNL A   1      37.037  33.521  40.622  1.00  0.00    -0.744 OA
ENDBRANCH  54  57
ENDBRANCH  26  50
BRANCH  38  61
ATOM     61  C   UNL A   1      44.206  28.006  34.434  1.00  0.00     0.023 A 
ATOM     62  C   UNL A   1      45.456  28.650  34.472  1.00  0.00     0.012 A 
ATOM     63  C   UNL A   1      44.017  26.811  35.156  1.00  0.00     0.148 A 
ATOM     64  C   UNL A   1      46.508  28.106  35.210  1.00  0.00     0.002 A 
ATOM     65  C   UNL A   1      45.052  26.304  35.931  1.00  0.00     0.091 A 
ATOM     66  F   UNL A   1      42.823  26.206  35.088  1.00  0.00    -0.205 F 
ATOM     67  C   UNL A   1      46.301  26.944  35.951  1.00  0.00     0.022 A 
BRANCH  65  68
ATOM     68  S   UNL A   1      44.847  24.873  36.997  1.00  0.00     0.127 S 
ATOM     69  O   UNL A   1      43.768  25.312  37.881  1.00  0.00    -0.237 OA
ATOM     70  O   UNL A   1      44.469  23.830  36.043  1.00  0.00    -0.237 OA
ATOM     71  O   UNL A   1      46.133  24.664  37.648  1.00  0.00    -0.744 OA
ENDBRANCH  65  68
ENDBRANCH  38  61
ENDBRANCH  12  13
ENDBRANCH   5   7
ENDBRANCH   2   3
ENDBRANCH   1   2
BRANCH   1  72
ATOM     72  C   UNL A   1      30.844  31.257  25.391  1.00  0.00     0.002 C 
BRANCH  72  73
ATOM     73  C   UNL A   1      31.209  29.880  24.827  1.00  0.00     0.002 C 
BRANCH  73  74
ATOM     74  C   UNL A   1      30.372  29.426  23.617  1.00  0.00     0.021 C 
BRANCH  74  75
ATOM     75  C   UNL A   1      30.548  27.949  23.249  1.00  0.00     0.116 C 
BRANCH  75  76
ATOM     76  N   UNL A   1      31.511  27.833  22.175  1.00  0.00    -0.354 N 
ATOM     77  C   UNL A   1      32.469  26.865  22.068  1.00  0.00     0.249 C 
ATOM     78  H   UNL A   1      31.474  28.509  21.461  1.00  0.00     0.163 HD
ATOM     79  O   UNL A   1      33.598  27.228  21.740  1.00  0.00    -0.272 OA
BRANCH  77  80
ATOM     80  C   UNL A   1      32.081  25.387  22.316  1.00  0.00     0.211 C 
ATOM     81  C   UNL A   1      33.303  24.465  22.389  1.00  0.00     0.085 C 
ATOM     82  O   UNL A   1      31.374  25.250  23.558  1.00  0.00    -0.357 OA
ATOM     83  C   UNL A   1      33.307  23.874  23.804  1.00  0.00     0.123 C 
ATOM     84  C   UNL A   1      32.306  24.797  24.561  1.00  0.00     0.186 C 
BRANCH  83  85
ATOM     85  C   UNL A   1      32.947  22.369  23.770  1.00  0.00    -0.013 A 
ATOM     86  C   UNL A   1      32.361  21.812  22.612  1.00  0.00     0.008 A 
ATOM     87  C   UNL A   1      33.199  21.488  24.839  1.00  0.00     0.008 A 
ATOM     88  C   UNL A   1      32.127  20.437  22.495  1.00  0.00     0.021 A 
ATOM     89  C   UNL A   1      32.965  20.111  24.725  1.00  0.00     0.021 A 
ATOM     90  C   UNL A   1      32.448  19.587  23.547  1.00  0.00     0.041 A 
ATOM     91  Cl  UNL A   1      32.202  17.893  23.395  1.00  0.00    -0.084 Cl
ENDBRANCH  83  85
BRANCH  83  92
ATOM     92  O   UNL A   1      34.625  24.014  24.357  1.00  0.00    -0.382 OA
ATOM     93  H   UNL A   1      34.567  24.054  25.325  1.00  0.00     0.212 HD
ENDBRANCH  83  92
BRANCH  84  94
ATOM     94  C   UNL A   1      32.817  25.980  25.381  1.00  0.00    -0.016 A 
ATOM     95  C   UNL A   1      34.033  26.633  25.127  1.00  0.00     0.008 A 
ATOM     96  C   UNL A   1      32.015  26.473  26.429  1.00  0.00     0.008 A 
ATOM     97  C   UNL A   1      34.417  27.760  25.858  1.00  0.00     0.021 A 
ATOM     98  C   UNL A   1      32.413  27.579  27.186  1.00  0.00     0.021 A 
ATOM     99  C   UNL A   1      33.607  28.226  26.888  1.00  0.00     0.041 A 
ATOM    100  Cl  UNL A   1      34.083  29.608  27.795  1.00  0.00    -0.084 Cl
ENDBRANCH  84  94
ENDBRANCH  77  80
ENDBRANCH  75  76
ENDBRANCH  74  75
ENDBRANCH  73  74
ENDBRANCH  72  73
ENDBRANCH   1  72
TORSDOF 19
ENDMDL
MODEL 3
REMARK VINA RESULT:     -11.7      6.188     11.305
REMARK SMILES O=C(NCCCCCCNC(=O)[C@H]1C[C@](O)(c2ccc(Cl)cc2)[C@@H](c2ccc(Cl)cc2)O1)c1ccc(-c2c3nc(c(-c4cccc(S(=O)(=O)[O-])c4F)c4ccc([nH]4)c(-c4cccc(S(=O)(=O)[O-])c4F)c4nc(c(-c5cccc(S(=O)(=O)[O-])c5F)c5ccc2[nH]5)C=C4)C=C3)cc1
REMARK SMILES IDX 5 1 4 2 3 3 1 4 2 5 33 7 34 8 95 9 35 10 94 11 36 12 37 13
REMARK SMILES IDX 38 14 88 15 39 16 93 17 87 18 89 19 40 20 92 21 86 22 85 23
REMARK SMILES IDX 41 25 73 26 53 27 72 28 54 29 57 30 71 31 90 32 55 33 56 34
REMARK SMILES IDX 70 36 91 37 58 38 42 39 43 40 51 41 44 42 46 43 52 44 45 45
REMARK SMILES IDX 47 46 48 47 49 48 50 49 74 50 75 51 83 52 76 53 78 54 84 55
REMARK SMILES IDX 77 56 79 57 80 58 81 59 82 60 59 61 60 62 68 63 61 64 63 65
REMARK SMILES IDX 69 66 62 67 64 68 65 69 66 70 67 71 6 72 7 73 8 74 9 75
REMARK SMILES IDX 10 76 11 77 12 79 13 80 14 81 32 82 15 83 24 84 17 85 18 86
REMARK SMILES IDX 23 87 19 88 22 89 20 90 21 91 16 92 25 94 26 95 31 96 27 97
REMARK SMILES IDX 30 98 28 99 29 100
REMARK H PARENT 3 6 89 24 57 35 10 78 16 93
REMARK Flexibility Score: inf
ROOT
ATOM      1  C   UNL A   1      31.531  31.990  26.902  1.00  0.00     0.021 C 
ENDROOT
BRANCH   1   2
ATOM      2  C   UNL A   1      32.831  32.717  27.221  1.00  0.00     0.116 C 
BRANCH   2   3
ATOM      3  N   UNL A   1      32.592  34.064  27.710  1.00  0.00    -0.352 N 
ATOM      4  O   UNL A   1      32.712  35.764  29.182  1.00  0.00    -0.269 OA
ATOM      5  C   UNL A   1      33.187  34.717  28.763  1.00  0.00     0.251 C 
ATOM      6  H   UNL A   1      31.912  34.579  27.220  1.00  0.00     0.163 HD
BRANCH   5   7
ATOM      7  C   UNL A   1      34.390  34.128  29.392  1.00  0.00     0.039 A 
ATOM      8  C   UNL A   1      35.668  34.483  28.949  1.00  0.00     0.014 A 
ATOM      9  C   UNL A   1      34.233  33.219  30.438  1.00  0.00     0.014 A 
ATOM     10  C   UNL A   1      36.786  33.837  29.466  1.00  0.00     0.010 A 
ATOM     11  C   UNL A   1      35.362  32.630  31.012  1.00  0.00     0.010 A 
ATOM     12  C   UNL A   1      36.644  32.917  30.516  1.00  0.00    -0.014 A 
BRANCH  12  13
ATOM     13  C   UNL A   1      37.845  32.314  31.145  1.00  0.00     0.031 A 
ATOM     14  C   UNL A   1      38.559  31.163  30.501  1.00  0.00     0.074 A 
ATOM     15  C   UNL A   1      38.246  32.776  32.345  1.00  0.00     0.049 A 
ATOM     16  N   UNL A   1      39.564  30.460  30.955  1.00  0.00    -0.248 NA
ATOM     17  C   UNL A   1      38.076  30.736  29.178  1.00  0.00     0.031 C 
ATOM     18  C   UNL A   1      37.602  33.865  33.083  1.00  0.00     0.029 A 
ATOM     19  N   UNL A   1      39.260  32.365  33.171  1.00  0.00    -0.354 N 
ATOM     20  C   UNL A   1      39.803  29.477  30.004  1.00  0.00     0.074 A 
ATOM     21  C   UNL A   1      38.835  29.674  28.944  1.00  0.00     0.031 C 
ATOM     22  C   UNL A   1      38.221  34.023  34.260  1.00  0.00     0.029 A 
ATOM     23  C   UNL A   1      39.264  33.011  34.385  1.00  0.00     0.049 A 
ATOM     24  H   UNL A   1      39.919  31.677  32.922  1.00  0.00     0.167 HD
ATOM     25  C   UNL A   1      40.744  28.502  30.012  1.00  0.00     0.034 A 
ATOM     26  C   UNL A   1      39.989  32.786  35.498  1.00  0.00     0.034 A 
ATOM     27  C   UNL A   1      41.707  28.324  31.067  1.00  0.00     0.049 A 
ATOM     28  C   UNL A   1      41.025  31.702  35.488  1.00  0.00     0.074 A 
ATOM     29  C   UNL A   1      42.752  27.421  31.134  1.00  0.00     0.029 A 
ATOM     30  N   UNL A   1      41.725  29.044  32.253  1.00  0.00    -0.354 N 
ATOM     31  N   UNL A   1      41.330  30.867  34.524  1.00  0.00    -0.248 NA
ATOM     32  C   UNL A   1      41.838  31.544  36.701  1.00  0.00     0.031 C 
ATOM     33  C   UNL A   1      43.374  27.563  32.378  1.00  0.00     0.029 A 
ATOM     34  C   UNL A   1      42.748  28.590  33.068  1.00  0.00     0.049 A 
ATOM     35  H   UNL A   1      41.102  29.770  32.482  1.00  0.00     0.167 HD
ATOM     36  C   UNL A   1      42.390  30.108  34.997  1.00  0.00     0.074 A 
ATOM     37  C   UNL A   1      42.681  30.586  36.334  1.00  0.00     0.031 C 
ATOM     38  C   UNL A   1      43.059  29.104  34.379  1.00  0.00     0.034 A 
BRANCH  25  39
ATOM     39  C   UNL A   1      40.778  27.551  28.842  1.00  0.00     0.023 A 
ATOM     40  C   UNL A   1      39.831  26.510  28.751  1.00  0.00     0.012 A 
ATOM     41  C   UNL A   1      41.727  27.710  27.812  1.00  0.00     0.148 A 
ATOM     42  C   UNL A   1      39.860  25.614  27.682  1.00  0.00     0.002 A 
ATOM     43  C   UNL A   1      41.719  26.842  26.727  1.00  0.00     0.091 A 
ATOM     44  F   UNL A   1      42.633  28.693  27.922  1.00  0.00    -0.205 F 
ATOM     45  C   UNL A   1      40.798  25.785  26.668  1.00  0.00     0.022 A 
BRANCH  43  46
ATOM     46  S   UNL A   1      42.835  27.034  25.332  1.00  0.00     0.127 S 
ATOM     47  O   UNL A   1      42.644  25.767  24.626  1.00  0.00    -0.237 OA
ATOM     48  O   UNL A   1      42.278  28.202  24.649  1.00  0.00    -0.237 OA
ATOM     49  O   UNL A   1      44.158  27.243  25.905  1.00  0.00    -0.744 OA
ENDBRANCH  43  46
ENDBRANCH  25  39
BRANCH  26  50
ATOM     50  C   UNL A   1      39.746  33.630  36.699  1.00  0.00     0.023 A 
ATOM     51  C   UNL A   1      40.122  34.986  36.687  1.00  0.00     0.012 A 
ATOM     52  C   UNL A   1      39.055  33.114  37.814  1.00  0.00     0.148 A 
ATOM     53  C   UNL A   1      39.827  35.811  37.773  1.00  0.00     0.002 A 
ATOM     54  C   UNL A   1      38.712  33.954  38.864  1.00  0.00     0.091 A 
ATOM     55  F   UNL A   1      38.709  31.819  37.799  1.00  0.00    -0.205 F 
ATOM     56  C   UNL A   1      39.110  35.300  38.853  1.00  0.00     0.022 A 
BRANCH  54  57
ATOM     57  S   UNL A   1      37.670  33.423  40.227  1.00  0.00     0.127 S 
ATOM     58  O   UNL A   1      38.472  32.354  40.816  1.00  0.00    -0.237 OA
ATOM     59  O   UNL A   1      37.585  34.644  41.029  1.00  0.00    -0.237 OA
ATOM     60  O   UNL A   1      36.411  33.006  39.626  1.00  0.00    -0.744 OA
ENDBRANCH  54  57
ENDBRANCH  26  50
BRANCH  38  61
ATOM     61  C   UNL A   1      44.216  28.473  35.108  1.00  0.00     0.023 A 
ATOM     62  C   UNL A   1      45.517  28.987  34.950  1.00  0.00     0.012 A 
ATOM     63  C   UNL A   1      43.985  27.442  36.040  1.00  0.00     0.148 A 
ATOM     64  C   UNL A   1      46.575  28.473  35.701  1.00  0.00     0.002 A 
ATOM     65  C   UNL A   1      45.032  26.972  36.821  1.00  0.00     0.091 A 
ATOM     66  F   UNL A   1      42.741  26.958  36.158  1.00  0.00    -0.205 F 
ATOM     67  C   UNL A   1      46.330  27.479  36.646  1.00  0.00     0.022 A 
BRANCH  65  68
ATOM     68  S   UNL A   1      44.792  25.770  38.134  1.00  0.00     0.127 S 
ATOM     69  O   UNL A   1      44.379  24.586  37.382  1.00  0.00    -0.237 OA
ATOM     70  O   UNL A   1      46.129  25.684  38.720  1.00  0.00    -0.237 OA
ATOM     71  O   UNL A   1      43.776  26.328  39.015  1.00  0.00    -0.744 OA
ENDBRANCH  65  68
ENDBRANCH  38  61
ENDBRANCH  12  13
ENDBRANCH   5   7
ENDBRANCH   2   3
ENDBRANCH   1   2
BRANCH   1  72
ATOM     72  C   UNL A   1      31.725  30.600  26.296  1.00  0.00     0.002 C 
BRANCH  72  73
ATOM     73  C   UNL A   1      32.335  29.569  27.250  1.00  0.00     0.002 C 
BRANCH  73  74
ATOM     74  C   UNL A   1      33.770  29.130  26.909  1.00  0.00     0.021 C 
BRANCH  74  75
ATOM     75  C   UNL A   1      33.852  27.923  25.968  1.00  0.00     0.116 C 
BRANCH  75  76
ATOM     76  N   UNL A   1      33.409  28.312  24.646  1.00  0.00    -0.354 N 
ATOM     77  C   UNL A   1      33.861  27.786  23.469  1.00  0.00     0.249 C 
ATOM     78  H   UNL A   1      32.723  29.016  24.591  1.00  0.00     0.163 HD
ATOM     79  O   UNL A   1      34.111  28.578  22.561  1.00  0.00    -0.272 OA
BRANCH  77  80
ATOM     80  C   UNL A   1      33.991  26.250  23.329  1.00  0.00     0.211 C 
ATOM     81  C   UNL A   1      33.710  25.516  24.645  1.00  0.00     0.085 C 
ATOM     82  O   UNL A   1      33.059  25.748  22.359  1.00  0.00    -0.357 OA
ATOM     83  C   UNL A   1      32.479  24.639  24.390  1.00  0.00     0.123 C 
ATOM     84  C   UNL A   1      31.913  25.225  23.062  1.00  0.00     0.186 C 
BRANCH  83  85
ATOM     85  C   UNL A   1      32.870  23.141  24.357  1.00  0.00    -0.013 A 
ATOM     86  C   UNL A   1      33.905  22.667  25.193  1.00  0.00     0.008 A 
ATOM     87  C   UNL A   1      32.223  22.189  23.547  1.00  0.00     0.008 A 
ATOM     88  C   UNL A   1      34.213  21.304  25.281  1.00  0.00     0.021 A 
ATOM     89  C   UNL A   1      32.529  20.825  23.633  1.00  0.00     0.021 A 
ATOM     90  C   UNL A   1      33.509  20.384  24.513  1.00  0.00     0.041 A 
ATOM     91  Cl  UNL A   1      33.852  18.706  24.646  1.00  0.00    -0.084 Cl
ENDBRANCH  83  85
BRANCH  83  92
ATOM     92  O   UNL A   1      31.541  24.840  25.459  1.00  0.00    -0.382 OA
ATOM     93  H   UNL A   1      31.873  25.529  26.056  1.00  0.00     0.212 HD
ENDBRANCH  83  92
BRANCH  84  94
ATOM     94  C   UNL A   1      30.792  26.261  23.092  1.00  0.00    -0.016 A 
ATOM     95  C   UNL A   1      30.832  27.468  22.376  1.00  0.00     0.008 A 
ATOM     96  C   UNL A   1      29.635  25.984  23.845  1.00  0.00     0.008 A 
ATOM     97  C   UNL A   1      29.745  28.347  22.376  1.00  0.00     0.021 A 
ATOM     98  C   UNL A   1      28.560  26.877  23.875  1.00  0.00     0.021 A 
ATOM     99  C   UNL A   1      28.615  28.050  23.129  1.00  0.00     0.041 A 
ATOM    100  Cl  UNL A   1      27.280  29.135  23.136  1.00  0.00    -0.084 Cl
ENDBRANCH  84  94
ENDBRANCH  77  80
ENDBRANCH  75  76
ENDBRANCH  74  75
ENDBRANCH  73  74
ENDBRANCH  72  73
ENDBRANCH   1  72
TORSDOF 19
ENDMDL
