MODEL 1
REMARK VINA RESULT:     -12.3      0.000      0.000
REMARK SMILES O=C(NCCCCCCNC(=O)[C@H]1CCCC[C@H]1C(=O)N1CCN(S(=O)(=O)c2ccc(F)cc2)CC1)c1ccc(-c2c3nc(c(-c4cccc(S(=O)(=O)[O-])c4F)c4ccc([nH]4)c(-c4cccc(S(=O)(=O)[O-])c4F)c4nc(c(-c5cccc(S(=O)(=O)[O-])c5F)c5ccc2[nH]5)C=C4)C=C3)cc1
REMARK SMILES IDX 6 1 5 2 4 3 3 4 1 5 2 6 37 8 38 9 99 10 39 11 98 12 40 13
REMARK SMILES IDX 41 14 42 15 92 16 43 17 97 18 91 19 93 20 44 21 96 22 90 23
REMARK SMILES IDX 89 24 45 26 77 27 57 28 76 29 58 30 61 31 75 32 94 33 59 34
REMARK SMILES IDX 60 35 74 37 95 38 62 39 46 40 47 41 55 42 48 43 50 44 56 45
REMARK SMILES IDX 49 46 51 47 52 48 53 49 54 50 78 51 79 52 87 53 80 54 82 55
REMARK SMILES IDX 88 56 81 57 83 58 84 59 85 60 86 61 63 62 64 63 72 64 65 65
REMARK SMILES IDX 67 66 73 67 66 68 68 69 69 70 70 71 71 72 7 73 8 74 9 75
REMARK SMILES IDX 10 76 11 77 12 79 13 80 14 81 18 82 15 83 17 84 16 85 19 86
REMARK SMILES IDX 20 87 21 88 22 89 36 90 23 91 35 92 24 93 25 94 26 95 27 96
REMARK SMILES IDX 28 97 29 98 34 99 30 100 33 101 31 102 32 103
REMARK H PARENT 3 7 93 25 61 36 10 78
REMARK Flexibility Score: inf
ROOT
ATOM      1  C   UNL A   1      34.590  31.408  28.282  1.00  0.00     0.002 C 
ENDROOT
BRANCH   1   2
ATOM      2  C   UNL A   1      33.286  32.157  28.007  1.00  0.00     0.021 C 
BRANCH   2   3
ATOM      3  C   UNL A   1      33.404  33.514  27.323  1.00  0.00     0.116 C 
BRANCH   3   4
ATOM      4  N   UNL A   1      32.797  34.604  28.063  1.00  0.00    -0.352 N 
ATOM      5  O   UNL A   1      32.469  35.992  29.808  1.00  0.00    -0.269 OA
ATOM      6  C   UNL A   1      33.139  35.098  29.302  1.00  0.00     0.251 C 
ATOM      7  H   UNL A   1      32.041  35.052  27.619  1.00  0.00     0.163 HD
BRANCH   6   8
ATOM      8  C   UNL A   1      34.285  34.511  30.036  1.00  0.00     0.039 A 
ATOM      9  C   UNL A   1      35.596  34.693  29.592  1.00  0.00     0.014 A 
ATOM     10  C   UNL A   1      34.035  33.744  31.178  1.00  0.00     0.014 A 
ATOM     11  C   UNL A   1      36.635  33.987  30.192  1.00  0.00     0.010 A 
ATOM     12  C   UNL A   1      35.093  33.101  31.831  1.00  0.00     0.010 A 
ATOM     13  C   UNL A   1      36.397  33.186  31.321  1.00  0.00    -0.014 A 
BRANCH  13  14
ATOM     14  C   UNL A   1      37.537  32.498  31.984  1.00  0.00     0.031 A 
ATOM     15  C   UNL A   1      38.265  31.362  31.317  1.00  0.00     0.074 A 
ATOM     16  C   UNL A   1      37.923  32.919  33.205  1.00  0.00     0.049 A 
ATOM     17  N   UNL A   1      39.300  30.686  31.749  1.00  0.00    -0.248 NA
ATOM     18  C   UNL A   1      37.773  30.917  30.003  1.00  0.00     0.031 C 
ATOM     19  C   UNL A   1      37.262  33.978  33.971  1.00  0.00     0.029 A 
ATOM     20  N   UNL A   1      38.954  32.517  34.016  1.00  0.00    -0.354 N 
ATOM     21  C   UNL A   1      39.558  29.718  30.787  1.00  0.00     0.074 A 
ATOM     22  C   UNL A   1      38.570  29.887  29.744  1.00  0.00     0.031 C 
ATOM     23  C   UNL A   1      37.922  34.166  35.123  1.00  0.00     0.029 A 
ATOM     24  C   UNL A   1      39.020  33.209  35.204  1.00  0.00     0.049 A 
ATOM     25  H   UNL A   1      39.586  31.803  33.772  1.00  0.00     0.167 HD
ATOM     26  C   UNL A   1      40.541  28.786  30.768  1.00  0.00     0.034 A 
ATOM     27  C   UNL A   1      39.862  33.085  36.249  1.00  0.00     0.034 A 
ATOM     28  C   UNL A   1      41.553  28.656  31.782  1.00  0.00     0.049 A 
ATOM     29  C   UNL A   1      40.963  32.065  36.181  1.00  0.00     0.074 A 
ATOM     30  C   UNL A   1      42.634  27.793  31.807  1.00  0.00     0.029 A 
ATOM     31  N   UNL A   1      41.610  29.402  32.949  1.00  0.00    -0.354 N 
ATOM     32  N   UNL A   1      41.268  31.252  35.200  1.00  0.00    -0.248 NA
ATOM     33  C   UNL A   1      41.848  31.960  37.349  1.00  0.00     0.031 C 
ATOM     34  C   UNL A   1      43.336  28.005  32.996  1.00  0.00     0.029 A 
ATOM     35  C   UNL A   1      42.701  29.011  33.705  1.00  0.00     0.049 A 
ATOM     36  H   UNL A   1      40.970  30.106  33.202  1.00  0.00     0.167 HD
ATOM     37  C   UNL A   1      42.386  30.546  35.625  1.00  0.00     0.074 A 
ATOM     38  C   UNL A   1      42.725  31.051  36.940  1.00  0.00     0.031 C 
ATOM     39  C   UNL A   1      43.057  29.554  34.991  1.00  0.00     0.034 A 
BRANCH  26  40
ATOM     40  C   UNL A   1      40.626  27.855  29.586  1.00  0.00     0.023 A 
ATOM     41  C   UNL A   1      39.743  26.760  29.507  1.00  0.00     0.012 A 
ATOM     42  C   UNL A   1      41.476  28.139  28.498  1.00  0.00     0.148 A 
ATOM     43  C   UNL A   1      39.709  25.957  28.368  1.00  0.00     0.002 A 
ATOM     44  C   UNL A   1      41.411  27.356  27.352  1.00  0.00     0.091 A 
ATOM     45  F   UNL A   1      42.317  29.179  28.600  1.00  0.00    -0.205 F 
ATOM     46  C   UNL A   1      40.532  26.262  27.287  1.00  0.00     0.022 A 
BRANCH  44  47
ATOM     47  S   UNL A   1      42.371  27.709  25.874  1.00  0.00     0.127 S 
ATOM     48  O   UNL A   1      41.971  26.610  24.995  1.00  0.00    -0.237 OA
ATOM     49  O   UNL A   1      41.860  29.021  25.481  1.00  0.00    -0.237 OA
ATOM     50  O   UNL A   1      43.767  27.695  26.288  1.00  0.00    -0.744 OA
ENDBRANCH  44  47
ENDBRANCH  26  40
BRANCH  27  51
ATOM     51  C   UNL A   1      39.714  33.998  37.417  1.00  0.00     0.023 A 
ATOM     52  C   UNL A   1      40.121  35.341  37.301  1.00  0.00     0.012 A 
ATOM     53  C   UNL A   1      39.098  33.566  38.608  1.00  0.00     0.148 A 
ATOM     54  C   UNL A   1      39.925  36.235  38.354  1.00  0.00     0.002 A 
ATOM     55  C   UNL A   1      38.848  34.477  39.627  1.00  0.00     0.091 A 
ATOM     56  F   UNL A   1      38.739  32.279  38.709  1.00  0.00    -0.205 F 
ATOM     57  C   UNL A   1      39.273  35.809  39.510  1.00  0.00     0.022 A 
BRANCH  55  58
ATOM     58  S   UNL A   1      37.869  34.043  41.071  1.00  0.00     0.127 S 
ATOM     59  O   UNL A   1      36.714  33.388  40.464  1.00  0.00    -0.237 OA
ATOM     60  O   UNL A   1      38.774  33.151  41.798  1.00  0.00    -0.237 OA
ATOM     61  O   UNL A   1      37.606  35.304  41.751  1.00  0.00    -0.744 OA
ENDBRANCH  55  58
ENDBRANCH  27  51
BRANCH  39  62
ATOM     62  C   UNL A   1      44.231  28.933  35.698  1.00  0.00     0.023 A 
ATOM     63  C   UNL A   1      45.510  29.502  35.541  1.00  0.00     0.012 A 
ATOM     64  C   UNL A   1      44.048  27.871  36.605  1.00  0.00     0.148 A 
ATOM     65  C   UNL A   1      46.594  29.014  36.268  1.00  0.00     0.002 A 
ATOM     66  C   UNL A   1      45.125  27.420  37.359  1.00  0.00     0.091 A 
ATOM     67  F   UNL A   1      42.825  27.337  36.725  1.00  0.00    -0.205 F 
ATOM     68  C   UNL A   1      46.400  27.985  37.186  1.00  0.00     0.022 A 
BRANCH  66  69
ATOM     69  S   UNL A   1      44.951  26.166  38.633  1.00  0.00     0.127 S 
ATOM     70  O   UNL A   1      44.216  25.120  37.924  1.00  0.00    -0.237 OA
ATOM     71  O   UNL A   1      46.344  25.835  38.935  1.00  0.00    -0.237 OA
ATOM     72  O   UNL A   1      44.230  26.802  39.727  1.00  0.00    -0.744 OA
ENDBRANCH  66  69
ENDBRANCH  39  62
ENDBRANCH  13  14
ENDBRANCH   6   8
ENDBRANCH   3   4
ENDBRANCH   2   3
ENDBRANCH   1   2
BRANCH   1  73
ATOM     73  C   UNL A   1      34.903  30.214  27.378  1.00  0.00     0.002 C 
BRANCH  73  74
ATOM     74  C   UNL A   1      33.714  29.540  26.690  1.00  0.00     0.021 C 
BRANCH  74  75
ATOM     75  C   UNL A   1      34.042  28.520  25.599  1.00  0.00     0.116 C 
BRANCH  75  76
ATOM     76  N   UNL A   1      33.634  28.972  24.289  1.00  0.00    -0.356 N 
ATOM     77  C   UNL A   1      32.439  28.833  23.661  1.00  0.00     0.223 C 
ATOM     78  H   UNL A   1      34.324  29.451  23.776  1.00  0.00     0.163 HD
ATOM     79  O   UNL A   1      32.509  28.746  22.426  1.00  0.00    -0.275 OA
BRANCH  77  80
ATOM     80  C   UNL A   1      31.057  28.846  24.331  1.00  0.00     0.091 C 
ATOM     81  C   UNL A   1      29.996  29.665  23.561  1.00  0.00     0.014 C 
ATOM     82  C   UNL A   1      30.440  27.563  24.925  1.00  0.00     0.091 C 
ATOM     83  C   UNL A   1      28.967  28.879  22.731  1.00  0.00     0.001 C 
ATOM     84  C   UNL A   1      29.677  26.743  23.882  1.00  0.00     0.014 C 
ATOM     85  C   UNL A   1      28.510  27.566  23.348  1.00  0.00     0.001 C 
BRANCH  82  86
ATOM     86  C   UNL A   1      31.125  26.630  25.949  1.00  0.00     0.226 C 
ATOM     87  O   UNL A   1      31.093  26.914  27.149  1.00  0.00    -0.275 OA
ATOM     88  N   UNL A   1      31.499  25.371  25.540  1.00  0.00    -0.340 N 
ATOM     89  C   UNL A   1      31.198  24.195  26.365  1.00  0.00     0.136 C 
ATOM     90  C   UNL A   1      32.646  25.164  24.686  1.00  0.00     0.136 C 
ATOM     91  C   UNL A   1      31.007  22.936  25.482  1.00  0.00     0.124 C 
ATOM     92  C   UNL A   1      32.343  24.028  23.720  1.00  0.00     0.124 C 
ATOM     93  N   UNL A   1      32.119  22.747  24.462  1.00  0.00    -0.194 NA
BRANCH  93  94
ATOM     94  S   UNL A   1      33.483  21.922  25.081  1.00  0.00     0.243 S 
ATOM     95  O   UNL A   1      34.629  22.229  24.248  1.00  0.00    -0.207 OA
ATOM     96  O   UNL A   1      33.528  22.175  26.501  1.00  0.00    -0.207 OA
BRANCH  94  97
ATOM     97  C   UNL A   1      33.116  20.193  24.843  1.00  0.00     0.082 A 
ATOM     98  C   UNL A   1      33.113  19.326  25.946  1.00  0.00     0.025 A 
ATOM     99  C   UNL A   1      32.745  19.727  23.577  1.00  0.00     0.025 A 
ATOM    100  C   UNL A   1      32.822  17.974  25.766  1.00  0.00     0.040 A 
ATOM    101  C   UNL A   1      32.416  18.378  23.411  1.00  0.00     0.040 A 
ATOM    102  C   UNL A   1      32.472  17.513  24.502  1.00  0.00     0.123 A 
ATOM    103  F   UNL A   1      32.170  16.219  24.334  1.00  0.00    -0.207 F 
ENDBRANCH  94  97
ENDBRANCH  93  94
ENDBRANCH  82  86
ENDBRANCH  77  80
ENDBRANCH  75  76
ENDBRANCH  74  75
ENDBRANCH  73  74
ENDBRANCH   1  73
TORSDOF 19
ENDMDL
MODEL 2
REMARK VINA RESULT:     -12.1      6.179     10.413
REMARK SMILES O=C(NCCCCCCNC(=O)[C@H]1CCCC[C@H]1C(=O)N1CCN(S(=O)(=O)c2ccc(F)cc2)CC1)c1ccc(-c2c3nc(c(-c4cccc(S(=O)(=O)[O-])c4F)c4ccc([nH]4)c(-c4cccc(S(=O)(=O)[O-])c4F)c4nc(c(-c5cccc(S(=O)(=O)[O-])c5F)c5ccc2[nH]5)C=C4)C=C3)cc1
REMARK SMILES IDX 6 1 5 2 4 3 3 4 1 5 2 6 37 8 38 9 99 10 39 11 98 12 40 13
REMARK SMILES IDX 41 14 42 15 92 16 43 17 97 18 91 19 93 20 44 21 96 22 90 23
REMARK SMILES IDX 89 24 45 26 77 27 57 28 76 29 58 30 61 31 75 32 94 33 59 34
REMARK SMILES IDX 60 35 74 37 95 38 62 39 46 40 47 41 55 42 48 43 50 44 56 45
REMARK SMILES IDX 49 46 51 47 52 48 53 49 54 50 78 51 79 52 87 53 80 54 82 55
REMARK SMILES IDX 88 56 81 57 83 58 84 59 85 60 86 61 63 62 64 63 72 64 65 65
REMARK SMILES IDX 67 66 73 67 66 68 68 69 69 70 70 71 71 72 7 73 8 74 9 75
REMARK SMILES IDX 10 76 11 77 12 79 13 80 14 81 18 82 15 83 17 84 16 85 19 86
REMARK SMILES IDX 20 87 21 88 22 89 36 90 23 91 35 92 24 93 25 94 26 95 27 96
REMARK SMILES IDX 28 97 29 98 34 99 30 100 33 101 31 102 32 103
REMARK H PARENT 3 7 93 25 61 36 10 78
REMARK Flexibility Score: inf
ROOT
ATOM      1  C   UNL A   1      39.717  22.786  26.908  1.00  0.00     0.002 C 
ENDROOT
BRANCH   1   2
ATOM      2  C   UNL A   1      39.735  21.442  26.179  1.00  0.00     0.021 C 
BRANCH   2   3
ATOM      3  C   UNL A   1      40.483  20.302  26.860  1.00  0.00     0.116 C 
BRANCH   3   4
ATOM      4  N   UNL A   1      41.568  19.752  26.071  1.00  0.00    -0.352 N 
ATOM      5  O   UNL A   1      43.545  19.747  24.988  1.00  0.00    -0.269 OA
ATOM      6  C   UNL A   1      42.763  20.342  25.722  1.00  0.00     0.251 C 
ATOM      7  H   UNL A   1      41.434  18.834  25.742  1.00  0.00     0.163 HD
BRANCH   6   8
ATOM      8  C   UNL A   1      43.073  21.712  26.197  1.00  0.00     0.039 A 
ATOM      9  C   UNL A   1      43.362  21.961  27.540  1.00  0.00     0.014 A 
ATOM     10  C   UNL A   1      43.048  22.767  25.279  1.00  0.00     0.014 A 
ATOM     11  C   UNL A   1      43.472  23.273  27.991  1.00  0.00     0.010 A 
ATOM     12  C   UNL A   1      43.241  24.079  25.723  1.00  0.00     0.010 A 
ATOM     13  C   UNL A   1      43.417  24.348  27.089  1.00  0.00    -0.014 A 
BRANCH  13  14
ATOM     14  C   UNL A   1      43.607  25.736  27.590  1.00  0.00     0.031 A 
ATOM     15  C   UNL A   1      44.958  26.398  27.576  1.00  0.00     0.074 A 
ATOM     16  C   UNL A   1      42.533  26.406  28.055  1.00  0.00     0.049 A 
ATOM     17  N   UNL A   1      45.278  27.614  27.944  1.00  0.00    -0.248 NA
ATOM     18  C   UNL A   1      46.100  25.603  27.097  1.00  0.00     0.031 C 
ATOM     19  C   UNL A   1      41.182  25.850  28.163  1.00  0.00     0.029 A 
ATOM     20  N   UNL A   1      42.401  27.690  28.520  1.00  0.00    -0.354 N 
ATOM     21  C   UNL A   1      46.654  27.717  27.779  1.00  0.00     0.074 A 
ATOM     22  C   UNL A   1      47.115  26.440  27.281  1.00  0.00     0.031 C 
ATOM     23  C   UNL A   1      40.354  26.795  28.630  1.00  0.00     0.029 A 
ATOM     24  C   UNL A   1      41.118  28.007  28.903  1.00  0.00     0.049 A 
ATOM     25  H   UNL A   1      43.153  28.324  28.575  1.00  0.00     0.167 HD
ATOM     26  C   UNL A   1      47.454  28.786  28.006  1.00  0.00     0.034 A 
ATOM     27  C   UNL A   1      40.610  29.140  29.426  1.00  0.00     0.034 A 
ATOM     28  C   UNL A   1      46.982  30.070  28.452  1.00  0.00     0.049 A 
ATOM     29  C   UNL A   1      41.518  30.318  29.633  1.00  0.00     0.074 A 
ATOM     30  C   UNL A   1      47.710  31.233  28.634  1.00  0.00     0.029 A 
ATOM     31  N   UNL A   1      45.671  30.362  28.791  1.00  0.00    -0.354 N 
ATOM     32  N   UNL A   1      42.791  30.434  29.343  1.00  0.00    -0.248 NA
ATOM     33  C   UNL A   1      40.919  31.528  30.215  1.00  0.00     0.031 C 
ATOM     34  C   UNL A   1      46.841  32.224  29.097  1.00  0.00     0.029 A 
ATOM     35  C   UNL A   1      45.570  31.683  29.189  1.00  0.00     0.049 A 
ATOM     36  H   UNL A   1      44.921  29.724  28.752  1.00  0.00     0.167 HD
ATOM     37  C   UNL A   1      43.144  31.730  29.695  1.00  0.00     0.074 A 
ATOM     38  C   UNL A   1      41.943  32.372  30.191  1.00  0.00     0.031 C 
ATOM     39  C   UNL A   1      44.360  32.326  29.634  1.00  0.00     0.034 A 
BRANCH  26  40
ATOM     40  C   UNL A   1      48.928  28.653  27.724  1.00  0.00     0.023 A 
ATOM     41  C   UNL A   1      49.443  29.141  26.507  1.00  0.00     0.012 A 
ATOM     42  C   UNL A   1      49.815  28.177  28.709  1.00  0.00     0.148 A 
ATOM     43  C   UNL A   1      50.817  29.151  26.270  1.00  0.00     0.002 A 
ATOM     44  C   UNL A   1      51.186  28.223  28.482  1.00  0.00     0.091 A 
ATOM     45  F   UNL A   1      49.303  27.706  29.856  1.00  0.00    -0.205 F 
ATOM     46  C   UNL A   1      51.687  28.705  27.261  1.00  0.00     0.022 A 
BRANCH  44  47
ATOM     47  S   UNL A   1      52.398  27.745  29.720  1.00  0.00     0.127 S 
ATOM     48  O   UNL A   1      52.121  28.707  30.787  1.00  0.00    -0.237 OA
ATOM     49  O   UNL A   1      52.003  26.369  30.021  1.00  0.00    -0.237 OA
ATOM     50  O   UNL A   1      53.700  27.883  29.083  1.00  0.00    -0.744 OA
ENDBRANCH  44  47
ENDBRANCH  26  40
BRANCH  27  51
ATOM     51  C   UNL A   1      39.154  29.213  29.732  1.00  0.00     0.023 A 
ATOM     52  C   UNL A   1      38.700  28.882  31.023  1.00  0.00     0.012 A 
ATOM     53  C   UNL A   1      38.231  29.688  28.780  1.00  0.00     0.148 A 
ATOM     54  C   UNL A   1      37.352  29.014  31.357  1.00  0.00     0.002 A 
ATOM     55  C   UNL A   1      36.902  29.879  29.139  1.00  0.00     0.091 A 
ATOM     56  F   UNL A   1      38.677  29.976  27.549  1.00  0.00    -0.205 F 
ATOM     57  C   UNL A   1      36.456  29.528  30.422  1.00  0.00     0.022 A 
BRANCH  55  58
ATOM     58  S   UNL A   1      35.729  30.690  28.045  1.00  0.00     0.127 S 
ATOM     59  O   UNL A   1      35.539  29.681  27.007  1.00  0.00    -0.237 OA
ATOM     60  O   UNL A   1      34.578  30.894  28.926  1.00  0.00    -0.237 OA
ATOM     61  O   UNL A   1      36.382  31.923  27.627  1.00  0.00    -0.744 OA
ENDBRANCH  55  58
ENDBRANCH  27  51
BRANCH  39  62
ATOM     62  C   UNL A   1      44.473  33.747  30.114  1.00  0.00     0.023 A 
ATOM     63  C   UNL A   1      44.974  34.002  31.405  1.00  0.00     0.012 A 
ATOM     64  C   UNL A   1      44.201  34.825  29.248  1.00  0.00     0.148 A 
ATOM     65  C   UNL A   1      45.191  35.310  31.835  1.00  0.00     0.002 A 
ATOM     66  C   UNL A   1      44.461  36.124  29.667  1.00  0.00     0.091 A 
ATOM     67  F   UNL A   1      43.709  34.558  28.030  1.00  0.00    -0.205 F 
ATOM     68  C   UNL A   1      44.949  36.369  30.962  1.00  0.00     0.022 A 
BRANCH  66  69
ATOM     69  S   UNL A   1      44.272  37.544  28.583  1.00  0.00     0.127 S 
ATOM     70  O   UNL A   1      45.132  37.176  27.459  1.00  0.00    -0.237 OA
ATOM     71  O   UNL A   1      42.839  37.521  28.287  1.00  0.00    -0.237 OA
ATOM     72  O   UNL A   1      44.713  38.699  29.352  1.00  0.00    -0.744 OA
ENDBRANCH  66  69
ENDBRANCH  39  62
ENDBRANCH  13  14
ENDBRANCH   6   8
ENDBRANCH   3   4
ENDBRANCH   2   3
ENDBRANCH   1   2
BRANCH   1  73
ATOM     73  C   UNL A   1      38.627  23.779  26.498  1.00  0.00     0.002 C 
BRANCH  73  74
ATOM     74  C   UNL A   1      37.425  23.208  25.742  1.00  0.00     0.021 C 
BRANCH  74  75
ATOM     75  C   UNL A   1      36.041  23.605  26.256  1.00  0.00     0.116 C 
BRANCH  75  76
ATOM     76  N   UNL A   1      35.348  22.496  26.871  1.00  0.00    -0.356 N 
ATOM     77  C   UNL A   1      34.470  21.618  26.326  1.00  0.00     0.223 C 
ATOM     78  H   UNL A   1      35.542  22.358  27.826  1.00  0.00     0.163 HD
ATOM     79  O   UNL A   1      33.608  21.193  27.108  1.00  0.00    -0.275 OA
BRANCH  77  80
ATOM     80  C   UNL A   1      34.504  21.077  24.889  1.00  0.00     0.091 C 
ATOM     81  C   UNL A   1      34.071  19.598  24.765  1.00  0.00     0.014 C 
ATOM     82  C   UNL A   1      33.970  21.909  23.704  1.00  0.00     0.091 C 
ATOM     83  C   UNL A   1      32.652  19.323  24.239  1.00  0.00     0.001 C 
ATOM     84  C   UNL A   1      32.465  21.731  23.495  1.00  0.00     0.014 C 
ATOM     85  C   UNL A   1      32.171  20.274  23.155  1.00  0.00     0.001 C 
BRANCH  82  86
ATOM     86  C   UNL A   1      34.396  23.355  23.361  1.00  0.00     0.226 C 
ATOM     87  O   UNL A   1      35.457  23.552  22.763  1.00  0.00    -0.275 OA
ATOM     88  N   UNL A   1      33.457  24.356  23.467  1.00  0.00    -0.340 N 
ATOM     89  C   UNL A   1      33.299  25.349  22.399  1.00  0.00     0.136 C 
ATOM     90  C   UNL A   1      33.033  24.859  24.752  1.00  0.00     0.136 C 
ATOM     91  C   UNL A   1      31.837  25.861  22.334  1.00  0.00     0.124 C 
ATOM     92  C   UNL A   1      31.548  25.185  24.689  1.00  0.00     0.124 C 
ATOM     93  N   UNL A   1      31.287  26.272  23.690  1.00  0.00    -0.194 NA
BRANCH  93  94
ATOM     94  S   UNL A   1      31.672  27.879  24.128  1.00  0.00     0.243 S 
ATOM     95  O   UNL A   1      31.823  27.946  25.568  1.00  0.00    -0.207 OA
ATOM     96  O   UNL A   1      32.743  28.313  23.263  1.00  0.00    -0.207 OA
BRANCH  94  97
ATOM     97  C   UNL A   1      30.216  28.824  23.715  1.00  0.00     0.082 A 
ATOM     98  C   UNL A   1      30.216  30.215  23.898  1.00  0.00     0.025 A 
ATOM     99  C   UNL A   1      29.117  28.189  23.126  1.00  0.00     0.025 A 
ATOM    100  C   UNL A   1      29.083  30.959  23.572  1.00  0.00     0.040 A 
ATOM    101  C   UNL A   1      27.999  28.948  22.765  1.00  0.00     0.040 A 
ATOM    102  C   UNL A   1      27.986  30.319  23.005  1.00  0.00     0.123 A 
ATOM    103  F   UNL A   1      26.906  31.038  22.670  1.00  0.00    -0.207 F 
ENDBRANCH  94  97
ENDBRANCH  93  94
ENDBRANCH  82  86
ENDBRANCH  77  80
ENDBRANCH  75  76
ENDBRANCH  74  75
ENDBRANCH  73  74
ENDBRANCH   1  73
TORSDOF 19
ENDMDL
MODEL 3
REMARK VINA RESULT:     -12.0      5.702     10.052
REMARK SMILES O=C(NCCCCCCNC(=O)[C@H]1CCCC[C@H]1C(=O)N1CCN(S(=O)(=O)c2ccc(F)cc2)CC1)c1ccc(-c2c3nc(c(-c4cccc(S(=O)(=O)[O-])c4F)c4ccc([nH]4)c(-c4cccc(S(=O)(=O)[O-])c4F)c4nc(c(-c5cccc(S(=O)(=O)[O-])c5F)c5ccc2[nH]5)C=C4)C=C3)cc1
REMARK SMILES IDX 6 1 5 2 4 3 3 4 1 5 2 6 37 8 38 9 99 10 39 11 98 12 40 13
REMARK SMILES IDX 41 14 42 15 92 16 43 17 97 18 91 19 93 20 44 21 96 22 90 23
REMARK SMILES IDX 89 24 45 26 77 27 57 28 76 29 58 30 61 31 75 32 94 33 59 34
REMARK SMILES IDX 60 35 74 37 95 38 62 39 46 40 47 41 55 42 48 43 50 44 56 45
REMARK SMILES IDX 49 46 51 47 52 48 53 49 54 50 78 51 79 52 87 53 80 54 82 55
REMARK SMILES IDX 88 56 81 57 83 58 84 59 85 60 86 61 63 62 64 63 72 64 65 65
REMARK SMILES IDX 67 66 73 67 66 68 68 69 69 70 70 71 71 72 7 73 8 74 9 75
REMARK SMILES IDX 10 76 11 77 12 79 13 80 14 81 18 82 15 83 17 84 16 85 19 86
REMARK SMILES IDX 20 87 21 88 22 89 36 90 23 91 35 92 24 93 25 94 26 95 27 96
REMARK SMILES IDX 28 97 29 98 34 99 30 100 33 101 31 102 32 103
REMARK H PARENT 3 7 93 25 61 36 10 78
REMARK Flexibility Score: inf
ROOT
ATOM      1  C   UNL A   1      39.655  22.712  26.879  1.00  0.00     0.002 C 
ENDROOT
BRANCH   1   2
ATOM      2  C   UNL A   1      39.689  21.378  26.133  1.00  0.00     0.021 C 
BRANCH   2   3
ATOM      3  C   UNL A   1      40.422  20.228  26.814  1.00  0.00     0.116 C 
BRANCH   3   4
ATOM      4  N   UNL A   1      41.502  19.667  26.026  1.00  0.00    -0.352 N 
ATOM      5  O   UNL A   1      43.482  19.638  24.949  1.00  0.00    -0.269 OA
ATOM      6  C   UNL A   1      42.706  20.241  25.683  1.00  0.00     0.251 C 
ATOM      7  H   UNL A   1      41.356  18.752  25.692  1.00  0.00     0.163 HD
BRANCH   6   8
ATOM      8  C   UNL A   1      43.034  21.604  26.165  1.00  0.00     0.039 A 
ATOM      9  C   UNL A   1      43.308  21.846  27.513  1.00  0.00     0.014 A 
ATOM     10  C   UNL A   1      43.041  22.661  25.250  1.00  0.00     0.014 A 
ATOM     11  C   UNL A   1      43.435  23.155  27.969  1.00  0.00     0.010 A 
ATOM     12  C   UNL A   1      43.252  23.969  25.699  1.00  0.00     0.010 A 
ATOM     13  C   UNL A   1      43.413  24.232  27.068  1.00  0.00    -0.014 A 
BRANCH  13  14
ATOM     14  C   UNL A   1      43.620  25.616  27.575  1.00  0.00     0.031 A 
ATOM     15  C   UNL A   1      44.979  26.263  27.557  1.00  0.00     0.074 A 
ATOM     16  C   UNL A   1      42.557  26.296  28.047  1.00  0.00     0.049 A 
ATOM     17  N   UNL A   1      45.314  27.472  27.929  1.00  0.00    -0.248 NA
ATOM     18  C   UNL A   1      46.110  25.457  27.070  1.00  0.00     0.031 C 
ATOM     19  C   UNL A   1      41.200  25.755  28.159  1.00  0.00     0.029 A 
ATOM     20  N   UNL A   1      42.442  27.579  28.519  1.00  0.00    -0.354 N 
ATOM     21  C   UNL A   1      46.690  27.561  27.760  1.00  0.00     0.074 A 
ATOM     22  C   UNL A   1      47.135  26.281  27.253  1.00  0.00     0.031 C 
ATOM     23  C   UNL A   1      40.384  26.706  28.633  1.00  0.00     0.029 A 
ATOM     24  C   UNL A   1      41.164  27.908  28.909  1.00  0.00     0.049 A 
ATOM     25  H   UNL A   1      43.200  28.204  28.573  1.00  0.00     0.167 HD
ATOM     26  C   UNL A   1      47.504  28.620  27.987  1.00  0.00     0.034 A 
ATOM     27  C   UNL A   1      40.671  29.044  29.439  1.00  0.00     0.034 A 
ATOM     28  C   UNL A   1      47.049  29.907  28.442  1.00  0.00     0.049 A 
ATOM     29  C   UNL A   1      41.592  30.212  29.648  1.00  0.00     0.074 A 
ATOM     30  C   UNL A   1      47.791  31.061  28.625  1.00  0.00     0.029 A 
ATOM     31  N   UNL A   1      45.742  30.213  28.787  1.00  0.00    -0.354 N 
ATOM     32  N   UNL A   1      42.866  30.315  29.352  1.00  0.00    -0.248 NA
ATOM     33  C   UNL A   1      41.011  31.425  30.238  1.00  0.00     0.031 C 
ATOM     34  C   UNL A   1      46.935  32.060  29.097  1.00  0.00     0.029 A 
ATOM     35  C   UNL A   1      45.658  31.533  29.192  1.00  0.00     0.049 A 
ATOM     36  H   UNL A   1      44.985  29.583  28.748  1.00  0.00     0.167 HD
ATOM     37  C   UNL A   1      43.235  31.605  29.709  1.00  0.00     0.074 A 
ATOM     38  C   UNL A   1      42.044  32.258  30.213  1.00  0.00     0.031 C 
ATOM     39  C   UNL A   1      44.457  32.187  29.646  1.00  0.00     0.034 A 
BRANCH  26  40
ATOM     40  C   UNL A   1      48.975  28.472  27.698  1.00  0.00     0.023 A 
ATOM     41  C   UNL A   1      49.869  28.260  28.766  1.00  0.00     0.012 A 
ATOM     42  C   UNL A   1      49.451  28.403  26.374  1.00  0.00     0.148 A 
ATOM     43  C   UNL A   1      51.216  27.990  28.522  1.00  0.00     0.002 A 
ATOM     44  C   UNL A   1      50.786  28.099  26.136  1.00  0.00     0.091 A 
ATOM     45  F   UNL A   1      48.585  28.620  25.372  1.00  0.00    -0.205 F 
ATOM     46  C   UNL A   1      51.670  27.897  27.210  1.00  0.00     0.022 A 
BRANCH  44  47
ATOM     47  S   UNL A   1      51.458  27.878  24.484  1.00  0.00     0.127 S 
ATOM     48  O   UNL A   1      51.253  29.206  23.904  1.00  0.00    -0.237 OA
ATOM     49  O   UNL A   1      52.854  27.544  24.763  1.00  0.00    -0.237 OA
ATOM     50  O   UNL A   1      50.683  26.808  23.873  1.00  0.00    -0.744 OA
ENDBRANCH  44  47
ENDBRANCH  26  40
BRANCH  27  51
ATOM     51  C   UNL A   1      39.217  29.133  29.752  1.00  0.00     0.023 A 
ATOM     52  C   UNL A   1      38.765  28.810  31.046  1.00  0.00     0.012 A 
ATOM     53  C   UNL A   1      38.294  29.614  28.803  1.00  0.00     0.148 A 
ATOM     54  C   UNL A   1      37.420  28.957  31.386  1.00  0.00     0.002 A 
ATOM     55  C   UNL A   1      36.968  29.818  29.167  1.00  0.00     0.091 A 
ATOM     56  F   UNL A   1      38.737  29.894  27.569  1.00  0.00    -0.205 F 
ATOM     57  C   UNL A   1      36.525  29.476  30.453  1.00  0.00     0.022 A 
BRANCH  55  58
ATOM     58  S   UNL A   1      35.798  30.637  28.076  1.00  0.00     0.127 S 
ATOM     59  O   UNL A   1      34.656  30.843  28.961  1.00  0.00    -0.237 OA
ATOM     60  O   UNL A   1      36.522  31.855  27.708  1.00  0.00    -0.237 OA
ATOM     61  O   UNL A   1      35.592  29.712  26.969  1.00  0.00    -0.744 OA
ENDBRANCH  55  58
ENDBRANCH  27  51
BRANCH  39  62
ATOM     62  C   UNL A   1      44.589  33.605  30.131  1.00  0.00     0.023 A 
ATOM     63  C   UNL A   1      44.404  34.665  29.222  1.00  0.00     0.012 A 
ATOM     64  C   UNL A   1      44.773  33.886  31.499  1.00  0.00     0.148 A 
ATOM     65  C   UNL A   1      44.413  35.986  29.665  1.00  0.00     0.002 A 
ATOM     66  C   UNL A   1      44.736  35.203  31.940  1.00  0.00     0.091 A 
ATOM     67  F   UNL A   1      44.963  32.861  32.342  1.00  0.00    -0.205 F 
ATOM     68  C   UNL A   1      44.564  36.255  31.024  1.00  0.00     0.022 A 
BRANCH  66  69
ATOM     69  S   UNL A   1      44.826  35.641  33.680  1.00  0.00     0.127 S 
ATOM     70  O   UNL A   1      44.013  36.855  33.724  1.00  0.00    -0.237 OA
ATOM     71  O   UNL A   1      44.218  34.476  34.325  1.00  0.00    -0.237 OA
ATOM     72  O   UNL A   1      46.240  35.827  33.976  1.00  0.00    -0.744 OA
ENDBRANCH  66  69
ENDBRANCH  39  62
ENDBRANCH  13  14
ENDBRANCH   6   8
ENDBRANCH   3   4
ENDBRANCH   2   3
ENDBRANCH   1   2
BRANCH   1  73
ATOM     73  C   UNL A   1      38.607  23.731  26.424  1.00  0.00     0.002 C 
BRANCH  73  74
ATOM     74  C   UNL A   1      37.414  23.187  25.636  1.00  0.00     0.021 C 
BRANCH  74  75
ATOM     75  C   UNL A   1      36.025  23.547  26.162  1.00  0.00     0.116 C 
BRANCH  75  76
ATOM     76  N   UNL A   1      35.375  22.427  26.802  1.00  0.00    -0.356 N 
ATOM     77  C   UNL A   1      34.516  21.515  26.283  1.00  0.00     0.223 C 
ATOM     78  H   UNL A   1      35.587  22.308  27.757  1.00  0.00     0.163 HD
ATOM     79  O   UNL A   1      33.679  21.075  27.085  1.00  0.00    -0.275 OA
BRANCH  77  80
ATOM     80  C   UNL A   1      34.545  20.955  24.853  1.00  0.00     0.091 C 
ATOM     81  C   UNL A   1      34.186  19.454  24.760  1.00  0.00     0.014 C 
ATOM     82  C   UNL A   1      33.943  21.740  23.670  1.00  0.00     0.091 C 
ATOM     83  C   UNL A   1      32.772  19.098  24.272  1.00  0.00     0.001 C 
ATOM     84  C   UNL A   1      32.444  21.482  23.499  1.00  0.00     0.014 C 
ATOM     85  C   UNL A   1      32.218  20.007  23.186  1.00  0.00     0.001 C 
BRANCH  82  86
ATOM     86  C   UNL A   1      34.285  23.201  23.297  1.00  0.00     0.226 C 
ATOM     87  O   UNL A   1      35.307  23.441  22.649  1.00  0.00    -0.275 OA
ATOM     88  N   UNL A   1      33.308  24.159  23.439  1.00  0.00    -0.340 N 
ATOM     89  C   UNL A   1      33.055  25.134  22.372  1.00  0.00     0.136 C 
ATOM     90  C   UNL A   1      32.920  24.654  24.739  1.00  0.00     0.136 C 
ATOM     91  C   UNL A   1      31.569  25.578  22.371  1.00  0.00     0.124 C 
ATOM     92  C   UNL A   1      31.420  24.912  24.741  1.00  0.00     0.124 C 
ATOM     93  N   UNL A   1      31.064  25.976  23.748  1.00  0.00    -0.194 NA
BRANCH  93  94
ATOM     94  S   UNL A   1      31.394  27.604  24.156  1.00  0.00     0.243 S 
ATOM     95  O   UNL A   1      31.094  27.802  25.560  1.00  0.00    -0.207 OA
ATOM     96  O   UNL A   1      32.707  27.916  23.641  1.00  0.00    -0.207 OA
BRANCH  94  97
ATOM     97  C   UNL A   1      30.201  28.555  23.231  1.00  0.00     0.082 A 
ATOM     98  C   UNL A   1      30.644  29.539  22.334  1.00  0.00     0.025 A 
ATOM     99  C   UNL A   1      28.839  28.255  23.335  1.00  0.00     0.025 A 
ATOM    100  C   UNL A   1      29.716  30.281  21.604  1.00  0.00     0.040 A 
ATOM    101  C   UNL A   1      27.917  28.978  22.571  1.00  0.00     0.040 A 
ATOM    102  C   UNL A   1      28.362  29.991  21.727  1.00  0.00     0.123 A 
ATOM    103  F   UNL A   1      27.472  30.690  21.009  1.00  0.00    -0.207 F 
ENDBRANCH  94  97
ENDBRANCH  93  94
ENDBRANCH  82  86
ENDBRANCH  77  80
ENDBRANCH  75  76
ENDBRANCH  74  75
ENDBRANCH  73  74
ENDBRANCH   1  73
TORSDOF 19
ENDMDL
