MODEL 1
REMARK VINA RESULT:     -11.0      0.000      0.000
REMARK SMILES C[C@@H]1CCCN(C(=O)NC2(CC(=O)NCCCCCCNC(=O)c3ccc(-c4c5nc(c(-c6cccc(S(=O)(=O)[O-])c6F)c6ccc([nH]6)c(-c6cccc(S(=O)(=O)[O-])c6F)c6nc(c(-c7cccc(S(=O)(=O)[O-])c7F)c7ccc4[nH]7)C=C6)C=C5)cc3)CCC2)[C@@H]1C
REMARK SMILES IDX 17 1 16 2 15 3 14 4 12 5 13 6 11 8 10 9 87 10 89 11 88 12
REMARK SMILES IDX 9 13 7 14 8 15 6 17 1 18 2 19 3 20 90 21 4 22 91 23 5 24
REMARK SMILES IDX 18 25 19 26 20 27 21 28 22 29 23 31 24 32 25 33 86 34 26 35
REMARK SMILES IDX 85 36 27 37 28 38 29 39 79 40 30 41 84 42 78 43 80 44 31 45
REMARK SMILES IDX 83 46 77 47 76 48 32 50 64 51 44 52 63 53 45 54 48 55 62 56
REMARK SMILES IDX 81 57 46 58 47 59 61 61 82 62 49 63 33 64 34 65 42 66 35 67
REMARK SMILES IDX 37 68 43 69 36 70 38 71 39 72 40 73 41 74 65 75 66 76 74 77
REMARK SMILES IDX 67 78 69 79 75 80 68 81 70 82 71 83 72 84 73 85 50 86 51 87
REMARK SMILES IDX 59 88 52 89 54 90 60 91 53 92 55 93 56 94 57 95 58 96
REMARK H PARENT 14 7 9 16 21 30 80 49 48 60
REMARK Flexibility Score: inf
ROOT
ATOM      1  C   UNL A   1      35.413  20.575  25.381  1.00  0.00     0.002 C 
ENDROOT
BRANCH   1   2
ATOM      2  C   UNL A   1      33.987  21.009  25.733  1.00  0.00     0.021 C 
BRANCH   2   3
ATOM      3  C   UNL A   1      33.883  21.651  27.121  1.00  0.00     0.116 C 
BRANCH   3   4
ATOM      4  N   UNL A   1      32.560  22.205  27.315  1.00  0.00    -0.356 N 
ATOM      5  C   UNL A   1      32.026  23.344  26.804  1.00  0.00     0.222 C 
ATOM      6  O   UNL A   1      30.971  23.760  27.291  1.00  0.00    -0.275 OA
ATOM      7  H   UNL A   1      31.964  21.683  27.900  1.00  0.00     0.163 HD
BRANCH   5   8
ATOM      8  C   UNL A   1      32.680  24.085  25.655  1.00  0.00     0.128 C 
BRANCH   8   9
ATOM      9  C   UNL A   1      31.898  24.181  24.314  1.00  0.00     0.051 C 
ATOM     10  C   UNL A   1      31.594  22.757  23.777  1.00  0.00     0.029 C 
ATOM     11  C   UNL A   1      32.853  24.403  23.119  1.00  0.00     0.029 C 
ATOM     12  C   UNL A   1      32.729  22.911  22.754  1.00  0.00     0.005 C 
BRANCH   9  13
ATOM     13  N   UNL A   1      30.699  25.040  24.484  1.00  0.00    -0.332 N 
ATOM     14  C   UNL A   1      30.281  26.295  24.753  1.00  0.00     0.318 C 
ATOM     15  O   UNL A   1      29.078  26.424  24.488  1.00  0.00    -0.249 OA
ATOM     16  H   UNL A   1      29.903  24.477  24.350  1.00  0.00     0.165 HD
BRANCH  14  17
ATOM     17  N   UNL A   1      31.022  27.326  25.254  1.00  0.00    -0.322 N 
ATOM     18  C   UNL A   1      33.844  27.485  23.992  1.00  0.00     0.010 C 
ATOM     19  C   UNL A   1      33.026  28.657  24.550  1.00  0.00     0.008 C 
ATOM     20  C   UNL A   1      33.366  28.914  26.026  1.00  0.00     0.007 C 
ATOM     21  C   UNL A   1      31.492  28.453  24.391  1.00  0.00     0.086 C 
ATOM     22  C   UNL A   1      32.801  27.826  26.925  1.00  0.00     0.022 C 
ATOM     23  C   UNL A   1      31.093  28.503  22.912  1.00  0.00     0.031 C 
ATOM     24  C   UNL A   1      31.320  27.589  26.653  1.00  0.00     0.121 C 
ENDBRANCH  14  17
ENDBRANCH   9  13
ENDBRANCH   8   9
ENDBRANCH   5   8
ENDBRANCH   3   4
ENDBRANCH   2   3
ENDBRANCH   1   2
BRANCH   1  25
ATOM     25  C   UNL A   1      36.087  21.449  24.316  1.00  0.00     0.002 C 
BRANCH  25  26
ATOM     26  C   UNL A   1      35.997  22.959  24.561  1.00  0.00     0.021 C 
BRANCH  26  27
ATOM     27  C   UNL A   1      36.809  23.457  25.754  1.00  0.00     0.116 C 
BRANCH  27  28
ATOM     28  N   UNL A   1      37.880  22.529  26.091  1.00  0.00    -0.352 N 
ATOM     29  C   UNL A   1      39.173  22.793  26.468  1.00  0.00     0.251 C 
ATOM     30  H   UNL A   1      37.641  21.576  26.040  1.00  0.00     0.163 HD
ATOM     31  O   UNL A   1      40.012  21.899  26.443  1.00  0.00    -0.269 OA
BRANCH  29  32
ATOM     32  C   UNL A   1      39.549  24.153  26.909  1.00  0.00     0.039 A 
ATOM     33  C   UNL A   1      39.346  24.518  28.242  1.00  0.00     0.014 A 
ATOM     34  C   UNL A   1      40.067  25.077  25.997  1.00  0.00     0.014 A 
ATOM     35  C   UNL A   1      39.705  25.797  28.671  1.00  0.00     0.010 A 
ATOM     36  C   UNL A   1      40.487  26.328  26.441  1.00  0.00     0.010 A 
ATOM     37  C   UNL A   1      40.299  26.706  27.778  1.00  0.00    -0.014 A 
BRANCH  37  38
ATOM     38  C   UNL A   1      40.734  28.054  28.222  1.00  0.00     0.031 A 
ATOM     39  C   UNL A   1      42.197  28.405  28.256  1.00  0.00     0.074 A 
ATOM     40  C   UNL A   1      39.819  28.927  28.685  1.00  0.00     0.049 A 
ATOM     41  N   UNL A   1      42.771  29.504  28.672  1.00  0.00    -0.248 NA
ATOM     42  C   UNL A   1      43.140  27.375  27.790  1.00  0.00     0.031 C 
ATOM     43  C   UNL A   1      38.381  28.670  28.782  1.00  0.00     0.029 A 
ATOM     44  N   UNL A   1      39.966  30.195  29.188  1.00  0.00    -0.354 N 
ATOM     45  C   UNL A   1      44.138  29.286  28.552  1.00  0.00     0.074 A 
ATOM     46  C   UNL A   1      44.309  27.936  28.059  1.00  0.00     0.031 C 
ATOM     47  C   UNL A   1      37.779  29.745  29.316  1.00  0.00     0.029 A 
ATOM     48  C   UNL A   1      38.788  30.755  29.620  1.00  0.00     0.049 A 
ATOM     49  H   UNL A   1      40.833  30.658  29.236  1.00  0.00     0.167 HD
ATOM     50  C   UNL A   1      45.159  30.141  28.799  1.00  0.00     0.034 A 
ATOM     51  C   UNL A   1      38.546  31.946  30.203  1.00  0.00     0.034 A 
ATOM     52  C   UNL A   1      44.983  31.496  29.246  1.00  0.00     0.049 A 
ATOM     53  C   UNL A   1      39.689  32.900  30.417  1.00  0.00     0.074 A 
ATOM     54  C   UNL A   1      45.943  32.472  29.437  1.00  0.00     0.029 A 
ATOM     55  N   UNL A   1      43.762  32.067  29.579  1.00  0.00    -0.354 N 
ATOM     56  N   UNL A   1      40.961  32.736  30.143  1.00  0.00    -0.248 NA
ATOM     57  C   UNL A   1      39.361  34.216  30.984  1.00  0.00     0.031 C 
ATOM     58  C   UNL A   1      45.306  33.629  29.901  1.00  0.00     0.029 A 
ATOM     59  C   UNL A   1      43.945  33.379  29.980  1.00  0.00     0.049 A 
ATOM     60  H   UNL A   1      42.894  31.605  29.535  1.00  0.00     0.167 HD
ATOM     61  C   UNL A   1      41.580  33.937  30.472  1.00  0.00     0.074 A 
ATOM     62  C   UNL A   1      40.539  34.825  30.947  1.00  0.00     0.031 C 
ATOM     63  C   UNL A   1      42.894  34.268  30.403  1.00  0.00     0.034 A 
BRANCH  50  64
ATOM     64  C   UNL A   1      46.559  29.649  28.536  1.00  0.00     0.023 A 
ATOM     65  C   UNL A   1      47.138  29.856  27.266  1.00  0.00     0.012 A 
ATOM     66  C   UNL A   1      47.316  29.024  29.545  1.00  0.00     0.148 A 
ATOM     67  C   UNL A   1      48.431  29.411  26.992  1.00  0.00     0.002 A 
ATOM     68  C   UNL A   1      48.621  28.623  29.277  1.00  0.00     0.091 A 
ATOM     69  F   UNL A   1      46.743  28.813  30.739  1.00  0.00    -0.205 F 
ATOM     70  C   UNL A   1      49.175  28.804  28.000  1.00  0.00     0.022 A 
BRANCH  68  71
ATOM     71  S   UNL A   1      49.685  27.902  30.533  1.00  0.00     0.127 S 
ATOM     72  O   UNL A   1      49.055  26.600  30.743  1.00  0.00    -0.237 OA
ATOM     73  O   UNL A   1      50.979  27.851  29.852  1.00  0.00    -0.237 OA
ATOM     74  O   UNL A   1      49.636  28.815  31.668  1.00  0.00    -0.744 OA
ENDBRANCH  68  71
ENDBRANCH  50  64
BRANCH  51  75
ATOM     75  C   UNL A   1      37.148  32.325  30.551  1.00  0.00     0.023 A 
ATOM     76  C   UNL A   1      36.694  32.146  31.872  1.00  0.00     0.012 A 
ATOM     77  C   UNL A   1      36.289  32.910  29.602  1.00  0.00     0.148 A 
ATOM     78  C   UNL A   1      35.400  32.521  32.235  1.00  0.00     0.002 A 
ATOM     79  C   UNL A   1      35.020  33.332  29.984  1.00  0.00     0.091 A 
ATOM     80  F   UNL A   1      36.738  33.062  28.348  1.00  0.00    -0.205 F 
ATOM     81  C   UNL A   1      34.569  33.124  31.296  1.00  0.00     0.022 A 
BRANCH  79  82
ATOM     82  S   UNL A   1      33.934  34.239  28.878  1.00  0.00     0.127 S 
ATOM     83  O   UNL A   1      34.836  35.249  28.333  1.00  0.00    -0.237 OA
ATOM     84  O   UNL A   1      33.528  33.199  27.932  1.00  0.00    -0.237 OA
ATOM     85  O   UNL A   1      32.851  34.742  29.713  1.00  0.00    -0.744 OA
ENDBRANCH  79  82
ENDBRANCH  51  75
BRANCH  63  86
ATOM     86  C   UNL A   1      43.286  35.659  30.825  1.00  0.00     0.023 A 
ATOM     87  C   UNL A   1      43.654  35.906  32.162  1.00  0.00     0.012 A 
ATOM     88  C   UNL A   1      43.365  36.702  29.882  1.00  0.00     0.148 A 
ATOM     89  C   UNL A   1      44.066  37.177  32.561  1.00  0.00     0.002 A 
ATOM     90  C   UNL A   1      43.822  37.954  30.276  1.00  0.00     0.091 A 
ATOM     91  F   UNL A   1      42.992  36.453  28.618  1.00  0.00    -0.205 F 
ATOM     92  C   UNL A   1      44.163  38.196  31.617  1.00  0.00     0.022 A 
BRANCH  90  93
ATOM     93  S   UNL A   1      44.068  39.298  29.110  1.00  0.00     0.127 S 
ATOM     94  O   UNL A   1      44.774  40.280  29.931  1.00  0.00    -0.237 OA
ATOM     95  O   UNL A   1      44.889  38.667  28.075  1.00  0.00    -0.237 OA
ATOM     96  O   UNL A   1      42.738  39.692  28.666  1.00  0.00    -0.744 OA
ENDBRANCH  90  93
ENDBRANCH  63  86
ENDBRANCH  37  38
ENDBRANCH  29  32
ENDBRANCH  27  28
ENDBRANCH  26  27
ENDBRANCH  25  26
ENDBRANCH   1  25
TORSDOF 19
ENDMDL
MODEL 2
REMARK VINA RESULT:     -11.0      5.329      8.814
REMARK SMILES C[C@@H]1CCCN(C(=O)NC2(CC(=O)NCCCCCCNC(=O)c3ccc(-c4c5nc(c(-c6cccc(S(=O)(=O)[O-])c6F)c6ccc([nH]6)c(-c6cccc(S(=O)(=O)[O-])c6F)c6nc(c(-c7cccc(S(=O)(=O)[O-])c7F)c7ccc4[nH]7)C=C6)C=C5)cc3)CCC2)[C@@H]1C
REMARK SMILES IDX 17 1 16 2 15 3 14 4 12 5 13 6 11 8 10 9 87 10 89 11 88 12
REMARK SMILES IDX 9 13 7 14 8 15 6 17 1 18 2 19 3 20 90 21 4 22 91 23 5 24
REMARK SMILES IDX 18 25 19 26 20 27 21 28 22 29 23 31 24 32 25 33 86 34 26 35
REMARK SMILES IDX 85 36 27 37 28 38 29 39 79 40 30 41 84 42 78 43 80 44 31 45
REMARK SMILES IDX 83 46 77 47 76 48 32 50 64 51 44 52 63 53 45 54 48 55 62 56
REMARK SMILES IDX 81 57 46 58 47 59 61 61 82 62 49 63 33 64 34 65 42 66 35 67
REMARK SMILES IDX 37 68 43 69 36 70 38 71 39 72 40 73 41 74 65 75 66 76 74 77
REMARK SMILES IDX 67 78 69 79 75 80 68 81 70 82 71 83 72 84 73 85 50 86 51 87
REMARK SMILES IDX 59 88 52 89 54 90 60 91 53 92 55 93 56 94 57 95 58 96
REMARK H PARENT 14 7 9 16 21 30 80 49 48 60
REMARK Flexibility Score: inf
ROOT
ATOM      1  C   UNL A   1      33.011  30.365  27.252  1.00  0.00     0.002 C 
ENDROOT
BRANCH   1   2
ATOM      2  C   UNL A   1      33.055  28.836  27.177  1.00  0.00     0.021 C 
BRANCH   2   3
ATOM      3  C   UNL A   1      34.107  28.316  26.192  1.00  0.00     0.116 C 
BRANCH   3   4
ATOM      4  N   UNL A   1      33.859  28.850  24.870  1.00  0.00    -0.356 N 
ATOM      5  C   UNL A   1      32.808  28.625  24.041  1.00  0.00     0.222 C 
ATOM      6  O   UNL A   1      32.911  28.980  22.864  1.00  0.00    -0.275 OA
ATOM      7  H   UNL A   1      34.550  29.461  24.524  1.00  0.00     0.163 HD
BRANCH   5   8
ATOM      8  C   UNL A   1      31.528  27.978  24.533  1.00  0.00     0.128 C 
BRANCH   8   9
ATOM      9  C   UNL A   1      31.456  26.424  24.534  1.00  0.00     0.051 C 
ATOM     10  C   UNL A   1      29.994  25.963  24.293  1.00  0.00     0.029 C 
ATOM     11  C   UNL A   1      31.371  25.865  25.973  1.00  0.00     0.029 C 
ATOM     12  C   UNL A   1      29.856  25.650  25.790  1.00  0.00     0.005 C 
BRANCH   9  13
ATOM     13  N   UNL A   1      32.439  25.868  23.571  1.00  0.00    -0.332 N 
ATOM     14  C   UNL A   1      33.256  24.822  23.322  1.00  0.00     0.318 C 
ATOM     15  O   UNL A   1      33.654  24.845  22.150  1.00  0.00    -0.249 OA
ATOM     16  H   UNL A   1      32.532  26.508  22.830  1.00  0.00     0.165 HD
BRANCH  14  17
ATOM     17  N   UNL A   1      33.639  23.843  24.193  1.00  0.00    -0.322 N 
ATOM     18  C   UNL A   1      31.229  22.428  25.525  1.00  0.00     0.010 C 
ATOM     19  C   UNL A   1      32.606  21.814  25.243  1.00  0.00     0.008 C 
ATOM     20  C   UNL A   1      33.540  21.973  26.452  1.00  0.00     0.007 C 
ATOM     21  C   UNL A   1      33.283  22.407  23.974  1.00  0.00     0.086 C 
ATOM     22  C   UNL A   1      33.991  23.414  26.622  1.00  0.00     0.022 C 
ATOM     23  C   UNL A   1      32.519  21.992  22.712  1.00  0.00     0.031 C 
ATOM     24  C   UNL A   1      34.546  23.983  25.322  1.00  0.00     0.121 C 
ENDBRANCH  14  17
ENDBRANCH   9  13
ENDBRANCH   8   9
ENDBRANCH   5   8
ENDBRANCH   3   4
ENDBRANCH   2   3
ENDBRANCH   1   2
BRANCH   1  25
ATOM     25  C   UNL A   1      31.657  30.970  26.861  1.00  0.00     0.002 C 
BRANCH  25  26
ATOM     26  C   UNL A   1      31.627  32.500  26.778  1.00  0.00     0.021 C 
BRANCH  26  27
ATOM     27  C   UNL A   1      32.916  33.184  27.230  1.00  0.00     0.116 C 
BRANCH  27  28
ATOM     28  N   UNL A   1      32.651  34.510  27.771  1.00  0.00    -0.352 N 
ATOM     29  C   UNL A   1      33.120  35.088  28.924  1.00  0.00     0.251 C 
ATOM     30  H   UNL A   1      32.050  35.071  27.232  1.00  0.00     0.163 HD
ATOM     31  O   UNL A   1      32.580  36.097  29.365  1.00  0.00    -0.269 OA
BRANCH  29  32
ATOM     32  C   UNL A   1      34.277  34.495  29.628  1.00  0.00     0.039 A 
ATOM     33  C   UNL A   1      34.074  33.854  30.852  1.00  0.00     0.014 A 
ATOM     34  C   UNL A   1      35.564  34.606  29.096  1.00  0.00     0.014 A 
ATOM     35  C   UNL A   1      35.158  33.283  31.522  1.00  0.00     0.010 A 
ATOM     36  C   UNL A   1      36.632  33.978  29.730  1.00  0.00     0.010 A 
ATOM     37  C   UNL A   1      36.443  33.322  30.956  1.00  0.00    -0.014 A 
BRANCH  37  38
ATOM     38  C   UNL A   1      37.603  32.681  31.625  1.00  0.00     0.031 A 
ATOM     39  C   UNL A   1      38.317  31.531  30.966  1.00  0.00     0.074 A 
ATOM     40  C   UNL A   1      37.951  33.070  32.866  1.00  0.00     0.049 A 
ATOM     41  N   UNL A   1      39.305  30.806  31.422  1.00  0.00    -0.248 NA
ATOM     42  C   UNL A   1      37.839  31.126  29.634  1.00  0.00     0.031 C 
ATOM     43  C   UNL A   1      37.280  34.114  33.643  1.00  0.00     0.029 A 
ATOM     44  N   UNL A   1      38.936  32.613  33.704  1.00  0.00    -0.354 N 
ATOM     45  C   UNL A   1      39.542  29.838  30.453  1.00  0.00     0.074 A 
ATOM     46  C   UNL A   1      38.571  30.046  29.400  1.00  0.00     0.031 C 
ATOM     47  C   UNL A   1      37.871  34.215  34.844  1.00  0.00     0.029 A 
ATOM     48  C   UNL A   1      38.943  33.229  34.933  1.00  0.00     0.049 A 
ATOM     49  H   UNL A   1      39.576  31.909  33.450  1.00  0.00     0.167 HD
ATOM     50  C   UNL A   1      40.501  28.882  30.425  1.00  0.00     0.034 A 
ATOM     51  C   UNL A   1      39.721  33.019  36.013  1.00  0.00     0.034 A 
ATOM     52  C   UNL A   1      41.493  28.707  31.452  1.00  0.00     0.049 A 
ATOM     53  C   UNL A   1      40.814  31.989  35.938  1.00  0.00     0.074 A 
ATOM     54  C   UNL A   1      42.563  27.832  31.476  1.00  0.00     0.029 A 
ATOM     55  N   UNL A   1      41.533  29.419  32.642  1.00  0.00    -0.354 N 
ATOM     56  N   UNL A   1      41.128  31.193  34.945  1.00  0.00    -0.248 NA
ATOM     57  C   UNL A   1      41.684  31.854  37.115  1.00  0.00     0.031 C 
ATOM     58  C   UNL A   1      43.240  28.002  32.689  1.00  0.00     0.029 A 
ATOM     59  C   UNL A   1      42.604  28.999  33.411  1.00  0.00     0.049 A 
ATOM     60  H   UNL A   1      40.893  30.121  32.900  1.00  0.00     0.167 HD
ATOM     61  C   UNL A   1      42.251  30.486  35.363  1.00  0.00     0.074 A 
ATOM     62  C   UNL A   1      42.572  30.965  36.692  1.00  0.00     0.031 C 
ATOM     63  C   UNL A   1      42.942  29.518  34.711  1.00  0.00     0.034 A 
BRANCH  50  64
ATOM     64  C   UNL A   1      40.557  27.987  29.215  1.00  0.00     0.023 A 
ATOM     65  C   UNL A   1      39.667  26.896  29.118  1.00  0.00     0.012 A 
ATOM     66  C   UNL A   1      41.452  28.242  28.158  1.00  0.00     0.148 A 
ATOM     67  C   UNL A   1      39.696  26.049  28.010  1.00  0.00     0.002 A 
ATOM     68  C   UNL A   1      41.444  27.419  27.036  1.00  0.00     0.091 A 
ATOM     69  F   UNL A   1      42.307  29.267  28.275  1.00  0.00    -0.205 F 
ATOM     70  C   UNL A   1      40.576  26.317  26.966  1.00  0.00     0.022 A 
BRANCH  68  71
ATOM     71  S   UNL A   1      42.487  27.728  25.606  1.00  0.00     0.127 S 
ATOM     72  O   UNL A   1      41.940  28.989  25.107  1.00  0.00    -0.237 OA
ATOM     73  O   UNL A   1      43.816  27.836  26.208  1.00  0.00    -0.237 OA
ATOM     74  O   UNL A   1      42.313  26.576  24.730  1.00  0.00    -0.744 OA
ENDBRANCH  68  71
ENDBRANCH  50  64
BRANCH  51  75
ATOM     75  C   UNL A   1      39.534  33.861  37.229  1.00  0.00     0.023 A 
ATOM     76  C   UNL A   1      39.986  35.195  37.220  1.00  0.00     0.012 A 
ATOM     77  C   UNL A   1      38.866  33.369  38.366  1.00  0.00     0.148 A 
ATOM     78  C   UNL A   1      39.797  36.016  38.331  1.00  0.00     0.002 A 
ATOM     79  C   UNL A   1      38.632  34.209  39.449  1.00  0.00     0.091 A 
ATOM     80  F   UNL A   1      38.452  32.094  38.356  1.00  0.00    -0.205 F 
ATOM     81  C   UNL A   1      39.110  35.528  39.440  1.00  0.00     0.022 A 
BRANCH  79  82
ATOM     82  S   UNL A   1      37.639  33.707  40.859  1.00  0.00     0.127 S 
ATOM     83  O   UNL A   1      38.538  32.786  41.546  1.00  0.00    -0.237 OA
ATOM     84  O   UNL A   1      37.422  34.983  41.544  1.00  0.00    -0.237 OA
ATOM     85  O   UNL A   1      36.430  33.116  40.301  1.00  0.00    -0.744 OA
ENDBRANCH  79  82
ENDBRANCH  51  75
BRANCH  63  86
ATOM     86  C   UNL A   1      44.136  28.923  35.411  1.00  0.00     0.023 A 
ATOM     87  C   UNL A   1      45.412  29.487  35.217  1.00  0.00     0.012 A 
ATOM     88  C   UNL A   1      43.981  27.858  36.318  1.00  0.00     0.148 A 
ATOM     89  C   UNL A   1      46.521  28.981  35.893  1.00  0.00     0.002 A 
ATOM     90  C   UNL A   1      45.083  27.389  37.025  1.00  0.00     0.091 A 
ATOM     91  F   UNL A   1      42.762  27.322  36.475  1.00  0.00    -0.205 F 
ATOM     92  C   UNL A   1      46.355  27.942  36.806  1.00  0.00     0.022 A 
BRANCH  90  93
ATOM     93  S   UNL A   1      44.945  26.119  38.288  1.00  0.00     0.127 S 
ATOM     94  O   UNL A   1      44.083  26.770  39.273  1.00  0.00    -0.237 OA
ATOM     95  O   UNL A   1      44.312  25.019  37.557  1.00  0.00    -0.237 OA
ATOM     96  O   UNL A   1      46.305  25.844  38.729  1.00  0.00    -0.744 OA
ENDBRANCH  90  93
ENDBRANCH  63  86
ENDBRANCH  37  38
ENDBRANCH  29  32
ENDBRANCH  27  28
ENDBRANCH  26  27
ENDBRANCH  25  26
ENDBRANCH   1  25
TORSDOF 19
ENDMDL
MODEL 3
REMARK VINA RESULT:     -10.8      3.606      5.122
REMARK SMILES C[C@@H]1CCCN(C(=O)NC2(CC(=O)NCCCCCCNC(=O)c3ccc(-c4c5nc(c(-c6cccc(S(=O)(=O)[O-])c6F)c6ccc([nH]6)c(-c6cccc(S(=O)(=O)[O-])c6F)c6nc(c(-c7cccc(S(=O)(=O)[O-])c7F)c7ccc4[nH]7)C=C6)C=C5)cc3)CCC2)[C@@H]1C
REMARK SMILES IDX 17 1 16 2 15 3 14 4 12 5 13 6 11 8 10 9 87 10 89 11 88 12
REMARK SMILES IDX 9 13 7 14 8 15 6 17 1 18 2 19 3 20 90 21 4 22 91 23 5 24
REMARK SMILES IDX 18 25 19 26 20 27 21 28 22 29 23 31 24 32 25 33 86 34 26 35
REMARK SMILES IDX 85 36 27 37 28 38 29 39 79 40 30 41 84 42 78 43 80 44 31 45
REMARK SMILES IDX 83 46 77 47 76 48 32 50 64 51 44 52 63 53 45 54 48 55 62 56
REMARK SMILES IDX 81 57 46 58 47 59 61 61 82 62 49 63 33 64 34 65 42 66 35 67
REMARK SMILES IDX 37 68 43 69 36 70 38 71 39 72 40 73 41 74 65 75 66 76 74 77
REMARK SMILES IDX 67 78 69 79 75 80 68 81 70 82 71 83 72 84 73 85 50 86 51 87
REMARK SMILES IDX 59 88 52 89 54 90 60 91 53 92 55 93 56 94 57 95 58 96
REMARK H PARENT 14 7 9 16 21 30 80 49 48 60
REMARK Flexibility Score: inf
ROOT
ATOM      1  C   UNL A   1      40.538  22.666  26.650  1.00  0.00     0.002 C 
ENDROOT
BRANCH   1   2
ATOM      2  C   UNL A   1      39.086  23.152  26.584  1.00  0.00     0.021 C 
BRANCH   2   3
ATOM      3  C   UNL A   1      38.178  22.214  25.781  1.00  0.00     0.116 C 
BRANCH   3   4
ATOM      4  N   UNL A   1      37.792  22.839  24.535  1.00  0.00    -0.356 N 
ATOM      5  C   UNL A   1      36.622  22.740  23.854  1.00  0.00     0.222 C 
ATOM      6  O   UNL A   1      36.589  23.153  22.693  1.00  0.00    -0.275 OA
ATOM      7  H   UNL A   1      38.475  23.418  24.123  1.00  0.00     0.163 HD
BRANCH   5   8
ATOM      8  C   UNL A   1      35.376  22.159  24.493  1.00  0.00     0.128 C 
BRANCH   8   9
ATOM      9  C   UNL A   1      34.171  23.113  24.733  1.00  0.00     0.051 C 
ATOM     10  C   UNL A   1      34.357  23.871  26.074  1.00  0.00     0.029 C 
ATOM     11  C   UNL A   1      32.970  22.361  25.350  1.00  0.00     0.029 C 
ATOM     12  C   UNL A   1      33.332  22.935  26.733  1.00  0.00     0.005 C 
BRANCH   9  13
ATOM     13  N   UNL A   1      33.977  23.994  23.554  1.00  0.00    -0.332 N 
ATOM     14  C   UNL A   1      33.603  25.231  23.161  1.00  0.00     0.318 C 
ATOM     15  O   UNL A   1      33.916  25.431  21.980  1.00  0.00    -0.249 OA
ATOM     16  H   UNL A   1      34.212  23.479  22.749  1.00  0.00     0.165 HD
BRANCH  14  17
ATOM     17  N   UNL A   1      32.957  26.176  23.905  1.00  0.00    -0.322 N 
ATOM     18  C   UNL A   1      30.726  27.619  22.318  1.00  0.00     0.010 C 
ATOM     19  C   UNL A   1      30.762  27.383  23.833  1.00  0.00     0.008 C 
ATOM     20  C   UNL A   1      31.401  28.576  24.561  1.00  0.00     0.007 C 
ATOM     21  C   UNL A   1      31.500  26.071  24.223  1.00  0.00     0.086 C 
ATOM     22  C   UNL A   1      32.902  28.631  24.329  1.00  0.00     0.022 C 
ATOM     23  C   UNL A   1      30.702  24.846  23.761  1.00  0.00     0.031 C 
ATOM     24  C   UNL A   1      33.562  27.289  24.621  1.00  0.00     0.121 C 
ENDBRANCH  14  17
ENDBRANCH   9  13
ENDBRANCH   8   9
ENDBRANCH   5   8
ENDBRANCH   3   4
ENDBRANCH   2   3
ENDBRANCH   1   2
BRANCH   1  25
ATOM     25  C   UNL A   1      40.829  21.729  27.828  1.00  0.00     0.002 C 
BRANCH  25  26
ATOM     26  C   UNL A   1      41.249  20.307  27.440  1.00  0.00     0.021 C 
BRANCH  26  27
ATOM     27  C   UNL A   1      41.199  20.019  25.941  1.00  0.00     0.116 C 
BRANCH  27  28
ATOM     28  N   UNL A   1      42.428  19.388  25.481  1.00  0.00    -0.352 N 
ATOM     29  C   UNL A   1      43.621  19.966  25.124  1.00  0.00     0.251 C 
ATOM     30  H   UNL A   1      42.399  18.407  25.417  1.00  0.00     0.163 HD
ATOM     31  O   UNL A   1      44.452  19.315  24.498  1.00  0.00    -0.269 OA
BRANCH  29  32
ATOM     32  C   UNL A   1      43.902  21.368  25.497  1.00  0.00     0.039 A 
ATOM     33  C   UNL A   1      43.658  22.383  24.568  1.00  0.00     0.014 A 
ATOM     34  C   UNL A   1      44.440  21.675  26.750  1.00  0.00     0.014 A 
ATOM     35  C   UNL A   1      43.912  23.712  24.913  1.00  0.00     0.010 A 
ATOM     36  C   UNL A   1      44.629  23.005  27.116  1.00  0.00     0.010 A 
ATOM     37  C   UNL A   1      44.379  24.036  26.199  1.00  0.00    -0.014 A 
BRANCH  37  38
ATOM     38  C   UNL A   1      44.611  25.444  26.605  1.00  0.00     0.031 A 
ATOM     39  C   UNL A   1      45.998  26.027  26.559  1.00  0.00     0.074 A 
ATOM     40  C   UNL A   1      43.591  26.167  27.105  1.00  0.00     0.049 A 
ATOM     41  N   UNL A   1      46.406  27.212  26.933  1.00  0.00    -0.248 NA
ATOM     42  C   UNL A   1      47.070  25.154  26.055  1.00  0.00     0.031 C 
ATOM     43  C   UNL A   1      42.220  25.684  27.280  1.00  0.00     0.029 A 
ATOM     44  N   UNL A   1      43.555  27.451  27.587  1.00  0.00    -0.354 N 
ATOM     45  C   UNL A   1      47.783  27.215  26.745  1.00  0.00     0.074 A 
ATOM     46  C   UNL A   1      48.146  25.902  26.257  1.00  0.00     0.031 C 
ATOM     47  C   UNL A   1      41.479  26.657  27.833  1.00  0.00     0.029 A 
ATOM     48  C   UNL A   1      42.324  27.822  28.074  1.00  0.00     0.049 A 
ATOM     49  H   UNL A   1      44.337  28.049  27.585  1.00  0.00     0.167 HD
ATOM     50  C   UNL A   1      48.663  28.228  26.929  1.00  0.00     0.034 A 
ATOM     51  C   UNL A   1      41.923  28.969  28.656  1.00  0.00     0.034 A 
ATOM     52  C   UNL A   1      48.291  29.546  27.371  1.00  0.00     0.049 A 
ATOM     53  C   UNL A   1      42.905  30.099  28.801  1.00  0.00     0.074 A 
ATOM     54  C   UNL A   1      49.089  30.667  27.500  1.00  0.00     0.029 A 
ATOM     55  N   UNL A   1      47.013  29.918  27.760  1.00  0.00    -0.354 N 
ATOM     56  N   UNL A   1      44.171  30.137  28.462  1.00  0.00    -0.248 NA
ATOM     57  C   UNL A   1      42.397  31.355  29.370  1.00  0.00     0.031 C 
ATOM     58  C   UNL A   1      48.297  31.714  27.985  1.00  0.00     0.029 A 
ATOM     59  C   UNL A   1      47.000  31.250  28.137  1.00  0.00     0.049 A 
ATOM     60  H   UNL A   1      46.229  29.321  27.766  1.00  0.00     0.167 HD
ATOM     61  C   UNL A   1      44.604  31.428  28.746  1.00  0.00     0.074 A 
ATOM     62  C   UNL A   1      43.457  32.145  29.265  1.00  0.00     0.031 C 
ATOM     63  C   UNL A   1      45.841  31.965  28.605  1.00  0.00     0.034 A 
BRANCH  50  64
ATOM     64  C   UNL A   1      50.109  27.964  26.598  1.00  0.00     0.023 A 
ATOM     65  C   UNL A   1      51.008  27.634  27.635  1.00  0.00     0.012 A 
ATOM     66  C   UNL A   1      50.572  27.998  25.269  1.00  0.00     0.148 A 
ATOM     67  C   UNL A   1      52.352  27.385  27.359  1.00  0.00     0.002 A 
ATOM     68  C   UNL A   1      51.904  27.705  24.997  1.00  0.00     0.091 A 
ATOM     69  F   UNL A   1      49.711  28.337  24.298  1.00  0.00    -0.205 F 
ATOM     70  C   UNL A   1      52.797  27.410  26.041  1.00  0.00     0.022 A 
BRANCH  68  71
ATOM     71  S   UNL A   1      52.555  27.637  23.324  1.00  0.00     0.127 S 
ATOM     72  O   UNL A   1      53.870  27.035  23.542  1.00  0.00    -0.237 OA
ATOM     73  O   UNL A   1      51.591  26.767  22.650  1.00  0.00    -0.237 OA
ATOM     74  O   UNL A   1      52.565  29.013  22.845  1.00  0.00    -0.744 OA
ENDBRANCH  68  71
ENDBRANCH  50  64
BRANCH  51  75
ATOM     75  C   UNL A   1      40.500  29.124  29.073  1.00  0.00     0.023 A 
ATOM     76  C   UNL A   1      39.508  29.296  28.088  1.00  0.00     0.012 A 
ATOM     77  C   UNL A   1      40.121  29.045  30.426  1.00  0.00     0.148 A 
ATOM     78  C   UNL A   1      38.165  29.411  28.447  1.00  0.00     0.002 A 
ATOM     79  C   UNL A   1      38.776  29.106  30.772  1.00  0.00     0.091 A 
ATOM     80  F   UNL A   1      41.082  28.891  31.347  1.00  0.00    -0.205 F 
ATOM     81  C   UNL A   1      37.798  29.305  29.785  1.00  0.00     0.022 A 
BRANCH  79  82
ATOM     82  S   UNL A   1      38.201  28.842  32.453  1.00  0.00     0.127 S 
ATOM     83  O   UNL A   1      38.598  27.458  32.692  1.00  0.00    -0.237 OA
ATOM     84  O   UNL A   1      38.970  29.842  33.195  1.00  0.00    -0.237 OA
ATOM     85  O   UNL A   1      36.766  29.094  32.424  1.00  0.00    -0.744 OA
ENDBRANCH  79  82
ENDBRANCH  51  75
BRANCH  63  86
ATOM     86  C   UNL A   1      46.023  33.409  28.992  1.00  0.00     0.023 A 
ATOM     87  C   UNL A   1      46.531  33.733  30.265  1.00  0.00     0.012 A 
ATOM     88  C   UNL A   1      45.765  34.440  28.067  1.00  0.00     0.148 A 
ATOM     89  C   UNL A   1      46.752  35.062  30.623  1.00  0.00     0.002 A 
ATOM     90  C   UNL A   1      46.033  35.759  28.414  1.00  0.00     0.091 A 
ATOM     91  F   UNL A   1      45.264  34.113  26.867  1.00  0.00    -0.205 F 
ATOM     92  C   UNL A   1      46.515  36.073  29.694  1.00  0.00     0.022 A 
BRANCH  90  93
ATOM     93  S   UNL A   1      45.847  37.115  27.249  1.00  0.00     0.127 S 
ATOM     94  O   UNL A   1      46.353  38.245  28.026  1.00  0.00    -0.237 OA
ATOM     95  O   UNL A   1      46.713  36.698  26.145  1.00  0.00    -0.237 OA
ATOM     96  O   UNL A   1      44.430  37.166  26.917  1.00  0.00    -0.744 OA
ENDBRANCH  90  93
ENDBRANCH  63  86
ENDBRANCH  37  38
ENDBRANCH  29  32
ENDBRANCH  27  28
ENDBRANCH  26  27
ENDBRANCH  25  26
ENDBRANCH   1  25
TORSDOF 19
ENDMDL
