MODEL 1
REMARK VINA RESULT:     -10.6      0.000      0.000
REMARK SMILES COc1cccc(N2C(=O)C[C@@H](SC[C@@H](NC(C)=O)C(=O)NCCCCCCNC(=O)c3ccc(-c4c5nc(c(-c6cccc(S(=O)(=O)[O-])c6F)c6ccc([nH]6)c(-c6cccc(S(=O)(=O)[O-])c6F)c6nc(c(-c7cccc(S(=O)(=O)[O-])c7F)c7ccc4[nH]7)C=C6)C=C5)cc3)C2=O)c1
REMARK SMILES IDX 24 1 23 2 22 3 20 4 21 5 15 7 14 8 13 9 12 10 8 11 9 12
REMARK SMILES IDX 95 13 10 14 11 15 96 16 7 17 3 18 4 19 97 20 5 21 6 22 2 23
REMARK SMILES IDX 1 24 16 25 17 26 18 28 19 29 25 30 26 31 27 32 28 33 29 34
REMARK SMILES IDX 30 35 31 37 32 38 33 39 94 40 34 41 93 42 35 43 36 44 37 45
REMARK SMILES IDX 87 46 38 47 92 48 86 49 88 50 39 51 91 52 85 53 84 54 40 56
REMARK SMILES IDX 72 57 52 58 71 59 53 60 56 61 70 62 89 63 54 64 55 65 69 67
REMARK SMILES IDX 90 68 57 69 41 70 42 71 50 72 43 73 45 74 51 75 44 76 46 77
REMARK SMILES IDX 47 78 48 79 49 80 73 81 74 82 82 83 75 84 77 85 83 86 76 87
REMARK SMILES IDX 78 88 79 89 80 90 81 91 58 92 59 93 67 94 60 95 62 96 68 97
REMARK SMILES IDX 61 98 63 99 64 100 65 101 66 102
REMARK H PARENT 22 6 16 27 29 36 88 55 56 66
REMARK Flexibility Score: inf
ROOT
ATOM      1  C   UNL A   1      37.585  23.624  25.546  1.00  0.00     0.021 C 
ENDROOT
BRANCH   1   2
ATOM      2  C   UNL A   1      36.348  22.741  25.683  1.00  0.00     0.116 C 
BRANCH   2   3
ATOM      3  N   UNL A   1      36.621  21.409  25.191  1.00  0.00    -0.354 N 
ATOM      4  C   UNL A   1      35.781  20.356  25.000  1.00  0.00     0.243 C 
ATOM      5  O   UNL A   1      36.289  19.270  24.698  1.00  0.00    -0.273 OA
ATOM      6  H   UNL A   1      37.563  21.237  24.959  1.00  0.00     0.163 HD
BRANCH   4   7
ATOM      7  C   UNL A   1      34.268  20.444  25.315  1.00  0.00     0.181 C 
BRANCH   7   8
ATOM      8  C   UNL A   1      33.576  21.113  24.095  1.00  0.00     0.105 C 
BRANCH   8   9
ATOM      9  S   UNL A   1      32.014  22.030  24.446  1.00  0.00    -0.145 SA
BRANCH   9  10
ATOM     10  C   UNL A   1      31.935  23.431  23.253  1.00  0.00     0.146 C 
ATOM     11  N   UNL A   1      31.840  25.767  23.163  1.00  0.00    -0.249 N 
ATOM     12  C   UNL A   1      32.912  25.407  22.384  1.00  0.00     0.235 C 
ATOM     13  C   UNL A   1      31.281  24.684  23.817  1.00  0.00     0.247 C 
ATOM     14  O   UNL A   1      33.649  26.092  21.697  1.00  0.00    -0.274 OA
ATOM     15  C   UNL A   1      33.183  23.961  22.596  1.00  0.00     0.125 C 
ATOM     16  O   UNL A   1      30.337  24.682  24.596  1.00  0.00    -0.273 OA
BRANCH  11  17
ATOM     17  C   UNL A   1      31.412  27.111  23.283  1.00  0.00     0.055 A 
ATOM     18  C   UNL A   1      31.410  29.209  24.524  1.00  0.00     0.120 A 
ATOM     19  C   UNL A   1      30.434  29.704  23.661  1.00  0.00     0.046 A 
ATOM     20  C   UNL A   1      31.871  27.905  24.351  1.00  0.00     0.073 A 
ATOM     21  C   UNL A   1      29.981  28.935  22.589  1.00  0.00     0.006 A 
ATOM     22  C   UNL A   1      30.491  27.653  22.381  1.00  0.00     0.027 A 
BRANCH  18  23
ATOM     23  O   UNL A   1      31.806  30.067  25.511  1.00  0.00    -0.497 OA
ATOM     24  C   UNL A   1      33.098  29.852  26.071  1.00  0.00     0.278 C 
ENDBRANCH  18  23
ENDBRANCH  11  17
ENDBRANCH   9  10
ENDBRANCH   8   9
ENDBRANCH   7   8
BRANCH   7  25
ATOM     25  N   UNL A   1      33.600  19.195  25.690  1.00  0.00    -0.344 N 
ATOM     26  C   UNL A   1      33.209  18.206  24.817  1.00  0.00     0.217 C 
ATOM     27  H   UNL A   1      33.415  19.051  26.647  1.00  0.00     0.164 HD
ATOM     28  C   UNL A   1      32.502  17.062  25.500  1.00  0.00     0.114 C 
ATOM     29  O   UNL A   1      33.323  18.268  23.600  1.00  0.00    -0.275 OA
ENDBRANCH   7  25
ENDBRANCH   4   7
ENDBRANCH   2   3
ENDBRANCH   1   2
BRANCH   1  30
ATOM     30  C   UNL A   1      38.408  23.703  26.836  1.00  0.00     0.002 C 
BRANCH  30  31
ATOM     31  C   UNL A   1      39.773  23.011  26.752  1.00  0.00     0.002 C 
BRANCH  31  32
ATOM     32  C   UNL A   1      39.746  21.616  26.123  1.00  0.00     0.021 C 
BRANCH  32  33
ATOM     33  C   UNL A   1      40.432  20.540  26.957  1.00  0.00     0.116 C 
BRANCH  33  34
ATOM     34  N   UNL A   1      41.549  19.942  26.244  1.00  0.00    -0.352 N 
ATOM     35  C   UNL A   1      42.680  20.538  25.749  1.00  0.00     0.251 C 
ATOM     36  H   UNL A   1      41.484  18.971  26.095  1.00  0.00     0.163 HD
ATOM     37  O   UNL A   1      43.407  19.921  24.976  1.00  0.00    -0.269 OA
BRANCH  35  38
ATOM     38  C   UNL A   1      43.016  21.920  26.148  1.00  0.00     0.039 A 
ATOM     39  C   UNL A   1      43.029  22.919  25.173  1.00  0.00     0.014 A 
ATOM     40  C   UNL A   1      43.348  22.223  27.472  1.00  0.00     0.014 A 
ATOM     41  C   UNL A   1      43.355  24.227  25.532  1.00  0.00     0.010 A 
ATOM     42  C   UNL A   1      43.590  23.541  27.842  1.00  0.00     0.010 A 
ATOM     43  C   UNL A   1      43.625  24.551  26.872  1.00  0.00    -0.014 A 
BRANCH  43  44
ATOM     44  C   UNL A   1      43.980  25.938  27.265  1.00  0.00     0.031 A 
ATOM     45  C   UNL A   1      45.393  26.430  27.100  1.00  0.00     0.074 A 
ATOM     46  C   UNL A   1      43.043  26.734  27.816  1.00  0.00     0.049 A 
ATOM     47  N   UNL A   1      45.898  27.599  27.395  1.00  0.00    -0.248 NA
ATOM     48  C   UNL A   1      46.377  25.475  26.560  1.00  0.00     0.031 C 
ATOM     49  C   UNL A   1      41.660  26.344  28.097  1.00  0.00     0.029 A 
ATOM     50  N   UNL A   1      43.119  28.031  28.255  1.00  0.00    -0.354 N 
ATOM     51  C   UNL A   1      47.256  27.512  27.109  1.00  0.00     0.074 A 
ATOM     52  C   UNL A   1      47.506  26.162  26.659  1.00  0.00     0.031 C 
ATOM     53  C   UNL A   1      41.014  27.383  28.651  1.00  0.00     0.029 A 
ATOM     54  C   UNL A   1      41.942  28.502  28.788  1.00  0.00     0.049 A 
ATOM     55  H   UNL A   1      43.938  28.574  28.195  1.00  0.00     0.167 HD
ATOM     56  C   UNL A   1      48.204  28.475  27.183  1.00  0.00     0.034 A 
ATOM     57  C   UNL A   1      41.645  29.700  29.327  1.00  0.00     0.034 A 
ATOM     58  C   UNL A   1      47.941  29.828  27.596  1.00  0.00     0.049 A 
ATOM     59  C   UNL A   1      42.705  30.769  29.352  1.00  0.00     0.074 A 
ATOM     60  C   UNL A   1      48.813  30.901  27.634  1.00  0.00     0.029 A 
ATOM     61  N   UNL A   1      46.715  30.292  28.047  1.00  0.00    -0.354 N 
ATOM     62  N   UNL A   1      43.948  30.710  28.937  1.00  0.00    -0.248 NA
ATOM     63  C   UNL A   1      42.309  32.083  29.877  1.00  0.00     0.031 C 
ATOM     64  C   UNL A   1      48.120  32.009  28.134  1.00  0.00     0.029 A 
ATOM     65  C   UNL A   1      46.806  31.635  28.367  1.00  0.00     0.049 A 
ATOM     66  H   UNL A   1      45.899  29.747  28.125  1.00  0.00     0.167 HD
ATOM     67  C   UNL A   1      44.467  31.989  29.107  1.00  0.00     0.074 A 
ATOM     68  C   UNL A   1      43.398  32.803  29.646  1.00  0.00     0.031 C 
ATOM     69  C   UNL A   1      45.718  32.445  28.849  1.00  0.00     0.034 A 
BRANCH  56  70
ATOM     70  C   UNL A   1      49.607  28.114  26.767  1.00  0.00     0.023 A 
ATOM     71  C   UNL A   1      49.964  28.162  25.402  1.00  0.00     0.012 A 
ATOM     72  C   UNL A   1      50.585  27.780  27.724  1.00  0.00     0.148 A 
ATOM     73  C   UNL A   1      51.260  27.847  24.994  1.00  0.00     0.002 A 
ATOM     74  C   UNL A   1      51.887  27.515  27.313  1.00  0.00     0.091 A 
ATOM     75  F   UNL A   1      50.224  27.719  29.012  1.00  0.00    -0.205 F 
ATOM     76  C   UNL A   1      52.222  27.535  25.950  1.00  0.00     0.022 A 
BRANCH  74  77
ATOM     77  S   UNL A   1      53.221  27.185  28.470  1.00  0.00     0.127 S 
ATOM     78  O   UNL A   1      54.275  26.709  27.577  1.00  0.00    -0.237 OA
ATOM     79  O   UNL A   1      53.462  28.508  29.046  1.00  0.00    -0.237 OA
ATOM     80  O   UNL A   1      52.706  26.197  29.408  1.00  0.00    -0.744 OA
ENDBRANCH  74  77
ENDBRANCH  56  70
BRANCH  57  81
ATOM     81  C   UNL A   1      40.265  29.979  29.817  1.00  0.00     0.023 A 
ATOM     82  C   UNL A   1      39.272  30.377  28.900  1.00  0.00     0.012 A 
ATOM     83  C   UNL A   1      39.927  29.838  31.177  1.00  0.00     0.148 A 
ATOM     84  C   UNL A   1      37.979  30.672  29.335  1.00  0.00     0.002 A 
ATOM     85  C   UNL A   1      38.623  30.079  31.594  1.00  0.00     0.091 A 
ATOM     86  F   UNL A   1      40.886  29.462  32.034  1.00  0.00    -0.205 F 
ATOM     87  C   UNL A   1      37.653  30.515  30.679  1.00  0.00     0.022 A 
BRANCH  85  88
ATOM     88  S   UNL A   1      38.080  29.780  33.280  1.00  0.00     0.127 S 
ATOM     89  O   UNL A   1      37.390  28.499  33.152  1.00  0.00    -0.237 OA
ATOM     90  O   UNL A   1      39.352  29.725  34.002  1.00  0.00    -0.237 OA
ATOM     91  O   UNL A   1      37.240  30.917  33.634  1.00  0.00    -0.744 OA
ENDBRANCH  85  88
ENDBRANCH  57  81
BRANCH  69  92
ATOM     92  C   UNL A   1      45.988  33.909  29.085  1.00  0.00     0.023 A 
ATOM     93  C   UNL A   1      46.441  34.354  30.343  1.00  0.00     0.012 A 
ATOM     94  C   UNL A   1      45.845  34.836  28.034  1.00  0.00     0.148 A 
ATOM     95  C   UNL A   1      46.705  35.706  30.562  1.00  0.00     0.002 A 
ATOM     96  C   UNL A   1      46.163  36.172  28.244  1.00  0.00     0.091 A 
ATOM     97  F   UNL A   1      45.395  34.398  26.850  1.00  0.00    -0.205 F 
ATOM     98  C   UNL A   1      46.577  36.612  29.512  1.00  0.00     0.022 A 
BRANCH  96  99
ATOM     99  S   UNL A   1      46.126  37.386  26.921  1.00  0.00     0.127 S 
ATOM    100  O   UNL A   1      47.095  38.373  27.395  1.00  0.00    -0.237 OA
ATOM    101  O   UNL A   1      46.570  36.602  25.768  1.00  0.00    -0.237 OA
ATOM    102  O   UNL A   1      44.748  37.849  26.840  1.00  0.00    -0.744 OA
ENDBRANCH  96  99
ENDBRANCH  69  92
ENDBRANCH  43  44
ENDBRANCH  35  38
ENDBRANCH  33  34
ENDBRANCH  32  33
ENDBRANCH  31  32
ENDBRANCH  30  31
ENDBRANCH   1  30
TORSDOF 22
ENDMDL
MODEL 2
REMARK VINA RESULT:     -10.5      1.679      7.449
REMARK SMILES COc1cccc(N2C(=O)C[C@@H](SC[C@@H](NC(C)=O)C(=O)NCCCCCCNC(=O)c3ccc(-c4c5nc(c(-c6cccc(S(=O)(=O)[O-])c6F)c6ccc([nH]6)c(-c6cccc(S(=O)(=O)[O-])c6F)c6nc(c(-c7cccc(S(=O)(=O)[O-])c7F)c7ccc4[nH]7)C=C6)C=C5)cc3)C2=O)c1
REMARK SMILES IDX 24 1 23 2 22 3 20 4 21 5 15 7 14 8 13 9 12 10 8 11 9 12
REMARK SMILES IDX 95 13 10 14 11 15 96 16 7 17 3 18 4 19 97 20 5 21 6 22 2 23
REMARK SMILES IDX 1 24 16 25 17 26 18 28 19 29 25 30 26 31 27 32 28 33 29 34
REMARK SMILES IDX 30 35 31 37 32 38 33 39 94 40 34 41 93 42 35 43 36 44 37 45
REMARK SMILES IDX 87 46 38 47 92 48 86 49 88 50 39 51 91 52 85 53 84 54 40 56
REMARK SMILES IDX 72 57 52 58 71 59 53 60 56 61 70 62 89 63 54 64 55 65 69 67
REMARK SMILES IDX 90 68 57 69 41 70 42 71 50 72 43 73 45 74 51 75 44 76 46 77
REMARK SMILES IDX 47 78 48 79 49 80 73 81 74 82 82 83 75 84 77 85 83 86 76 87
REMARK SMILES IDX 78 88 79 89 80 90 81 91 58 92 59 93 67 94 60 95 62 96 68 97
REMARK SMILES IDX 61 98 63 99 64 100 65 101 66 102
REMARK H PARENT 22 6 16 27 29 36 88 55 56 66
REMARK Flexibility Score: inf
ROOT
ATOM      1  C   UNL A   1      37.440  23.528  25.705  1.00  0.00     0.021 C 
ENDROOT
BRANCH   1   2
ATOM      2  C   UNL A   1      36.272  22.547  25.739  1.00  0.00     0.116 C 
BRANCH   2   3
ATOM      3  N   UNL A   1      36.716  21.219  25.378  1.00  0.00    -0.354 N 
ATOM      4  C   UNL A   1      35.997  20.129  24.994  1.00  0.00     0.243 C 
ATOM      5  O   UNL A   1      36.606  19.060  24.874  1.00  0.00    -0.273 OA
ATOM      6  H   UNL A   1      37.690  21.081  25.419  1.00  0.00     0.163 HD
BRANCH   4   7
ATOM      7  C   UNL A   1      34.454  20.160  24.879  1.00  0.00     0.181 C 
BRANCH   7   8
ATOM      8  C   UNL A   1      34.071  21.440  24.083  1.00  0.00     0.105 C 
BRANCH   8   9
ATOM      9  S   UNL A   1      32.320  22.000  24.232  1.00  0.00    -0.145 SA
BRANCH   9  10
ATOM     10  C   UNL A   1      32.123  23.448  23.112  1.00  0.00     0.146 C 
ATOM     11  N   UNL A   1      31.909  25.778  23.139  1.00  0.00    -0.249 N 
ATOM     12  C   UNL A   1      32.963  25.509  22.301  1.00  0.00     0.235 C 
ATOM     13  C   UNL A   1      31.432  24.639  23.762  1.00  0.00     0.247 C 
ATOM     14  O   UNL A   1      33.637  26.262  21.619  1.00  0.00    -0.274 OA
ATOM     15  C   UNL A   1      33.314  24.071  22.432  1.00  0.00     0.125 C 
ATOM     16  O   UNL A   1      30.523  24.552  24.577  1.00  0.00    -0.273 OA
BRANCH  11  17
ATOM     17  C   UNL A   1      31.421  27.091  23.340  1.00  0.00     0.055 A 
ATOM     18  C   UNL A   1      30.177  29.016  22.510  1.00  0.00     0.120 A 
ATOM     19  C   UNL A   1      30.606  29.752  23.614  1.00  0.00     0.046 A 
ATOM     20  C   UNL A   1      30.613  27.700  22.362  1.00  0.00     0.073 A 
ATOM     21  C   UNL A   1      31.394  29.158  24.599  1.00  0.00     0.006 A 
ATOM     22  C   UNL A   1      31.776  27.821  24.479  1.00  0.00     0.027 A 
BRANCH  18  23
ATOM     23  O   UNL A   1      29.375  29.691  21.634  1.00  0.00    -0.497 OA
ATOM     24  C   UNL A   1      28.963  31.000  22.017  1.00  0.00     0.278 C 
ENDBRANCH  18  23
ENDBRANCH  11  17
ENDBRANCH   9  10
ENDBRANCH   8   9
ENDBRANCH   7   8
BRANCH   7  25
ATOM     25  N   UNL A   1      33.811  18.970  24.317  1.00  0.00    -0.344 N 
ATOM     26  C   UNL A   1      32.886  18.183  24.963  1.00  0.00     0.217 C 
ATOM     27  H   UNL A   1      34.062  18.711  23.400  1.00  0.00     0.164 HD
ATOM     28  C   UNL A   1      32.442  16.998  24.140  1.00  0.00     0.114 C 
ATOM     29  O   UNL A   1      32.518  18.348  26.118  1.00  0.00    -0.275 OA
ENDBRANCH   7  25
ENDBRANCH   4   7
ENDBRANCH   2   3
ENDBRANCH   1   2
BRANCH   1  30
ATOM     30  C   UNL A   1      38.403  23.350  26.883  1.00  0.00     0.002 C 
BRANCH  30  31
ATOM     31  C   UNL A   1      39.756  22.740  26.500  1.00  0.00     0.002 C 
BRANCH  31  32
ATOM     32  C   UNL A   1      39.685  21.304  25.974  1.00  0.00     0.021 C 
BRANCH  32  33
ATOM     33  C   UNL A   1      40.319  20.268  26.895  1.00  0.00     0.116 C 
BRANCH  33  34
ATOM     34  N   UNL A   1      41.402  19.557  26.236  1.00  0.00    -0.352 N 
ATOM     35  C   UNL A   1      42.575  20.048  25.723  1.00  0.00     0.251 C 
ATOM     36  H   UNL A   1      41.276  18.585  26.144  1.00  0.00     0.163 HD
ATOM     37  O   UNL A   1      43.269  19.341  24.999  1.00  0.00    -0.269 OA
BRANCH  35  38
ATOM     38  C   UNL A   1      42.996  21.427  26.045  1.00  0.00     0.039 A 
ATOM     39  C   UNL A   1      43.318  21.744  27.365  1.00  0.00     0.014 A 
ATOM     40  C   UNL A   1      43.043  22.411  25.053  1.00  0.00     0.014 A 
ATOM     41  C   UNL A   1      43.707  23.044  27.687  1.00  0.00     0.010 A 
ATOM     42  C   UNL A   1      43.512  23.683  25.360  1.00  0.00     0.010 A 
ATOM     43  C   UNL A   1      43.821  24.021  26.684  1.00  0.00    -0.014 A 
BRANCH  43  44
ATOM     44  C   UNL A   1      44.227  25.410  27.014  1.00  0.00     0.031 A 
ATOM     45  C   UNL A   1      43.222  26.375  27.584  1.00  0.00     0.074 A 
ATOM     46  C   UNL A   1      45.485  25.815  26.754  1.00  0.00     0.049 A 
ATOM     47  N   UNL A   1      43.382  27.627  27.924  1.00  0.00    -0.248 NA
ATOM     48  C   UNL A   1      41.847  25.879  27.770  1.00  0.00     0.031 C 
ATOM     49  C   UNL A   1      46.527  24.995  26.132  1.00  0.00     0.029 A 
ATOM     50  N   UNL A   1      46.096  27.026  26.963  1.00  0.00    -0.354 N 
ATOM     51  C   UNL A   1      42.130  28.076  28.331  1.00  0.00     0.074 A 
ATOM     52  C   UNL A   1      41.210  26.975  28.154  1.00  0.00     0.031 C 
ATOM     53  C   UNL A   1      47.651  25.722  26.021  1.00  0.00     0.029 A 
ATOM     54  C   UNL A   1      47.403  27.065  26.537  1.00  0.00     0.049 A 
ATOM     55  H   UNL A   1      45.642  27.794  27.379  1.00  0.00     0.167 HD
ATOM     56  C   UNL A   1      41.782  29.282  28.836  1.00  0.00     0.034 A 
ATOM     57  C   UNL A   1      48.299  28.069  26.561  1.00  0.00     0.034 A 
ATOM     58  C   UNL A   1      42.711  30.361  29.045  1.00  0.00     0.049 A 
ATOM     59  C   UNL A   1      47.900  29.386  27.173  1.00  0.00     0.074 A 
ATOM     60  C   UNL A   1      42.479  31.597  29.621  1.00  0.00     0.029 A 
ATOM     61  N   UNL A   1      44.049  30.333  28.682  1.00  0.00    -0.354 N 
ATOM     62  N   UNL A   1      46.749  29.741  27.690  1.00  0.00    -0.248 NA
ATOM     63  C   UNL A   1      48.937  30.424  27.246  1.00  0.00     0.031 C 
ATOM     64  C   UNL A   1      43.671  32.328  29.581  1.00  0.00     0.029 A 
ATOM     65  C   UNL A   1      44.655  31.531  29.018  1.00  0.00     0.049 A 
ATOM     66  H   UNL A   1      44.501  29.573  28.250  1.00  0.00     0.167 HD
ATOM     67  C   UNL A   1      46.937  31.024  28.191  1.00  0.00     0.074 A 
ATOM     68  C   UNL A   1      48.317  31.375  27.931  1.00  0.00     0.031 C 
ATOM     69  C   UNL A   1      46.045  31.842  28.804  1.00  0.00     0.034 A 
BRANCH  56  70
ATOM     70  C   UNL A   1      40.345  29.486  29.241  1.00  0.00     0.023 A 
ATOM     71  C   UNL A   1      39.379  29.789  28.258  1.00  0.00     0.012 A 
ATOM     72  C   UNL A   1      39.938  29.327  30.580  1.00  0.00     0.148 A 
ATOM     73  C   UNL A   1      38.040  29.966  28.605  1.00  0.00     0.002 A 
ATOM     74  C   UNL A   1      38.594  29.457  30.911  1.00  0.00     0.091 A 
ATOM     75  F   UNL A   1      40.871  29.061  31.504  1.00  0.00    -0.205 F 
ATOM     76  C   UNL A   1      37.647  29.790  29.929  1.00  0.00     0.022 A 
BRANCH  74  77
ATOM     77  S   UNL A   1      37.971  29.168  32.571  1.00  0.00     0.127 S 
ATOM     78  O   UNL A   1      36.625  29.731  32.483  1.00  0.00    -0.237 OA
ATOM     79  O   UNL A   1      38.016  27.708  32.665  1.00  0.00    -0.237 OA
ATOM     80  O   UNL A   1      38.881  29.864  33.470  1.00  0.00    -0.744 OA
ENDBRANCH  74  77
ENDBRANCH  56  70
BRANCH  57  81
ATOM     81  C   UNL A   1      49.685  27.848  26.058  1.00  0.00     0.023 A 
ATOM     82  C   UNL A   1      50.719  27.574  26.974  1.00  0.00     0.012 A 
ATOM     83  C   UNL A   1      49.982  27.891  24.682  1.00  0.00     0.148 A 
ATOM     84  C   UNL A   1      52.031  27.392  26.534  1.00  0.00     0.002 A 
ATOM     85  C   UNL A   1      51.279  27.652  24.245  1.00  0.00     0.091 A 
ATOM     86  F   UNL A   1      48.985  28.157  23.826  1.00  0.00    -0.205 F 
ATOM     87  C   UNL A   1      52.309  27.422  25.170  1.00  0.00     0.022 A 
BRANCH  85  88
ATOM     88  S   UNL A   1      51.707  27.544  22.504  1.00  0.00     0.127 S 
ATOM     89  O   UNL A   1      50.693  26.622  22.001  1.00  0.00    -0.237 OA
ATOM     90  O   UNL A   1      51.547  28.933  22.068  1.00  0.00    -0.237 OA
ATOM     91  O   UNL A   1      53.079  27.058  22.461  1.00  0.00    -0.744 OA
ENDBRANCH  85  88
ENDBRANCH  57  81
BRANCH  69  92
ATOM     92  C   UNL A   1      46.545  33.176  29.295  1.00  0.00     0.023 A 
ATOM     93  C   UNL A   1      47.077  33.301  30.594  1.00  0.00     0.012 A 
ATOM     94  C   UNL A   1      46.540  34.296  28.440  1.00  0.00     0.148 A 
ATOM     95  C   UNL A   1      47.554  34.530  31.048  1.00  0.00     0.002 A 
ATOM     96  C   UNL A   1      47.067  35.504  28.881  1.00  0.00     0.091 A 
ATOM     97  F   UNL A   1      46.013  34.164  27.214  1.00  0.00    -0.205 F 
ATOM     98  C   UNL A   1      47.560  35.627  30.190  1.00  0.00     0.022 A 
BRANCH  96  99
ATOM     99  S   UNL A   1      47.208  36.937  27.808  1.00  0.00     0.127 S 
ATOM    100  O   UNL A   1      48.071  36.428  26.743  1.00  0.00    -0.237 OA
ATOM    101  O   UNL A   1      45.818  37.164  27.409  1.00  0.00    -0.237 OA
ATOM    102  O   UNL A   1      47.781  37.996  28.627  1.00  0.00    -0.744 OA
ENDBRANCH  96  99
ENDBRANCH  69  92
ENDBRANCH  43  44
ENDBRANCH  35  38
ENDBRANCH  33  34
ENDBRANCH  32  33
ENDBRANCH  31  32
ENDBRANCH  30  31
ENDBRANCH   1  30
TORSDOF 22
ENDMDL
MODEL 3
REMARK VINA RESULT:     -10.4      3.019      8.104
REMARK SMILES COc1cccc(N2C(=O)C[C@@H](SC[C@@H](NC(C)=O)C(=O)NCCCCCCNC(=O)c3ccc(-c4c5nc(c(-c6cccc(S(=O)(=O)[O-])c6F)c6ccc([nH]6)c(-c6cccc(S(=O)(=O)[O-])c6F)c6nc(c(-c7cccc(S(=O)(=O)[O-])c7F)c7ccc4[nH]7)C=C6)C=C5)cc3)C2=O)c1
REMARK SMILES IDX 24 1 23 2 22 3 20 4 21 5 15 7 14 8 13 9 12 10 8 11 9 12
REMARK SMILES IDX 95 13 10 14 11 15 96 16 7 17 3 18 4 19 97 20 5 21 6 22 2 23
REMARK SMILES IDX 1 24 16 25 17 26 18 28 19 29 25 30 26 31 27 32 28 33 29 34
REMARK SMILES IDX 30 35 31 37 32 38 33 39 94 40 34 41 93 42 35 43 36 44 37 45
REMARK SMILES IDX 87 46 38 47 92 48 86 49 88 50 39 51 91 52 85 53 84 54 40 56
REMARK SMILES IDX 72 57 52 58 71 59 53 60 56 61 70 62 89 63 54 64 55 65 69 67
REMARK SMILES IDX 90 68 57 69 41 70 42 71 50 72 43 73 45 74 51 75 44 76 46 77
REMARK SMILES IDX 47 78 48 79 49 80 73 81 74 82 82 83 75 84 77 85 83 86 76 87
REMARK SMILES IDX 78 88 79 89 80 90 81 91 58 92 59 93 67 94 60 95 62 96 68 97
REMARK SMILES IDX 61 98 63 99 64 100 65 101 66 102
REMARK H PARENT 22 6 16 27 29 36 88 55 56 66
REMARK Flexibility Score: inf
ROOT
ATOM      1  C   UNL A   1      37.083  23.796  25.654  1.00  0.00     0.021 C 
ENDROOT
BRANCH   1   2
ATOM      2  C   UNL A   1      36.192  22.592  25.941  1.00  0.00     0.116 C 
BRANCH   2   3
ATOM      3  N   UNL A   1      36.823  21.374  25.484  1.00  0.00    -0.354 N 
ATOM      4  C   UNL A   1      36.270  20.206  25.058  1.00  0.00     0.243 C 
ATOM      5  O   UNL A   1      37.034  19.257  24.850  1.00  0.00    -0.273 OA
ATOM      6  H   UNL A   1      37.808  21.393  25.481  1.00  0.00     0.163 HD
BRANCH   4   7
ATOM      7  C   UNL A   1      34.737  19.996  24.999  1.00  0.00     0.181 C 
BRANCH   7   8
ATOM      8  C   UNL A   1      34.162  21.034  23.996  1.00  0.00     0.105 C 
BRANCH   8   9
ATOM      9  S   UNL A   1      32.598  21.873  24.498  1.00  0.00    -0.145 SA
BRANCH   9  10
ATOM     10  C   UNL A   1      32.325  23.255  23.311  1.00  0.00     0.146 C 
ATOM     11  N   UNL A   1      32.080  25.580  23.220  1.00  0.00    -0.249 N 
ATOM     12  C   UNL A   1      33.096  25.277  22.347  1.00  0.00     0.235 C 
ATOM     13  C   UNL A   1      31.650  24.471  23.928  1.00  0.00     0.247 C 
ATOM     14  O   UNL A   1      33.724  25.998  21.592  1.00  0.00    -0.274 OA
ATOM     15  C   UNL A   1      33.473  23.852  22.540  1.00  0.00     0.125 C 
ATOM     16  O   UNL A   1      30.784  24.420  24.790  1.00  0.00    -0.273 OA
BRANCH  11  17
ATOM     17  C   UNL A   1      31.584  26.897  23.372  1.00  0.00     0.055 A 
ATOM     18  C   UNL A   1      31.336  28.899  24.740  1.00  0.00     0.120 A 
ATOM     19  C   UNL A   1      30.458  29.422  23.792  1.00  0.00     0.046 A 
ATOM     20  C   UNL A   1      31.870  27.627  24.541  1.00  0.00     0.073 A 
ATOM     21  C   UNL A   1      30.178  28.717  22.622  1.00  0.00     0.006 A 
ATOM     22  C   UNL A   1      30.764  27.471  22.397  1.00  0.00     0.027 A 
BRANCH  18  23
ATOM     23  O   UNL A   1      31.567  29.697  25.825  1.00  0.00    -0.497 OA
ATOM     24  C   UNL A   1      32.914  30.101  26.052  1.00  0.00     0.278 C 
ENDBRANCH  18  23
ENDBRANCH  11  17
ENDBRANCH   9  10
ENDBRANCH   8   9
ENDBRANCH   7   8
BRANCH   7  25
ATOM     25  N   UNL A   1      34.270  18.642  24.694  1.00  0.00    -0.344 N 
ATOM     26  C   UNL A   1      33.083  18.092  25.119  1.00  0.00     0.217 C 
ATOM     27  H   UNL A   1      34.855  18.077  24.137  1.00  0.00     0.164 HD
ATOM     28  C   UNL A   1      32.905  16.660  24.681  1.00  0.00     0.114 C 
ATOM     29  O   UNL A   1      32.283  18.651  25.858  1.00  0.00    -0.275 OA
ENDBRANCH   7  25
ENDBRANCH   4   7
ENDBRANCH   2   3
ENDBRANCH   1   2
BRANCH   1  30
ATOM     30  C   UNL A   1      38.014  24.142  26.820  1.00  0.00     0.002 C 
BRANCH  30  31
ATOM     31  C   UNL A   1      39.500  23.899  26.530  1.00  0.00     0.002 C 
BRANCH  31  32
ATOM     32  C   UNL A   1      39.925  22.428  26.558  1.00  0.00     0.021 C 
BRANCH  32  33
ATOM     33  C   UNL A   1      41.368  22.202  26.992  1.00  0.00     0.116 C 
BRANCH  33  34
ATOM     34  N   UNL A   1      42.267  22.140  25.851  1.00  0.00    -0.352 N 
ATOM     35  C   UNL A   1      42.974  23.149  25.249  1.00  0.00     0.251 C 
ATOM     36  H   UNL A   1      42.383  21.247  25.453  1.00  0.00     0.163 HD
ATOM     37  O   UNL A   1      43.502  22.957  24.158  1.00  0.00    -0.269 OA
BRANCH  35  38
ATOM     38  C   UNL A   1      43.095  24.460  25.917  1.00  0.00     0.039 A 
ATOM     39  C   UNL A   1      43.605  24.512  27.215  1.00  0.00     0.014 A 
ATOM     40  C   UNL A   1      42.678  25.631  25.277  1.00  0.00     0.014 A 
ATOM     41  C   UNL A   1      43.716  25.742  27.864  1.00  0.00     0.010 A 
ATOM     42  C   UNL A   1      42.867  26.863  25.893  1.00  0.00     0.010 A 
ATOM     43  C   UNL A   1      43.361  26.929  27.202  1.00  0.00    -0.014 A 
BRANCH  43  44
ATOM     44  C   UNL A   1      43.467  28.243  27.884  1.00  0.00     0.031 A 
ATOM     45  C   UNL A   1      42.242  28.887  28.478  1.00  0.00     0.074 A 
ATOM     46  C   UNL A   1      44.654  28.879  27.923  1.00  0.00     0.049 A 
ATOM     47  N   UNL A   1      42.132  30.031  29.101  1.00  0.00    -0.248 NA
ATOM     48  C   UNL A   1      40.967  28.164  28.330  1.00  0.00     0.031 C 
ATOM     49  C   UNL A   1      45.895  28.393  27.315  1.00  0.00     0.029 A 
ATOM     50  N   UNL A   1      45.007  30.081  28.482  1.00  0.00    -0.354 N 
ATOM     51  C   UNL A   1      40.780  30.181  29.388  1.00  0.00     0.074 A 
ATOM     52  C   UNL A   1      40.101  29.032  28.833  1.00  0.00     0.031 C 
ATOM     53  C   UNL A   1      46.875  29.282  27.545  1.00  0.00     0.029 A 
ATOM     54  C   UNL A   1      46.328  30.412  28.290  1.00  0.00     0.049 A 
ATOM     55  H   UNL A   1      44.375  30.653  28.974  1.00  0.00     0.167 HD
ATOM     56  C   UNL A   1      40.162  31.168  30.078  1.00  0.00     0.034 A 
ATOM     57  C   UNL A   1      47.020  31.502  28.673  1.00  0.00     0.034 A 
ATOM     58  C   UNL A   1      40.848  32.290  30.660  1.00  0.00     0.049 A 
ATOM     59  C   UNL A   1      46.319  32.562  29.481  1.00  0.00     0.074 A 
ATOM     60  C   UNL A   1      40.329  33.305  31.442  1.00  0.00     0.029 A 
ATOM     61  N   UNL A   1      42.203  32.546  30.519  1.00  0.00    -0.354 N 
ATOM     62  N   UNL A   1      45.067  32.611  29.870  1.00  0.00    -0.248 NA
ATOM     63  C   UNL A   1      47.135  33.693  29.941  1.00  0.00     0.031 C 
ATOM     64  C   UNL A   1      41.366  34.192  31.752  1.00  0.00     0.029 A 
ATOM     65  C   UNL A   1      42.539  33.705  31.197  1.00  0.00     0.049 A 
ATOM     66  H   UNL A   1      42.834  31.986  30.012  1.00  0.00     0.167 HD
ATOM     67  C   UNL A   1      44.958  33.751  30.659  1.00  0.00     0.074 A 
ATOM     68  C   UNL A   1      46.275  34.351  30.705  1.00  0.00     0.031 C 
ATOM     69  C   UNL A   1      43.865  34.259  31.281  1.00  0.00     0.034 A 
BRANCH  56  70
ATOM     70  C   UNL A   1      38.672  31.057  30.280  1.00  0.00     0.023 A 
ATOM     71  C   UNL A   1      38.164  30.161  31.245  1.00  0.00     0.012 A 
ATOM     72  C   UNL A   1      37.778  31.872  29.559  1.00  0.00     0.148 A 
ATOM     73  C   UNL A   1      36.791  30.052  31.462  1.00  0.00     0.002 A 
ATOM     74  C   UNL A   1      36.414  31.792  29.816  1.00  0.00     0.091 A 
ATOM     75  F   UNL A   1      38.276  32.702  28.632  1.00  0.00    -0.205 F 
ATOM     76  C   UNL A   1      35.918  30.874  30.756  1.00  0.00     0.022 A 
BRANCH  74  77
ATOM     77  S   UNL A   1      35.213  32.866  29.021  1.00  0.00     0.127 S 
ATOM     78  O   UNL A   1      34.015  32.609  29.818  1.00  0.00    -0.237 OA
ATOM     79  O   UNL A   1      35.805  34.189  29.220  1.00  0.00    -0.237 OA
ATOM     80  O   UNL A   1      35.142  32.434  27.633  1.00  0.00    -0.744 OA
ENDBRANCH  74  77
ENDBRANCH  56  70
BRANCH  57  81
ATOM     81  C   UNL A   1      48.474  31.613  28.363  1.00  0.00     0.023 A 
ATOM     82  C   UNL A   1      49.407  30.932  29.169  1.00  0.00     0.012 A 
ATOM     83  C   UNL A   1      48.935  32.372  27.271  1.00  0.00     0.148 A 
ATOM     84  C   UNL A   1      50.776  31.041  28.919  1.00  0.00     0.002 A 
ATOM     85  C   UNL A   1      50.296  32.431  26.993  1.00  0.00     0.091 A 
ATOM     86  F   UNL A   1      48.032  33.016  26.518  1.00  0.00    -0.205 F 
ATOM     87  C   UNL A   1      51.219  31.782  27.828  1.00  0.00     0.022 A 
BRANCH  85  88
ATOM     88  S   UNL A   1      50.950  33.256  25.538  1.00  0.00     0.127 S 
ATOM     89  O   UNL A   1      49.839  34.125  25.161  1.00  0.00    -0.237 OA
ATOM     90  O   UNL A   1      52.117  33.950  26.083  1.00  0.00    -0.237 OA
ATOM     91  O   UNL A   1      51.271  32.196  24.592  1.00  0.00    -0.744 OA
ENDBRANCH  85  88
ENDBRANCH  57  81
BRANCH  69  92
ATOM     92  C   UNL A   1      44.054  35.496  32.121  1.00  0.00     0.023 A 
ATOM     93  C   UNL A   1      43.993  36.773  31.529  1.00  0.00     0.012 A 
ATOM     94  C   UNL A   1      44.235  35.388  33.514  1.00  0.00     0.148 A 
ATOM     95  C   UNL A   1      44.154  37.921  32.304  1.00  0.00     0.002 A 
ATOM     96  C   UNL A   1      44.339  36.537  34.288  1.00  0.00     0.091 A 
ATOM     97  F   UNL A   1      44.310  34.165  34.058  1.00  0.00    -0.205 F 
ATOM     98  C   UNL A   1      44.315  37.804  33.683  1.00  0.00     0.022 A 
BRANCH  96  99
ATOM     99  S   UNL A   1      44.446  36.480  36.079  1.00  0.00     0.127 S 
ATOM    100  O   UNL A   1      45.746  35.844  36.281  1.00  0.00    -0.237 OA
ATOM    101  O   UNL A   1      44.399  37.899  36.438  1.00  0.00    -0.237 OA
ATOM    102  O   UNL A   1      43.294  35.709  36.525  1.00  0.00    -0.744 OA
ENDBRANCH  96  99
ENDBRANCH  69  92
ENDBRANCH  43  44
ENDBRANCH  35  38
ENDBRANCH  33  34
ENDBRANCH  32  33
ENDBRANCH  31  32
ENDBRANCH  30  31
ENDBRANCH   1  30
TORSDOF 22
ENDMDL
