MODEL 1
REMARK VINA RESULT:     -10.1      0.000      0.000
REMARK SMILES O=C(CCC(=O)/[NH+]=C1\S[C@H]2CS(=O)(=O)C[C@@H]2N1c1ccc(Oc2ccccc2)cc1)NCCCCCCNC(=O)c1ccc(-c2c3nc(c(-c4cccc(S(=O)(=O)[O-])c4F)c4ccc([nH]4)c(-c4cccc(S(=O)(=O)[O-])c4F)c4nc(c(-c5cccc(S(=O)(=O)[O-])c5F)c5ccc2[nH]5)C=C4)C=C3)cc1
REMARK SMILES IDX 33 1 32 2 31 3 2 4 1 5 3 7 4 8 5 9 6 10 7 11 8 12 9 14 17 15
REMARK SMILES IDX 10 16 16 17 11 18 15 19 12 20 13 21 14 22 18 23 19 24 30 25
REMARK SMILES IDX 20 26 29 27 21 28 22 29 23 30 24 31 28 32 25 33 27 34 26 35
REMARK SMILES IDX 34 36 35 37 36 38 37 39 38 40 39 41 40 43 41 44 42 45 103 46
REMARK SMILES IDX 43 47 102 48 44 49 45 50 46 51 96 52 47 53 101 54 95 55
REMARK SMILES IDX 97 56 48 57 100 58 94 59 93 60 49 62 81 63 61 64 80 65 62 66
REMARK SMILES IDX 65 67 79 68 98 69 63 70 64 71 78 73 99 74 66 75 50 76 51 77
REMARK SMILES IDX 59 78 52 79 54 80 60 81 53 82 55 83 56 84 57 85 58 86 82 87
REMARK SMILES IDX 83 88 91 89 84 90 86 91 92 92 85 93 87 94 88 95 89 96 90 97
REMARK SMILES IDX 67 98 68 99 76 100 69 101 71 102 77 103 70 104 72 105 73 106
REMARK SMILES IDX 74 107 75 108
REMARK H PARENT 31 6 7 13 38 42 97 61 65 72
REMARK Flexibility Score: inf
ROOT
ATOM      1  C   UNL A   1      38.055  30.121  28.793  1.00  0.00     0.021 C 
ENDROOT
BRANCH   1   2
ATOM      2  C   UNL A   1      36.826  29.644  29.561  1.00  0.00     0.116 C 
BRANCH   2   3
ATOM      3  N   UNL A   1      35.941  30.736  29.944  1.00  0.00    -0.356 N 
ATOM      4  C   UNL A   1      35.319  31.668  29.180  1.00  0.00     0.220 C 
ATOM      5  O   UNL A   1      34.691  32.575  29.731  1.00  0.00    -0.275 OA
ATOM      6  H   UNL A   1      35.767  30.809  30.910  1.00  0.00     0.163 HD
BRANCH   4   7
ATOM      7  C   UNL A   1      35.369  31.555  27.683  1.00  0.00     0.112 C 
BRANCH   7   8
ATOM      8  C   UNL A   1      34.155  31.012  26.947  1.00  0.00     0.138 C 
BRANCH   8   9
ATOM      9  C   UNL A   1      33.766  29.533  26.860  1.00  0.00     0.308 C 
ATOM     10  O   UNL A   1      33.892  28.844  27.873  1.00  0.00    -0.247 OA
ATOM     11  N   UNL A   1      33.304  28.976  25.696  1.00  0.00    -0.204 N 
ATOM     12  C   UNL A   1      32.157  29.271  25.194  1.00  0.00     0.319 C 
ATOM     13  H   UNL A   1      33.873  28.325  25.225  1.00  0.00     0.316 HD
ATOM     14  S   UNL A   1      31.094  30.538  25.885  1.00  0.00    -0.029 SA
ATOM     15  N   UNL A   1      31.599  28.784  24.002  1.00  0.00    -0.217 N 
ATOM     16  C   UNL A   1      29.950  30.387  24.516  1.00  0.00     0.120 C 
ATOM     17  C   UNL A   1      30.780  29.807  23.361  1.00  0.00     0.212 C 
ATOM     18  C   UNL A   1      29.297  31.609  23.932  1.00  0.00     0.156 C 
ATOM     19  C   UNL A   1      29.733  29.475  22.320  1.00  0.00     0.188 C 
ATOM     20  S   UNL A   1      28.657  30.924  22.398  1.00  0.00     0.155 S 
ATOM     21  O   UNL A   1      27.300  30.469  22.639  1.00  0.00    -0.229 OA
ATOM     22  O   UNL A   1      28.985  31.819  21.314  1.00  0.00    -0.229 OA
BRANCH  15  23
ATOM     23  C   UNL A   1      31.905  27.566  23.381  1.00  0.00     0.128 A 
ATOM     24  C   UNL A   1      31.172  26.390  23.612  1.00  0.00     0.056 A 
ATOM     25  C   UNL A   1      32.985  27.458  22.488  1.00  0.00     0.056 A 
ATOM     26  C   UNL A   1      31.543  25.159  23.046  1.00  0.00     0.051 A 
ATOM     27  C   UNL A   1      33.354  26.229  21.906  1.00  0.00     0.051 A 
ATOM     28  C   UNL A   1      32.660  25.060  22.215  1.00  0.00     0.127 A 
BRANCH  28  29
ATOM     29  O   UNL A   1      32.932  23.790  21.746  1.00  0.00    -0.457 OA
BRANCH  29  30
ATOM     30  C   UNL A   1      33.093  22.748  22.628  1.00  0.00     0.127 A 
ATOM     31  C   UNL A   1      34.211  22.775  23.457  1.00  0.00     0.047 A 
ATOM     32  C   UNL A   1      32.246  21.643  22.665  1.00  0.00     0.047 A 
ATOM     33  C   UNL A   1      34.403  21.802  24.436  1.00  0.00     0.004 A 
ATOM     34  C   UNL A   1      32.446  20.650  23.629  1.00  0.00     0.004 A 
ATOM     35  C   UNL A   1      33.505  20.745  24.534  1.00  0.00     0.000 A 
ENDBRANCH  29  30
ENDBRANCH  28  29
ENDBRANCH  15  23
ENDBRANCH   8   9
ENDBRANCH   7   8
ENDBRANCH   4   7
ENDBRANCH   2   3
ENDBRANCH   1   2
BRANCH   1  36
ATOM     36  C   UNL A   1      38.972  28.978  28.348  1.00  0.00     0.002 C 
BRANCH  36  37
ATOM     37  C   UNL A   1      39.125  27.860  29.373  1.00  0.00     0.002 C 
BRANCH  37  38
ATOM     38  C   UNL A   1      39.626  26.556  28.763  1.00  0.00     0.021 C 
BRANCH  38  39
ATOM     39  C   UNL A   1      39.553  26.546  27.240  1.00  0.00     0.116 C 
BRANCH  39  40
ATOM     40  N   UNL A   1      40.568  25.651  26.708  1.00  0.00    -0.352 N 
ATOM     41  C   UNL A   1      41.669  26.070  26.003  1.00  0.00     0.251 C 
ATOM     42  H   UNL A   1      40.461  24.684  26.865  1.00  0.00     0.163 HD
ATOM     43  O   UNL A   1      42.065  25.449  25.023  1.00  0.00    -0.269 OA
BRANCH  41  44
ATOM     44  C   UNL A   1      42.354  27.299  26.453  1.00  0.00     0.039 A 
ATOM     45  C   UNL A   1      41.953  28.518  25.912  1.00  0.00     0.014 A 
ATOM     46  C   UNL A   1      43.324  27.250  27.462  1.00  0.00     0.014 A 
ATOM     47  C   UNL A   1      42.427  29.696  26.476  1.00  0.00     0.010 A 
ATOM     48  C   UNL A   1      43.699  28.420  28.100  1.00  0.00     0.010 A 
ATOM     49  C   UNL A   1      43.236  29.653  27.625  1.00  0.00    -0.014 A 
BRANCH  49  50
ATOM     50  C   UNL A   1      43.524  30.892  28.379  1.00  0.00     0.031 A 
ATOM     51  C   UNL A   1      44.680  31.767  27.998  1.00  0.00     0.074 A 
ATOM     52  C   UNL A   1      42.771  31.176  29.462  1.00  0.00     0.049 A 
ATOM     53  N   UNL A   1      45.063  32.894  28.535  1.00  0.00    -0.248 NA
ATOM     54  C   UNL A   1      45.535  31.308  26.890  1.00  0.00     0.031 C 
ATOM     55  C   UNL A   1      41.694  30.331  29.989  1.00  0.00     0.029 A 
ATOM     56  N   UNL A   1      42.799  32.243  30.320  1.00  0.00    -0.354 N 
ATOM     57  C   UNL A   1      46.211  33.267  27.849  1.00  0.00     0.074 A 
ATOM     58  C   UNL A   1      46.494  32.221  26.892  1.00  0.00     0.031 C 
ATOM     59  C   UNL A   1      41.147  30.927  31.059  1.00  0.00     0.029 A 
ATOM     60  C   UNL A   1      41.856  32.173  31.319  1.00  0.00     0.049 A 
ATOM     61  H   UNL A   1      43.435  32.990  30.231  1.00  0.00     0.167 HD
ATOM     62  C   UNL A   1      46.943  34.397  27.983  1.00  0.00     0.034 A 
ATOM     63  C   UNL A   1      41.595  33.019  32.334  1.00  0.00     0.034 A 
ATOM     64  C   UNL A   1      46.638  35.435  28.928  1.00  0.00     0.049 A 
ATOM     65  C   UNL A   1      42.398  34.285  32.434  1.00  0.00     0.074 A 
ATOM     66  C   UNL A   1      47.264  36.656  29.096  1.00  0.00     0.029 A 
ATOM     67  N   UNL A   1      45.629  35.367  29.878  1.00  0.00    -0.354 N 
ATOM     68  N   UNL A   1      43.375  34.704  31.668  1.00  0.00    -0.248 NA
ATOM     69  C   UNL A   1      42.040  35.213  33.514  1.00  0.00     0.031 C 
ATOM     70  C   UNL A   1      46.657  37.311  30.173  1.00  0.00     0.029 A 
ATOM     71  C   UNL A   1      45.623  36.519  30.646  1.00  0.00     0.049 A 
ATOM     72  H   UNL A   1      45.009  34.611  29.989  1.00  0.00     0.167 HD
ATOM     73  C   UNL A   1      43.729  35.957  32.150  1.00  0.00     0.074 A 
ATOM     74  C   UNL A   1      42.842  36.238  33.261  1.00  0.00     0.031 C 
ATOM     75  C   UNL A   1      44.704  36.795  31.721  1.00  0.00     0.034 A 
BRANCH  62  76
ATOM     76  C   UNL A   1      48.114  34.581  27.054  1.00  0.00     0.023 A 
ATOM     77  C   UNL A   1      47.966  35.366  25.891  1.00  0.00     0.012 A 
ATOM     78  C   UNL A   1      49.368  34.014  27.347  1.00  0.00     0.148 A 
ATOM     79  C   UNL A   1      49.034  35.548  25.013  1.00  0.00     0.002 A 
ATOM     80  C   UNL A   1      50.442  34.241  26.494  1.00  0.00     0.091 A 
ATOM     81  F   UNL A   1      49.485  33.253  28.444  1.00  0.00    -0.205 F 
ATOM     82  C   UNL A   1      50.273  34.995  25.320  1.00  0.00     0.022 A 
BRANCH  80  83
ATOM     83  S   UNL A   1      52.099  33.642  26.839  1.00  0.00     0.127 S 
ATOM     84  O   UNL A   1      52.894  34.400  25.874  1.00  0.00    -0.237 OA
ATOM     85  O   UNL A   1      52.285  34.046  28.232  1.00  0.00    -0.237 OA
ATOM     86  O   UNL A   1      52.061  32.203  26.621  1.00  0.00    -0.744 OA
ENDBRANCH  80  83
ENDBRANCH  62  76
BRANCH  63  87
ATOM     87  C   UNL A   1      40.494  32.719  33.291  1.00  0.00     0.023 A 
ATOM     88  C   UNL A   1      40.776  32.032  34.488  1.00  0.00     0.012 A 
ATOM     89  C   UNL A   1      39.173  33.137  33.035  1.00  0.00     0.148 A 
ATOM     90  C   UNL A   1      39.756  31.735  35.395  1.00  0.00     0.002 A 
ATOM     91  C   UNL A   1      38.174  32.890  33.969  1.00  0.00     0.091 A 
ATOM     92  F   UNL A   1      38.925  33.787  31.889  1.00  0.00    -0.205 F 
ATOM     93  C   UNL A   1      38.459  32.171  35.140  1.00  0.00     0.022 A 
BRANCH  91  94
ATOM     94  S   UNL A   1      36.505  33.529  33.786  1.00  0.00     0.127 S 
ATOM     95  O   UNL A   1      36.002  32.735  32.668  1.00  0.00    -0.237 OA
ATOM     96  O   UNL A   1      35.917  33.207  35.086  1.00  0.00    -0.237 OA
ATOM     97  O   UNL A   1      36.654  34.955  33.532  1.00  0.00    -0.744 OA
ENDBRANCH  91  94
ENDBRANCH  63  87
BRANCH  75  98
ATOM     98  C   UNL A   1      44.844  38.116  32.429  1.00  0.00     0.023 A 
ATOM     99  C   UNL A   1      45.776  38.262  33.476  1.00  0.00     0.012 A 
ATOM    100  C   UNL A   1      44.098  39.233  32.003  1.00  0.00     0.148 A 
ATOM    101  C   UNL A   1      45.937  39.492  34.112  1.00  0.00     0.002 A 
ATOM    102  C   UNL A   1      44.305  40.467  32.604  1.00  0.00     0.091 A 
ATOM    103  F   UNL A   1      43.205  39.067  31.017  1.00  0.00    -0.205 F 
ATOM    104  C   UNL A   1      45.211  40.595  33.668  1.00  0.00     0.022 A 
BRANCH 102 105
ATOM    105  S   UNL A   1      43.493  41.963  32.031  1.00  0.00     0.127 S 
ATOM    106  O   UNL A   1      43.921  42.018  30.635  1.00  0.00    -0.237 OA
ATOM    107  O   UNL A   1      42.080  41.638  32.224  1.00  0.00    -0.237 OA
ATOM    108  O   UNL A   1      43.988  43.040  32.877  1.00  0.00    -0.744 OA
ENDBRANCH 102 105
ENDBRANCH  75  98
ENDBRANCH  49  50
ENDBRANCH  41  44
ENDBRANCH  39  40
ENDBRANCH  38  39
ENDBRANCH  37  38
ENDBRANCH  36  37
ENDBRANCH   1  36
TORSDOF 21
ENDMDL
MODEL 2
REMARK VINA RESULT:      -9.5      9.879     15.602
REMARK SMILES O=C(CCC(=O)/[NH+]=C1\S[C@H]2CS(=O)(=O)C[C@@H]2N1c1ccc(Oc2ccccc2)cc1)NCCCCCCNC(=O)c1ccc(-c2c3nc(c(-c4cccc(S(=O)(=O)[O-])c4F)c4ccc([nH]4)c(-c4cccc(S(=O)(=O)[O-])c4F)c4nc(c(-c5cccc(S(=O)(=O)[O-])c5F)c5ccc2[nH]5)C=C4)C=C3)cc1
REMARK SMILES IDX 33 1 32 2 31 3 2 4 1 5 3 7 4 8 5 9 6 10 7 11 8 12 9 14 17 15
REMARK SMILES IDX 10 16 16 17 11 18 15 19 12 20 13 21 14 22 18 23 19 24 30 25
REMARK SMILES IDX 20 26 29 27 21 28 22 29 23 30 24 31 28 32 25 33 27 34 26 35
REMARK SMILES IDX 34 36 35 37 36 38 37 39 38 40 39 41 40 43 41 44 42 45 103 46
REMARK SMILES IDX 43 47 102 48 44 49 45 50 46 51 96 52 47 53 101 54 95 55
REMARK SMILES IDX 97 56 48 57 100 58 94 59 93 60 49 62 81 63 61 64 80 65 62 66
REMARK SMILES IDX 65 67 79 68 98 69 63 70 64 71 78 73 99 74 66 75 50 76 51 77
REMARK SMILES IDX 59 78 52 79 54 80 60 81 53 82 55 83 56 84 57 85 58 86 82 87
REMARK SMILES IDX 83 88 91 89 84 90 86 91 92 92 85 93 87 94 88 95 89 96 90 97
REMARK SMILES IDX 67 98 68 99 76 100 69 101 71 102 77 103 70 104 72 105 73 106
REMARK SMILES IDX 74 107 75 108
REMARK H PARENT 31 6 7 13 38 42 97 61 65 72
REMARK Flexibility Score: inf
ROOT
ATOM      1  C   UNL A   1      47.374  24.269  39.565  1.00  0.00     0.021 C 
ENDROOT
BRANCH   1   2
ATOM      2  C   UNL A   1      46.856  22.912  39.095  1.00  0.00     0.116 C 
BRANCH   2   3
ATOM      3  N   UNL A   1      45.658  23.019  38.274  1.00  0.00    -0.356 N 
ATOM      4  C   UNL A   1      45.517  23.030  36.925  1.00  0.00     0.220 C 
ATOM      5  O   UNL A   1      44.404  23.238  36.438  1.00  0.00    -0.275 OA
ATOM      6  H   UNL A   1      44.816  23.096  38.778  1.00  0.00     0.163 HD
BRANCH   4   7
ATOM      7  C   UNL A   1      46.707  22.747  36.053  1.00  0.00     0.112 C 
BRANCH   7   8
ATOM      8  C   UNL A   1      47.464  21.442  36.243  1.00  0.00     0.138 C 
BRANCH   8   9
ATOM      9  C   UNL A   1      46.830  20.108  36.650  1.00  0.00     0.308 C 
ATOM     10  O   UNL A   1      46.438  19.360  35.754  1.00  0.00    -0.247 OA
ATOM     11  N   UNL A   1      46.683  19.751  37.965  1.00  0.00    -0.204 N 
ATOM     12  C   UNL A   1      47.684  19.466  38.721  1.00  0.00     0.319 C 
ATOM     13  H   UNL A   1      45.776  19.712  38.346  1.00  0.00     0.316 HD
ATOM     14  S   UNL A   1      49.385  19.633  38.181  1.00  0.00    -0.029 SA
ATOM     15  N   UNL A   1      47.651  19.115  40.079  1.00  0.00    -0.217 N 
ATOM     16  C   UNL A   1      49.989  19.255  39.824  1.00  0.00     0.120 C 
ATOM     17  C   UNL A   1      48.835  19.617  40.770  1.00  0.00     0.212 C 
ATOM     18  C   UNL A   1      51.177  19.989  40.384  1.00  0.00     0.156 C 
ATOM     19  C   UNL A   1      49.296  19.062  42.100  1.00  0.00     0.188 C 
ATOM     20  S   UNL A   1      51.039  19.537  42.119  1.00  0.00     0.155 S 
ATOM     21  O   UNL A   1      51.832  18.342  42.338  1.00  0.00    -0.229 OA
ATOM     22  O   UNL A   1      51.199  20.724  42.925  1.00  0.00    -0.229 OA
BRANCH  15  23
ATOM     23  C   UNL A   1      46.573  18.533  40.760  1.00  0.00     0.128 A 
ATOM     24  C   UNL A   1      46.277  17.162  40.680  1.00  0.00     0.056 A 
ATOM     25  C   UNL A   1      45.717  19.308  41.559  1.00  0.00     0.056 A 
ATOM     26  C   UNL A   1      45.143  16.609  41.301  1.00  0.00     0.051 A 
ATOM     27  C   UNL A   1      44.586  18.757  42.196  1.00  0.00     0.051 A 
ATOM     28  C   UNL A   1      44.267  17.409  42.035  1.00  0.00     0.127 A 
BRANCH  28  29
ATOM     29  O   UNL A   1      43.179  16.749  42.572  1.00  0.00    -0.457 OA
BRANCH  29  30
ATOM     30  C   UNL A   1      42.725  15.586  41.996  1.00  0.00     0.127 A 
ATOM     31  C   UNL A   1      42.777  14.426  42.765  1.00  0.00     0.047 A 
ATOM     32  C   UNL A   1      42.306  15.504  40.670  1.00  0.00     0.047 A 
ATOM     33  C   UNL A   1      42.259  13.224  42.287  1.00  0.00     0.004 A 
ATOM     34  C   UNL A   1      41.808  14.295  40.175  1.00  0.00     0.004 A 
ATOM     35  C   UNL A   1      41.754  13.164  40.993  1.00  0.00     0.000 A 
ENDBRANCH  29  30
ENDBRANCH  28  29
ENDBRANCH  15  23
ENDBRANCH   8   9
ENDBRANCH   7   8
ENDBRANCH   4   7
ENDBRANCH   2   3
ENDBRANCH   1   2
BRANCH   1  36
ATOM     36  C   UNL A   1      46.257  25.238  39.960  1.00  0.00     0.002 C 
BRANCH  36  37
ATOM     37  C   UNL A   1      46.738  26.642  40.308  1.00  0.00     0.002 C 
BRANCH  37  38
ATOM     38  C   UNL A   1      45.718  27.724  39.968  1.00  0.00     0.021 C 
BRANCH  38  39
ATOM     39  C   UNL A   1      45.818  28.202  38.524  1.00  0.00     0.116 C 
BRANCH  39  40
ATOM     40  N   UNL A   1      47.096  27.794  37.962  1.00  0.00    -0.352 N 
ATOM     41  C   UNL A   1      47.228  27.017  36.839  1.00  0.00     0.251 C 
ATOM     42  H   UNL A   1      47.918  28.097  38.414  1.00  0.00     0.163 HD
ATOM     43  O   UNL A   1      48.078  26.135  36.778  1.00  0.00    -0.269 OA
BRANCH  41  44
ATOM     44  C   UNL A   1      46.307  27.264  35.711  1.00  0.00     0.039 A 
ATOM     45  C   UNL A   1      45.137  26.513  35.632  1.00  0.00     0.014 A 
ATOM     46  C   UNL A   1      46.561  28.290  34.791  1.00  0.00     0.014 A 
ATOM     47  C   UNL A   1      44.161  26.877  34.714  1.00  0.00     0.010 A 
ATOM     48  C   UNL A   1      45.540  28.726  33.963  1.00  0.00     0.010 A 
ATOM     49  C   UNL A   1      44.323  28.035  33.933  1.00  0.00    -0.014 A 
BRANCH  49  50
ATOM     50  C   UNL A   1      43.187  28.572  33.153  1.00  0.00     0.031 A 
ATOM     51  C   UNL A   1      43.009  28.204  31.711  1.00  0.00     0.074 A 
ATOM     52  C   UNL A   1      42.361  29.459  33.746  1.00  0.00     0.049 A 
ATOM     53  N   UNL A   1      42.062  28.565  30.886  1.00  0.00    -0.248 NA
ATOM     54  C   UNL A   1      44.037  27.341  31.104  1.00  0.00     0.031 C 
ATOM     55  C   UNL A   1      42.513  29.975  35.111  1.00  0.00     0.029 A 
ATOM     56  N   UNL A   1      41.239  30.092  33.280  1.00  0.00    -0.354 N 
ATOM     57  C   UNL A   1      42.390  27.995  29.664  1.00  0.00     0.074 A 
ATOM     58  C   UNL A   1      43.650  27.307  29.839  1.00  0.00     0.031 C 
ATOM     59  C   UNL A   1      41.506  30.819  35.379  1.00  0.00     0.029 A 
ATOM     60  C   UNL A   1      40.660  30.937  34.198  1.00  0.00     0.049 A 
ATOM     61  H   UNL A   1      40.881  29.955  32.372  1.00  0.00     0.167 HD
ATOM     62  C   UNL A   1      41.687  28.015  28.509  1.00  0.00     0.034 A 
ATOM     63  C   UNL A   1      39.571  31.721  34.096  1.00  0.00     0.034 A 
ATOM     64  C   UNL A   1      40.427  28.690  28.357  1.00  0.00     0.049 A 
ATOM     65  C   UNL A   1      38.787  31.694  32.815  1.00  0.00     0.074 A 
ATOM     66  C   UNL A   1      39.590  28.710  27.256  1.00  0.00     0.029 A 
ATOM     67  N   UNL A   1      39.830  29.478  29.330  1.00  0.00    -0.354 N 
ATOM     68  N   UNL A   1      39.021  31.012  31.720  1.00  0.00    -0.248 NA
ATOM     69  C   UNL A   1      37.569  32.512  32.766  1.00  0.00     0.031 C 
ATOM     70  C   UNL A   1      38.504  29.541  27.552  1.00  0.00     0.029 A 
ATOM     71  C   UNL A   1      38.642  30.001  28.852  1.00  0.00     0.049 A 
ATOM     72  H   UNL A   1      40.199  29.639  30.228  1.00  0.00     0.167 HD
ATOM     73  C   UNL A   1      37.965  31.292  30.863  1.00  0.00     0.074 A 
ATOM     74  C   UNL A   1      37.078  32.187  31.577  1.00  0.00     0.031 C 
ATOM     75  C   UNL A   1      37.753  30.858  29.596  1.00  0.00     0.034 A 
BRANCH  62  76
ATOM     76  C   UNL A   1      42.247  27.249  27.339  1.00  0.00     0.023 A 
ATOM     77  C   UNL A   1      42.903  27.943  26.300  1.00  0.00     0.012 A 
ATOM     78  C   UNL A   1      42.162  25.846  27.283  1.00  0.00     0.148 A 
ATOM     79  C   UNL A   1      43.426  27.258  25.205  1.00  0.00     0.002 A 
ATOM     80  C   UNL A   1      42.730  25.165  26.213  1.00  0.00     0.091 A 
ATOM     81  F   UNL A   1      41.516  25.205  28.267  1.00  0.00    -0.205 F 
ATOM     82  C   UNL A   1      43.348  25.869  25.167  1.00  0.00     0.022 A 
BRANCH  80  83
ATOM     83  S   UNL A   1      42.757  23.373  26.108  1.00  0.00     0.127 S 
ATOM     84  O   UNL A   1      43.467  23.016  27.336  1.00  0.00    -0.237 OA
ATOM     85  O   UNL A   1      41.332  23.046  26.112  1.00  0.00    -0.237 OA
ATOM     86  O   UNL A   1      43.453  23.051  24.871  1.00  0.00    -0.744 OA
ENDBRANCH  80  83
ENDBRANCH  62  76
BRANCH  63  87
ATOM     87  C   UNL A   1      39.135  32.547  35.257  1.00  0.00     0.023 A 
ATOM     88  C   UNL A   1      38.171  32.043  36.151  1.00  0.00     0.012 A 
ATOM     89  C   UNL A   1      39.695  33.818  35.496  1.00  0.00     0.148 A 
ATOM     90  C   UNL A   1      37.744  32.804  37.241  1.00  0.00     0.002 A 
ATOM     91  C   UNL A   1      39.309  34.546  36.615  1.00  0.00     0.091 A 
ATOM     92  F   UNL A   1      40.609  34.281  34.632  1.00  0.00    -0.205 F 
ATOM     93  C   UNL A   1      38.319  34.050  37.478  1.00  0.00     0.022 A 
BRANCH  91  94
ATOM     94  S   UNL A   1      40.090  36.097  37.071  1.00  0.00     0.127 S 
ATOM     95  O   UNL A   1      41.416  35.653  37.489  1.00  0.00    -0.237 OA
ATOM     96  O   UNL A   1      40.054  36.834  35.808  1.00  0.00    -0.237 OA
ATOM     97  O   UNL A   1      39.255  36.667  38.120  1.00  0.00    -0.744 OA
ENDBRANCH  91  94
ENDBRANCH  63  87
BRANCH  75  98
ATOM     98  C   UNL A   1      36.493  31.313  28.909  1.00  0.00     0.023 A 
ATOM     99  C   UNL A   1      36.271  32.684  28.675  1.00  0.00     0.012 A 
ATOM    100  C   UNL A   1      35.564  30.368  28.432  1.00  0.00     0.148 A 
ATOM    101  C   UNL A   1      35.124  33.110  28.008  1.00  0.00     0.002 A 
ATOM    102  C   UNL A   1      34.452  30.796  27.719  1.00  0.00     0.091 A 
ATOM    103  F   UNL A   1      35.787  29.069  28.681  1.00  0.00    -0.205 F 
ATOM    104  C   UNL A   1      34.223  32.166  27.519  1.00  0.00     0.022 A 
BRANCH 102 105
ATOM    105  S   UNL A   1      33.293  29.651  26.964  1.00  0.00     0.127 S 
ATOM    106  O   UNL A   1      32.023  30.091  27.539  1.00  0.00    -0.237 OA
ATOM    107  O   UNL A   1      33.453  29.945  25.540  1.00  0.00    -0.237 OA
ATOM    108  O   UNL A   1      33.727  28.318  27.359  1.00  0.00    -0.744 OA
ENDBRANCH 102 105
ENDBRANCH  75  98
ENDBRANCH  49  50
ENDBRANCH  41  44
ENDBRANCH  39  40
ENDBRANCH  38  39
ENDBRANCH  37  38
ENDBRANCH  36  37
ENDBRANCH   1  36
TORSDOF 21
ENDMDL
MODEL 3
REMARK VINA RESULT:      -9.4      5.410     11.657
REMARK SMILES O=C(CCC(=O)/[NH+]=C1\S[C@H]2CS(=O)(=O)C[C@@H]2N1c1ccc(Oc2ccccc2)cc1)NCCCCCCNC(=O)c1ccc(-c2c3nc(c(-c4cccc(S(=O)(=O)[O-])c4F)c4ccc([nH]4)c(-c4cccc(S(=O)(=O)[O-])c4F)c4nc(c(-c5cccc(S(=O)(=O)[O-])c5F)c5ccc2[nH]5)C=C4)C=C3)cc1
REMARK SMILES IDX 33 1 32 2 31 3 2 4 1 5 3 7 4 8 5 9 6 10 7 11 8 12 9 14 17 15
REMARK SMILES IDX 10 16 16 17 11 18 15 19 12 20 13 21 14 22 18 23 19 24 30 25
REMARK SMILES IDX 20 26 29 27 21 28 22 29 23 30 24 31 28 32 25 33 27 34 26 35
REMARK SMILES IDX 34 36 35 37 36 38 37 39 38 40 39 41 40 43 41 44 42 45 103 46
REMARK SMILES IDX 43 47 102 48 44 49 45 50 46 51 96 52 47 53 101 54 95 55
REMARK SMILES IDX 97 56 48 57 100 58 94 59 93 60 49 62 81 63 61 64 80 65 62 66
REMARK SMILES IDX 65 67 79 68 98 69 63 70 64 71 78 73 99 74 66 75 50 76 51 77
REMARK SMILES IDX 59 78 52 79 54 80 60 81 53 82 55 83 56 84 57 85 58 86 82 87
REMARK SMILES IDX 83 88 91 89 84 90 86 91 92 92 85 93 87 94 88 95 89 96 90 97
REMARK SMILES IDX 67 98 68 99 76 100 69 101 71 102 77 103 70 104 72 105 73 106
REMARK SMILES IDX 74 107 75 108
REMARK H PARENT 31 6 7 13 38 42 97 61 65 72
REMARK Flexibility Score: inf
ROOT
ATOM      1  C   UNL A   1      44.257  36.960  36.302  1.00  0.00     0.021 C 
ENDROOT
BRANCH   1   2
ATOM      2  C   UNL A   1      43.229  35.837  36.203  1.00  0.00     0.116 C 
BRANCH   2   3
ATOM      3  N   UNL A   1      41.860  36.311  36.347  1.00  0.00    -0.356 N 
ATOM      4  C   UNL A   1      40.782  36.134  35.543  1.00  0.00     0.220 C 
ATOM      5  O   UNL A   1      39.730  36.721  35.809  1.00  0.00    -0.275 OA
ATOM      6  H   UNL A   1      41.690  36.846  37.155  1.00  0.00     0.163 HD
BRANCH   4   7
ATOM      7  C   UNL A   1      40.875  35.196  34.374  1.00  0.00     0.112 C 
BRANCH   7   8
ATOM      8  C   UNL A   1      39.710  34.262  34.087  1.00  0.00     0.138 C 
BRANCH   8   9
ATOM      9  C   UNL A   1      39.790  32.733  34.078  1.00  0.00     0.308 C 
ATOM     10  O   UNL A   1      39.895  32.154  35.159  1.00  0.00    -0.247 OA
ATOM     11  N   UNL A   1      39.761  32.016  32.909  1.00  0.00    -0.204 N 
ATOM     12  C   UNL A   1      38.708  31.931  32.175  1.00  0.00     0.319 C 
ATOM     13  H   UNL A   1      40.578  31.550  32.620  1.00  0.00     0.316 HD
ATOM     14  S   UNL A   1      37.206  32.844  32.525  1.00  0.00    -0.029 SA
ATOM     15  N   UNL A   1      38.575  31.251  30.954  1.00  0.00    -0.217 N 
ATOM     16  C   UNL A   1      36.465  32.300  30.988  1.00  0.00     0.120 C 
ATOM     17  C   UNL A   1      37.648  31.953  30.073  1.00  0.00     0.212 C 
ATOM     18  C   UNL A   1      35.624  33.244  30.174  1.00  0.00     0.156 C 
ATOM     19  C   UNL A   1      36.981  31.280  28.893  1.00  0.00     0.188 C 
ATOM     20  S   UNL A   1      35.542  32.338  28.623  1.00  0.00     0.155 S 
ATOM     21  O   UNL A   1      34.354  31.503  28.651  1.00  0.00    -0.229 OA
ATOM     22  O   UNL A   1      35.817  33.246  27.536  1.00  0.00    -0.229 OA
BRANCH  15  23
ATOM     23  C   UNL A   1      39.341  30.159  30.525  1.00  0.00     0.128 A 
ATOM     24  C   UNL A   1      40.473  30.302  29.706  1.00  0.00     0.056 A 
ATOM     25  C   UNL A   1      39.002  28.846  30.892  1.00  0.00     0.056 A 
ATOM     26  C   UNL A   1      41.181  29.190  29.216  1.00  0.00     0.051 A 
ATOM     27  C   UNL A   1      39.716  27.729  30.416  1.00  0.00     0.051 A 
ATOM     28  C   UNL A   1      40.786  27.891  29.537  1.00  0.00     0.127 A 
BRANCH  28  29
ATOM     29  O   UNL A   1      41.549  26.889  28.971  1.00  0.00    -0.457 OA
BRANCH  29  30
ATOM     30  C   UNL A   1      40.940  25.854  28.302  1.00  0.00     0.127 A 
ATOM     31  C   UNL A   1      41.568  24.611  28.333  1.00  0.00     0.047 A 
ATOM     32  C   UNL A   1      39.789  26.014  27.535  1.00  0.00     0.047 A 
ATOM     33  C   UNL A   1      40.975  23.492  27.753  1.00  0.00     0.004 A 
ATOM     34  C   UNL A   1      39.200  24.899  26.929  1.00  0.00     0.004 A 
ATOM     35  C   UNL A   1      39.775  23.634  27.064  1.00  0.00     0.000 A 
ENDBRANCH  29  30
ENDBRANCH  28  29
ENDBRANCH  15  23
ENDBRANCH   8   9
ENDBRANCH   7   8
ENDBRANCH   4   7
ENDBRANCH   2   3
ENDBRANCH   1   2
BRANCH   1  36
ATOM     36  C   UNL A   1      44.856  37.355  34.950  1.00  0.00     0.002 C 
BRANCH  36  37
ATOM     37  C   UNL A   1      44.069  36.853  33.745  1.00  0.00     0.002 C 
BRANCH  37  38
ATOM     38  C   UNL A   1      43.582  37.979  32.839  1.00  0.00     0.021 C 
BRANCH  38  39
ATOM     39  C   UNL A   1      44.421  38.130  31.576  1.00  0.00     0.116 C 
BRANCH  39  40
ATOM     40  N   UNL A   1      43.554  38.413  30.443  1.00  0.00    -0.352 N 
ATOM     41  C   UNL A   1      43.532  37.671  29.288  1.00  0.00     0.251 C 
ATOM     42  H   UNL A   1      42.943  39.183  30.509  1.00  0.00     0.163 HD
ATOM     43  O   UNL A   1      43.434  38.213  28.193  1.00  0.00    -0.269 OA
BRANCH  41  44
ATOM     44  C   UNL A   1      43.645  36.203  29.404  1.00  0.00     0.039 A 
ATOM     45  C   UNL A   1      44.912  35.628  29.352  1.00  0.00     0.014 A 
ATOM     46  C   UNL A   1      42.512  35.415  29.648  1.00  0.00     0.014 A 
ATOM     47  C   UNL A   1      45.059  34.286  29.676  1.00  0.00     0.010 A 
ATOM     48  C   UNL A   1      42.675  34.112  30.088  1.00  0.00     0.010 A 
ATOM     49  C   UNL A   1      43.953  33.543  30.126  1.00  0.00    -0.014 A 
BRANCH  49  50
ATOM     50  C   UNL A   1      44.148  32.202  30.719  1.00  0.00     0.031 A 
ATOM     51  C   UNL A   1      44.149  32.019  32.207  1.00  0.00     0.074 A 
ATOM     52  C   UNL A   1      44.400  31.164  29.896  1.00  0.00     0.049 A 
ATOM     53  N   UNL A   1      44.285  30.916  32.894  1.00  0.00    -0.248 NA
ATOM     54  C   UNL A   1      44.008  33.229  33.035  1.00  0.00     0.031 C 
ATOM     55  C   UNL A   1      44.536  31.254  28.438  1.00  0.00     0.029 A 
ATOM     56  N   UNL A   1      44.598  29.835  30.161  1.00  0.00    -0.354 N 
ATOM     57  C   UNL A   1      44.268  31.299  34.228  1.00  0.00     0.074 A 
ATOM     58  C   UNL A   1      44.161  32.741  34.256  1.00  0.00     0.031 C 
ATOM     59  C   UNL A   1      44.764  30.031  27.938  1.00  0.00     0.029 A 
ATOM     60  C   UNL A   1      44.830  29.076  29.038  1.00  0.00     0.049 A 
ATOM     61  H   UNL A   1      44.576  29.458  31.071  1.00  0.00     0.167 HD
ATOM     62  C   UNL A   1      44.303  30.516  35.330  1.00  0.00     0.034 A 
ATOM     63  C   UNL A   1      45.073  27.758  28.909  1.00  0.00     0.034 A 
ATOM     64  C   UNL A   1      44.392  29.083  35.285  1.00  0.00     0.049 A 
ATOM     65  C   UNL A   1      45.067  26.906  30.147  1.00  0.00     0.074 A 
ATOM     66  C   UNL A   1      44.356  28.185  36.336  1.00  0.00     0.029 A 
ATOM     67  N   UNL A   1      44.552  28.338  34.126  1.00  0.00    -0.354 N 
ATOM     68  N   UNL A   1      44.878  27.265  31.394  1.00  0.00    -0.248 NA
ATOM     69  C   UNL A   1      45.270  25.464  29.960  1.00  0.00     0.031 C 
ATOM     70  C   UNL A   1      44.531  26.899  35.815  1.00  0.00     0.029 A 
ATOM     71  C   UNL A   1      44.630  26.991  34.436  1.00  0.00     0.049 A 
ATOM     72  H   UNL A   1      44.601  28.713  33.217  1.00  0.00     0.167 HD
ATOM     73  C   UNL A   1      44.906  26.093  32.137  1.00  0.00     0.074 A 
ATOM     74  C   UNL A   1      45.106  25.010  31.196  1.00  0.00     0.031 C 
ATOM     75  C   UNL A   1      44.789  25.927  33.477  1.00  0.00     0.034 A 
BRANCH  62  76
ATOM     76  C   UNL A   1      44.200  31.196  36.671  1.00  0.00     0.023 A 
ATOM     77  C   UNL A   1      42.931  31.418  37.245  1.00  0.00     0.012 A 
ATOM     78  C   UNL A   1      45.354  31.580  37.379  1.00  0.00     0.148 A 
ATOM     79  C   UNL A   1      42.809  32.049  38.483  1.00  0.00     0.002 A 
ATOM     80  C   UNL A   1      45.227  32.162  38.635  1.00  0.00     0.091 A 
ATOM     81  F   UNL A   1      46.550  31.382  36.809  1.00  0.00    -0.205 F 
ATOM     82  C   UNL A   1      43.956  32.411  39.181  1.00  0.00     0.022 A 
BRANCH  80  83
ATOM     83  S   UNL A   1      46.643  32.592  39.652  1.00  0.00     0.127 S 
ATOM     84  O   UNL A   1      47.292  33.618  38.837  1.00  0.00    -0.237 OA
ATOM     85  O   UNL A   1      46.004  33.094  40.868  1.00  0.00    -0.237 OA
ATOM     86  O   UNL A   1      47.403  31.362  39.826  1.00  0.00    -0.744 OA
ENDBRANCH  80  83
ENDBRANCH  62  76
BRANCH  63  87
ATOM     87  C   UNL A   1      45.282  27.166  27.559  1.00  0.00     0.023 A 
ATOM     88  C   UNL A   1      44.175  26.723  26.810  1.00  0.00     0.012 A 
ATOM     89  C   UNL A   1      46.572  27.067  27.000  1.00  0.00     0.148 A 
ATOM     90  C   UNL A   1      44.351  26.158  25.545  1.00  0.00     0.002 A 
ATOM     91  C   UNL A   1      46.735  26.558  25.718  1.00  0.00     0.091 A 
ATOM     92  F   UNL A   1      47.613  27.492  27.730  1.00  0.00    -0.205 F 
ATOM     93  C   UNL A   1      45.628  26.085  24.995  1.00  0.00     0.022 A 
BRANCH  91  94
ATOM     94  S   UNL A   1      48.324  26.548  24.880  1.00  0.00     0.127 S 
ATOM     95  O   UNL A   1      48.655  27.969  24.850  1.00  0.00    -0.237 OA
ATOM     96  O   UNL A   1      49.138  25.743  25.791  1.00  0.00    -0.237 OA
ATOM     97  O   UNL A   1      48.083  25.927  23.584  1.00  0.00    -0.744 OA
ENDBRANCH  91  94
ENDBRANCH  63  87
BRANCH  75  98
ATOM     98  C   UNL A   1      44.834  24.518  34.008  1.00  0.00     0.023 A 
ATOM     99  C   UNL A   1      43.679  23.712  33.970  1.00  0.00     0.012 A 
ATOM    100  C   UNL A   1      46.046  23.974  34.477  1.00  0.00     0.148 A 
ATOM    101  C   UNL A   1      43.722  22.395  34.426  1.00  0.00     0.002 A 
ATOM    102  C   UNL A   1      46.093  22.645  34.876  1.00  0.00     0.091 A 
ATOM    103  F   UNL A   1      47.128  24.765  34.520  1.00  0.00    -0.205 F 
ATOM    104  C   UNL A   1      44.930  21.859  34.866  1.00  0.00     0.022 A 
BRANCH 102 105
ATOM    105  S   UNL A   1      47.624  21.841  35.360  1.00  0.00     0.127 S 
ATOM    106  O   UNL A   1      47.912  22.493  36.636  1.00  0.00    -0.237 OA
ATOM    107  O   UNL A   1      47.214  20.441  35.469  1.00  0.00    -0.237 OA
ATOM    108  O   UNL A   1      48.578  22.111  34.293  1.00  0.00    -0.744 OA
ENDBRANCH 102 105
ENDBRANCH  75  98
ENDBRANCH  49  50
ENDBRANCH  41  44
ENDBRANCH  39  40
ENDBRANCH  38  39
ENDBRANCH  37  38
ENDBRANCH  36  37
ENDBRANCH   1  36
TORSDOF 21
ENDMDL
