MODEL 1
REMARK VINA RESULT:     -11.2      0.000      0.000
REMARK SMILES Cc1cs/c(=N\S(=O)(=O)c2ccc(/C=C/C(=O)NCCCCCCNC(=O)c3ccc(-c4c5nc(c(-c6cccc(S(=O)(=O)[O-])c6F)c6ccc([nH]6)c(-c6cccc(S(=O)(=O)[O-])c6F)c6nc(c(-c7cccc(S(=O)(=O)[O-])c7F)c7ccc4[nH]7)C=C6)C=C5)cc3)cc2)[nH]1
REMARK SMILES IDX 21 1 20 2 19 3 18 4 16 5 17 6 15 8 14 9 13 10 10 11 11 12
REMARK SMILES IDX 92 13 12 14 91 15 7 16 8 17 9 18 6 19 1 20 2 21 3 22 93 23
REMARK SMILES IDX 4 24 5 25 22 27 23 28 24 29 25 30 26 31 27 33 28 34 29 35
REMARK SMILES IDX 90 36 30 37 89 38 31 39 32 40 33 41 83 42 34 43 88 44 82 45
REMARK SMILES IDX 84 46 35 47 87 48 81 49 80 50 36 52 68 53 48 54 67 55 49 56
REMARK SMILES IDX 52 57 66 58 85 59 50 60 51 61 65 63 86 64 53 65 37 66 38 67
REMARK SMILES IDX 46 68 39 69 41 70 47 71 40 72 42 73 43 74 44 75 45 76 69 77
REMARK SMILES IDX 70 78 78 79 71 80 73 81 79 82 72 83 74 84 75 85 76 86 77 87
REMARK SMILES IDX 54 88 55 89 63 90 56 91 58 92 64 93 57 94 59 95 60 96 61 97
REMARK SMILES IDX 62 98
REMARK H PARENT 18 7 93 26 25 32 84 51 52 62
REMARK Flexibility Score: inf
ROOT
ATOM      1  C   UNL A   1      36.955  22.386  25.209  1.00  0.00     0.002 C 
ENDROOT
BRANCH   1   2
ATOM      2  C   UNL A   1      35.429  22.463  25.356  1.00  0.00     0.021 C 
BRANCH   2   3
ATOM      3  C   UNL A   1      34.884  23.890  25.403  1.00  0.00     0.116 C 
BRANCH   3   4
ATOM      4  N   UNL A   1      33.434  23.888  25.301  1.00  0.00    -0.353 N 
ATOM      5  C   UNL A   1      32.525  24.855  25.588  1.00  0.00     0.243 C 
ATOM      6  O   UNL A   1      31.336  24.674  25.333  1.00  0.00    -0.270 OA
ATOM      7  H   UNL A   1      33.047  23.047  24.968  1.00  0.00     0.163 HD
BRANCH   5   8
ATOM      8  C   UNL A   1      32.958  26.163  26.120  1.00  0.00     0.072 C 
ATOM      9  C   UNL A   1      32.345  27.327  25.855  1.00  0.00     0.014 C 
BRANCH   9  10
ATOM     10  C   UNL A   1      32.828  28.609  26.384  1.00  0.00    -0.025 A 
ATOM     11  C   UNL A   1      33.778  31.012  27.462  1.00  0.00     0.089 A 
ATOM     12  C   UNL A   1      32.439  30.905  27.073  1.00  0.00     0.023 A 
ATOM     13  C   UNL A   1      34.648  29.929  27.320  1.00  0.00     0.023 A 
ATOM     14  C   UNL A   1      31.968  29.705  26.536  1.00  0.00     0.009 A 
ATOM     15  C   UNL A   1      34.167  28.728  26.786  1.00  0.00     0.009 A 
BRANCH  11  16
ATOM     16  S   UNL A   1      34.311  32.551  28.195  1.00  0.00     0.285 S 
ATOM     17  O   UNL A   1      33.146  33.418  28.121  1.00  0.00    -0.199 OA
ATOM     18  O   UNL A   1      35.541  32.890  27.514  1.00  0.00    -0.199 OA
BRANCH  16  19
ATOM     19  N   UNL A   1      34.618  32.200  29.739  1.00  0.00    -0.130 NA
ATOM     20  C   UNL A   1      35.024  33.877  34.271  1.00  0.00     0.065 C 
ATOM     21  C   UNL A   1      34.774  34.007  32.809  1.00  0.00     0.024 A 
ATOM     22  C   UNL A   1      34.457  35.141  32.161  1.00  0.00     0.089 A 
ATOM     23  N   UNL A   1      34.853  32.910  31.974  1.00  0.00    -0.334 N 
ATOM     24  S   UNL A   1      34.252  34.863  30.445  1.00  0.00    -0.104 S 
ATOM     25  C   UNL A   1      34.601  33.119  30.638  1.00  0.00     0.199 A 
ATOM     26  H   UNL A   1      35.081  32.017  32.320  1.00  0.00     0.169 HD
ENDBRANCH  16  19
ENDBRANCH  11  16
ENDBRANCH   9  10
ENDBRANCH   5   8
ENDBRANCH   3   4
ENDBRANCH   2   3
ENDBRANCH   1   2
BRANCH   1  27
ATOM     27  C   UNL A   1      37.465  21.304  24.250  1.00  0.00     0.002 C 
BRANCH  27  28
ATOM     28  C   UNL A   1      38.057  20.059  24.921  1.00  0.00     0.021 C 
BRANCH  28  29
ATOM     29  C   UNL A   1      39.072  20.348  26.025  1.00  0.00     0.116 C 
BRANCH  29  30
ATOM     30  N   UNL A   1      40.197  19.427  25.984  1.00  0.00    -0.352 N 
ATOM     31  C   UNL A   1      41.542  19.699  26.038  1.00  0.00     0.251 C 
ATOM     32  H   UNL A   1      39.961  18.474  25.909  1.00  0.00     0.163 HD
ATOM     33  O   UNL A   1      42.357  18.813  25.798  1.00  0.00    -0.269 OA
BRANCH  31  34
ATOM     34  C   UNL A   1      42.007  21.064  26.372  1.00  0.00     0.039 A 
ATOM     35  C   UNL A   1      42.291  21.375  27.705  1.00  0.00     0.014 A 
ATOM     36  C   UNL A   1      42.143  22.037  25.379  1.00  0.00     0.014 A 
ATOM     37  C   UNL A   1      42.759  22.650  28.035  1.00  0.00     0.010 A 
ATOM     38  C   UNL A   1      42.664  23.288  25.700  1.00  0.00     0.010 A 
ATOM     39  C   UNL A   1      42.970  23.609  27.031  1.00  0.00    -0.014 A 
BRANCH  39  40
ATOM     40  C   UNL A   1      43.514  24.953  27.351  1.00  0.00     0.031 A 
ATOM     41  C   UNL A   1      42.613  26.027  27.895  1.00  0.00     0.074 A 
ATOM     42  C   UNL A   1      44.799  25.236  27.062  1.00  0.00     0.049 A 
ATOM     43  N   UNL A   1      42.892  27.272  28.179  1.00  0.00    -0.248 NA
ATOM     44  C   UNL A   1      41.205  25.661  28.123  1.00  0.00     0.031 C 
ATOM     45  C   UNL A   1      45.753  24.305  26.456  1.00  0.00     0.029 A 
ATOM     46  N   UNL A   1      45.516  26.396  27.212  1.00  0.00    -0.354 N 
ATOM     47  C   UNL A   1      41.693  27.849  28.579  1.00  0.00     0.074 A 
ATOM     48  C   UNL A   1      40.677  26.824  28.474  1.00  0.00     0.031 C 
ATOM     49  C   UNL A   1      46.930  24.931  26.290  1.00  0.00     0.029 A 
ATOM     50  C   UNL A   1      46.810  26.308  26.756  1.00  0.00     0.049 A 
ATOM     51  H   UNL A   1      45.139  27.216  27.608  1.00  0.00     0.167 HD
ATOM     52  C   UNL A   1      41.462  29.108  29.022  1.00  0.00     0.034 A 
ATOM     53  C   UNL A   1      47.790  27.232  26.720  1.00  0.00     0.034 A 
ATOM     54  C   UNL A   1      42.486  30.105  29.184  1.00  0.00     0.049 A 
ATOM     55  C   UNL A   1      47.525  28.605  27.275  1.00  0.00     0.074 A 
ATOM     56  C   UNL A   1      42.374  31.372  29.729  1.00  0.00     0.029 A 
ATOM     57  N   UNL A   1      43.808  29.949  28.801  1.00  0.00    -0.354 N 
ATOM     58  N   UNL A   1      46.427  29.080  27.809  1.00  0.00    -0.248 NA
ATOM     59  C   UNL A   1      48.645  29.557  27.258  1.00  0.00     0.031 C 
ATOM     60  C   UNL A   1      43.629  31.986  29.666  1.00  0.00     0.029 A 
ATOM     61  C   UNL A   1      44.524  31.099  29.089  1.00  0.00     0.049 A 
ATOM     62  H   UNL A   1      44.184  29.140  28.385  1.00  0.00     0.167 HD
ATOM     63  C   UNL A   1      46.729  30.372  28.219  1.00  0.00     0.074 A 
ATOM     64  C   UNL A   1      48.121  30.600  27.889  1.00  0.00     0.031 C 
ATOM     65  C   UNL A   1      45.923  31.293  28.803  1.00  0.00     0.034 A 
BRANCH  52  66
ATOM     66  C   UNL A   1      40.054  29.456  29.426  1.00  0.00     0.023 A 
ATOM     67  C   UNL A   1      39.105  29.767  28.430  1.00  0.00     0.012 A 
ATOM     68  C   UNL A   1      39.657  29.439  30.777  1.00  0.00     0.148 A 
ATOM     69  C   UNL A   1      37.794  30.090  28.774  1.00  0.00     0.002 A 
ATOM     70  C   UNL A   1      38.336  29.723  31.109  1.00  0.00     0.091 A 
ATOM     71  F   UNL A   1      40.577  29.169  31.714  1.00  0.00    -0.205 F 
ATOM     72  C   UNL A   1      37.407  30.059  30.111  1.00  0.00     0.022 A 
BRANCH  70  73
ATOM     73  S   UNL A   1      37.738  29.636  32.800  1.00  0.00     0.127 S 
ATOM     74  O   UNL A   1      38.867  30.194  33.544  1.00  0.00    -0.237 OA
ATOM     75  O   UNL A   1      36.553  30.495  32.759  1.00  0.00    -0.237 OA
ATOM     76  O   UNL A   1      37.452  28.230  33.044  1.00  0.00    -0.744 OA
ENDBRANCH  70  73
ENDBRANCH  52  66
BRANCH  53  77
ATOM     77  C   UNL A   1      49.141  26.852  26.221  1.00  0.00     0.023 A 
ATOM     78  C   UNL A   1      49.961  26.036  27.023  1.00  0.00     0.012 A 
ATOM     79  C   UNL A   1      49.593  27.241  24.946  1.00  0.00     0.148 A 
ATOM     80  C   UNL A   1      51.217  25.629  26.572  1.00  0.00     0.002 A 
ATOM     81  C   UNL A   1      50.824  26.792  24.483  1.00  0.00     0.091 A 
ATOM     82  F   UNL A   1      48.802  28.030  24.204  1.00  0.00    -0.205 F 
ATOM     83  C   UNL A   1      51.644  25.997  25.299  1.00  0.00     0.022 A 
BRANCH  81  84
ATOM     84  S   UNL A   1      51.397  27.109  22.810  1.00  0.00     0.127 S 
ATOM     85  O   UNL A   1      50.314  26.543  22.009  1.00  0.00    -0.237 OA
ATOM     86  O   UNL A   1      51.480  28.571  22.790  1.00  0.00    -0.237 OA
ATOM     87  O   UNL A   1      52.684  26.435  22.701  1.00  0.00    -0.744 OA
ENDBRANCH  81  84
ENDBRANCH  53  77
BRANCH  65  88
ATOM     88  C   UNL A   1      46.523  32.632  29.143  1.00  0.00     0.023 A 
ATOM     89  C   UNL A   1      47.253  32.782  30.339  1.00  0.00     0.012 A 
ATOM     90  C   UNL A   1      46.433  33.713  28.245  1.00  0.00     0.148 A 
ATOM     91  C   UNL A   1      47.865  33.995  30.647  1.00  0.00     0.002 A 
ATOM     92  C   UNL A   1      47.082  34.907  28.540  1.00  0.00     0.091 A 
ATOM     93  F   UNL A   1      45.715  33.558  27.124  1.00  0.00    -0.205 F 
ATOM     94  C   UNL A   1      47.791  35.053  29.743  1.00  0.00     0.022 A 
BRANCH  92  95
ATOM     95  S   UNL A   1      47.112  36.287  27.389  1.00  0.00     0.127 S 
ATOM     96  O   UNL A   1      47.911  37.268  28.122  1.00  0.00    -0.237 OA
ATOM     97  O   UNL A   1      47.779  35.709  26.221  1.00  0.00    -0.237 OA
ATOM     98  O   UNL A   1      45.718  36.647  27.167  1.00  0.00    -0.744 OA
ENDBRANCH  92  95
ENDBRANCH  65  88
ENDBRANCH  39  40
ENDBRANCH  31  34
ENDBRANCH  29  30
ENDBRANCH  28  29
ENDBRANCH  27  28
ENDBRANCH   1  27
TORSDOF 19
ENDMDL
MODEL 2
REMARK VINA RESULT:     -11.2      4.797      9.841
REMARK SMILES Cc1cs/c(=N\S(=O)(=O)c2ccc(/C=C/C(=O)NCCCCCCNC(=O)c3ccc(-c4c5nc(c(-c6cccc(S(=O)(=O)[O-])c6F)c6ccc([nH]6)c(-c6cccc(S(=O)(=O)[O-])c6F)c6nc(c(-c7cccc(S(=O)(=O)[O-])c7F)c7ccc4[nH]7)C=C6)C=C5)cc3)cc2)[nH]1
REMARK SMILES IDX 21 1 20 2 19 3 18 4 16 5 17 6 15 8 14 9 13 10 10 11 11 12
REMARK SMILES IDX 92 13 12 14 91 15 7 16 8 17 9 18 6 19 1 20 2 21 3 22 93 23
REMARK SMILES IDX 4 24 5 25 22 27 23 28 24 29 25 30 26 31 27 33 28 34 29 35
REMARK SMILES IDX 90 36 30 37 89 38 31 39 32 40 33 41 83 42 34 43 88 44 82 45
REMARK SMILES IDX 84 46 35 47 87 48 81 49 80 50 36 52 68 53 48 54 67 55 49 56
REMARK SMILES IDX 52 57 66 58 85 59 50 60 51 61 65 63 86 64 53 65 37 66 38 67
REMARK SMILES IDX 46 68 39 69 41 70 47 71 40 72 42 73 43 74 44 75 45 76 69 77
REMARK SMILES IDX 70 78 78 79 71 80 73 81 79 82 72 83 74 84 75 85 76 86 77 87
REMARK SMILES IDX 54 88 55 89 63 90 56 91 58 92 64 93 57 94 59 95 60 96 61 97
REMARK SMILES IDX 62 98
REMARK H PARENT 18 7 93 26 25 32 84 51 52 62
REMARK Flexibility Score: inf
ROOT
ATOM      1  C   UNL A   1      33.060  35.342  29.822  1.00  0.00     0.002 C 
ENDROOT
BRANCH   1   2
ATOM      2  C   UNL A   1      32.822  36.516  30.781  1.00  0.00     0.021 C 
BRANCH   2   3
ATOM      3  C   UNL A   1      33.567  36.389  32.110  1.00  0.00     0.116 C 
BRANCH   3   4
ATOM      4  N   UNL A   1      33.258  35.122  32.751  1.00  0.00    -0.353 N 
ATOM      5  C   UNL A   1      34.001  33.993  32.884  1.00  0.00     0.243 C 
ATOM      6  O   UNL A   1      33.578  33.056  33.557  1.00  0.00    -0.270 OA
ATOM      7  H   UNL A   1      32.363  35.074  33.157  1.00  0.00     0.163 HD
BRANCH   5   8
ATOM      8  C   UNL A   1      35.357  33.910  32.303  1.00  0.00     0.072 C 
ATOM      9  C   UNL A   1      36.450  34.461  32.853  1.00  0.00     0.014 C 
BRANCH   9  10
ATOM     10  C   UNL A   1      37.774  34.377  32.225  1.00  0.00    -0.025 A 
ATOM     11  C   UNL A   1      40.278  34.140  30.997  1.00  0.00     0.089 A 
ATOM     12  C   UNL A   1      40.198  34.397  32.369  1.00  0.00     0.023 A 
ATOM     13  C   UNL A   1      39.119  33.999  30.231  1.00  0.00     0.023 A 
ATOM     14  C   UNL A   1      38.948  34.514  32.979  1.00  0.00     0.009 A 
ATOM     15  C   UNL A   1      37.870  34.112  30.851  1.00  0.00     0.009 A 
BRANCH  11  16
ATOM     16  S   UNL A   1      41.903  33.943  30.280  1.00  0.00     0.285 S 
ATOM     17  O   UNL A   1      42.816  34.445  31.294  1.00  0.00    -0.199 OA
ATOM     18  O   UNL A   1      41.820  34.563  28.975  1.00  0.00    -0.199 OA
BRANCH  16  19
ATOM     19  N   UNL A   1      42.104  32.352  30.120  1.00  0.00    -0.130 NA
ATOM     20  C   UNL A   1      44.844  28.776  28.322  1.00  0.00     0.065 C 
ATOM     21  C   UNL A   1      44.490  30.201  28.571  1.00  0.00     0.024 A 
ATOM     22  C   UNL A   1      45.192  31.271  28.160  1.00  0.00     0.089 A 
ATOM     23  N   UNL A   1      43.354  30.539  29.280  1.00  0.00    -0.334 N 
ATOM     24  S   UNL A   1      44.430  32.767  28.655  1.00  0.00    -0.104 S 
ATOM     25  C   UNL A   1      43.107  31.878  29.469  1.00  0.00     0.199 A 
ATOM     26  H   UNL A   1      42.747  29.850  29.636  1.00  0.00     0.169 HD
ENDBRANCH  16  19
ENDBRANCH  11  16
ENDBRANCH   9  10
ENDBRANCH   5   8
ENDBRANCH   3   4
ENDBRANCH   2   3
ENDBRANCH   1   2
BRANCH   1  27
ATOM     27  C   UNL A   1      33.986  35.643  28.638  1.00  0.00     0.002 C 
BRANCH  27  28
ATOM     28  C   UNL A   1      34.739  34.435  28.070  1.00  0.00     0.021 C 
BRANCH  28  29
ATOM     29  C   UNL A   1      34.535  33.133  28.842  1.00  0.00     0.116 C 
BRANCH  29  30
ATOM     30  N   UNL A   1      33.916  32.104  28.020  1.00  0.00    -0.352 N 
ATOM     31  C   UNL A   1      34.429  30.899  27.609  1.00  0.00     0.251 C 
ATOM     32  H   UNL A   1      33.000  32.300  27.717  1.00  0.00     0.163 HD
ATOM     33  O   UNL A   1      33.837  30.239  26.758  1.00  0.00    -0.269 OA
BRANCH  31  34
ATOM     34  C   UNL A   1      35.700  30.402  28.180  1.00  0.00     0.039 A 
ATOM     35  C   UNL A   1      35.684  29.786  29.434  1.00  0.00     0.014 A 
ATOM     36  C   UNL A   1      36.906  30.563  27.491  1.00  0.00     0.014 A 
ATOM     37  C   UNL A   1      36.871  29.286  29.977  1.00  0.00     0.010 A 
ATOM     38  C   UNL A   1      38.077  30.013  28.006  1.00  0.00     0.010 A 
ATOM     39  C   UNL A   1      38.073  29.376  29.256  1.00  0.00    -0.014 A 
BRANCH  39  40
ATOM     40  C   UNL A   1      39.336  28.807  29.789  1.00  0.00     0.031 A 
ATOM     41  C   UNL A   1      39.985  29.408  31.006  1.00  0.00     0.074 A 
ATOM     42  C   UNL A   1      39.950  27.810  29.123  1.00  0.00     0.049 A 
ATOM     43  N   UNL A   1      41.114  29.086  31.582  1.00  0.00    -0.248 NA
ATOM     44  C   UNL A   1      39.288  30.538  31.641  1.00  0.00     0.031 C 
ATOM     45  C   UNL A   1      39.463  27.197  27.885  1.00  0.00     0.029 A 
ATOM     46  N   UNL A   1      41.129  27.157  29.376  1.00  0.00    -0.354 N 
ATOM     47  C   UNL A   1      41.283  29.995  32.619  1.00  0.00     0.074 A 
ATOM     48  C   UNL A   1      40.155  30.900  32.576  1.00  0.00     0.031 C 
ATOM     49  C   UNL A   1      40.335  26.255  27.491  1.00  0.00     0.029 A 
ATOM     50  C   UNL A   1      41.450  26.210  28.432  1.00  0.00     0.049 A 
ATOM     51  H   UNL A   1      41.693  27.347  30.161  1.00  0.00     0.167 HD
ATOM     52  C   UNL A   1      42.272  30.054  33.543  1.00  0.00     0.034 A 
ATOM     53  C   UNL A   1      42.521  25.398  28.335  1.00  0.00     0.034 A 
ATOM     54  C   UNL A   1      43.359  29.115  33.621  1.00  0.00     0.049 A 
ATOM     55  C   UNL A   1      43.574  25.441  29.408  1.00  0.00     0.074 A 
ATOM     56  C   UNL A   1      44.348  29.022  34.584  1.00  0.00     0.029 A 
ATOM     57  N   UNL A   1      43.600  28.108  32.701  1.00  0.00    -0.354 N 
ATOM     58  N   UNL A   1      43.629  26.195  30.479  1.00  0.00    -0.248 NA
ATOM     59  C   UNL A   1      44.693  24.498  29.280  1.00  0.00     0.031 C 
ATOM     60  C   UNL A   1      45.195  27.964  34.239  1.00  0.00     0.029 A 
ATOM     61  C   UNL A   1      44.728  27.392  33.066  1.00  0.00     0.049 A 
ATOM     62  H   UNL A   1      43.051  27.928  31.904  1.00  0.00     0.167 HD
ATOM     63  C   UNL A   1      44.768  25.797  31.168  1.00  0.00     0.074 A 
ATOM     64  C   UNL A   1      45.364  24.721  30.404  1.00  0.00     0.031 C 
ATOM     65  C   UNL A   1      45.281  26.288  32.323  1.00  0.00     0.034 A 
BRANCH  52  66
ATOM     66  C   UNL A   1      42.185  31.136  34.586  1.00  0.00     0.023 A 
ATOM     67  C   UNL A   1      41.409  30.920  35.744  1.00  0.00     0.012 A 
ATOM     68  C   UNL A   1      42.895  32.344  34.447  1.00  0.00     0.148 A 
ATOM     69  C   UNL A   1      41.312  31.902  36.728  1.00  0.00     0.002 A 
ATOM     70  C   UNL A   1      42.825  33.303  35.452  1.00  0.00     0.091 A 
ATOM     71  F   UNL A   1      43.606  32.546  33.327  1.00  0.00    -0.205 F 
ATOM     72  C   UNL A   1      42.027  33.088  36.587  1.00  0.00     0.022 A 
BRANCH  70  73
ATOM     73  S   UNL A   1      43.771  34.829  35.383  1.00  0.00     0.127 S 
ATOM     74  O   UNL A   1      42.710  35.830  35.286  1.00  0.00    -0.237 OA
ATOM     75  O   UNL A   1      44.482  34.816  36.663  1.00  0.00    -0.237 OA
ATOM     76  O   UNL A   1      44.633  34.704  34.216  1.00  0.00    -0.744 OA
ENDBRANCH  70  73
ENDBRANCH  52  66
BRANCH  53  77
ATOM     77  C   UNL A   1      42.595  24.408  27.225  1.00  0.00     0.023 A 
ATOM     78  C   UNL A   1      43.299  24.746  26.053  1.00  0.00     0.012 A 
ATOM     79  C   UNL A   1      42.028  23.125  27.341  1.00  0.00     0.148 A 
ATOM     80  C   UNL A   1      43.421  23.831  25.008  1.00  0.00     0.002 A 
ATOM     81  C   UNL A   1      42.196  22.200  26.317  1.00  0.00     0.091 A 
ATOM     82  F   UNL A   1      41.350  22.828  28.459  1.00  0.00    -0.205 F 
ATOM     83  C   UNL A   1      42.880  22.555  25.144  1.00  0.00     0.022 A 
BRANCH  81  84
ATOM     84  S   UNL A   1      41.645  20.496  26.459  1.00  0.00     0.127 S 
ATOM     85  O   UNL A   1      42.382  19.851  25.376  1.00  0.00    -0.237 OA
ATOM     86  O   UNL A   1      42.093  20.144  27.807  1.00  0.00    -0.237 OA
ATOM     87  O   UNL A   1      40.197  20.538  26.303  1.00  0.00    -0.744 OA
ENDBRANCH  81  84
ENDBRANCH  53  77
BRANCH  65  88
ATOM     88  C   UNL A   1      46.545  25.661  32.848  1.00  0.00     0.023 A 
ATOM     89  C   UNL A   1      47.793  26.200  32.479  1.00  0.00     0.012 A 
ATOM     90  C   UNL A   1      46.495  24.594  33.767  1.00  0.00     0.148 A 
ATOM     91  C   UNL A   1      48.973  25.672  32.997  1.00  0.00     0.002 A 
ATOM     92  C   UNL A   1      47.675  24.100  34.311  1.00  0.00     0.091 A 
ATOM     93  F   UNL A   1      45.299  24.079  34.088  1.00  0.00    -0.205 F 
ATOM     94  C   UNL A   1      48.915  24.632  33.922  1.00  0.00     0.022 A 
BRANCH  92  95
ATOM     95  S   UNL A   1      47.683  22.824  35.576  1.00  0.00     0.127 S 
ATOM     96  O   UNL A   1      49.029  22.960  36.129  1.00  0.00    -0.237 OA
ATOM     97  O   UNL A   1      46.609  23.259  36.470  1.00  0.00    -0.237 OA
ATOM     98  O   UNL A   1      47.412  21.574  34.878  1.00  0.00    -0.744 OA
ENDBRANCH  92  95
ENDBRANCH  65  88
ENDBRANCH  39  40
ENDBRANCH  31  34
ENDBRANCH  29  30
ENDBRANCH  28  29
ENDBRANCH  27  28
ENDBRANCH   1  27
TORSDOF 19
ENDMDL
MODEL 3
REMARK VINA RESULT:     -10.5      5.093     12.344
REMARK SMILES Cc1cs/c(=N\S(=O)(=O)c2ccc(/C=C/C(=O)NCCCCCCNC(=O)c3ccc(-c4c5nc(c(-c6cccc(S(=O)(=O)[O-])c6F)c6ccc([nH]6)c(-c6cccc(S(=O)(=O)[O-])c6F)c6nc(c(-c7cccc(S(=O)(=O)[O-])c7F)c7ccc4[nH]7)C=C6)C=C5)cc3)cc2)[nH]1
REMARK SMILES IDX 21 1 20 2 19 3 18 4 16 5 17 6 15 8 14 9 13 10 10 11 11 12
REMARK SMILES IDX 92 13 12 14 91 15 7 16 8 17 9 18 6 19 1 20 2 21 3 22 93 23
REMARK SMILES IDX 4 24 5 25 22 27 23 28 24 29 25 30 26 31 27 33 28 34 29 35
REMARK SMILES IDX 90 36 30 37 89 38 31 39 32 40 33 41 83 42 34 43 88 44 82 45
REMARK SMILES IDX 84 46 35 47 87 48 81 49 80 50 36 52 68 53 48 54 67 55 49 56
REMARK SMILES IDX 52 57 66 58 85 59 50 60 51 61 65 63 86 64 53 65 37 66 38 67
REMARK SMILES IDX 46 68 39 69 41 70 47 71 40 72 42 73 43 74 44 75 45 76 69 77
REMARK SMILES IDX 70 78 78 79 71 80 73 81 79 82 72 83 74 84 75 85 76 86 77 87
REMARK SMILES IDX 54 88 55 89 63 90 56 91 58 92 64 93 57 94 59 95 60 96 61 97
REMARK SMILES IDX 62 98
REMARK H PARENT 18 7 93 26 25 32 84 51 52 62
REMARK Flexibility Score: inf
ROOT
ATOM      1  C   UNL A   1      32.677  28.976  26.912  1.00  0.00     0.002 C 
ENDROOT
BRANCH   1   2
ATOM      2  C   UNL A   1      33.456  27.843  26.229  1.00  0.00     0.021 C 
BRANCH   2   3
ATOM      3  C   UNL A   1      32.795  26.471  26.361  1.00  0.00     0.116 C 
BRANCH   3   4
ATOM      4  N   UNL A   1      32.521  25.908  25.049  1.00  0.00    -0.353 N 
ATOM      5  C   UNL A   1      33.254  25.064  24.278  1.00  0.00     0.243 C 
ATOM      6  O   UNL A   1      32.784  24.628  23.229  1.00  0.00    -0.270 OA
ATOM      7  H   UNL A   1      31.662  26.182  24.656  1.00  0.00     0.163 HD
BRANCH   5   8
ATOM      8  C   UNL A   1      34.577  24.587  24.729  1.00  0.00     0.072 C 
ATOM      9  C   UNL A   1      35.096  23.390  24.416  1.00  0.00     0.014 C 
BRANCH   9  10
ATOM     10  C   UNL A   1      36.405  22.946  24.911  1.00  0.00    -0.025 A 
ATOM     11  C   UNL A   1      38.863  22.030  25.889  1.00  0.00     0.089 A 
ATOM     12  C   UNL A   1      38.418  23.314  26.219  1.00  0.00     0.023 A 
ATOM     13  C   UNL A   1      38.092  21.197  25.076  1.00  0.00     0.023 A 
ATOM     14  C   UNL A   1      37.192  23.767  25.731  1.00  0.00     0.009 A 
ATOM     15  C   UNL A   1      36.861  21.657  24.595  1.00  0.00     0.009 A 
BRANCH  11  16
ATOM     16  S   UNL A   1      40.413  21.481  26.588  1.00  0.00     0.285 S 
ATOM     17  O   UNL A   1      40.382  20.033  26.461  1.00  0.00    -0.199 OA
ATOM     18  O   UNL A   1      40.490  22.117  27.885  1.00  0.00    -0.199 OA
BRANCH  16  19
ATOM     19  N   UNL A   1      41.551  22.079  25.615  1.00  0.00    -0.130 NA
ATOM     20  C   UNL A   1      45.725  24.527  25.291  1.00  0.00     0.065 C 
ATOM     21  C   UNL A   1      44.583  23.912  26.022  1.00  0.00     0.024 A 
ATOM     22  C   UNL A   1      44.411  23.907  27.355  1.00  0.00     0.089 A 
ATOM     23  N   UNL A   1      43.568  23.268  25.342  1.00  0.00    -0.334 N 
ATOM     24  S   UNL A   1      42.934  23.083  27.807  1.00  0.00    -0.104 S 
ATOM     25  C   UNL A   1      42.556  22.723  26.097  1.00  0.00     0.199 A 
ATOM     26  H   UNL A   1      43.569  23.202  24.360  1.00  0.00     0.169 HD
ENDBRANCH  16  19
ENDBRANCH  11  16
ENDBRANCH   9  10
ENDBRANCH   5   8
ENDBRANCH   3   4
ENDBRANCH   2   3
ENDBRANCH   1   2
BRANCH   1  27
ATOM     27  C   UNL A   1      33.488  30.244  27.202  1.00  0.00     0.002 C 
BRANCH  27  28
ATOM     28  C   UNL A   1      32.673  31.539  27.284  1.00  0.00     0.021 C 
BRANCH  28  29
ATOM     29  C   UNL A   1      33.475  32.817  27.053  1.00  0.00     0.116 C 
BRANCH  29  30
ATOM     30  N   UNL A   1      32.904  33.955  27.759  1.00  0.00    -0.352 N 
ATOM     31  C   UNL A   1      33.200  34.436  29.010  1.00  0.00     0.251 C 
ATOM     32  H   UNL A   1      32.208  34.449  27.269  1.00  0.00     0.163 HD
ATOM     33  O   UNL A   1      32.483  35.290  29.524  1.00  0.00    -0.269 OA
BRANCH  31  34
ATOM     34  C   UNL A   1      34.374  33.915  29.744  1.00  0.00     0.039 A 
ATOM     35  C   UNL A   1      34.179  32.951  30.737  1.00  0.00     0.014 A 
ATOM     36  C   UNL A   1      35.659  34.391  29.469  1.00  0.00     0.014 A 
ATOM     37  C   UNL A   1      35.279  32.427  31.422  1.00  0.00     0.010 A 
ATOM     38  C   UNL A   1      36.759  33.826  30.110  1.00  0.00     0.010 A 
ATOM     39  C   UNL A   1      36.580  32.846  31.097  1.00  0.00    -0.014 A 
BRANCH  39  40
ATOM     40  C   UNL A   1      37.768  32.266  31.774  1.00  0.00     0.031 A 
ATOM     41  C   UNL A   1      38.547  31.158  31.121  1.00  0.00     0.074 A 
ATOM     42  C   UNL A   1      38.087  32.671  33.018  1.00  0.00     0.049 A 
ATOM     43  N   UNL A   1      39.574  30.491  31.581  1.00  0.00    -0.248 NA
ATOM     44  C   UNL A   1      38.097  30.724  29.788  1.00  0.00     0.031 C 
ATOM     45  C   UNL A   1      37.360  33.680  33.791  1.00  0.00     0.029 A 
ATOM     46  N   UNL A   1      39.089  32.264  33.863  1.00  0.00    -0.354 N 
ATOM     47  C   UNL A   1      39.866  29.534  30.617  1.00  0.00     0.074 A 
ATOM     48  C   UNL A   1      38.892  29.689  29.559  1.00  0.00     0.031 C 
ATOM     49  C   UNL A   1      37.942  33.814  34.994  1.00  0.00     0.029 A 
ATOM     50  C   UNL A   1      39.068  32.890  35.087  1.00  0.00     0.049 A 
ATOM     51  H   UNL A   1      39.760  31.586  33.616  1.00  0.00     0.167 HD
ATOM     52  C   UNL A   1      40.873  28.628  30.599  1.00  0.00     0.034 A 
ATOM     53  C   UNL A   1      39.866  32.738  36.162  1.00  0.00     0.034 A 
ATOM     54  C   UNL A   1      41.877  28.517  31.623  1.00  0.00     0.049 A 
ATOM     55  C   UNL A   1      41.014  31.769  36.092  1.00  0.00     0.074 A 
ATOM     56  C   UNL A   1      43.000  27.709  31.644  1.00  0.00     0.029 A 
ATOM     57  N   UNL A   1      41.879  29.236  32.807  1.00  0.00    -0.354 N 
ATOM     58  N   UNL A   1      41.377  30.992  35.101  1.00  0.00    -0.248 NA
ATOM     59  C   UNL A   1      41.883  31.681  37.274  1.00  0.00     0.031 C 
ATOM     60  C   UNL A   1      43.676  27.932  32.848  1.00  0.00     0.029 A 
ATOM     61  C   UNL A   1      42.979  28.886  33.573  1.00  0.00     0.049 A 
ATOM     62  H   UNL A   1      41.198  29.899  33.067  1.00  0.00     0.167 HD
ATOM     63  C   UNL A   1      42.534  30.348  35.525  1.00  0.00     0.074 A 
ATOM     64  C   UNL A   1      42.821  30.840  36.857  1.00  0.00     0.031 C 
ATOM     65  C   UNL A   1      43.281  29.422  34.875  1.00  0.00     0.034 A 
BRANCH  52  66
ATOM     66  C   UNL A   1      40.975  27.725  29.398  1.00  0.00     0.023 A 
ATOM     67  C   UNL A   1      40.224  26.532  29.363  1.00  0.00     0.012 A 
ATOM     68  C   UNL A   1      41.776  28.069  28.292  1.00  0.00     0.148 A 
ATOM     69  C   UNL A   1      40.296  25.679  28.263  1.00  0.00     0.002 A 
ATOM     70  C   UNL A   1      41.811  27.233  27.181  1.00  0.00     0.091 A 
ATOM     71  F   UNL A   1      42.505  29.193  28.351  1.00  0.00    -0.205 F 
ATOM     72  C   UNL A   1      41.081  26.033  27.170  1.00  0.00     0.022 A 
BRANCH  70  73
ATOM     73  S   UNL A   1      42.741  27.649  25.701  1.00  0.00     0.127 S 
ATOM     74  O   UNL A   1      42.183  28.956  25.359  1.00  0.00    -0.237 OA
ATOM     75  O   UNL A   1      44.119  27.685  26.196  1.00  0.00    -0.237 OA
ATOM     76  O   UNL A   1      42.471  26.577  24.754  1.00  0.00    -0.744 OA
ENDBRANCH  70  73
ENDBRANCH  52  66
BRANCH  53  77
ATOM     77  C   UNL A   1      39.657  33.598  37.360  1.00  0.00     0.023 A 
ATOM     78  C   UNL A   1      40.190  34.901  37.368  1.00  0.00     0.012 A 
ATOM     79  C   UNL A   1      38.892  33.160  38.458  1.00  0.00     0.148 A 
ATOM     80  C   UNL A   1      39.983  35.747  38.457  1.00  0.00     0.002 A 
ATOM     81  C   UNL A   1      38.647  34.026  39.517  1.00  0.00     0.091 A 
ATOM     82  F   UNL A   1      38.404  31.912  38.435  1.00  0.00    -0.205 F 
ATOM     83  C   UNL A   1      39.203  35.315  39.526  1.00  0.00     0.022 A 
BRANCH  81  84
ATOM     84  S   UNL A   1      37.549  33.599  40.874  1.00  0.00     0.127 S 
ATOM     85  O   UNL A   1      37.399  34.883  41.554  1.00  0.00    -0.237 OA
ATOM     86  O   UNL A   1      36.356  33.133  40.164  1.00  0.00    -0.237 OA
ATOM     87  O   UNL A   1      38.240  32.560  41.626  1.00  0.00    -0.744 OA
ENDBRANCH  81  84
ENDBRANCH  53  77
BRANCH  65  88
ATOM     88  C   UNL A   1      44.497  28.885  35.583  1.00  0.00     0.023 A 
ATOM     89  C   UNL A   1      45.760  29.454  35.323  1.00  0.00     0.012 A 
ATOM     90  C   UNL A   1      44.379  27.877  36.559  1.00  0.00     0.148 A 
ATOM     91  C   UNL A   1      46.890  29.012  36.008  1.00  0.00     0.002 A 
ATOM     92  C   UNL A   1      45.504  27.470  37.267  1.00  0.00     0.091 A 
ATOM     93  F   UNL A   1      43.173  27.331  36.775  1.00  0.00    -0.205 F 
ATOM     94  C   UNL A   1      46.761  28.030  36.988  1.00  0.00     0.022 A 
BRANCH  92  95
ATOM     95  S   UNL A   1      45.409  26.278  38.608  1.00  0.00     0.127 S 
ATOM     96  O   UNL A   1      46.778  26.298  39.122  1.00  0.00    -0.237 OA
ATOM     97  O   UNL A   1      44.415  26.881  39.497  1.00  0.00    -0.237 OA
ATOM     98  O   UNL A   1      44.985  25.026  37.995  1.00  0.00    -0.744 OA
ENDBRANCH  92  95
ENDBRANCH  65  88
ENDBRANCH  39  40
ENDBRANCH  31  34
ENDBRANCH  29  30
ENDBRANCH  28  29
ENDBRANCH  27  28
ENDBRANCH   1  27
TORSDOF 19
ENDMDL
