MODEL 1
REMARK VINA RESULT:     -10.7      0.000      0.000
REMARK SMILES CCOC(=O)[C@@H]1CCCCN1C(=O)N[C@](C)(CC)C(=O)NCCCCCCNC(=O)c1ccc(-c2c3nc(c(-c4cccc(S(=O)(=O)[O-])c4F)c4ccc([nH]4)c(-c4cccc(S(=O)(=O)[O-])c4F)c4nc(c(-c5cccc(S(=O)(=O)[O-])c5F)c5ccc2[nH]5)C=C4)C=C3)cc1
REMARK SMILES IDX 23 1 22 2 21 3 19 4 20 5 15 7 16 8 14 9 12 10 13 11 11 13
REMARK SMILES IDX 6 14 7 15 8 16 10 17 9 18 4 19 5 20 3 21 2 22 1 23 17 24
REMARK SMILES IDX 18 25 24 26 25 27 26 28 27 29 28 30 29 31 30 33 31 34 32 35
REMARK SMILES IDX 93 36 33 37 92 38 34 39 35 40 36 41 86 42 37 43 91 44 85 45
REMARK SMILES IDX 87 46 38 47 90 48 84 49 83 50 39 52 71 53 51 54 70 55 52 56
REMARK SMILES IDX 55 57 69 58 88 59 53 60 54 61 68 63 89 64 56 65 40 66 41 67
REMARK SMILES IDX 49 68 42 69 44 70 50 71 43 72 45 73 46 74 47 75 48 76 72 77
REMARK SMILES IDX 73 78 81 79 74 80 76 81 82 82 75 83 77 84 78 85 79 86 80 87
REMARK SMILES IDX 57 88 58 89 66 90 59 91 61 92 67 93 60 94 62 95 63 96 64 97
REMARK SMILES IDX 65 98
REMARK H PARENT 21 6 14 12 28 32 87 51 55 62
REMARK Flexibility Score: inf
ROOT
ATOM      1  C   UNL A   1      30.222  27.496  22.968  1.00  0.00     0.021 C 
ENDROOT
BRANCH   1   2
ATOM      2  C   UNL A   1      29.531  26.270  23.569  1.00  0.00     0.116 C 
BRANCH   2   3
ATOM      3  N   UNL A   1      29.858  26.112  24.976  1.00  0.00    -0.354 N 
ATOM      4  C   UNL A   1      30.843  25.441  25.638  1.00  0.00     0.245 C 
ATOM      5  O   UNL A   1      30.674  25.298  26.854  1.00  0.00    -0.272 OA
ATOM      6  H   UNL A   1      29.239  26.589  25.576  1.00  0.00     0.163 HD
BRANCH   4   7
ATOM      7  C   UNL A   1      32.057  24.794  24.898  1.00  0.00     0.117 C 
ATOM      8  C   UNL A   1      31.532  23.648  24.003  1.00  0.00     0.045 C 
BRANCH   7   9
ATOM      9  N   UNL A   1      33.024  24.290  25.909  1.00  0.00    -0.324 N 
ATOM     10  C   UNL A   1      33.276  22.963  26.136  1.00  0.00     0.319 C 
ATOM     11  O   UNL A   1      32.485  22.280  26.773  1.00  0.00    -0.249 OA
ATOM     12  H   UNL A   1      33.515  24.951  26.449  1.00  0.00     0.166 HD
BRANCH  10  13
ATOM     13  N   UNL A   1      34.537  22.543  25.726  1.00  0.00    -0.311 N 
ATOM     14  C   UNL A   1      34.641  21.598  24.594  1.00  0.00     0.196 C 
ATOM     15  C   UNL A   1      36.010  20.877  24.644  1.00  0.00     0.037 C 
ATOM     16  C   UNL A   1      37.191  21.831  24.755  1.00  0.00     0.005 C 
ATOM     17  C   UNL A   1      35.680  23.441  25.906  1.00  0.00     0.122 C 
ATOM     18  C   UNL A   1      37.017  22.732  25.962  1.00  0.00     0.022 C 
BRANCH  14  19
ATOM     19  C   UNL A   1      33.637  20.437  24.455  1.00  0.00     0.328 C 
ATOM     20  O   UNL A   1      32.708  20.474  23.651  1.00  0.00    -0.250 OA
BRANCH  19  21
ATOM     21  O   UNL A   1      34.016  19.322  25.141  1.00  0.00    -0.464 OA
BRANCH  21  22
ATOM     22  C   UNL A   1      32.946  18.603  25.770  1.00  0.00     0.229 C 
ATOM     23  C   UNL A   1      32.347  17.599  24.802  1.00  0.00     0.049 C 
ENDBRANCH  21  22
ENDBRANCH  19  21
ENDBRANCH  14  19
ENDBRANCH  10  13
ENDBRANCH   7   9
BRANCH   7  24
ATOM     24  C   UNL A   1      32.792  25.835  24.005  1.00  0.00     0.035 C 
ATOM     25  C   UNL A   1      33.205  25.348  22.623  1.00  0.00     0.007 C 
ENDBRANCH   7  24
ENDBRANCH   4   7
ENDBRANCH   2   3
ENDBRANCH   1   2
BRANCH   1  26
ATOM     26  C   UNL A   1      30.101  28.772  23.809  1.00  0.00     0.002 C 
BRANCH  26  27
ATOM     27  C   UNL A   1      31.427  29.360  24.302  1.00  0.00     0.002 C 
BRANCH  27  28
ATOM     28  C   UNL A   1      31.915  28.835  25.655  1.00  0.00     0.021 C 
BRANCH  28  29
ATOM     29  C   UNL A   1      33.154  29.531  26.213  1.00  0.00     0.116 C 
BRANCH  29  30
ATOM     30  N   UNL A   1      32.933  30.950  26.439  1.00  0.00    -0.352 N 
ATOM     31  C   UNL A   1      33.583  31.817  27.280  1.00  0.00     0.251 C 
ATOM     32  H   UNL A   1      32.206  31.348  25.908  1.00  0.00     0.163 HD
ATOM     33  O   UNL A   1      33.124  32.944  27.454  1.00  0.00    -0.269 OA
BRANCH  31  34
ATOM     34  C   UNL A   1      34.817  31.406  27.987  1.00  0.00     0.039 A 
ATOM     35  C   UNL A   1      34.848  30.150  28.599  1.00  0.00     0.014 A 
ATOM     36  C   UNL A   1      35.924  32.255  28.086  1.00  0.00     0.014 A 
ATOM     37  C   UNL A   1      35.998  29.730  29.270  1.00  0.00     0.010 A 
ATOM     38  C   UNL A   1      37.096  31.807  28.697  1.00  0.00     0.010 A 
ATOM     39  C   UNL A   1      37.142  30.544  29.305  1.00  0.00    -0.014 A 
BRANCH  39  40
ATOM     40  C   UNL A   1      38.390  30.060  29.952  1.00  0.00     0.031 A 
ATOM     41  C   UNL A   1      38.787  30.527  31.326  1.00  0.00     0.074 A 
ATOM     42  C   UNL A   1      39.201  29.225  29.269  1.00  0.00     0.049 A 
ATOM     43  N   UNL A   1      39.808  30.156  32.057  1.00  0.00    -0.248 NA
ATOM     44  C   UNL A   1      37.951  31.564  31.951  1.00  0.00     0.031 C 
ATOM     45  C   UNL A   1      38.987  28.785  27.889  1.00  0.00     0.029 A 
ATOM     46  N   UNL A   1      40.372  28.612  29.637  1.00  0.00    -0.354 N 
ATOM     47  C   UNL A   1      39.754  30.928  33.211  1.00  0.00     0.074 A 
ATOM     48  C   UNL A   1      38.621  31.816  33.068  1.00  0.00     0.031 C 
ATOM     49  C   UNL A   1      39.984  27.961  27.532  1.00  0.00     0.029 A 
ATOM     50  C   UNL A   1      40.914  27.824  28.649  1.00  0.00     0.049 A 
ATOM     51  H   UNL A   1      40.785  28.726  30.523  1.00  0.00     0.167 HD
ATOM     52  C   UNL A   1      40.555  30.883  34.303  1.00  0.00     0.034 A 
ATOM     53  C   UNL A   1      42.026  27.063  28.645  1.00  0.00     0.034 A 
ATOM     54  C   UNL A   1      41.655  29.968  34.460  1.00  0.00     0.049 A 
ATOM     55  C   UNL A   1      42.843  26.958  29.903  1.00  0.00     0.074 A 
ATOM     56  C   UNL A   1      42.460  29.772  35.567  1.00  0.00     0.029 A 
ATOM     57  N   UNL A   1      42.111  29.103  33.477  1.00  0.00    -0.354 N 
ATOM     58  N   UNL A   1      42.662  27.554  31.056  1.00  0.00    -0.248 NA
ATOM     59  C   UNL A   1      43.988  26.036  29.876  1.00  0.00     0.031 C 
ATOM     60  C   UNL A   1      43.417  28.802  35.247  1.00  0.00     0.029 A 
ATOM     61  C   UNL A   1      43.191  28.375  33.949  1.00  0.00     0.049 A 
ATOM     62  H   UNL A   1      41.724  29.018  32.576  1.00  0.00     0.167 HD
ATOM     63  C   UNL A   1      43.647  27.057  31.901  1.00  0.00     0.074 A 
ATOM     64  C   UNL A   1      44.405  26.089  31.133  1.00  0.00     0.031 C 
ATOM     65  C   UNL A   1      43.909  27.382  33.191  1.00  0.00     0.034 A 
BRANCH  52  66
ATOM     66  C   UNL A   1      40.234  31.813  35.446  1.00  0.00     0.023 A 
ATOM     67  C   UNL A   1      41.002  32.982  35.627  1.00  0.00     0.012 A 
ATOM     68  C   UNL A   1      39.144  31.566  36.303  1.00  0.00     0.148 A 
ATOM     69  C   UNL A   1      40.714  33.871  36.661  1.00  0.00     0.002 A 
ATOM     70  C   UNL A   1      38.835  32.479  37.306  1.00  0.00     0.091 A 
ATOM     71  F   UNL A   1      38.438  30.438  36.133  1.00  0.00    -0.205 F 
ATOM     72  C   UNL A   1      39.625  33.625  37.494  1.00  0.00     0.022 A 
BRANCH  70  73
ATOM     73  S   UNL A   1      37.405  32.290  38.376  1.00  0.00     0.127 S 
ATOM     74  O   UNL A   1      36.372  32.996  37.617  1.00  0.00    -0.237 OA
ATOM     75  O   UNL A   1      37.241  30.836  38.420  1.00  0.00    -0.237 OA
ATOM     76  O   UNL A   1      37.774  32.895  39.647  1.00  0.00    -0.744 OA
ENDBRANCH  70  73
ENDBRANCH  52  66
BRANCH  53  77
ATOM     77  C   UNL A   1      42.369  26.269  27.433  1.00  0.00     0.023 A 
ATOM     78  C   UNL A   1      43.102  26.871  26.393  1.00  0.00     0.012 A 
ATOM     79  C   UNL A   1      42.020  24.908  27.330  1.00  0.00     0.148 A 
ATOM     80  C   UNL A   1      43.457  26.142  25.258  1.00  0.00     0.002 A 
ATOM     81  C   UNL A   1      42.426  24.172  26.224  1.00  0.00     0.091 A 
ATOM     82  F   UNL A   1      41.313  24.356  28.327  1.00  0.00    -0.205 F 
ATOM     83  C   UNL A   1      43.130  24.791  25.178  1.00  0.00     0.022 A 
BRANCH  81  84
ATOM     84  S   UNL A   1      42.173  22.398  26.107  1.00  0.00     0.127 S 
ATOM     85  O   UNL A   1      42.926  22.067  24.898  1.00  0.00    -0.237 OA
ATOM     86  O   UNL A   1      42.775  21.924  27.356  1.00  0.00    -0.237 OA
ATOM     87  O   UNL A   1      40.733  22.211  26.029  1.00  0.00    -0.744 OA
ENDBRANCH  81  84
ENDBRANCH  53  77
BRANCH  65  88
ATOM     88  C   UNL A   1      45.048  26.666  33.871  1.00  0.00     0.023 A 
ATOM     89  C   UNL A   1      46.364  27.154  33.736  1.00  0.00     0.012 A 
ATOM     90  C   UNL A   1      44.810  25.540  34.683  1.00  0.00     0.148 A 
ATOM     91  C   UNL A   1      47.428  26.507  34.364  1.00  0.00     0.002 A 
ATOM     92  C   UNL A   1      45.870  24.930  35.345  1.00  0.00     0.091 A 
ATOM     93  F   UNL A   1      43.557  25.074  34.783  1.00  0.00    -0.205 F 
ATOM     94  C   UNL A   1      47.181  25.403  35.176  1.00  0.00     0.022 A 
BRANCH  92  95
ATOM     95  S   UNL A   1      45.622  23.563  36.484  1.00  0.00     0.127 S 
ATOM     96  O   UNL A   1      46.995  23.240  36.867  1.00  0.00    -0.237 OA
ATOM     97  O   UNL A   1      44.821  24.178  37.544  1.00  0.00    -0.237 OA
ATOM     98  O   UNL A   1      44.920  22.538  35.723  1.00  0.00    -0.744 OA
ENDBRANCH  92  95
ENDBRANCH  65  88
ENDBRANCH  39  40
ENDBRANCH  31  34
ENDBRANCH  29  30
ENDBRANCH  28  29
ENDBRANCH  27  28
ENDBRANCH  26  27
ENDBRANCH   1  26
TORSDOF 22
ENDMDL
MODEL 2
REMARK VINA RESULT:     -10.5      2.476      8.168
REMARK SMILES CCOC(=O)[C@@H]1CCCCN1C(=O)N[C@](C)(CC)C(=O)NCCCCCCNC(=O)c1ccc(-c2c3nc(c(-c4cccc(S(=O)(=O)[O-])c4F)c4ccc([nH]4)c(-c4cccc(S(=O)(=O)[O-])c4F)c4nc(c(-c5cccc(S(=O)(=O)[O-])c5F)c5ccc2[nH]5)C=C4)C=C3)cc1
REMARK SMILES IDX 23 1 22 2 21 3 19 4 20 5 15 7 16 8 14 9 12 10 13 11 11 13
REMARK SMILES IDX 6 14 7 15 8 16 10 17 9 18 4 19 5 20 3 21 2 22 1 23 17 24
REMARK SMILES IDX 18 25 24 26 25 27 26 28 27 29 28 30 29 31 30 33 31 34 32 35
REMARK SMILES IDX 93 36 33 37 92 38 34 39 35 40 36 41 86 42 37 43 91 44 85 45
REMARK SMILES IDX 87 46 38 47 90 48 84 49 83 50 39 52 71 53 51 54 70 55 52 56
REMARK SMILES IDX 55 57 69 58 88 59 53 60 54 61 68 63 89 64 56 65 40 66 41 67
REMARK SMILES IDX 49 68 42 69 44 70 50 71 43 72 45 73 46 74 47 75 48 76 72 77
REMARK SMILES IDX 73 78 81 79 74 80 76 81 82 82 75 83 77 84 78 85 79 86 80 87
REMARK SMILES IDX 57 88 58 89 66 90 59 91 61 92 67 93 60 94 62 95 63 96 64 97
REMARK SMILES IDX 65 98
REMARK H PARENT 21 6 14 12 28 32 87 51 55 62
REMARK Flexibility Score: inf
ROOT
ATOM      1  C   UNL A   1      33.921  28.864  26.744  1.00  0.00     0.021 C 
ENDROOT
BRANCH   1   2
ATOM      2  C   UNL A   1      34.004  28.407  25.286  1.00  0.00     0.116 C 
BRANCH   2   3
ATOM      3  N   UNL A   1      32.757  28.654  24.582  1.00  0.00    -0.354 N 
ATOM      4  C   UNL A   1      31.666  27.882  24.312  1.00  0.00     0.245 C 
ATOM      5  O   UNL A   1      30.890  28.325  23.457  1.00  0.00    -0.272 OA
ATOM      6  H   UNL A   1      32.685  29.569  24.224  1.00  0.00     0.163 HD
BRANCH   4   7
ATOM      7  C   UNL A   1      31.458  26.474  24.954  1.00  0.00     0.117 C 
ATOM      8  C   UNL A   1      31.442  26.633  26.492  1.00  0.00     0.045 C 
BRANCH   7   9
ATOM      9  N   UNL A   1      32.561  25.577  24.517  1.00  0.00    -0.324 N 
ATOM     10  C   UNL A   1      33.215  24.704  25.344  1.00  0.00     0.319 C 
ATOM     11  O   UNL A   1      34.059  25.108  26.133  1.00  0.00    -0.249 OA
ATOM     12  H   UNL A   1      32.840  25.613  23.573  1.00  0.00     0.166 HD
BRANCH  10  13
ATOM     13  N   UNL A   1      32.946  23.363  25.086  1.00  0.00    -0.311 N 
ATOM     14  C   UNL A   1      33.882  22.599  24.235  1.00  0.00     0.196 C 
ATOM     15  C   UNL A   1      33.163  21.356  23.659  1.00  0.00     0.037 C 
ATOM     16  C   UNL A   1      32.472  20.512  24.720  1.00  0.00     0.005 C 
ATOM     17  C   UNL A   1      32.215  22.580  26.084  1.00  0.00     0.122 C 
ATOM     18  C   UNL A   1      31.506  21.368  25.516  1.00  0.00     0.022 C 
BRANCH  14  19
ATOM     19  C   UNL A   1      34.509  23.252  22.988  1.00  0.00     0.328 C 
ATOM     20  O   UNL A   1      33.820  23.713  22.080  1.00  0.00    -0.250 OA
BRANCH  19  21
ATOM     21  O   UNL A   1      35.852  23.449  23.109  1.00  0.00    -0.464 OA
BRANCH  21  22
ATOM     22  C   UNL A   1      36.479  22.724  24.176  1.00  0.00     0.229 C 
ATOM     23  C   UNL A   1      37.151  23.686  25.140  1.00  0.00     0.049 C 
ENDBRANCH  21  22
ENDBRANCH  19  21
ENDBRANCH  14  19
ENDBRANCH  10  13
ENDBRANCH   7   9
BRANCH   7  24
ATOM     24  C   UNL A   1      30.112  25.839  24.499  1.00  0.00     0.035 C 
ATOM     25  C   UNL A   1      30.203  24.856  23.339  1.00  0.00     0.007 C 
ENDBRANCH   7  24
ENDBRANCH   4   7
ENDBRANCH   2   3
ENDBRANCH   1   2
BRANCH   1  26
ATOM     26  C   UNL A   1      33.568  30.344  26.929  1.00  0.00     0.002 C 
BRANCH  26  27
ATOM     27  C   UNL A   1      32.073  30.649  27.059  1.00  0.00     0.002 C 
BRANCH  27  28
ATOM     28  C   UNL A   1      31.712  32.133  27.173  1.00  0.00     0.021 C 
BRANCH  28  29
ATOM     29  C   UNL A   1      32.895  33.096  27.104  1.00  0.00     0.116 C 
BRANCH  29  30
ATOM     30  N   UNL A   1      32.595  34.382  27.712  1.00  0.00    -0.352 N 
ATOM     31  C   UNL A   1      33.098  34.953  28.852  1.00  0.00     0.251 C 
ATOM     32  H   UNL A   1      31.929  34.925  27.231  1.00  0.00     0.163 HD
ATOM     33  O   UNL A   1      32.579  35.977  29.292  1.00  0.00    -0.269 OA
BRANCH  31  34
ATOM     34  C   UNL A   1      34.244  34.343  29.565  1.00  0.00     0.039 A 
ATOM     35  C   UNL A   1      33.989  33.586  30.712  1.00  0.00     0.014 A 
ATOM     36  C   UNL A   1      35.561  34.539  29.140  1.00  0.00     0.014 A 
ATOM     37  C   UNL A   1      35.046  32.994  31.405  1.00  0.00     0.010 A 
ATOM     38  C   UNL A   1      36.610  33.888  29.792  1.00  0.00     0.010 A 
ATOM     39  C   UNL A   1      36.366  33.118  30.937  1.00  0.00    -0.014 A 
BRANCH  39  40
ATOM     40  C   UNL A   1      37.478  32.419  31.633  1.00  0.00     0.031 A 
ATOM     41  C   UNL A   1      38.216  31.284  30.975  1.00  0.00     0.074 A 
ATOM     42  C   UNL A   1      37.793  32.780  32.893  1.00  0.00     0.049 A 
ATOM     43  N   UNL A   1      39.248  30.610  31.417  1.00  0.00    -0.248 NA
ATOM     44  C   UNL A   1      37.717  30.825  29.669  1.00  0.00     0.031 C 
ATOM     45  C   UNL A   1      37.084  33.788  33.683  1.00  0.00     0.029 A 
ATOM     46  N   UNL A   1      38.780  32.332  33.735  1.00  0.00    -0.354 N 
ATOM     47  C   UNL A   1      39.505  29.634  30.461  1.00  0.00     0.074 A 
ATOM     48  C   UNL A   1      38.498  29.779  29.432  1.00  0.00     0.031 C 
ATOM     49  C   UNL A   1      37.667  33.893  34.887  1.00  0.00     0.029 A 
ATOM     50  C   UNL A   1      38.781  32.953  34.962  1.00  0.00     0.049 A 
ATOM     51  H   UNL A   1      39.424  31.631  33.485  1.00  0.00     0.167 HD
ATOM     52  C   UNL A   1      40.505  28.721  30.426  1.00  0.00     0.034 A 
ATOM     53  C   UNL A   1      39.595  32.796  36.024  1.00  0.00     0.034 A 
ATOM     54  C   UNL A   1      41.530  28.607  31.431  1.00  0.00     0.049 A 
ATOM     55  C   UNL A   1      40.753  31.843  35.922  1.00  0.00     0.074 A 
ATOM     56  C   UNL A   1      42.643  27.786  31.436  1.00  0.00     0.029 A 
ATOM     57  N   UNL A   1      41.562  29.330  32.614  1.00  0.00    -0.354 N 
ATOM     58  N   UNL A   1      41.094  31.063  34.925  1.00  0.00    -0.248 NA
ATOM     59  C   UNL A   1      41.669  31.785  37.069  1.00  0.00     0.031 C 
ATOM     60  C   UNL A   1      43.338  27.998  32.632  1.00  0.00     0.029 A 
ATOM     61  C   UNL A   1      42.673  28.970  33.359  1.00  0.00     0.049 A 
ATOM     62  H   UNL A   1      40.895  30.001  32.883  1.00  0.00     0.167 HD
ATOM     63  C   UNL A   1      42.279  30.448  35.309  1.00  0.00     0.074 A 
ATOM     64  C   UNL A   1      42.611  30.967  36.621  1.00  0.00     0.031 C 
ATOM     65  C   UNL A   1      43.018  29.526  34.643  1.00  0.00     0.034 A 
BRANCH  52  66
ATOM     66  C   UNL A   1      40.576  27.804  29.231  1.00  0.00     0.023 A 
ATOM     67  C   UNL A   1      39.711  26.693  29.155  1.00  0.00     0.012 A 
ATOM     68  C   UNL A   1      41.450  28.071  28.159  1.00  0.00     0.148 A 
ATOM     69  C   UNL A   1      39.739  25.841  28.051  1.00  0.00     0.002 A 
ATOM     70  C   UNL A   1      41.441  27.243  27.041  1.00  0.00     0.091 A 
ATOM     71  F   UNL A   1      42.282  29.118  28.256  1.00  0.00    -0.205 F 
ATOM     72  C   UNL A   1      40.597  26.122  26.991  1.00  0.00     0.022 A 
BRANCH  70  73
ATOM     73  S   UNL A   1      42.451  27.569  25.591  1.00  0.00     0.127 S 
ATOM     74  O   UNL A   1      41.918  28.855  25.142  1.00  0.00    -0.237 OA
ATOM     75  O   UNL A   1      43.798  27.635  26.161  1.00  0.00    -0.237 OA
ATOM     76  O   UNL A   1      42.231  26.447  24.691  1.00  0.00    -0.744 OA
ENDBRANCH  70  73
ENDBRANCH  52  66
BRANCH  53  77
ATOM     77  C   UNL A   1      39.392  33.636  37.237  1.00  0.00     0.023 A 
ATOM     78  C   UNL A   1      39.863  34.963  37.249  1.00  0.00     0.012 A 
ATOM     79  C   UNL A   1      38.688  33.145  38.354  1.00  0.00     0.148 A 
ATOM     80  C   UNL A   1      39.663  35.778  38.364  1.00  0.00     0.002 A 
ATOM     81  C   UNL A   1      38.442  33.980  39.437  1.00  0.00     0.091 A 
ATOM     82  F   UNL A   1      38.256  31.876  38.325  1.00  0.00    -0.205 F 
ATOM     83  C   UNL A   1      38.943  35.292  39.452  1.00  0.00     0.022 A 
BRANCH  81  84
ATOM     84  S   UNL A   1      37.402  33.481  40.814  1.00  0.00     0.127 S 
ATOM     85  O   UNL A   1      38.236  32.473  41.468  1.00  0.00    -0.237 OA
ATOM     86  O   UNL A   1      37.260  34.737  41.556  1.00  0.00    -0.237 OA
ATOM     87  O   UNL A   1      36.168  32.996  40.220  1.00  0.00    -0.744 OA
ENDBRANCH  81  84
ENDBRANCH  53  77
BRANCH  65  88
ATOM     88  C   UNL A   1      44.279  29.034  35.307  1.00  0.00     0.023 A 
ATOM     89  C   UNL A   1      45.515  29.639  35.002  1.00  0.00     0.012 A 
ATOM     90  C   UNL A   1      44.232  28.007  36.270  1.00  0.00     0.148 A 
ATOM     91  C   UNL A   1      46.689  29.200  35.613  1.00  0.00     0.002 A 
ATOM     92  C   UNL A   1      45.400  27.608  36.911  1.00  0.00     0.091 A 
ATOM     93  F   UNL A   1      43.052  27.427  36.533  1.00  0.00    -0.205 F 
ATOM     94  C   UNL A   1      46.631  28.194  36.574  1.00  0.00     0.022 A 
BRANCH  92  95
ATOM     95  S   UNL A   1      45.395  26.386  38.228  1.00  0.00     0.127 S 
ATOM     96  O   UNL A   1      44.463  25.389  37.706  1.00  0.00    -0.237 OA
ATOM     97  O   UNL A   1      46.793  25.956  38.265  1.00  0.00    -0.237 OA
ATOM     98  O   UNL A   1      44.957  27.096  39.422  1.00  0.00    -0.744 OA
ENDBRANCH  92  95
ENDBRANCH  65  88
ENDBRANCH  39  40
ENDBRANCH  31  34
ENDBRANCH  29  30
ENDBRANCH  28  29
ENDBRANCH  27  28
ENDBRANCH  26  27
ENDBRANCH   1  26
TORSDOF 22
ENDMDL
MODEL 3
REMARK VINA RESULT:     -10.0      2.551      8.492
REMARK SMILES CCOC(=O)[C@@H]1CCCCN1C(=O)N[C@](C)(CC)C(=O)NCCCCCCNC(=O)c1ccc(-c2c3nc(c(-c4cccc(S(=O)(=O)[O-])c4F)c4ccc([nH]4)c(-c4cccc(S(=O)(=O)[O-])c4F)c4nc(c(-c5cccc(S(=O)(=O)[O-])c5F)c5ccc2[nH]5)C=C4)C=C3)cc1
REMARK SMILES IDX 23 1 22 2 21 3 19 4 20 5 15 7 16 8 14 9 12 10 13 11 11 13
REMARK SMILES IDX 6 14 7 15 8 16 10 17 9 18 4 19 5 20 3 21 2 22 1 23 17 24
REMARK SMILES IDX 18 25 24 26 25 27 26 28 27 29 28 30 29 31 30 33 31 34 32 35
REMARK SMILES IDX 93 36 33 37 92 38 34 39 35 40 36 41 86 42 37 43 91 44 85 45
REMARK SMILES IDX 87 46 38 47 90 48 84 49 83 50 39 52 71 53 51 54 70 55 52 56
REMARK SMILES IDX 55 57 69 58 88 59 53 60 54 61 68 63 89 64 56 65 40 66 41 67
REMARK SMILES IDX 49 68 42 69 44 70 50 71 43 72 45 73 46 74 47 75 48 76 72 77
REMARK SMILES IDX 73 78 81 79 74 80 76 81 82 82 75 83 77 84 78 85 79 86 80 87
REMARK SMILES IDX 57 88 58 89 66 90 59 91 61 92 67 93 60 94 62 95 63 96 64 97
REMARK SMILES IDX 65 98
REMARK H PARENT 21 6 14 12 28 32 87 51 55 62
REMARK Flexibility Score: inf
ROOT
ATOM      1  C   UNL A   1      32.483  28.196  26.941  1.00  0.00     0.021 C 
ENDROOT
BRANCH   1   2
ATOM      2  C   UNL A   1      32.276  27.023  25.980  1.00  0.00     0.116 C 
BRANCH   2   3
ATOM      3  N   UNL A   1      31.611  25.910  26.636  1.00  0.00    -0.354 N 
ATOM      4  C   UNL A   1      31.661  24.558  26.466  1.00  0.00     0.245 C 
ATOM      5  O   UNL A   1      30.764  23.912  27.017  1.00  0.00    -0.272 OA
ATOM      6  H   UNL A   1      30.996  26.190  27.352  1.00  0.00     0.163 HD
BRANCH   4   7
ATOM      7  C   UNL A   1      32.716  23.870  25.542  1.00  0.00     0.117 C 
ATOM      8  C   UNL A   1      34.129  24.274  26.024  1.00  0.00     0.045 C 
BRANCH   7   9
ATOM      9  N   UNL A   1      32.482  24.302  24.138  1.00  0.00    -0.324 N 
ATOM     10  C   UNL A   1      31.251  24.326  23.538  1.00  0.00     0.319 C 
ATOM     11  O   UNL A   1      30.728  23.290  23.148  1.00  0.00    -0.249 OA
ATOM     12  H   UNL A   1      33.260  24.587  23.606  1.00  0.00     0.166 HD
BRANCH  10  13
ATOM     13  N   UNL A   1      30.765  25.604  23.287  1.00  0.00    -0.311 N 
ATOM     14  C   UNL A   1      31.208  26.309  22.065  1.00  0.00     0.196 C 
ATOM     15  C   UNL A   1      30.993  27.832  22.238  1.00  0.00     0.037 C 
ATOM     16  C   UNL A   1      29.583  28.197  22.677  1.00  0.00     0.005 C 
ATOM     17  C   UNL A   1      29.435  25.969  23.780  1.00  0.00     0.122 C 
ATOM     18  C   UNL A   1      29.230  27.459  23.955  1.00  0.00     0.022 C 
BRANCH  14  19
ATOM     19  C   UNL A   1      32.673  26.211  21.599  1.00  0.00     0.328 C 
ATOM     20  O   UNL A   1      33.135  25.177  21.120  1.00  0.00    -0.250 OA
BRANCH  19  21
ATOM     21  O   UNL A   1      33.306  27.418  21.577  1.00  0.00    -0.464 OA
BRANCH  21  22
ATOM     22  C   UNL A   1      34.312  27.596  22.584  1.00  0.00     0.229 C 
ATOM     23  C   UNL A   1      34.108  28.917  23.302  1.00  0.00     0.049 C 
ENDBRANCH  21  22
ENDBRANCH  19  21
ENDBRANCH  14  19
ENDBRANCH  10  13
ENDBRANCH   7   9
BRANCH   7  24
ATOM     24  C   UNL A   1      32.588  22.320  25.597  1.00  0.00     0.035 C 
ATOM     25  C   UNL A   1      33.746  21.539  24.992  1.00  0.00     0.007 C 
ENDBRANCH   7  24
ENDBRANCH   4   7
ENDBRANCH   2   3
ENDBRANCH   1   2
BRANCH   1  26
ATOM     26  C   UNL A   1      32.554  29.570  26.266  1.00  0.00     0.002 C 
BRANCH  26  27
ATOM     27  C   UNL A   1      31.437  30.546  26.649  1.00  0.00     0.002 C 
BRANCH  27  28
ATOM     28  C   UNL A   1      31.761  32.028  26.441  1.00  0.00     0.021 C 
BRANCH  28  29
ATOM     29  C   UNL A   1      32.910  32.567  27.290  1.00  0.00     0.116 C 
BRANCH  29  30
ATOM     30  N   UNL A   1      32.697  33.948  27.692  1.00  0.00    -0.352 N 
ATOM     31  C   UNL A   1      33.300  34.677  28.684  1.00  0.00     0.251 C 
ATOM     32  H   UNL A   1      32.016  34.433  27.172  1.00  0.00     0.163 HD
ATOM     33  O   UNL A   1      32.848  35.781  28.979  1.00  0.00    -0.269 OA
BRANCH  31  34
ATOM     34  C   UNL A   1      34.475  34.143  29.411  1.00  0.00     0.039 A 
ATOM     35  C   UNL A   1      34.256  33.283  30.491  1.00  0.00     0.014 A 
ATOM     36  C   UNL A   1      35.780  34.507  29.066  1.00  0.00     0.014 A 
ATOM     37  C   UNL A   1      35.341  32.758  31.195  1.00  0.00     0.010 A 
ATOM     38  C   UNL A   1      36.865  33.927  29.725  1.00  0.00     0.010 A 
ATOM     39  C   UNL A   1      36.658  33.056  30.803  1.00  0.00    -0.014 A 
BRANCH  39  40
ATOM     40  C   UNL A   1      37.809  32.431  31.505  1.00  0.00     0.031 A 
ATOM     41  C   UNL A   1      38.596  31.316  30.871  1.00  0.00     0.074 A 
ATOM     42  C   UNL A   1      38.118  32.841  32.752  1.00  0.00     0.049 A 
ATOM     43  N   UNL A   1      39.664  30.705  31.319  1.00  0.00    -0.248 NA
ATOM     44  C   UNL A   1      38.109  30.797  29.583  1.00  0.00     0.031 C 
ATOM     45  C   UNL A   1      37.368  33.835  33.522  1.00  0.00     0.029 A 
ATOM     46  N   UNL A   1      39.133  32.465  33.595  1.00  0.00    -0.354 N 
ATOM     47  C   UNL A   1      39.960  29.717  30.388  1.00  0.00     0.074 A 
ATOM     48  C   UNL A   1      38.938  29.785  29.366  1.00  0.00     0.031 C 
ATOM     49  C   UNL A   1      37.956  34.000  34.717  1.00  0.00     0.029 A 
ATOM     50  C   UNL A   1      39.115  33.118  34.805  1.00  0.00     0.049 A 
ATOM     51  H   UNL A   1      39.809  31.790  33.357  1.00  0.00     0.167 HD
ATOM     52  C   UNL A   1      41.003  28.853  30.367  1.00  0.00     0.034 A 
ATOM     53  C   UNL A   1      39.946  33.030  35.862  1.00  0.00     0.034 A 
ATOM     54  C   UNL A   1      42.042  28.817  31.363  1.00  0.00     0.049 A 
ATOM     55  C   UNL A   1      41.149  32.133  35.773  1.00  0.00     0.074 A 
ATOM     56  C   UNL A   1      43.194  28.052  31.378  1.00  0.00     0.029 A 
ATOM     57  N   UNL A   1      42.050  29.573  32.526  1.00  0.00    -0.354 N 
ATOM     58  N   UNL A   1      41.518  31.344  34.794  1.00  0.00    -0.248 NA
ATOM     59  C   UNL A   1      42.077  32.151  36.912  1.00  0.00     0.031 C 
ATOM     60  C   UNL A   1      43.889  28.330  32.561  1.00  0.00     0.029 A 
ATOM     61  C   UNL A   1      43.183  29.288  33.269  1.00  0.00     0.049 A 
ATOM     62  H   UNL A   1      41.353  30.218  32.784  1.00  0.00     0.167 HD
ATOM     63  C   UNL A   1      42.736  30.798  35.182  1.00  0.00     0.074 A 
ATOM     64  C   UNL A   1      43.054  31.368  36.476  1.00  0.00     0.031 C 
ATOM     65  C   UNL A   1      43.513  29.895  34.533  1.00  0.00     0.034 A 
BRANCH  52  66
ATOM     66  C   UNL A   1      41.108  27.909  29.195  1.00  0.00     0.023 A 
ATOM     67  C   UNL A   1      40.400  26.689  29.221  1.00  0.00     0.012 A 
ATOM     68  C   UNL A   1      41.853  28.248  28.050  1.00  0.00     0.148 A 
ATOM     69  C   UNL A   1      40.460  25.807  28.143  1.00  0.00     0.002 A 
ATOM     70  C   UNL A   1      41.873  27.384  26.960  1.00  0.00     0.091 A 
ATOM     71  F   UNL A   1      42.539  29.401  28.051  1.00  0.00    -0.205 F 
ATOM     72  C   UNL A   1      41.189  26.159  27.009  1.00  0.00     0.022 A 
BRANCH  70  73
ATOM     73  S   UNL A   1      42.717  27.786  25.425  1.00  0.00     0.127 S 
ATOM     74  O   UNL A   1      41.954  28.946  24.963  1.00  0.00    -0.237 OA
ATOM     75  O   UNL A   1      44.071  28.095  25.888  1.00  0.00    -0.237 OA
ATOM     76  O   UNL A   1      42.619  26.597  24.592  1.00  0.00    -0.744 OA
ENDBRANCH  70  73
ENDBRANCH  52  66
BRANCH  53  77
ATOM     77  C   UNL A   1      39.713  33.892  37.054  1.00  0.00     0.023 A 
ATOM     78  C   UNL A   1      40.086  35.249  37.013  1.00  0.00     0.012 A 
ATOM     79  C   UNL A   1      39.076  33.389  38.205  1.00  0.00     0.148 A 
ATOM     80  C   UNL A   1      39.855  36.084  38.107  1.00  0.00     0.002 A 
ATOM     81  C   UNL A   1      38.797  34.238  39.268  1.00  0.00     0.091 A 
ATOM     82  F   UNL A   1      38.738  32.091  38.227  1.00  0.00    -0.205 F 
ATOM     83  C   UNL A   1      39.201  35.582  39.229  1.00  0.00     0.022 A 
BRANCH  81  84
ATOM     84  S   UNL A   1      37.833  33.710  40.689  1.00  0.00     0.127 S 
ATOM     85  O   UNL A   1      37.638  34.972  41.403  1.00  0.00    -0.237 OA
ATOM     86  O   UNL A   1      36.628  33.171  40.053  1.00  0.00    -0.237 OA
ATOM     87  O   UNL A   1      38.647  32.716  41.369  1.00  0.00    -0.744 OA
ENDBRANCH  81  84
ENDBRANCH  53  77
BRANCH  65  88
ATOM     88  C   UNL A   1      44.802  29.484  35.197  1.00  0.00     0.023 A 
ATOM     89  C   UNL A   1      45.987  30.200  34.934  1.00  0.00     0.012 A 
ATOM     90  C   UNL A   1      44.830  28.419  36.120  1.00  0.00     0.148 A 
ATOM     91  C   UNL A   1      47.186  29.836  35.545  1.00  0.00     0.002 A 
ATOM     92  C   UNL A   1      46.019  28.094  36.762  1.00  0.00     0.091 A 
ATOM     93  F   UNL A   1      43.699  27.733  36.343  1.00  0.00    -0.205 F 
ATOM     94  C   UNL A   1      47.201  28.792  36.466  1.00  0.00     0.022 A 
BRANCH  92  95
ATOM     95  S   UNL A   1      46.100  26.825  38.032  1.00  0.00     0.127 S 
ATOM     96  O   UNL A   1      45.765  25.622  37.273  1.00  0.00    -0.237 OA
ATOM     97  O   UNL A   1      47.495  26.903  38.467  1.00  0.00    -0.237 OA
ATOM     98  O   UNL A   1      45.134  27.222  39.047  1.00  0.00    -0.744 OA
ENDBRANCH  92  95
ENDBRANCH  65  88
ENDBRANCH  39  40
ENDBRANCH  31  34
ENDBRANCH  29  30
ENDBRANCH  28  29
ENDBRANCH  27  28
ENDBRANCH  26  27
ENDBRANCH   1  26
TORSDOF 22
ENDMDL
