MODEL 1
REMARK VINA RESULT:     -11.7      0.000      0.000
REMARK SMILES CS(=O)(=O)c1ccc(C2=NN(c3ccc(C(=O)NCCCCCCNC(=O)c4ccc(-c5c6nc(c(-c7cccc(S(=O)(=O)[O-])c7F)c7ccc([nH]7)c(-c7cccc(S(=O)(=O)[O-])c7F)c7nc(c(-c8cccc(S(=O)(=O)[O-])c8F)c8ccc5[nH]8)C=C7)C=C6)cc4)cc3)[C@H](c3ccc(F)cc3)C2)cc1
REMARK SMILES IDX 21 1 20 2 19 3 18 4 16 5 17 6 15 8 12 9 13 10 92 11 14 12
REMARK SMILES IDX 91 13 11 14 9 15 10 16 101 17 93 18 8 19 5 20 6 21 103 22
REMARK SMILES IDX 7 23 102 24 2 25 1 26 3 27 4 28 94 29 95 30 100 31 96 32
REMARK SMILES IDX 99 33 97 34 98 35 22 36 23 37 24 38 25 39 26 40 27 42 28 43
REMARK SMILES IDX 29 44 90 45 30 46 89 47 31 48 32 49 33 50 83 51 34 52 88 53
REMARK SMILES IDX 82 54 84 55 35 56 87 57 81 58 80 59 36 61 68 62 48 63 67 64
REMARK SMILES IDX 49 65 52 66 66 67 85 68 50 69 51 70 65 72 86 73 53 74 37 75
REMARK SMILES IDX 38 76 46 77 39 78 41 79 47 80 40 81 42 82 43 83 44 84 45 85
REMARK SMILES IDX 69 86 70 87 78 88 71 89 73 90 79 91 72 92 74 93 75 94 76 95
REMARK SMILES IDX 77 96 54 97 55 98 63 99 56 100 58 101 64 102 57 103 59 104
REMARK SMILES IDX 60 105 61 106 62 107
REMARK H PARENT 18 7 25 41 84 60 52 71
REMARK Flexibility Score: inf
ROOT
ATOM      1  C   UNL A   1      32.762  29.030  27.267  1.00  0.00     0.002 C 
ENDROOT
BRANCH   1   2
ATOM      2  C   UNL A   1      31.878  29.867  26.335  1.00  0.00     0.021 C 
BRANCH   2   3
ATOM      3  C   UNL A   1      32.005  29.466  24.864  1.00  0.00     0.116 C 
BRANCH   3   4
ATOM      4  N   UNL A   1      30.913  28.584  24.491  1.00  0.00    -0.352 N 
ATOM      5  C   UNL A   1      30.856  27.220  24.359  1.00  0.00     0.251 C 
ATOM      6  O   UNL A   1      29.780  26.705  24.055  1.00  0.00    -0.269 OA
ATOM      7  H   UNL A   1      30.065  29.047  24.300  1.00  0.00     0.163 HD
BRANCH   5   8
ATOM      8  C   UNL A   1      32.027  26.350  24.645  1.00  0.00     0.039 A 
ATOM      9  C   UNL A   1      34.197  24.587  24.993  1.00  0.00     0.060 A 
ATOM     10  C   UNL A   1      34.031  25.278  23.789  1.00  0.00     0.029 A 
ATOM     11  C   UNL A   1      33.314  24.852  26.041  1.00  0.00     0.029 A 
ATOM     12  C   UNL A   1      32.952  26.150  23.611  1.00  0.00     0.016 A 
ATOM     13  C   UNL A   1      32.254  25.746  25.881  1.00  0.00     0.016 A 
BRANCH   9  14
ATOM     14  N   UNL A   1      35.224  23.679  25.192  1.00  0.00    -0.257 N 
ATOM     15  C   UNL A   1      37.258  23.300  25.665  1.00  0.00     0.071 C 
ATOM     16  N   UNL A   1      36.265  24.073  25.960  1.00  0.00    -0.176 NA
ATOM     17  C   UNL A   1      37.020  22.305  24.567  1.00  0.00     0.091 C 
ATOM     18  C   UNL A   1      35.542  22.602  24.241  1.00  0.00     0.144 C 
BRANCH  15  19
ATOM     19  C   UNL A   1      38.528  23.381  26.395  1.00  0.00    -0.002 A 
ATOM     20  C   UNL A   1      40.950  23.673  27.721  1.00  0.00     0.067 A 
ATOM     21  C   UNL A   1      40.120  24.783  27.563  1.00  0.00     0.021 A 
ATOM     22  C   UNL A   1      40.577  22.420  27.212  1.00  0.00     0.021 A 
ATOM     23  C   UNL A   1      38.910  24.635  26.885  1.00  0.00     0.011 A 
ATOM     24  C   UNL A   1      39.353  22.269  26.555  1.00  0.00     0.011 A 
BRANCH  20  25
ATOM     25  S   UNL A   1      42.519  23.799  28.545  1.00  0.00     0.175 S 
ATOM     26  C   UNL A   1      43.776  23.540  27.324  1.00  0.00     0.163 C 
ATOM     27  O   UNL A   1      42.590  22.687  29.472  1.00  0.00    -0.224 OA
ATOM     28  O   UNL A   1      42.626  25.170  29.012  1.00  0.00    -0.224 OA
ENDBRANCH  20  25
ENDBRANCH  15  19
BRANCH  18  29
ATOM     29  C   UNL A   1      34.536  21.459  24.345  1.00  0.00    -0.023 A 
ATOM     30  C   UNL A   1      33.158  21.592  24.097  1.00  0.00     0.009 A 
ATOM     31  C   UNL A   1      35.016  20.172  24.680  1.00  0.00     0.009 A 
ATOM     32  C   UNL A   1      32.301  20.486  24.182  1.00  0.00     0.039 A 
ATOM     33  C   UNL A   1      34.166  19.065  24.736  1.00  0.00     0.039 A 
ATOM     34  C   UNL A   1      32.814  19.235  24.488  1.00  0.00     0.123 A 
ATOM     35  F   UNL A   1      31.995  18.178  24.536  1.00  0.00    -0.207 F 
ENDBRANCH  18  29
ENDBRANCH   9  14
ENDBRANCH   5   8
ENDBRANCH   3   4
ENDBRANCH   2   3
ENDBRANCH   1   2
BRANCH   1  36
ATOM     36  C   UNL A   1      34.266  29.154  26.999  1.00  0.00     0.002 C 
BRANCH  36  37
ATOM     37  C   UNL A   1      34.997  30.157  27.896  1.00  0.00     0.021 C 
BRANCH  37  38
ATOM     38  C   UNL A   1      36.222  29.585  28.602  1.00  0.00     0.116 C 
BRANCH  38  39
ATOM     39  N   UNL A   1      36.046  29.569  30.047  1.00  0.00    -0.352 N 
ATOM     40  C   UNL A   1      36.998  29.600  31.034  1.00  0.00     0.251 C 
ATOM     41  H   UNL A   1      35.114  29.531  30.359  1.00  0.00     0.163 HD
ATOM     42  O   UNL A   1      36.692  29.332  32.192  1.00  0.00    -0.269 OA
BRANCH  40  43
ATOM     43  C   UNL A   1      38.392  29.952  30.695  1.00  0.00     0.039 A 
ATOM     44  C   UNL A   1      38.865  29.696  29.406  1.00  0.00     0.014 A 
ATOM     45  C   UNL A   1      39.234  30.524  31.654  1.00  0.00     0.014 A 
ATOM     46  C   UNL A   1      40.170  30.059  29.065  1.00  0.00     0.010 A 
ATOM     47  C   UNL A   1      40.505  30.955  31.290  1.00  0.00     0.010 A 
ATOM     48  C   UNL A   1      40.992  30.716  29.996  1.00  0.00    -0.014 A 
BRANCH  48  49
ATOM     49  C   UNL A   1      42.362  31.158  29.636  1.00  0.00     0.031 A 
ATOM     50  C   UNL A   1      42.687  32.626  29.552  1.00  0.00     0.074 A 
ATOM     51  C   UNL A   1      43.292  30.240  29.303  1.00  0.00     0.049 A 
ATOM     52  N   UNL A   1      43.808  33.203  29.204  1.00  0.00    -0.248 NA
ATOM     53  C   UNL A   1      41.604  33.570  29.875  1.00  0.00     0.031 C 
ATOM     54  C   UNL A   1      43.075  28.792  29.271  1.00  0.00     0.029 A 
ATOM     55  N   UNL A   1      44.596  30.390  28.905  1.00  0.00    -0.354 N 
ATOM     56  C   UNL A   1      43.556  34.569  29.229  1.00  0.00     0.074 A 
ATOM     57  C   UNL A   1      42.167  34.736  29.593  1.00  0.00     0.031 C 
ATOM     58  C   UNL A   1      44.208  28.186  28.879  1.00  0.00     0.029 A 
ATOM     59  C   UNL A   1      45.219  29.201  28.600  1.00  0.00     0.049 A 
ATOM     60  H   UNL A   1      45.044  31.265  28.842  1.00  0.00     0.167 HD
ATOM     61  C   UNL A   1      44.410  35.595  28.998  1.00  0.00     0.034 A 
ATOM     62  C   UNL A   1      46.460  28.957  28.138  1.00  0.00     0.034 A 
ATOM     63  C   UNL A   1      45.801  35.424  28.674  1.00  0.00     0.049 A 
ATOM     64  C   UNL A   1      47.400  30.113  27.923  1.00  0.00     0.074 A 
ATOM     65  C   UNL A   1      46.770  36.396  28.509  1.00  0.00     0.029 A 
ATOM     66  N   UNL A   1      46.419  34.202  28.453  1.00  0.00    -0.354 N 
ATOM     67  N   UNL A   1      47.188  31.393  28.105  1.00  0.00    -0.248 NA
ATOM     68  C   UNL A   1      48.761  29.788  27.473  1.00  0.00     0.031 C 
ATOM     69  C   UNL A   1      47.967  35.765  28.156  1.00  0.00     0.029 A 
ATOM     70  C   UNL A   1      47.753  34.396  28.141  1.00  0.00     0.049 A 
ATOM     71  H   UNL A   1      45.974  33.326  28.511  1.00  0.00     0.167 HD
ATOM     72  C   UNL A   1      48.398  32.023  27.833  1.00  0.00     0.074 A 
ATOM     73  C   UNL A   1      49.343  30.979  27.491  1.00  0.00     0.031 C 
ATOM     74  C   UNL A   1      48.696  33.346  27.853  1.00  0.00     0.034 A 
BRANCH  61  75
ATOM     75  C   UNL A   1      43.876  36.998  29.129  1.00  0.00     0.023 A 
ATOM     76  C   UNL A   1      43.134  37.565  28.072  1.00  0.00     0.012 A 
ATOM     77  C   UNL A   1      44.056  37.733  30.318  1.00  0.00     0.148 A 
ATOM     78  C   UNL A   1      42.614  38.854  28.180  1.00  0.00     0.002 A 
ATOM     79  C   UNL A   1      43.492  38.998  30.436  1.00  0.00     0.091 A 
ATOM     80  F   UNL A   1      44.780  37.186  31.304  1.00  0.00    -0.205 F 
ATOM     81  C   UNL A   1      42.782  39.565  29.365  1.00  0.00     0.022 A 
BRANCH  79  82
ATOM     82  S   UNL A   1      43.582  39.961  31.950  1.00  0.00     0.127 S 
ATOM     83  O   UNL A   1      43.062  39.012  32.933  1.00  0.00    -0.237 OA
ATOM     84  O   UNL A   1      45.017  40.226  32.059  1.00  0.00    -0.237 OA
ATOM     85  O   UNL A   1      42.760  41.141  31.727  1.00  0.00    -0.744 OA
ENDBRANCH  79  82
ENDBRANCH  61  75
BRANCH  62  86
ATOM     86  C   UNL A   1      46.907  27.554  27.905  1.00  0.00     0.023 A 
ATOM     87  C   UNL A   1      47.558  26.853  28.938  1.00  0.00     0.012 A 
ATOM     88  C   UNL A   1      46.672  26.906  26.677  1.00  0.00     0.148 A 
ATOM     89  C   UNL A   1      48.000  25.544  28.741  1.00  0.00     0.002 A 
ATOM     90  C   UNL A   1      47.063  25.583  26.507  1.00  0.00     0.091 A 
ATOM     91  F   UNL A   1      46.059  27.593  25.704  1.00  0.00    -0.205 F 
ATOM     92  C   UNL A   1      47.744  24.906  27.531  1.00  0.00     0.022 A 
BRANCH  90  93
ATOM     93  S   UNL A   1      46.660  24.640  25.033  1.00  0.00     0.127 S 
ATOM     94  O   UNL A   1      45.311  25.114  24.734  1.00  0.00    -0.237 OA
ATOM     95  O   UNL A   1      47.693  25.088  24.096  1.00  0.00    -0.237 OA
ATOM     96  O   UNL A   1      46.769  23.241  25.421  1.00  0.00    -0.744 OA
ENDBRANCH  90  93
ENDBRANCH  62  86
BRANCH  74  97
ATOM     97  C   UNL A   1      50.114  33.748  27.542  1.00  0.00     0.023 A 
ATOM     98  C   UNL A   1      51.077  33.792  28.570  1.00  0.00     0.012 A 
ATOM     99  C   UNL A   1      50.507  34.010  26.215  1.00  0.00     0.148 A 
ATOM    100  C   UNL A   1      52.401  34.127  28.287  1.00  0.00     0.002 A 
ATOM    101  C   UNL A   1      51.838  34.290  25.932  1.00  0.00     0.091 A 
ATOM    102  F   UNL A   1      49.573  33.980  25.253  1.00  0.00    -0.205 F 
ATOM    103  C   UNL A   1      52.783  34.363  26.968  1.00  0.00     0.022 A 
BRANCH 101 104
ATOM    104  S   UNL A   1      52.442  34.508  24.255  1.00  0.00     0.127 S 
ATOM    105  O   UNL A   1      53.889  34.547  24.461  1.00  0.00    -0.237 OA
ATOM    106  O   UNL A   1      51.952  33.300  23.590  1.00  0.00    -0.237 OA
ATOM    107  O   UNL A   1      51.847  35.747  23.771  1.00  0.00    -0.744 OA
ENDBRANCH 101 104
ENDBRANCH  74  97
ENDBRANCH  48  49
ENDBRANCH  40  43
ENDBRANCH  38  39
ENDBRANCH  37  38
ENDBRANCH  36  37
ENDBRANCH   1  36
TORSDOF 20
ENDMDL
MODEL 2
REMARK VINA RESULT:     -11.3      2.635      8.922
REMARK SMILES CS(=O)(=O)c1ccc(C2=NN(c3ccc(C(=O)NCCCCCCNC(=O)c4ccc(-c5c6nc(c(-c7cccc(S(=O)(=O)[O-])c7F)c7ccc([nH]7)c(-c7cccc(S(=O)(=O)[O-])c7F)c7nc(c(-c8cccc(S(=O)(=O)[O-])c8F)c8ccc5[nH]8)C=C7)C=C6)cc4)cc3)[C@H](c3ccc(F)cc3)C2)cc1
REMARK SMILES IDX 21 1 20 2 19 3 18 4 16 5 17 6 15 8 12 9 13 10 92 11 14 12
REMARK SMILES IDX 91 13 11 14 9 15 10 16 101 17 93 18 8 19 5 20 6 21 103 22
REMARK SMILES IDX 7 23 102 24 2 25 1 26 3 27 4 28 94 29 95 30 100 31 96 32
REMARK SMILES IDX 99 33 97 34 98 35 22 36 23 37 24 38 25 39 26 40 27 42 28 43
REMARK SMILES IDX 29 44 90 45 30 46 89 47 31 48 32 49 33 50 83 51 34 52 88 53
REMARK SMILES IDX 82 54 84 55 35 56 87 57 81 58 80 59 36 61 68 62 48 63 67 64
REMARK SMILES IDX 49 65 52 66 66 67 85 68 50 69 51 70 65 72 86 73 53 74 37 75
REMARK SMILES IDX 38 76 46 77 39 78 41 79 47 80 40 81 42 82 43 83 44 84 45 85
REMARK SMILES IDX 69 86 70 87 78 88 71 89 73 90 79 91 72 92 74 93 75 94 76 95
REMARK SMILES IDX 77 96 54 97 55 98 63 99 56 100 58 101 64 102 57 103 59 104
REMARK SMILES IDX 60 105 61 106 62 107
REMARK H PARENT 18 7 25 41 84 60 52 71
REMARK Flexibility Score: inf
ROOT
ATOM      1  C   UNL A   1      40.338  26.658  28.206  1.00  0.00     0.002 C 
ENDROOT
BRANCH   1   2
ATOM      2  C   UNL A   1      39.544  25.364  27.990  1.00  0.00     0.021 C 
BRANCH   2   3
ATOM      3  C   UNL A   1      39.405  24.982  26.514  1.00  0.00     0.116 C 
BRANCH   3   4
ATOM      4  N   UNL A   1      39.578  23.549  26.352  1.00  0.00    -0.352 N 
ATOM      5  C   UNL A   1      38.718  22.578  25.902  1.00  0.00     0.251 C 
ATOM      6  O   UNL A   1      39.128  21.421  25.831  1.00  0.00    -0.269 OA
ATOM      7  H   UNL A   1      40.468  23.216  26.609  1.00  0.00     0.163 HD
BRANCH   5   8
ATOM      8  C   UNL A   1      37.344  22.898  25.433  1.00  0.00     0.039 A 
ATOM      9  C   UNL A   1      34.662  23.370  24.712  1.00  0.00     0.060 A 
ATOM     10  C   UNL A   1      35.090  23.579  26.027  1.00  0.00     0.029 A 
ATOM     11  C   UNL A   1      35.608  23.004  23.753  1.00  0.00     0.029 A 
ATOM     12  C   UNL A   1      36.420  23.340  26.388  1.00  0.00     0.016 A 
ATOM     13  C   UNL A   1      36.943  22.796  24.101  1.00  0.00     0.016 A 
BRANCH   9  14
ATOM     14  N   UNL A   1      33.344  23.548  24.325  1.00  0.00    -0.257 N 
ATOM     15  C   UNL A   1      31.666  24.827  24.098  1.00  0.00     0.071 C 
ATOM     16  N   UNL A   1      32.954  24.801  23.997  1.00  0.00    -0.176 NA
ATOM     17  C   UNL A   1      31.014  23.572  24.599  1.00  0.00     0.091 C 
ATOM     18  C   UNL A   1      32.250  22.664  24.758  1.00  0.00     0.144 C 
BRANCH  15  19
ATOM     19  C   UNL A   1      30.897  26.015  23.709  1.00  0.00    -0.002 A 
ATOM     20  C   UNL A   1      29.314  28.184  23.001  1.00  0.00     0.067 A 
ATOM     21  C   UNL A   1      28.894  27.338  24.028  1.00  0.00     0.021 A 
ATOM     22  C   UNL A   1      30.518  27.943  22.322  1.00  0.00     0.021 A 
ATOM     23  C   UNL A   1      29.685  26.243  24.372  1.00  0.00     0.011 A 
ATOM     24  C   UNL A   1      31.322  26.859  22.685  1.00  0.00     0.011 A 
BRANCH  20  25
ATOM     25  S   UNL A   1      28.339  29.579  22.490  1.00  0.00     0.175 S 
ATOM     26  C   UNL A   1      28.768  30.935  23.545  1.00  0.00     0.163 C 
ATOM     27  O   UNL A   1      26.958  29.242  22.768  1.00  0.00    -0.224 OA
ATOM     28  O   UNL A   1      28.773  29.907  21.143  1.00  0.00    -0.224 OA
ENDBRANCH  20  25
ENDBRANCH  15  19
BRANCH  18  29
ATOM     29  C   UNL A   1      32.276  21.340  23.996  1.00  0.00    -0.023 A 
ATOM     30  C   UNL A   1      32.503  20.088  24.594  1.00  0.00     0.009 A 
ATOM     31  C   UNL A   1      32.026  21.363  22.605  1.00  0.00     0.009 A 
ATOM     32  C   UNL A   1      32.480  18.912  23.832  1.00  0.00     0.039 A 
ATOM     33  C   UNL A   1      31.974  20.188  21.852  1.00  0.00     0.039 A 
ATOM     34  C   UNL A   1      32.205  18.972  22.474  1.00  0.00     0.123 A 
ATOM     35  F   UNL A   1      32.153  17.843  21.759  1.00  0.00    -0.207 F 
ENDBRANCH  18  29
ENDBRANCH   9  14
ENDBRANCH   5   8
ENDBRANCH   3   4
ENDBRANCH   2   3
ENDBRANCH   1   2
BRANCH   1  36
ATOM     36  C   UNL A   1      40.148  27.299  29.585  1.00  0.00     0.002 C 
BRANCH  36  37
ATOM     37  C   UNL A   1      38.735  27.172  30.162  1.00  0.00     0.021 C 
BRANCH  37  38
ATOM     38  C   UNL A   1      38.624  27.569  31.631  1.00  0.00     0.116 C 
BRANCH  38  39
ATOM     39  N   UNL A   1      37.686  28.666  31.816  1.00  0.00    -0.352 N 
ATOM     40  C   UNL A   1      37.918  30.018  31.772  1.00  0.00     0.251 C 
ATOM     41  H   UNL A   1      36.756  28.403  31.997  1.00  0.00     0.163 HD
ATOM     42  O   UNL A   1      37.072  30.802  32.193  1.00  0.00    -0.269 OA
BRANCH  40  43
ATOM     43  C   UNL A   1      39.193  30.524  31.224  1.00  0.00     0.039 A 
ATOM     44  C   UNL A   1      40.274  30.723  32.085  1.00  0.00     0.014 A 
ATOM     45  C   UNL A   1      39.317  30.811  29.861  1.00  0.00     0.014 A 
ATOM     46  C   UNL A   1      41.495  31.165  31.571  1.00  0.00     0.010 A 
ATOM     47  C   UNL A   1      40.552  31.176  29.340  1.00  0.00     0.010 A 
ATOM     48  C   UNL A   1      41.652  31.370  30.190  1.00  0.00    -0.014 A 
BRANCH  48  49
ATOM     49  C   UNL A   1      42.956  31.788  29.616  1.00  0.00     0.031 A 
ATOM     50  C   UNL A   1      43.971  30.753  29.210  1.00  0.00     0.074 A 
ATOM     51  C   UNL A   1      43.259  33.099  29.539  1.00  0.00     0.049 A 
ATOM     52  N   UNL A   1      45.180  30.924  28.742  1.00  0.00    -0.248 NA
ATOM     53  C   UNL A   1      43.590  29.340  29.377  1.00  0.00     0.031 C 
ATOM     54  C   UNL A   1      42.390  34.194  29.974  1.00  0.00     0.029 A 
ATOM     55  N   UNL A   1      44.391  33.731  29.091  1.00  0.00    -0.354 N 
ATOM     56  C   UNL A   1      45.715  29.650  28.594  1.00  0.00     0.074 A 
ATOM     57  C   UNL A   1      44.713  28.715  29.055  1.00  0.00     0.031 C 
ATOM     58  C   UNL A   1      43.018  35.363  29.767  1.00  0.00     0.029 A 
ATOM     59  C   UNL A   1      44.345  35.101  29.218  1.00  0.00     0.049 A 
ATOM     60  H   UNL A   1      45.165  33.251  28.716  1.00  0.00     0.167 HD
ATOM     61  C   UNL A   1      46.920  29.287  28.094  1.00  0.00     0.034 A 
ATOM     62  C   UNL A   1      45.269  36.038  28.935  1.00  0.00     0.034 A 
ATOM     63  C   UNL A   1      47.899  30.220  27.601  1.00  0.00     0.049 A 
ATOM     64  C   UNL A   1      46.587  35.609  28.348  1.00  0.00     0.074 A 
ATOM     65  C   UNL A   1      49.112  29.952  26.994  1.00  0.00     0.029 A 
ATOM     66  N   UNL A   1      47.783  31.600  27.671  1.00  0.00    -0.354 N 
ATOM     67  N   UNL A   1      47.013  34.402  28.070  1.00  0.00    -0.248 NA
ATOM     68  C   UNL A   1      47.539  36.675  28.004  1.00  0.00     0.031 C 
ATOM     69  C   UNL A   1      49.745  31.169  26.725  1.00  0.00     0.029 A 
ATOM     70  C   UNL A   1      48.908  32.197  27.128  1.00  0.00     0.049 A 
ATOM     71  H   UNL A   1      47.013  32.084  28.049  1.00  0.00     0.167 HD
ATOM     72  C   UNL A   1      48.262  34.564  27.480  1.00  0.00     0.074 A 
ATOM     73  C   UNL A   1      48.515  35.989  27.426  1.00  0.00     0.031 C 
ATOM     74  C   UNL A   1      49.125  33.618  27.035  1.00  0.00     0.034 A 
BRANCH  61  75
ATOM     75  C   UNL A   1      47.235  27.816  28.014  1.00  0.00     0.023 A 
ATOM     76  C   UNL A   1      47.910  27.186  29.080  1.00  0.00     0.012 A 
ATOM     77  C   UNL A   1      46.810  27.044  26.914  1.00  0.00     0.148 A 
ATOM     78  C   UNL A   1      48.194  25.822  29.035  1.00  0.00     0.002 A 
ATOM     79  C   UNL A   1      47.053  25.675  26.900  1.00  0.00     0.091 A 
ATOM     80  F   UNL A   1      46.187  27.663  25.901  1.00  0.00    -0.205 F 
ATOM     81  C   UNL A   1      47.755  25.065  27.952  1.00  0.00     0.022 A 
BRANCH  79  82
ATOM     82  S   UNL A   1      46.458  24.600  25.590  1.00  0.00     0.127 S 
ATOM     83  O   UNL A   1      47.284  25.025  24.462  1.00  0.00    -0.237 OA
ATOM     84  O   UNL A   1      46.780  23.272  26.115  1.00  0.00    -0.237 OA
ATOM     85  O   UNL A   1      45.034  24.874  25.459  1.00  0.00    -0.744 OA
ENDBRANCH  79  82
ENDBRANCH  61  75
BRANCH  62  86
ATOM     86  C   UNL A   1      44.958  37.480  29.147  1.00  0.00     0.023 A 
ATOM     87  C   UNL A   1      45.222  38.070  30.398  1.00  0.00     0.012 A 
ATOM     88  C   UNL A   1      44.422  38.273  28.113  1.00  0.00     0.148 A 
ATOM     89  C   UNL A   1      44.926  39.414  30.628  1.00  0.00     0.002 A 
ATOM     90  C   UNL A   1      44.183  39.624  28.331  1.00  0.00     0.091 A 
ATOM     91  F   UNL A   1      44.170  37.690  26.933  1.00  0.00    -0.205 F 
ATOM     92  C   UNL A   1      44.417  40.193  29.593  1.00  0.00     0.022 A 
BRANCH  90  93
ATOM     93  S   UNL A   1      43.653  40.733  27.021  1.00  0.00     0.127 S 
ATOM     94  O   UNL A   1      44.156  42.019  27.496  1.00  0.00    -0.237 OA
ATOM     95  O   UNL A   1      44.358  40.186  25.860  1.00  0.00    -0.237 OA
ATOM     96  O   UNL A   1      42.204  40.602  26.959  1.00  0.00    -0.744 OA
ENDBRANCH  90  93
ENDBRANCH  62  86
BRANCH  74  97
ATOM     97  C   UNL A   1      50.410  34.086  26.403  1.00  0.00     0.023 A 
ATOM     98  C   UNL A   1      50.453  34.385  25.026  1.00  0.00     0.012 A 
ATOM     99  C   UNL A   1      51.557  34.299  27.192  1.00  0.00     0.148 A 
ATOM    100  C   UNL A   1      51.627  34.854  24.439  1.00  0.00     0.002 A 
ATOM    101  C   UNL A   1      52.708  34.818  26.612  1.00  0.00     0.091 A 
ATOM    102  F   UNL A   1      51.502  33.992  28.497  1.00  0.00    -0.205 F 
ATOM    103  C   UNL A   1      52.750  35.083  25.234  1.00  0.00     0.022 A 
BRANCH 101 104
ATOM    104  S   UNL A   1      54.166  35.239  27.571  1.00  0.00     0.127 S 
ATOM    105  O   UNL A   1      54.590  33.928  28.061  1.00  0.00    -0.237 OA
ATOM    106  O   UNL A   1      55.045  35.825  26.558  1.00  0.00    -0.237 OA
ATOM    107  O   UNL A   1      53.719  36.173  28.596  1.00  0.00    -0.744 OA
ENDBRANCH 101 104
ENDBRANCH  74  97
ENDBRANCH  48  49
ENDBRANCH  40  43
ENDBRANCH  38  39
ENDBRANCH  37  38
ENDBRANCH  36  37
ENDBRANCH   1  36
TORSDOF 20
ENDMDL
MODEL 3
REMARK VINA RESULT:     -11.2      0.730      7.238
REMARK SMILES CS(=O)(=O)c1ccc(C2=NN(c3ccc(C(=O)NCCCCCCNC(=O)c4ccc(-c5c6nc(c(-c7cccc(S(=O)(=O)[O-])c7F)c7ccc([nH]7)c(-c7cccc(S(=O)(=O)[O-])c7F)c7nc(c(-c8cccc(S(=O)(=O)[O-])c8F)c8ccc5[nH]8)C=C7)C=C6)cc4)cc3)[C@H](c3ccc(F)cc3)C2)cc1
REMARK SMILES IDX 21 1 20 2 19 3 18 4 16 5 17 6 15 8 12 9 13 10 92 11 14 12
REMARK SMILES IDX 91 13 11 14 9 15 10 16 101 17 93 18 8 19 5 20 6 21 103 22
REMARK SMILES IDX 7 23 102 24 2 25 1 26 3 27 4 28 94 29 95 30 100 31 96 32
REMARK SMILES IDX 99 33 97 34 98 35 22 36 23 37 24 38 25 39 26 40 27 42 28 43
REMARK SMILES IDX 29 44 90 45 30 46 89 47 31 48 32 49 33 50 83 51 34 52 88 53
REMARK SMILES IDX 82 54 84 55 35 56 87 57 81 58 80 59 36 61 68 62 48 63 67 64
REMARK SMILES IDX 49 65 52 66 66 67 85 68 50 69 51 70 65 72 86 73 53 74 37 75
REMARK SMILES IDX 38 76 46 77 39 78 41 79 47 80 40 81 42 82 43 83 44 84 45 85
REMARK SMILES IDX 69 86 70 87 78 88 71 89 73 90 79 91 72 92 74 93 75 94 76 95
REMARK SMILES IDX 77 96 54 97 55 98 63 99 56 100 58 101 64 102 57 103 59 104
REMARK SMILES IDX 60 105 61 106 62 107
REMARK H PARENT 18 7 25 41 84 60 52 71
REMARK Flexibility Score: inf
ROOT
ATOM      1  C   UNL A   1      32.465  29.091  27.208  1.00  0.00     0.002 C 
ENDROOT
BRANCH   1   2
ATOM      2  C   UNL A   1      32.293  30.071  26.041  1.00  0.00     0.021 C 
BRANCH   2   3
ATOM      3  C   UNL A   1      32.253  29.380  24.676  1.00  0.00     0.116 C 
BRANCH   3   4
ATOM      4  N   UNL A   1      31.074  28.538  24.578  1.00  0.00    -0.352 N 
ATOM      5  C   UNL A   1      30.932  27.173  24.608  1.00  0.00     0.251 C 
ATOM      6  O   UNL A   1      29.798  26.701  24.535  1.00  0.00    -0.269 OA
ATOM      7  H   UNL A   1      30.230  29.032  24.472  1.00  0.00     0.163 HD
BRANCH   5   8
ATOM      8  C   UNL A   1      32.091  26.263  24.802  1.00  0.00     0.039 A 
ATOM      9  C   UNL A   1      34.222  24.428  24.978  1.00  0.00     0.060 A 
ATOM     10  C   UNL A   1      33.993  25.137  23.794  1.00  0.00     0.029 A 
ATOM     11  C   UNL A   1      33.425  24.710  26.089  1.00  0.00     0.029 A 
ATOM     12  C   UNL A   1      32.933  26.046  23.703  1.00  0.00     0.016 A 
ATOM     13  C   UNL A   1      32.386  25.638  26.013  1.00  0.00     0.016 A 
BRANCH   9  14
ATOM     14  N   UNL A   1      35.230  23.485  25.094  1.00  0.00    -0.257 N 
ATOM     15  C   UNL A   1      37.273  23.034  25.446  1.00  0.00     0.071 C 
ATOM     16  N   UNL A   1      36.322  23.825  25.816  1.00  0.00    -0.176 NA
ATOM     17  C   UNL A   1      36.948  22.080  24.333  1.00  0.00     0.091 C 
ATOM     18  C   UNL A   1      35.465  22.430  24.096  1.00  0.00     0.144 C 
BRANCH  15  19
ATOM     19  C   UNL A   1      38.582  23.056  26.109  1.00  0.00    -0.002 A 
ATOM     20  C   UNL A   1      41.076  23.240  27.315  1.00  0.00     0.067 A 
ATOM     21  C   UNL A   1      40.252  24.365  27.275  1.00  0.00     0.021 A 
ATOM     22  C   UNL A   1      40.661  22.027  26.746  1.00  0.00     0.021 A 
ATOM     23  C   UNL A   1      39.005  24.272  26.658  1.00  0.00     0.011 A 
ATOM     24  C   UNL A   1      39.401  21.929  26.149  1.00  0.00     0.011 A 
BRANCH  20  25
ATOM     25  S   UNL A   1      42.690  23.298  28.058  1.00  0.00     0.175 S 
ATOM     26  C   UNL A   1      43.243  24.979  27.984  1.00  0.00     0.163 C 
ATOM     27  O   UNL A   1      43.567  22.523  27.203  1.00  0.00    -0.224 OA
ATOM     28  O   UNL A   1      42.507  22.949  29.456  1.00  0.00    -0.224 OA
ENDBRANCH  20  25
ENDBRANCH  15  19
BRANCH  18  29
ATOM     29  C   UNL A   1      34.431  21.313  24.220  1.00  0.00    -0.023 A 
ATOM     30  C   UNL A   1      33.105  21.407  23.762  1.00  0.00     0.009 A 
ATOM     31  C   UNL A   1      34.834  20.089  24.804  1.00  0.00     0.009 A 
ATOM     32  C   UNL A   1      32.223  20.324  23.883  1.00  0.00     0.039 A 
ATOM     33  C   UNL A   1      33.962  19.002  24.898  1.00  0.00     0.039 A 
ATOM     34  C   UNL A   1      32.662  19.132  24.438  1.00  0.00     0.123 A 
ATOM     35  F   UNL A   1      31.824  18.093  24.522  1.00  0.00    -0.207 F 
ENDBRANCH  18  29
ENDBRANCH   9  14
ENDBRANCH   5   8
ENDBRANCH   3   4
ENDBRANCH   2   3
ENDBRANCH   1   2
BRANCH   1  36
ATOM     36  C   UNL A   1      33.922  28.782  27.572  1.00  0.00     0.002 C 
BRANCH  36  37
ATOM     37  C   UNL A   1      34.878  29.973  27.455  1.00  0.00     0.021 C 
BRANCH  37  38
ATOM     38  C   UNL A   1      36.174  29.810  28.243  1.00  0.00     0.116 C 
BRANCH  38  39
ATOM     39  N   UNL A   1      35.916  29.675  29.669  1.00  0.00    -0.352 N 
ATOM     40  C   UNL A   1      36.807  29.678  30.713  1.00  0.00     0.251 C 
ATOM     41  H   UNL A   1      34.971  29.566  29.921  1.00  0.00     0.163 HD
ATOM     42  O   UNL A   1      36.451  29.307  31.827  1.00  0.00    -0.269 OA
BRANCH  40  43
ATOM     43  C   UNL A   1      38.197  30.125  30.486  1.00  0.00     0.039 A 
ATOM     44  C   UNL A   1      39.211  29.171  30.388  1.00  0.00     0.014 A 
ATOM     45  C   UNL A   1      38.498  31.486  30.381  1.00  0.00     0.014 A 
ATOM     46  C   UNL A   1      40.523  29.580  30.136  1.00  0.00     0.010 A 
ATOM     47  C   UNL A   1      39.788  31.887  30.054  1.00  0.00     0.010 A 
ATOM     48  C   UNL A   1      40.817  30.940  29.941  1.00  0.00    -0.014 A 
BRANCH  48  49
ATOM     49  C   UNL A   1      42.195  31.391  29.619  1.00  0.00     0.031 A 
ATOM     50  C   UNL A   1      43.248  30.388  29.228  1.00  0.00     0.074 A 
ATOM     51  C   UNL A   1      42.519  32.692  29.758  1.00  0.00     0.049 A 
ATOM     52  N   UNL A   1      44.514  30.584  28.963  1.00  0.00    -0.248 NA
ATOM     53  C   UNL A   1      42.833  28.977  29.151  1.00  0.00     0.031 C 
ATOM     54  C   UNL A   1      41.606  33.746  30.205  1.00  0.00     0.029 A 
ATOM     55  N   UNL A   1      43.710  33.343  29.563  1.00  0.00    -0.354 N 
ATOM     56  C   UNL A   1      45.052  29.325  28.726  1.00  0.00     0.074 A 
ATOM     57  C   UNL A   1      43.985  28.368  28.913  1.00  0.00     0.031 C 
ATOM     58  C   UNL A   1      42.269  34.913  30.246  1.00  0.00     0.029 A 
ATOM     59  C   UNL A   1      43.659  34.686  29.862  1.00  0.00     0.049 A 
ATOM     60  H   UNL A   1      44.525  32.894  29.242  1.00  0.00     0.167 HD
ATOM     61  C   UNL A   1      46.313  28.995  28.360  1.00  0.00     0.034 A 
ATOM     62  C   UNL A   1      44.624  35.625  29.839  1.00  0.00     0.034 A 
ATOM     63  C   UNL A   1      47.362  29.955  28.138  1.00  0.00     0.049 A 
ATOM     64  C   UNL A   1      46.009  35.238  29.394  1.00  0.00     0.074 A 
ATOM     65  C   UNL A   1      48.647  29.733  27.679  1.00  0.00     0.029 A 
ATOM     66  N   UNL A   1      47.250  31.318  28.371  1.00  0.00    -0.354 N 
ATOM     67  N   UNL A   1      46.458  34.066  29.022  1.00  0.00    -0.248 NA
ATOM     68  C   UNL A   1      47.011  36.313  29.332  1.00  0.00     0.031 C 
ATOM     69  C   UNL A   1      49.324  30.956  27.666  1.00  0.00     0.029 A 
ATOM     70  C   UNL A   1      48.448  31.947  28.078  1.00  0.00     0.049 A 
ATOM     71  H   UNL A   1      46.439  31.770  28.697  1.00  0.00     0.167 HD
ATOM     72  C   UNL A   1      47.781  34.266  28.642  1.00  0.00     0.074 A 
ATOM     73  C   UNL A   1      48.053  35.679  28.813  1.00  0.00     0.031 C 
ATOM     74  C   UNL A   1      48.690  33.362  28.204  1.00  0.00     0.034 A 
BRANCH  61  75
ATOM     75  C   UNL A   1      46.622  27.538  28.132  1.00  0.00     0.023 A 
ATOM     76  C   UNL A   1      47.020  26.730  29.217  1.00  0.00     0.012 A 
ATOM     77  C   UNL A   1      46.460  26.954  26.860  1.00  0.00     0.148 A 
ATOM     78  C   UNL A   1      47.292  25.375  29.032  1.00  0.00     0.002 A 
ATOM     79  C   UNL A   1      46.684  25.592  26.694  1.00  0.00     0.091 A 
ATOM     80  F   UNL A   1      46.099  27.741  25.836  1.00  0.00    -0.205 F 
ATOM     81  C   UNL A   1      47.112  24.804  27.775  1.00  0.00     0.022 A 
BRANCH  79  82
ATOM     82  S   UNL A   1      46.402  24.746  25.135  1.00  0.00     0.127 S 
ATOM     83  O   UNL A   1      45.027  25.139  24.832  1.00  0.00    -0.237 OA
ATOM     84  O   UNL A   1      47.413  25.355  24.270  1.00  0.00    -0.237 OA
ATOM     85  O   UNL A   1      46.602  23.330  25.403  1.00  0.00    -0.744 OA
ENDBRANCH  79  82
ENDBRANCH  61  75
BRANCH  62  86
ATOM     86  C   UNL A   1      44.299  37.037  30.192  1.00  0.00     0.023 A 
ATOM     87  C   UNL A   1      44.084  37.977  29.166  1.00  0.00     0.012 A 
ATOM     88  C   UNL A   1      44.183  37.447  31.535  1.00  0.00     0.148 A 
ATOM     89  C   UNL A   1      43.794  39.307  29.469  1.00  0.00     0.002 A 
ATOM     90  C   UNL A   1      43.837  38.760  31.829  1.00  0.00     0.091 A 
ATOM     91  F   UNL A   1      44.400  36.539  32.497  1.00  0.00    -0.205 F 
ATOM     92  C   UNL A   1      43.661  39.697  30.798  1.00  0.00     0.022 A 
BRANCH  90  93
ATOM     93  S   UNL A   1      43.515  39.320  33.505  1.00  0.00     0.127 S 
ATOM     94  O   UNL A   1      42.695  38.232  34.032  1.00  0.00    -0.237 OA
ATOM     95  O   UNL A   1      44.867  39.399  34.062  1.00  0.00    -0.237 OA
ATOM     96  O   UNL A   1      42.847  40.607  33.367  1.00  0.00    -0.744 OA
ENDBRANCH  90  93
ENDBRANCH  62  86
BRANCH  74  97
ATOM     97  C   UNL A   1      50.058  33.870  27.828  1.00  0.00     0.023 A 
ATOM     98  C   UNL A   1      51.080  33.931  28.797  1.00  0.00     0.012 A 
ATOM     99  C   UNL A   1      50.349  34.216  26.494  1.00  0.00     0.148 A 
ATOM    100  C   UNL A   1      52.359  34.364  28.451  1.00  0.00     0.002 A 
ATOM    101  C   UNL A   1      51.639  34.595  26.144  1.00  0.00     0.091 A 
ATOM    102  F   UNL A   1      49.358  34.169  25.590  1.00  0.00    -0.205 F 
ATOM    103  C   UNL A   1      52.641  34.684  27.123  1.00  0.00     0.022 A 
BRANCH 101 104
ATOM    104  S   UNL A   1      52.119  34.928  24.447  1.00  0.00     0.127 S 
ATOM    105  O   UNL A   1      51.846  33.645  23.802  1.00  0.00    -0.237 OA
ATOM    106  O   UNL A   1      51.204  36.007  24.072  1.00  0.00    -0.237 OA
ATOM    107  O   UNL A   1      53.523  35.316  24.494  1.00  0.00    -0.744 OA
ENDBRANCH 101 104
ENDBRANCH  74  97
ENDBRANCH  48  49
ENDBRANCH  40  43
ENDBRANCH  38  39
ENDBRANCH  37  38
ENDBRANCH  36  37
ENDBRANCH   1  36
TORSDOF 20
ENDMDL
