MODEL 1
REMARK VINA RESULT:     -10.7      0.000      0.000
REMARK SMILES CC[C@@H]1CCCN1C(=O)N[C@H]1C=C[C@@H](C(=O)NCCCCCCNC(=O)c2ccc(-c3c4nc(c(-c5cccc(S(=O)(=O)[O-])c5F)c5ccc([nH]5)c(-c5cccc(S(=O)(=O)[O-])c5F)c5nc(c(-c6cccc(S(=O)(=O)[O-])c6F)c6ccc3[nH]6)C=C5)C=C4)cc2)C1
REMARK SMILES IDX 20 1 19 2 18 3 17 4 15 5 16 6 14 8 11 9 12 10 90 11 13 12
REMARK SMILES IDX 10 13 8 14 9 15 7 17 3 18 4 19 5 20 6 21 2 22 1 23 21 24
REMARK SMILES IDX 22 25 23 26 24 27 25 28 26 30 27 31 28 32 89 33 29 34 88 35
REMARK SMILES IDX 30 36 31 37 32 38 82 39 33 40 87 41 81 42 83 43 34 44 86 45
REMARK SMILES IDX 80 46 79 47 35 49 67 50 47 51 66 52 48 53 51 54 65 55 84 56
REMARK SMILES IDX 49 57 50 58 64 60 85 61 52 62 36 63 37 64 45 65 38 66 40 67
REMARK SMILES IDX 46 68 39 69 41 70 42 71 43 72 44 73 68 74 69 75 77 76 70 77
REMARK SMILES IDX 72 78 78 79 71 80 73 81 74 82 75 83 76 84 53 85 54 86 62 87
REMARK SMILES IDX 55 88 57 89 63 90 56 91 58 92 59 93 60 94 61 95
REMARK H PARENT 17 7 10 16 24 29 83 48 51 59
REMARK Flexibility Score: inf
ROOT
ATOM      1  C   UNL A   1      31.998  29.975  26.242  1.00  0.00     0.002 C 
ENDROOT
BRANCH   1   2
ATOM      2  C   UNL A   1      31.738  28.590  25.652  1.00  0.00     0.021 C 
BRANCH   2   3
ATOM      3  C   UNL A   1      30.989  28.608  24.324  1.00  0.00     0.116 C 
BRANCH   3   4
ATOM      4  N   UNL A   1      30.223  27.401  24.098  1.00  0.00    -0.356 N 
ATOM      5  C   UNL A   1      30.634  26.200  23.606  1.00  0.00     0.227 C 
ATOM      6  O   UNL A   1      29.812  25.280  23.567  1.00  0.00    -0.274 OA
ATOM      7  H   UNL A   1      29.268  27.456  24.334  1.00  0.00     0.163 HD
BRANCH   5   8
ATOM      8  C   UNL A   1      32.037  26.007  23.020  1.00  0.00     0.103 C 
ATOM      9  C   UNL A   1      33.490  24.010  22.773  1.00  0.00     0.107 C 
ATOM     10  C   UNL A   1      32.964  24.520  21.460  1.00  0.00    -0.006 C 
ATOM     11  C   UNL A   1      32.789  24.922  23.784  1.00  0.00     0.047 C 
ATOM     12  C   UNL A   1      32.164  25.587  21.594  1.00  0.00    -0.016 C 
BRANCH   9  13
ATOM     13  N   UNL A   1      33.159  22.609  22.884  1.00  0.00    -0.332 N 
ATOM     14  C   UNL A   1      33.097  21.696  23.863  1.00  0.00     0.318 C 
ATOM     15  O   UNL A   1      32.637  20.601  23.519  1.00  0.00    -0.249 OA
ATOM     16  H   UNL A   1      32.915  22.224  22.012  1.00  0.00     0.165 HD
BRANCH  14  17
ATOM     17  N   UNL A   1      33.427  21.932  25.160  1.00  0.00    -0.322 N 
ATOM     18  C   UNL A   1      34.679  22.287  25.861  1.00  0.00     0.086 C 
ATOM     19  C   UNL A   1      34.268  22.303  27.353  1.00  0.00     0.027 C 
ATOM     20  C   UNL A   1      32.798  22.679  27.308  1.00  0.00     0.024 C 
ATOM     21  C   UNL A   1      32.319  21.884  26.111  1.00  0.00     0.122 C 
BRANCH  18  22
ATOM     22  C   UNL A   1      35.868  21.335  25.640  1.00  0.00     0.022 C 
ATOM     23  C   UNL A   1      36.762  21.718  24.461  1.00  0.00     0.006 C 
ENDBRANCH  18  22
ENDBRANCH  14  17
ENDBRANCH   9  13
ENDBRANCH   5   8
ENDBRANCH   3   4
ENDBRANCH   2   3
ENDBRANCH   1   2
BRANCH   1  24
ATOM     24  C   UNL A   1      31.100  31.084  25.684  1.00  0.00     0.002 C 
BRANCH  24  25
ATOM     25  C   UNL A   1      31.087  32.379  26.505  1.00  0.00     0.021 C 
BRANCH  25  26
ATOM     26  C   UNL A   1      32.444  32.768  27.074  1.00  0.00     0.116 C 
BRANCH  26  27
ATOM     27  N   UNL A   1      32.440  34.152  27.528  1.00  0.00    -0.352 N 
ATOM     28  C   UNL A   1      33.128  34.711  28.567  1.00  0.00     0.251 C 
ATOM     29  H   UNL A   1      31.865  34.765  27.017  1.00  0.00     0.163 HD
ATOM     30  O   UNL A   1      32.777  35.806  29.021  1.00  0.00    -0.269 OA
BRANCH  28  31
ATOM     31  C   UNL A   1      34.293  34.010  29.138  1.00  0.00     0.039 A 
ATOM     32  C   UNL A   1      35.578  34.475  28.855  1.00  0.00     0.014 A 
ATOM     33  C   UNL A   1      34.110  32.880  29.941  1.00  0.00     0.014 A 
ATOM     34  C   UNL A   1      36.681  33.823  29.406  1.00  0.00     0.010 A 
ATOM     35  C   UNL A   1      35.204  32.280  30.552  1.00  0.00     0.010 A 
ATOM     36  C   UNL A   1      36.502  32.734  30.277  1.00  0.00    -0.014 A 
BRANCH  36  37
ATOM     37  C   UNL A   1      37.663  32.064  30.912  1.00  0.00     0.031 A 
ATOM     38  C   UNL A   1      38.428  31.002  30.172  1.00  0.00     0.074 A 
ATOM     39  C   UNL A   1      37.974  32.358  32.189  1.00  0.00     0.049 A 
ATOM     40  N   UNL A   1      39.454  30.297  30.572  1.00  0.00    -0.248 NA
ATOM     41  C   UNL A   1      37.964  30.666  28.815  1.00  0.00     0.031 C 
ATOM     42  C   UNL A   1      37.243  33.298  33.041  1.00  0.00     0.029 A 
ATOM     43  N   UNL A   1      38.966  31.874  33.004  1.00  0.00    -0.354 N 
ATOM     44  C   UNL A   1      39.733  29.411  29.540  1.00  0.00     0.074 A 
ATOM     45  C   UNL A   1      38.749  29.644  28.505  1.00  0.00     0.031 C 
ATOM     46  C   UNL A   1      37.812  33.324  34.256  1.00  0.00     0.029 A 
ATOM     47  C   UNL A   1      38.927  32.383  34.280  1.00  0.00     0.049 A 
ATOM     48  H   UNL A   1      39.642  31.224  32.702  1.00  0.00     0.167 HD
ATOM     49  C   UNL A   1      40.733  28.502  29.449  1.00  0.00     0.034 A 
ATOM     50  C   UNL A   1      39.696  32.115  35.353  1.00  0.00     0.034 A 
ATOM     51  C   UNL A   1      41.729  28.303  30.467  1.00  0.00     0.049 A 
ATOM     52  C   UNL A   1      40.836  31.146  35.207  1.00  0.00     0.074 A 
ATOM     53  C   UNL A   1      42.850  27.492  30.427  1.00  0.00     0.029 A 
ATOM     54  N   UNL A   1      41.717  28.905  31.716  1.00  0.00    -0.354 N 
ATOM     55  N   UNL A   1      41.201  30.455  34.155  1.00  0.00    -0.248 NA
ATOM     56  C   UNL A   1      41.696  30.950  36.383  1.00  0.00     0.031 C 
ATOM     57  C   UNL A   1      43.494  27.576  31.666  1.00  0.00     0.029 A 
ATOM     58  C   UNL A   1      42.797  28.469  32.463  1.00  0.00     0.049 A 
ATOM     59  H   UNL A   1      41.039  29.550  32.024  1.00  0.00     0.167 HD
ATOM     60  C   UNL A   1      42.347  29.762  34.531  1.00  0.00     0.074 A 
ATOM     61  C   UNL A   1      42.631  30.142  35.901  1.00  0.00     0.031 C 
ATOM     62  C   UNL A   1      43.088  28.882  33.813  1.00  0.00     0.034 A 
BRANCH  49  63
ATOM     63  C   UNL A   1      40.822  27.680  28.188  1.00  0.00     0.023 A 
ATOM     64  C   UNL A   1      41.457  28.214  27.047  1.00  0.00     0.012 A 
ATOM     65  C   UNL A   1      40.327  26.362  28.148  1.00  0.00     0.148 A 
ATOM     66  C   UNL A   1      41.561  27.466  25.875  1.00  0.00     0.002 A 
ATOM     67  C   UNL A   1      40.477  25.605  26.992  1.00  0.00     0.091 A 
ATOM     68  F   UNL A   1      39.708  25.877  29.234  1.00  0.00    -0.205 F 
ATOM     69  C   UNL A   1      41.081  26.159  25.851  1.00  0.00     0.022 A 
BRANCH  67  70
ATOM     70  S   UNL A   1      39.969  23.885  26.888  1.00  0.00     0.127 S 
ATOM     71  O   UNL A   1      40.841  23.384  25.826  1.00  0.00    -0.237 OA
ATOM     72  O   UNL A   1      40.291  23.387  28.225  1.00  0.00    -0.237 OA
ATOM     73  O   UNL A   1      38.548  23.904  26.573  1.00  0.00    -0.744 OA
ENDBRANCH  67  70
ENDBRANCH  49  63
BRANCH  50  74
ATOM     74  C   UNL A   1      39.440  32.822  36.639  1.00  0.00     0.023 A 
ATOM     75  C   UNL A   1      40.048  34.069  36.881  1.00  0.00     0.012 A 
ATOM     76  C   UNL A   1      38.561  32.286  37.600  1.00  0.00     0.148 A 
ATOM     77  C   UNL A   1      39.808  34.756  38.071  1.00  0.00     0.002 A 
ATOM     78  C   UNL A   1      38.281  33.003  38.757  1.00  0.00     0.091 A 
ATOM     79  F   UNL A   1      37.999  31.095  37.353  1.00  0.00    -0.205 F 
ATOM     80  C   UNL A   1      38.917  34.229  39.003  1.00  0.00     0.022 A 
BRANCH  78  81
ATOM     81  S   UNL A   1      37.044  32.469  39.945  1.00  0.00     0.127 S 
ATOM     82  O   UNL A   1      37.142  33.508  40.966  1.00  0.00    -0.237 OA
ATOM     83  O   UNL A   1      35.820  32.507  39.142  1.00  0.00    -0.237 OA
ATOM     84  O   UNL A   1      37.446  31.134  40.362  1.00  0.00    -0.744 OA
ENDBRANCH  78  81
ENDBRANCH  50  74
BRANCH  62  85
ATOM     85  C   UNL A   1      44.296  28.281  34.483  1.00  0.00     0.023 A 
ATOM     86  C   UNL A   1      45.539  28.943  34.415  1.00  0.00     0.012 A 
ATOM     87  C   UNL A   1      44.186  27.096  35.236  1.00  0.00     0.148 A 
ATOM     88  C   UNL A   1      46.660  28.414  35.053  1.00  0.00     0.002 A 
ATOM     89  C   UNL A   1      45.295  26.603  35.913  1.00  0.00     0.091 A 
ATOM     90  F   UNL A   1      43.000  26.470  35.275  1.00  0.00    -0.205 F 
ATOM     91  C   UNL A   1      46.536  27.252  35.810  1.00  0.00     0.022 A 
BRANCH  89  92
ATOM     92  S   UNL A   1      45.206  25.168  36.990  1.00  0.00     0.127 S 
ATOM     93  O   UNL A   1      44.139  25.553  37.911  1.00  0.00    -0.237 OA
ATOM     94  O   UNL A   1      44.850  24.100  36.055  1.00  0.00    -0.237 OA
ATOM     95  O   UNL A   1      46.529  25.031  37.586  1.00  0.00    -0.744 OA
ENDBRANCH  89  92
ENDBRANCH  62  85
ENDBRANCH  36  37
ENDBRANCH  28  31
ENDBRANCH  26  27
ENDBRANCH  25  26
ENDBRANCH  24  25
ENDBRANCH   1  24
TORSDOF 19
ENDMDL
MODEL 2
REMARK VINA RESULT:     -10.7      1.914      2.463
REMARK SMILES CC[C@@H]1CCCN1C(=O)N[C@H]1C=C[C@@H](C(=O)NCCCCCCNC(=O)c2ccc(-c3c4nc(c(-c5cccc(S(=O)(=O)[O-])c5F)c5ccc([nH]5)c(-c5cccc(S(=O)(=O)[O-])c5F)c5nc(c(-c6cccc(S(=O)(=O)[O-])c6F)c6ccc3[nH]6)C=C5)C=C4)cc2)C1
REMARK SMILES IDX 20 1 19 2 18 3 17 4 15 5 16 6 14 8 11 9 12 10 90 11 13 12
REMARK SMILES IDX 10 13 8 14 9 15 7 17 3 18 4 19 5 20 6 21 2 22 1 23 21 24
REMARK SMILES IDX 22 25 23 26 24 27 25 28 26 30 27 31 28 32 89 33 29 34 88 35
REMARK SMILES IDX 30 36 31 37 32 38 82 39 33 40 87 41 81 42 83 43 34 44 86 45
REMARK SMILES IDX 80 46 79 47 35 49 67 50 47 51 66 52 48 53 51 54 65 55 84 56
REMARK SMILES IDX 49 57 50 58 64 60 85 61 52 62 36 63 37 64 45 65 38 66 40 67
REMARK SMILES IDX 46 68 39 69 41 70 42 71 43 72 44 73 68 74 69 75 77 76 70 77
REMARK SMILES IDX 72 78 78 79 71 80 73 81 74 82 75 83 76 84 53 85 54 86 62 87
REMARK SMILES IDX 55 88 57 89 63 90 56 91 58 92 59 93 60 94 61 95
REMARK H PARENT 17 7 10 16 24 29 83 48 51 59
REMARK Flexibility Score: inf
ROOT
ATOM      1  C   UNL A   1      32.087  30.024  26.635  1.00  0.00     0.002 C 
ENDROOT
BRANCH   1   2
ATOM      2  C   UNL A   1      31.932  28.666  25.954  1.00  0.00     0.021 C 
BRANCH   2   3
ATOM      3  C   UNL A   1      31.230  28.724  24.601  1.00  0.00     0.116 C 
BRANCH   3   4
ATOM      4  N   UNL A   1      30.412  27.557  24.346  1.00  0.00    -0.356 N 
ATOM      5  C   UNL A   1      30.765  26.361  23.801  1.00  0.00     0.227 C 
ATOM      6  O   UNL A   1      29.906  25.476  23.744  1.00  0.00    -0.274 OA
ATOM      7  H   UNL A   1      29.465  27.641  24.604  1.00  0.00     0.163 HD
BRANCH   5   8
ATOM      8  C   UNL A   1      32.148  26.136  23.177  1.00  0.00     0.103 C 
ATOM      9  C   UNL A   1      33.512  24.094  22.819  1.00  0.00     0.107 C 
ATOM     10  C   UNL A   1      32.981  24.679  21.539  1.00  0.00    -0.006 C 
ATOM     11  C   UNL A   1      32.869  24.991  23.881  1.00  0.00     0.047 C 
ATOM     12  C   UNL A   1      32.229  25.771  21.733  1.00  0.00    -0.016 C 
BRANCH   9  13
ATOM     13  N   UNL A   1      33.126  22.704  22.880  1.00  0.00    -0.332 N 
ATOM     14  C   UNL A   1      32.924  21.790  23.837  1.00  0.00     0.318 C 
ATOM     15  O   UNL A   1      32.471  20.712  23.434  1.00  0.00    -0.249 OA
ATOM     16  H   UNL A   1      32.970  22.331  21.982  1.00  0.00     0.165 HD
BRANCH  14  17
ATOM     17  N   UNL A   1      33.111  22.008  25.165  1.00  0.00    -0.322 N 
ATOM     18  C   UNL A   1      32.210  22.124  26.332  1.00  0.00     0.086 C 
ATOM     19  C   UNL A   1      33.170  22.458  27.500  1.00  0.00     0.027 C 
ATOM     20  C   UNL A   1      34.474  21.804  27.081  1.00  0.00     0.024 C 
ATOM     21  C   UNL A   1      34.503  22.109  25.597  1.00  0.00     0.122 C 
BRANCH  18  22
ATOM     22  C   UNL A   1      31.101  23.186  26.224  1.00  0.00     0.022 C 
ATOM     23  C   UNL A   1      29.838  22.851  27.016  1.00  0.00     0.006 C 
ENDBRANCH  18  22
ENDBRANCH  14  17
ENDBRANCH   9  13
ENDBRANCH   5   8
ENDBRANCH   3   4
ENDBRANCH   2   3
ENDBRANCH   1   2
BRANCH   1  24
ATOM     24  C   UNL A   1      31.411  31.187  25.902  1.00  0.00     0.002 C 
BRANCH  24  25
ATOM     25  C   UNL A   1      31.357  32.503  26.686  1.00  0.00     0.021 C 
BRANCH  25  26
ATOM     26  C   UNL A   1      32.704  32.955  27.235  1.00  0.00     0.116 C 
BRANCH  26  27
ATOM     27  N   UNL A   1      32.636  34.330  27.710  1.00  0.00    -0.352 N 
ATOM     28  C   UNL A   1      33.229  34.883  28.809  1.00  0.00     0.251 C 
ATOM     29  H   UNL A   1      32.091  34.942  27.165  1.00  0.00     0.163 HD
ATOM     30  O   UNL A   1      32.821  35.963  29.252  1.00  0.00    -0.269 OA
BRANCH  28  31
ATOM     31  C   UNL A   1      34.359  34.194  29.459  1.00  0.00     0.039 A 
ATOM     32  C   UNL A   1      35.649  34.366  28.952  1.00  0.00     0.014 A 
ATOM     33  C   UNL A   1      34.136  33.361  30.560  1.00  0.00     0.014 A 
ATOM     34  C   UNL A   1      36.721  33.727  29.574  1.00  0.00     0.010 A 
ATOM     35  C   UNL A   1      35.215  32.790  31.225  1.00  0.00     0.010 A 
ATOM     36  C   UNL A   1      36.516  32.952  30.728  1.00  0.00    -0.014 A 
BRANCH  36  37
ATOM     37  C   UNL A   1      37.653  32.310  31.431  1.00  0.00     0.031 A 
ATOM     38  C   UNL A   1      38.413  31.186  30.781  1.00  0.00     0.074 A 
ATOM     39  C   UNL A   1      37.948  32.688  32.689  1.00  0.00     0.049 A 
ATOM     40  N   UNL A   1      39.420  30.495  31.249  1.00  0.00    -0.248 NA
ATOM     41  C   UNL A   1      37.967  30.762  29.443  1.00  0.00     0.031 C 
ATOM     42  C   UNL A   1      37.219  33.698  33.459  1.00  0.00     0.029 A 
ATOM     43  N   UNL A   1      38.917  32.248  33.554  1.00  0.00    -0.354 N 
ATOM     44  C   UNL A   1      39.701  29.533  30.286  1.00  0.00     0.074 A 
ATOM     45  C   UNL A   1      38.739  29.709  29.221  1.00  0.00     0.031 C 
ATOM     46  C   UNL A   1      37.766  33.800  34.680  1.00  0.00     0.029 A 
ATOM     47  C   UNL A   1      38.864  32.846  34.790  1.00  0.00     0.049 A 
ATOM     48  H   UNL A   1      39.586  31.567  33.311  1.00  0.00     0.167 HD
ATOM     49  C   UNL A   1      40.687  28.605  30.279  1.00  0.00     0.034 A 
ATOM     50  C   UNL A   1      39.610  32.642  35.893  1.00  0.00     0.034 A 
ATOM     51  C   UNL A   1      41.661  28.462  31.327  1.00  0.00     0.049 A 
ATOM     52  C   UNL A   1      40.736  31.647  35.837  1.00  0.00     0.074 A 
ATOM     53  C   UNL A   1      42.768  27.632  31.364  1.00  0.00     0.029 A 
ATOM     54  N   UNL A   1      41.638  29.151  32.529  1.00  0.00    -0.354 N 
ATOM     55  N   UNL A   1      41.107  30.877  34.844  1.00  0.00    -0.248 NA
ATOM     56  C   UNL A   1      41.571  31.520  37.040  1.00  0.00     0.031 C 
ATOM     57  C   UNL A   1      43.392  27.794  32.606  1.00  0.00     0.029 A 
ATOM     58  C   UNL A   1      42.697  28.752  33.326  1.00  0.00     0.049 A 
ATOM     59  H   UNL A   1      40.966  29.827  32.779  1.00  0.00     0.167 HD
ATOM     60  C   UNL A   1      42.234  30.195  35.289  1.00  0.00     0.074 A 
ATOM     61  C   UNL A   1      42.500  30.665  36.633  1.00  0.00     0.031 C 
ATOM     62  C   UNL A   1      42.972  29.254  34.648  1.00  0.00     0.034 A 
BRANCH  49  63
ATOM     63  C   UNL A   1      40.783  27.694  29.081  1.00  0.00     0.023 A 
ATOM     64  C   UNL A   1      39.937  26.570  28.985  1.00  0.00     0.012 A 
ATOM     65  C   UNL A   1      41.672  27.979  28.026  1.00  0.00     0.148 A 
ATOM     66  C   UNL A   1      40.001  25.722  27.881  1.00  0.00     0.002 A 
ATOM     67  C   UNL A   1      41.697  27.156  26.905  1.00  0.00     0.091 A 
ATOM     68  F   UNL A   1      42.485  29.039  28.141  1.00  0.00    -0.205 F 
ATOM     69  C   UNL A   1      40.872  26.021  26.837  1.00  0.00     0.022 A 
BRANCH  67  70
ATOM     70  S   UNL A   1      42.722  27.503  25.472  1.00  0.00     0.127 S 
ATOM     71  O   UNL A   1      42.450  26.341  24.627  1.00  0.00    -0.237 OA
ATOM     72  O   UNL A   1      42.153  28.759  24.982  1.00  0.00    -0.237 OA
ATOM     73  O   UNL A   1      44.086  27.608  25.969  1.00  0.00    -0.744 OA
ENDBRANCH  67  70
ENDBRANCH  49  63
BRANCH  50  74
ATOM     74  C   UNL A   1      39.344  33.442  37.122  1.00  0.00     0.023 A 
ATOM     75  C   UNL A   1      38.452  32.949  38.094  1.00  0.00     0.012 A 
ATOM     76  C   UNL A   1      40.005  34.664  37.351  1.00  0.00     0.148 A 
ATOM     77  C   UNL A   1      38.202  33.673  39.259  1.00  0.00     0.002 A 
ATOM     78  C   UNL A   1      39.795  35.352  38.540  1.00  0.00     0.091 A 
ATOM     79  F   UNL A   1      40.843  35.119  36.409  1.00  0.00    -0.205 F 
ATOM     80  C   UNL A   1      38.881  34.867  39.487  1.00  0.00     0.022 A 
BRANCH  78  81
ATOM     81  S   UNL A   1      40.728  36.823  38.979  1.00  0.00     0.127 S 
ATOM     82  O   UNL A   1      39.679  37.839  39.026  1.00  0.00    -0.237 OA
ATOM     83  O   UNL A   1      41.282  36.449  40.281  1.00  0.00    -0.237 OA
ATOM     84  O   UNL A   1      41.722  36.989  37.929  1.00  0.00    -0.744 OA
ENDBRANCH  78  81
ENDBRANCH  50  74
BRANCH  62  85
ATOM     85  C   UNL A   1      44.157  28.683  35.381  1.00  0.00     0.023 A 
ATOM     86  C   UNL A   1      45.438  29.242  35.190  1.00  0.00     0.012 A 
ATOM     87  C   UNL A   1      43.993  27.636  36.309  1.00  0.00     0.148 A 
ATOM     88  C   UNL A   1      46.540  28.743  35.881  1.00  0.00     0.002 A 
ATOM     89  C   UNL A   1      45.087  27.179  37.034  1.00  0.00     0.091 A 
ATOM     90  F   UNL A   1      42.772  27.104  36.465  1.00  0.00    -0.205 F 
ATOM     91  C   UNL A   1      46.363  27.720  36.810  1.00  0.00     0.022 A 
BRANCH  89  92
ATOM     92  S   UNL A   1      44.938  25.934  38.320  1.00  0.00     0.127 S 
ATOM     93  O   UNL A   1      46.323  25.798  38.766  1.00  0.00    -0.237 OA
ATOM     94  O   UNL A   1      44.049  26.587  39.282  1.00  0.00    -0.237 OA
ATOM     95  O   UNL A   1      44.369  24.758  37.676  1.00  0.00    -0.744 OA
ENDBRANCH  89  92
ENDBRANCH  62  85
ENDBRANCH  36  37
ENDBRANCH  28  31
ENDBRANCH  26  27
ENDBRANCH  25  26
ENDBRANCH  24  25
ENDBRANCH   1  24
TORSDOF 19
ENDMDL
MODEL 3
REMARK VINA RESULT:     -10.7      2.587      7.959
REMARK SMILES CC[C@@H]1CCCN1C(=O)N[C@H]1C=C[C@@H](C(=O)NCCCCCCNC(=O)c2ccc(-c3c4nc(c(-c5cccc(S(=O)(=O)[O-])c5F)c5ccc([nH]5)c(-c5cccc(S(=O)(=O)[O-])c5F)c5nc(c(-c6cccc(S(=O)(=O)[O-])c6F)c6ccc3[nH]6)C=C5)C=C4)cc2)C1
REMARK SMILES IDX 20 1 19 2 18 3 17 4 15 5 16 6 14 8 11 9 12 10 90 11 13 12
REMARK SMILES IDX 10 13 8 14 9 15 7 17 3 18 4 19 5 20 6 21 2 22 1 23 21 24
REMARK SMILES IDX 22 25 23 26 24 27 25 28 26 30 27 31 28 32 89 33 29 34 88 35
REMARK SMILES IDX 30 36 31 37 32 38 82 39 33 40 87 41 81 42 83 43 34 44 86 45
REMARK SMILES IDX 80 46 79 47 35 49 67 50 47 51 66 52 48 53 51 54 65 55 84 56
REMARK SMILES IDX 49 57 50 58 64 60 85 61 52 62 36 63 37 64 45 65 38 66 40 67
REMARK SMILES IDX 46 68 39 69 41 70 42 71 43 72 44 73 68 74 69 75 77 76 70 77
REMARK SMILES IDX 72 78 78 79 71 80 73 81 74 82 75 83 76 84 53 85 54 86 62 87
REMARK SMILES IDX 55 88 57 89 63 90 56 91 58 92 59 93 60 94 61 95
REMARK H PARENT 17 7 10 16 24 29 83 48 51 59
REMARK Flexibility Score: inf
ROOT
ATOM      1  C   UNL A   1      34.872  31.262  28.469  1.00  0.00     0.002 C 
ENDROOT
BRANCH   1   2
ATOM      2  C   UNL A   1      34.451  30.315  27.346  1.00  0.00     0.021 C 
BRANCH   2   3
ATOM      3  C   UNL A   1      32.942  30.162  27.193  1.00  0.00     0.116 C 
BRANCH   3   4
ATOM      4  N   UNL A   1      32.526  30.087  25.809  1.00  0.00    -0.356 N 
ATOM      5  C   UNL A   1      32.034  29.026  25.113  1.00  0.00     0.227 C 
ATOM      6  O   UNL A   1      31.675  29.216  23.947  1.00  0.00    -0.274 OA
ATOM      7  H   UNL A   1      32.611  30.925  25.297  1.00  0.00     0.163 HD
BRANCH   5   8
ATOM      8  C   UNL A   1      32.016  27.612  25.706  1.00  0.00     0.103 C 
ATOM      9  C   UNL A   1      32.215  25.361  24.679  1.00  0.00     0.107 C 
ATOM     10  C   UNL A   1      33.415  25.739  25.504  1.00  0.00    -0.006 C 
ATOM     11  C   UNL A   1      31.366  26.634  24.732  1.00  0.00     0.047 C 
ATOM     12  C   UNL A   1      33.316  26.963  26.044  1.00  0.00    -0.016 C 
BRANCH   9  13
ATOM     13  N   UNL A   1      32.668  24.985  23.361  1.00  0.00    -0.332 N 
ATOM     14  C   UNL A   1      33.189  23.895  22.783  1.00  0.00     0.318 C 
ATOM     15  O   UNL A   1      33.327  23.976  21.557  1.00  0.00    -0.249 OA
ATOM     16  H   UNL A   1      32.569  25.724  22.718  1.00  0.00     0.165 HD
BRANCH  14  17
ATOM     17  N   UNL A   1      33.482  22.741  23.438  1.00  0.00    -0.322 N 
ATOM     18  C   UNL A   1      34.492  22.350  24.445  1.00  0.00     0.086 C 
ATOM     19  C   UNL A   1      34.243  20.835  24.641  1.00  0.00     0.027 C 
ATOM     20  C   UNL A   1      32.764  20.680  24.336  1.00  0.00     0.024 C 
ATOM     21  C   UNL A   1      32.599  21.612  23.154  1.00  0.00     0.122 C 
BRANCH  18  22
ATOM     22  C   UNL A   1      35.960  22.611  24.063  1.00  0.00     0.022 C 
ATOM     23  C   UNL A   1      36.671  23.616  24.969  1.00  0.00     0.006 C 
ENDBRANCH  18  22
ENDBRANCH  14  17
ENDBRANCH   9  13
ENDBRANCH   5   8
ENDBRANCH   3   4
ENDBRANCH   2   3
ENDBRANCH   1   2
BRANCH   1  24
ATOM     24  C   UNL A   1      35.128  32.705  28.022  1.00  0.00     0.002 C 
BRANCH  24  25
ATOM     25  C   UNL A   1      33.890  33.608  28.012  1.00  0.00     0.021 C 
BRANCH  25  26
ATOM     26  C   UNL A   1      34.179  35.063  28.357  1.00  0.00     0.116 C 
BRANCH  26  27
ATOM     27  N   UNL A   1      33.382  35.494  29.498  1.00  0.00    -0.352 N 
ATOM     28  C   UNL A   1      33.423  35.043  30.786  1.00  0.00     0.251 C 
ATOM     29  H   UNL A   1      32.728  36.206  29.315  1.00  0.00     0.163 HD
ATOM     30  O   UNL A   1      32.479  35.273  31.550  1.00  0.00    -0.269 OA
BRANCH  28  31
ATOM     31  C   UNL A   1      34.597  34.290  31.264  1.00  0.00     0.039 A 
ATOM     32  C   UNL A   1      34.418  33.021  31.817  1.00  0.00     0.014 A 
ATOM     33  C   UNL A   1      35.876  34.851  31.178  1.00  0.00     0.014 A 
ATOM     34  C   UNL A   1      35.529  32.300  32.255  1.00  0.00     0.010 A 
ATOM     35  C   UNL A   1      36.987  34.100  31.542  1.00  0.00     0.010 A 
ATOM     36  C   UNL A   1      36.824  32.825  32.101  1.00  0.00    -0.014 A 
BRANCH  36  37
ATOM     37  C   UNL A   1      38.018  32.048  32.514  1.00  0.00     0.031 A 
ATOM     38  C   UNL A   1      38.745  32.388  33.786  1.00  0.00     0.074 A 
ATOM     39  C   UNL A   1      38.494  31.088  31.697  1.00  0.00     0.049 A 
ATOM     40  N   UNL A   1      39.814  31.833  34.296  1.00  0.00    -0.248 NA
ATOM     41  C   UNL A   1      38.222  33.515  34.576  1.00  0.00     0.031 C 
ATOM     42  C   UNL A   1      37.931  30.737  30.392  1.00  0.00     0.029 A 
ATOM     43  N   UNL A   1      39.574  30.254  31.829  1.00  0.00    -0.354 N 
ATOM     44  C   UNL A   1      40.114  32.564  35.439  1.00  0.00     0.074 A 
ATOM     45  C   UNL A   1      39.133  33.623  35.532  1.00  0.00     0.031 C 
ATOM     46  C   UNL A   1      38.671  29.760  29.844  1.00  0.00     0.029 A 
ATOM     47  C   UNL A   1      39.773  29.436  30.742  1.00  0.00     0.049 A 
ATOM     48  H   UNL A   1      40.153  30.244  32.626  1.00  0.00     0.167 HD
ATOM     49  C   UNL A   1      41.101  32.358  36.342  1.00  0.00     0.034 A 
ATOM     50  C   UNL A   1      40.740  28.532  30.493  1.00  0.00     0.034 A 
ATOM     51  C   UNL A   1      42.050  31.280  36.261  1.00  0.00     0.049 A 
ATOM     52  C   UNL A   1      41.790  28.282  31.539  1.00  0.00     0.074 A 
ATOM     53  C   UNL A   1      43.016  30.914  37.181  1.00  0.00     0.029 A 
ATOM     54  N   UNL A   1      42.165  30.406  35.191  1.00  0.00    -0.354 N 
ATOM     55  N   UNL A   1      41.945  28.858  32.706  1.00  0.00    -0.248 NA
ATOM     56  C   UNL A   1      42.775  27.229  31.254  1.00  0.00     0.031 C 
ATOM     57  C   UNL A   1      43.739  29.840  36.650  1.00  0.00     0.029 A 
ATOM     58  C   UNL A   1      43.199  29.514  35.417  1.00  0.00     0.049 A 
ATOM     59  H   UNL A   1      41.595  30.418  34.389  1.00  0.00     0.167 HD
ATOM     60  C   UNL A   1      43.026  28.222  33.307  1.00  0.00     0.074 A 
ATOM     61  C   UNL A   1      43.468  27.196  32.385  1.00  0.00     0.031 C 
ATOM     62  C   UNL A   1      43.607  28.474  34.506  1.00  0.00     0.034 A 
BRANCH  49  63
ATOM     63  C   UNL A   1      41.182  33.297  37.519  1.00  0.00     0.023 A 
ATOM     64  C   UNL A   1      40.521  32.972  38.722  1.00  0.00     0.012 A 
ATOM     65  C   UNL A   1      41.955  34.473  37.455  1.00  0.00     0.148 A 
ATOM     66  C   UNL A   1      40.593  33.820  39.826  1.00  0.00     0.002 A 
ATOM     67  C   UNL A   1      42.062  35.289  38.574  1.00  0.00     0.091 A 
ATOM     68  F   UNL A   1      42.560  34.778  36.298  1.00  0.00    -0.205 F 
ATOM     69  C   UNL A   1      41.372  34.972  39.756  1.00  0.00     0.022 A 
BRANCH  67  70
ATOM     70  S   UNL A   1      43.107  36.750  38.612  1.00  0.00     0.127 S 
ATOM     71  O   UNL A   1      42.463  37.547  39.654  1.00  0.00    -0.237 OA
ATOM     72  O   UNL A   1      44.406  36.190  38.989  1.00  0.00    -0.237 OA
ATOM     73  O   UNL A   1      43.057  37.315  37.271  1.00  0.00    -0.744 OA
ENDBRANCH  67  70
ENDBRANCH  49  63
BRANCH  50  74
ATOM     74  C   UNL A   1      40.719  27.763  29.217  1.00  0.00     0.023 A 
ATOM     75  C   UNL A   1      39.749  26.761  29.025  1.00  0.00     0.012 A 
ATOM     76  C   UNL A   1      41.625  28.052  28.179  1.00  0.00     0.148 A 
ATOM     77  C   UNL A   1      39.700  26.040  27.831  1.00  0.00     0.002 A 
ATOM     78  C   UNL A   1      41.534  27.370  26.971  1.00  0.00     0.091 A 
ATOM     79  F   UNL A   1      42.546  29.004  28.386  1.00  0.00    -0.205 F 
ATOM     80  C   UNL A   1      40.584  26.352  26.802  1.00  0.00     0.022 A 
BRANCH  78  81
ATOM     81  S   UNL A   1      42.538  27.800  25.545  1.00  0.00     0.127 S 
ATOM     82  O   UNL A   1      42.309  26.658  24.663  1.00  0.00    -0.237 OA
ATOM     83  O   UNL A   1      41.917  29.051  25.106  1.00  0.00    -0.237 OA
ATOM     84  O   UNL A   1      43.896  27.949  26.047  1.00  0.00    -0.744 OA
ENDBRANCH  78  81
ENDBRANCH  50  74
BRANCH  62  85
ATOM     85  C   UNL A   1      44.775  27.611  34.907  1.00  0.00     0.023 A 
ATOM     86  C   UNL A   1      46.091  28.041  34.639  1.00  0.00     0.012 A 
ATOM     87  C   UNL A   1      44.572  26.406  35.608  1.00  0.00     0.148 A 
ATOM     88  C   UNL A   1      47.182  27.267  35.028  1.00  0.00     0.002 A 
ATOM     89  C   UNL A   1      45.666  25.666  36.039  1.00  0.00     0.091 A 
ATOM     90  F   UNL A   1      43.313  26.004  35.838  1.00  0.00    -0.205 F 
ATOM     91  C   UNL A   1      46.971  26.087  35.737  1.00  0.00     0.022 A 
BRANCH  89  92
ATOM     92  S   UNL A   1      45.492  24.187  37.042  1.00  0.00     0.127 S 
ATOM     93  O   UNL A   1      44.871  23.258  36.100  1.00  0.00    -0.237 OA
ATOM     94  O   UNL A   1      46.882  23.875  37.379  1.00  0.00    -0.237 OA
ATOM     95  O   UNL A   1      44.667  24.568  38.181  1.00  0.00    -0.744 OA
ENDBRANCH  89  92
ENDBRANCH  62  85
ENDBRANCH  36  37
ENDBRANCH  28  31
ENDBRANCH  26  27
ENDBRANCH  25  26
ENDBRANCH  24  25
ENDBRANCH   1  24
TORSDOF 19
ENDMDL
