MODEL 1
REMARK VINA RESULT:     -10.8      0.000      0.000
REMARK SMILES Cc1ccc(C(=O)N[C@@H](C(=O)NCCCCCCNC(=O)c2ccc(-c3c4nc(c(-c5cccc(S(=O)(=O)[O-])c5F)c5ccc([nH]5)c(-c5cccc(S(=O)(=O)[O-])c5F)c5nc(c(-c6cccc(S(=O)(=O)[O-])c6F)c6ccc3[nH]6)C=C5)C=C4)cc2)[C@@H](C)O)c(F)c1
REMARK SMILES IDX 16 1 15 2 14 3 13 4 12 5 10 6 11 7 9 9 8 10 6 11 7 12 5 14
REMARK SMILES IDX 1 15 2 16 3 17 90 18 4 19 88 20 89 21 85 22 86 23 87 24
REMARK SMILES IDX 17 26 18 27 19 28 20 29 21 31 22 32 23 33 84 34 24 35 83 36
REMARK SMILES IDX 25 37 26 38 27 39 77 40 28 41 82 42 76 43 78 44 29 45 81 46
REMARK SMILES IDX 75 47 74 48 30 50 62 51 42 52 61 53 43 54 46 55 60 56 79 57
REMARK SMILES IDX 44 58 45 59 59 61 80 62 47 63 31 64 32 65 40 66 33 67 35 68
REMARK SMILES IDX 41 69 34 70 36 71 37 72 38 73 39 74 63 75 64 76 72 77 65 78
REMARK SMILES IDX 67 79 73 80 66 81 68 82 69 83 70 84 71 85 48 86 49 87 57 88
REMARK SMILES IDX 50 89 52 90 58 91 51 92 53 93 54 94 55 95 56 96
REMARK H PARENT 12 8 8 13 87 25 19 30 78 49 46 60
REMARK Flexibility Score: inf
ROOT
ATOM      1  C   UNL A   1      34.996  23.759  24.104  1.00  0.00     0.002 C 
ENDROOT
BRANCH   1   2
ATOM      2  C   UNL A   1      34.295  23.242  22.842  1.00  0.00     0.002 C 
BRANCH   2   3
ATOM      3  C   UNL A   1      33.148  24.134  22.351  1.00  0.00     0.021 C 
BRANCH   3   4
ATOM      4  C   UNL A   1      33.267  25.570  22.851  1.00  0.00     0.116 C 
BRANCH   4   5
ATOM      5  N   UNL A   1      31.948  26.111  23.111  1.00  0.00    -0.354 N 
ATOM      6  C   UNL A   1      31.197  26.041  24.251  1.00  0.00     0.245 C 
ATOM      7  O   UNL A   1      30.017  26.386  24.178  1.00  0.00    -0.273 OA
ATOM      8  H   UNL A   1      31.535  26.597  22.362  1.00  0.00     0.163 HD
BRANCH   6   9
ATOM      9  C   UNL A   1      31.890  25.632  25.573  1.00  0.00     0.200 C 
BRANCH   9  10
ATOM     10  N   UNL A   1      31.016  24.791  26.402  1.00  0.00    -0.338 N 
ATOM     11  C   UNL A   1      31.008  23.458  26.747  1.00  0.00     0.254 C 
ATOM     12  O   UNL A   1      30.192  23.137  27.609  1.00  0.00    -0.269 OA
ATOM     13  H   UNL A   1      30.268  25.292  26.800  1.00  0.00     0.164 HD
BRANCH  11  14
ATOM     14  C   UNL A   1      31.866  22.417  26.104  1.00  0.00     0.075 A 
ATOM     15  C   UNL A   1      34.335  19.168  24.631  1.00  0.00     0.044 C 
ATOM     16  C   UNL A   1      33.489  20.306  25.125  1.00  0.00    -0.048 A 
ATOM     17  C   UNL A   1      32.337  20.696  24.440  1.00  0.00     0.004 A 
ATOM     18  C   UNL A   1      33.867  21.025  26.261  1.00  0.00     0.043 A 
ATOM     19  C   UNL A   1      31.555  21.760  24.907  1.00  0.00     0.017 A 
ATOM     20  C   UNL A   1      33.058  22.055  26.746  1.00  0.00     0.136 A 
ATOM     21  F   UNL A   1      33.454  22.666  27.873  1.00  0.00    -0.206 F 
ENDBRANCH  11  14
ENDBRANCH   9  10
BRANCH   9  22
ATOM     22  C   UNL A   1      32.349  26.892  26.357  1.00  0.00     0.143 C 
ATOM     23  C   UNL A   1      33.763  27.363  26.013  1.00  0.00     0.041 C 
BRANCH  22  24
ATOM     24  O   UNL A   1      31.468  27.994  26.096  1.00  0.00    -0.391 OA
ATOM     25  H   UNL A   1      30.563  27.665  25.980  1.00  0.00     0.211 HD
ENDBRANCH  22  24
ENDBRANCH   9  22
ENDBRANCH   6   9
ENDBRANCH   4   5
ENDBRANCH   3   4
ENDBRANCH   2   3
ENDBRANCH   1   2
BRANCH   1  26
ATOM     26  C   UNL A   1      36.360  23.121  24.377  1.00  0.00     0.021 C 
BRANCH  26  27
ATOM     27  C   UNL A   1      36.810  23.215  25.831  1.00  0.00     0.116 C 
BRANCH  27  28
ATOM     28  N   UNL A   1      37.953  22.353  26.094  1.00  0.00    -0.352 N 
ATOM     29  C   UNL A   1      39.233  22.694  26.453  1.00  0.00     0.251 C 
ATOM     30  H   UNL A   1      37.784  21.387  26.003  1.00  0.00     0.163 HD
ATOM     31  O   UNL A   1      40.127  21.858  26.413  1.00  0.00    -0.269 OA
BRANCH  29  32
ATOM     32  C   UNL A   1      39.524  24.080  26.875  1.00  0.00     0.039 A 
ATOM     33  C   UNL A   1      39.326  24.437  28.210  1.00  0.00     0.014 A 
ATOM     34  C   UNL A   1      39.996  25.019  25.954  1.00  0.00     0.014 A 
ATOM     35  C   UNL A   1      39.658  25.724  28.635  1.00  0.00     0.010 A 
ATOM     36  C   UNL A   1      40.398  26.277  26.395  1.00  0.00     0.010 A 
ATOM     37  C   UNL A   1      40.230  26.642  27.739  1.00  0.00    -0.014 A 
BRANCH  37  38
ATOM     38  C   UNL A   1      40.685  27.980  28.196  1.00  0.00     0.031 A 
ATOM     39  C   UNL A   1      42.151  28.310  28.248  1.00  0.00     0.074 A 
ATOM     40  C   UNL A   1      39.775  28.866  28.649  1.00  0.00     0.049 A 
ATOM     41  N   UNL A   1      42.734  29.404  28.666  1.00  0.00    -0.248 NA
ATOM     42  C   UNL A   1      43.088  27.269  27.794  1.00  0.00     0.031 C 
ATOM     43  C   UNL A   1      38.331  28.633  28.723  1.00  0.00     0.029 A 
ATOM     44  N   UNL A   1      39.932  30.131  29.158  1.00  0.00    -0.354 N 
ATOM     45  C   UNL A   1      44.100  29.173  28.558  1.00  0.00     0.074 A 
ATOM     46  C   UNL A   1      44.261  27.822  28.066  1.00  0.00     0.031 C 
ATOM     47  C   UNL A   1      37.735  29.717  29.241  1.00  0.00     0.029 A 
ATOM     48  C   UNL A   1      38.754  30.708  29.571  1.00  0.00     0.049 A 
ATOM     49  H   UNL A   1      40.804  30.583  29.221  1.00  0.00     0.167 HD
ATOM     50  C   UNL A   1      45.126  30.016  28.820  1.00  0.00     0.034 A 
ATOM     51  C   UNL A   1      38.521  31.896  30.163  1.00  0.00     0.034 A 
ATOM     52  C   UNL A   1      44.959  31.368  29.283  1.00  0.00     0.049 A 
ATOM     53  C   UNL A   1      39.677  32.823  30.421  1.00  0.00     0.074 A 
ATOM     54  C   UNL A   1      45.931  32.331  29.493  1.00  0.00     0.029 A 
ATOM     55  N   UNL A   1      43.745  31.946  29.621  1.00  0.00    -0.354 N 
ATOM     56  N   UNL A   1      40.950  32.646  30.161  1.00  0.00    -0.248 NA
ATOM     57  C   UNL A   1      39.362  34.126  31.022  1.00  0.00     0.031 C 
ATOM     58  C   UNL A   1      45.308  33.478  29.996  1.00  0.00     0.029 A 
ATOM     59  C   UNL A   1      43.943  33.245  30.057  1.00  0.00     0.049 A 
ATOM     60  H   UNL A   1      42.870  31.498  29.560  1.00  0.00     0.167 HD
ATOM     61  C   UNL A   1      41.582  33.827  30.534  1.00  0.00     0.074 A 
ATOM     62  C   UNL A   1      40.548  34.720  31.015  1.00  0.00     0.031 C 
ATOM     63  C   UNL A   1      42.901  34.139  30.493  1.00  0.00     0.034 A 
BRANCH  50  64
ATOM     64  C   UNL A   1      46.526  29.515  28.576  1.00  0.00     0.023 A 
ATOM     65  C   UNL A   1      47.167  29.798  27.352  1.00  0.00     0.012 A 
ATOM     66  C   UNL A   1      47.232  28.819  29.579  1.00  0.00     0.148 A 
ATOM     67  C   UNL A   1      48.471  29.366  27.115  1.00  0.00     0.002 A 
ATOM     68  C   UNL A   1      48.548  28.433  29.353  1.00  0.00     0.091 A 
ATOM     69  F   UNL A   1      46.601  28.542  30.728  1.00  0.00    -0.205 F 
ATOM     70  C   UNL A   1      49.165  28.695  28.118  1.00  0.00     0.022 A 
BRANCH  68  71
ATOM     71  S   UNL A   1      49.557  27.640  30.609  1.00  0.00     0.127 S 
ATOM     72  O   UNL A   1      50.396  26.758  29.799  1.00  0.00    -0.237 OA
ATOM     73  O   UNL A   1      50.260  28.777  31.202  1.00  0.00    -0.237 OA
ATOM     74  O   UNL A   1      48.627  26.965  31.504  1.00  0.00    -0.744 OA
ENDBRANCH  68  71
ENDBRANCH  50  64
BRANCH  51  75
ATOM     75  C   UNL A   1      37.126  32.295  30.506  1.00  0.00     0.023 A 
ATOM     76  C   UNL A   1      36.650  32.099  31.816  1.00  0.00     0.012 A 
ATOM     77  C   UNL A   1      36.278  32.890  29.549  1.00  0.00     0.148 A 
ATOM     78  C   UNL A   1      35.345  32.453  32.159  1.00  0.00     0.002 A 
ATOM     79  C   UNL A   1      35.000  33.294  29.913  1.00  0.00     0.091 A 
ATOM     80  F   UNL A   1      36.747  33.061  28.306  1.00  0.00    -0.205 F 
ATOM     81  C   UNL A   1      34.523  33.059  31.212  1.00  0.00     0.022 A 
BRANCH  79  82
ATOM     82  S   UNL A   1      33.923  34.202  28.799  1.00  0.00     0.127 S 
ATOM     83  O   UNL A   1      34.815  35.245  28.301  1.00  0.00    -0.237 OA
ATOM     84  O   UNL A   1      33.568  33.175  27.818  1.00  0.00    -0.237 OA
ATOM     85  O   UNL A   1      32.805  34.663  29.612  1.00  0.00    -0.744 OA
ENDBRANCH  79  82
ENDBRANCH  51  75
BRANCH  63  86
ATOM     86  C   UNL A   1      43.307  35.518  30.945  1.00  0.00     0.023 A 
ATOM     87  C   UNL A   1      43.539  36.532  29.994  1.00  0.00     0.012 A 
ATOM     88  C   UNL A   1      43.389  35.826  32.317  1.00  0.00     0.148 A 
ATOM     89  C   UNL A   1      43.886  37.820  30.401  1.00  0.00     0.002 A 
ATOM     90  C   UNL A   1      43.683  37.125  32.717  1.00  0.00     0.091 A 
ATOM     91  F   UNL A   1      43.181  34.845  33.208  1.00  0.00    -0.205 F 
ATOM     92  C   UNL A   1      43.946  38.118  31.760  1.00  0.00     0.022 A 
BRANCH  90  93
ATOM     93  S   UNL A   1      43.685  37.627  34.441  1.00  0.00     0.127 S 
ATOM     94  O   UNL A   1      43.982  39.054  34.334  1.00  0.00    -0.237 OA
ATOM     95  O   UNL A   1      42.316  37.318  34.856  1.00  0.00    -0.237 OA
ATOM     96  O   UNL A   1      44.711  36.824  35.093  1.00  0.00    -0.744 OA
ENDBRANCH  90  93
ENDBRANCH  63  86
ENDBRANCH  37  38
ENDBRANCH  29  32
ENDBRANCH  27  28
ENDBRANCH  26  27
ENDBRANCH   1  26
TORSDOF 20
ENDMDL
MODEL 2
REMARK VINA RESULT:     -10.7      3.848      8.878
REMARK SMILES Cc1ccc(C(=O)N[C@@H](C(=O)NCCCCCCNC(=O)c2ccc(-c3c4nc(c(-c5cccc(S(=O)(=O)[O-])c5F)c5ccc([nH]5)c(-c5cccc(S(=O)(=O)[O-])c5F)c5nc(c(-c6cccc(S(=O)(=O)[O-])c6F)c6ccc3[nH]6)C=C5)C=C4)cc2)[C@@H](C)O)c(F)c1
REMARK SMILES IDX 16 1 15 2 14 3 13 4 12 5 10 6 11 7 9 9 8 10 6 11 7 12 5 14
REMARK SMILES IDX 1 15 2 16 3 17 90 18 4 19 88 20 89 21 85 22 86 23 87 24
REMARK SMILES IDX 17 26 18 27 19 28 20 29 21 31 22 32 23 33 84 34 24 35 83 36
REMARK SMILES IDX 25 37 26 38 27 39 77 40 28 41 82 42 76 43 78 44 29 45 81 46
REMARK SMILES IDX 75 47 74 48 30 50 62 51 42 52 61 53 43 54 46 55 60 56 79 57
REMARK SMILES IDX 44 58 45 59 59 61 80 62 47 63 31 64 32 65 40 66 33 67 35 68
REMARK SMILES IDX 41 69 34 70 36 71 37 72 38 73 39 74 63 75 64 76 72 77 65 78
REMARK SMILES IDX 67 79 73 80 66 81 68 82 69 83 70 84 71 85 48 86 49 87 57 88
REMARK SMILES IDX 50 89 52 90 58 91 51 92 53 93 54 94 55 95 56 96
REMARK H PARENT 12 8 8 13 87 25 19 30 78 49 46 60
REMARK Flexibility Score: inf
ROOT
ATOM      1  C   UNL A   1      36.515  20.973  24.731  1.00  0.00     0.002 C 
ENDROOT
BRANCH   1   2
ATOM      2  C   UNL A   1      36.822  22.285  24.000  1.00  0.00     0.002 C 
BRANCH   2   3
ATOM      3  C   UNL A   1      35.643  22.850  23.200  1.00  0.00     0.021 C 
BRANCH   3   4
ATOM      4  C   UNL A   1      34.450  23.199  24.084  1.00  0.00     0.116 C 
BRANCH   4   5
ATOM      5  N   UNL A   1      33.297  23.502  23.257  1.00  0.00    -0.354 N 
ATOM      6  C   UNL A   1      32.725  24.713  22.987  1.00  0.00     0.245 C 
ATOM      7  O   UNL A   1      31.625  24.712  22.435  1.00  0.00    -0.273 OA
ATOM      8  H   UNL A   1      32.867  22.726  22.831  1.00  0.00     0.163 HD
BRANCH   6   9
ATOM      9  C   UNL A   1      33.527  26.000  23.299  1.00  0.00     0.200 C 
BRANCH   9  10
ATOM     10  N   UNL A   1      33.293  26.462  24.674  1.00  0.00    -0.338 N 
ATOM     11  C   UNL A   1      32.234  27.057  25.321  1.00  0.00     0.254 C 
ATOM     12  O   UNL A   1      32.346  27.157  26.542  1.00  0.00    -0.269 OA
ATOM     13  H   UNL A   1      34.066  26.313  25.264  1.00  0.00     0.164 HD
BRANCH  11  14
ATOM     14  C   UNL A   1      31.034  27.621  24.631  1.00  0.00     0.075 A 
ATOM     15  C   UNL A   1      27.837  29.409  22.307  1.00  0.00     0.044 C 
ATOM     16  C   UNL A   1      28.930  28.791  23.130  1.00  0.00    -0.048 A 
ATOM     17  C   UNL A   1      28.879  27.446  23.500  1.00  0.00     0.004 A 
ATOM     18  C   UNL A   1      30.001  29.568  23.577  1.00  0.00     0.043 A 
ATOM     19  C   UNL A   1      29.904  26.879  24.269  1.00  0.00     0.017 A 
ATOM     20  C   UNL A   1      31.041  28.984  24.305  1.00  0.00     0.136 A 
ATOM     21  F   UNL A   1      32.064  29.778  24.654  1.00  0.00    -0.206 F 
ENDBRANCH  11  14
ENDBRANCH   9  10
BRANCH   9  22
ATOM     22  C   UNL A   1      33.181  27.116  22.274  1.00  0.00     0.143 C 
ATOM     23  C   UNL A   1      34.071  28.355  22.374  1.00  0.00     0.041 C 
BRANCH  22  24
ATOM     24  O   UNL A   1      33.305  26.621  20.933  1.00  0.00    -0.391 OA
ATOM     25  H   UNL A   1      32.739  27.141  20.342  1.00  0.00     0.211 HD
ENDBRANCH  22  24
ENDBRANCH   9  22
ENDBRANCH   6   9
ENDBRANCH   4   5
ENDBRANCH   3   4
ENDBRANCH   2   3
ENDBRANCH   1   2
BRANCH   1  26
ATOM     26  C   UNL A   1      37.693  20.000  24.811  1.00  0.00     0.021 C 
BRANCH  26  27
ATOM     27  C   UNL A   1      38.812  20.454  25.742  1.00  0.00     0.116 C 
BRANCH  27  28
ATOM     28  N   UNL A   1      39.800  19.403  25.944  1.00  0.00    -0.352 N 
ATOM     29  C   UNL A   1      41.153  19.512  26.144  1.00  0.00     0.251 C 
ATOM     30  H   UNL A   1      39.447  18.484  25.937  1.00  0.00     0.163 HD
ATOM     31  O   UNL A   1      41.867  18.520  26.069  1.00  0.00    -0.269 OA
BRANCH  29  32
ATOM     32  C   UNL A   1      41.740  20.836  26.437  1.00  0.00     0.039 A 
ATOM     33  C   UNL A   1      42.047  21.689  25.375  1.00  0.00     0.014 A 
ATOM     34  C   UNL A   1      41.978  21.233  27.755  1.00  0.00     0.014 A 
ATOM     35  C   UNL A   1      42.540  22.967  25.640  1.00  0.00     0.010 A 
ATOM     36  C   UNL A   1      42.398  22.533  28.020  1.00  0.00     0.010 A 
ATOM     37  C   UNL A   1      42.686  23.412  26.965  1.00  0.00    -0.014 A 
BRANCH  37  38
ATOM     38  C   UNL A   1      43.110  24.803  27.266  1.00  0.00     0.031 A 
ATOM     39  C   UNL A   1      42.159  25.766  27.919  1.00  0.00     0.074 A 
ATOM     40  C   UNL A   1      44.330  25.220  26.869  1.00  0.00     0.049 A 
ATOM     41  N   UNL A   1      42.337  27.029  28.210  1.00  0.00    -0.248 NA
ATOM     42  C   UNL A   1      40.823  25.255  28.269  1.00  0.00     0.031 C 
ATOM     43  C   UNL A   1      45.313  24.401  26.156  1.00  0.00     0.029 A 
ATOM     44  N   UNL A   1      44.940  26.444  26.982  1.00  0.00    -0.354 N 
ATOM     45  C   UNL A   1      41.133  27.471  28.744  1.00  0.00     0.074 A 
ATOM     46  C   UNL A   1      40.219  26.349  28.707  1.00  0.00     0.031 C 
ATOM     47  C   UNL A   1      46.401  25.142  25.900  1.00  0.00     0.029 A 
ATOM     48  C   UNL A   1      46.182  26.497  26.397  1.00  0.00     0.049 A 
ATOM     49  H   UNL A   1      44.526  27.211  27.441  1.00  0.00     0.167 HD
ATOM     50  C   UNL A   1      40.823  28.690  29.245  1.00  0.00     0.034 A 
ATOM     51  C   UNL A   1      47.043  27.524  26.259  1.00  0.00     0.034 A 
ATOM     52  C   UNL A   1      41.743  29.793  29.304  1.00  0.00     0.049 A 
ATOM     53  C   UNL A   1      46.683  28.863  26.845  1.00  0.00     0.074 A 
ATOM     54  C   UNL A   1      41.554  31.042  29.872  1.00  0.00     0.029 A 
ATOM     55  N   UNL A   1      43.022  29.789  28.767  1.00  0.00    -0.354 N 
ATOM     56  N   UNL A   1      45.598  29.215  27.491  1.00  0.00    -0.248 NA
ATOM     57  C   UNL A   1      47.679  29.935  26.712  1.00  0.00     0.031 C 
ATOM     58  C   UNL A   1      42.704  31.804  29.643  1.00  0.00     0.029 A 
ATOM     59  C   UNL A   1      43.627  31.018  28.971  1.00  0.00     0.049 A 
ATOM     60  H   UNL A   1      43.438  29.024  28.308  1.00  0.00     0.167 HD
ATOM     61  C   UNL A   1      45.795  30.537  27.873  1.00  0.00     0.074 A 
ATOM     62  C   UNL A   1      47.113  30.915  27.406  1.00  0.00     0.031 C 
ATOM     63  C   UNL A   1      44.955  31.368  28.540  1.00  0.00     0.034 A 
BRANCH  50  64
ATOM     64  C   UNL A   1      39.437  28.888  29.804  1.00  0.00     0.023 A 
ATOM     65  C   UNL A   1      39.140  28.442  31.109  1.00  0.00     0.012 A 
ATOM     66  C   UNL A   1      38.448  29.568  29.066  1.00  0.00     0.148 A 
ATOM     67  C   UNL A   1      37.872  28.638  31.656  1.00  0.00     0.002 A 
ATOM     68  C   UNL A   1      37.202  29.802  29.637  1.00  0.00     0.091 A 
ATOM     69  F   UNL A   1      38.741  29.968  27.821  1.00  0.00    -0.205 F 
ATOM     70  C   UNL A   1      36.909  29.327  30.925  1.00  0.00     0.022 A 
BRANCH  68  71
ATOM     71  S   UNL A   1      35.920  30.752  28.813  1.00  0.00     0.127 S 
ATOM     72  O   UNL A   1      36.713  31.667  27.993  1.00  0.00    -0.237 OA
ATOM     73  O   UNL A   1      35.208  29.720  28.061  1.00  0.00    -0.237 OA
ATOM     74  O   UNL A   1      35.141  31.380  29.872  1.00  0.00    -0.744 OA
ENDBRANCH  68  71
ENDBRANCH  50  64
BRANCH  51  75
ATOM     75  C   UNL A   1      48.354  27.312  25.581  1.00  0.00     0.023 A 
ATOM     76  C   UNL A   1      49.472  26.916  26.340  1.00  0.00     0.012 A 
ATOM     77  C   UNL A   1      48.492  27.474  24.188  1.00  0.00     0.148 A 
ATOM     78  C   UNL A   1      50.712  26.722  25.731  1.00  0.00     0.002 A 
ATOM     79  C   UNL A   1      49.716  27.222  23.579  1.00  0.00     0.091 A 
ATOM     80  F   UNL A   1      47.419  27.859  23.484  1.00  0.00    -0.205 F 
ATOM     81  C   UNL A   1      50.832  26.865  24.352  1.00  0.00     0.022 A 
BRANCH  79  82
ATOM     82  S   UNL A   1      49.929  27.250  21.796  1.00  0.00     0.127 S 
ATOM     83  O   UNL A   1      49.717  28.661  21.489  1.00  0.00    -0.237 OA
ATOM     84  O   UNL A   1      51.310  26.789  21.650  1.00  0.00    -0.237 OA
ATOM     85  O   UNL A   1      48.933  26.330  21.261  1.00  0.00    -0.744 OA
ENDBRANCH  79  82
ENDBRANCH  51  75
BRANCH  63  86
ATOM     86  C   UNL A   1      45.445  32.761  28.841  1.00  0.00     0.023 A 
ATOM     87  C   UNL A   1      46.142  33.019  30.039  1.00  0.00     0.012 A 
ATOM     88  C   UNL A   1      45.274  33.798  27.905  1.00  0.00     0.148 A 
ATOM     89  C   UNL A   1      46.626  34.297  30.316  1.00  0.00     0.002 A 
ATOM     90  C   UNL A   1      45.805  35.056  28.163  1.00  0.00     0.091 A 
ATOM     91  F   UNL A   1      44.594  33.538  26.778  1.00  0.00    -0.205 F 
ATOM     92  C   UNL A   1      46.469  35.311  29.374  1.00  0.00     0.022 A 
BRANCH  90  93
ATOM     93  S   UNL A   1      45.739  36.396  26.969  1.00  0.00     0.127 S 
ATOM     94  O   UNL A   1      44.301  36.641  26.876  1.00  0.00    -0.237 OA
ATOM     95  O   UNL A   1      46.495  37.452  27.646  1.00  0.00    -0.237 OA
ATOM     96  O   UNL A   1      46.364  35.887  25.756  1.00  0.00    -0.744 OA
ENDBRANCH  90  93
ENDBRANCH  63  86
ENDBRANCH  37  38
ENDBRANCH  29  32
ENDBRANCH  27  28
ENDBRANCH  26  27
ENDBRANCH   1  26
TORSDOF 20
ENDMDL
MODEL 3
REMARK VINA RESULT:     -10.6      3.672      8.829
REMARK SMILES Cc1ccc(C(=O)N[C@@H](C(=O)NCCCCCCNC(=O)c2ccc(-c3c4nc(c(-c5cccc(S(=O)(=O)[O-])c5F)c5ccc([nH]5)c(-c5cccc(S(=O)(=O)[O-])c5F)c5nc(c(-c6cccc(S(=O)(=O)[O-])c6F)c6ccc3[nH]6)C=C5)C=C4)cc2)[C@@H](C)O)c(F)c1
REMARK SMILES IDX 16 1 15 2 14 3 13 4 12 5 10 6 11 7 9 9 8 10 6 11 7 12 5 14
REMARK SMILES IDX 1 15 2 16 3 17 90 18 4 19 88 20 89 21 85 22 86 23 87 24
REMARK SMILES IDX 17 26 18 27 19 28 20 29 21 31 22 32 23 33 84 34 24 35 83 36
REMARK SMILES IDX 25 37 26 38 27 39 77 40 28 41 82 42 76 43 78 44 29 45 81 46
REMARK SMILES IDX 75 47 74 48 30 50 62 51 42 52 61 53 43 54 46 55 60 56 79 57
REMARK SMILES IDX 44 58 45 59 59 61 80 62 47 63 31 64 32 65 40 66 33 67 35 68
REMARK SMILES IDX 41 69 34 70 36 71 37 72 38 73 39 74 63 75 64 76 72 77 65 78
REMARK SMILES IDX 67 79 73 80 66 81 68 82 69 83 70 84 71 85 48 86 49 87 57 88
REMARK SMILES IDX 50 89 52 90 58 91 51 92 53 93 54 94 55 95 56 96
REMARK H PARENT 12 8 8 13 87 25 19 30 78 49 46 60
REMARK Flexibility Score: inf
ROOT
ATOM      1  C   UNL A   1      36.949  20.082  24.827  1.00  0.00     0.002 C 
ENDROOT
BRANCH   1   2
ATOM      2  C   UNL A   1      37.078  21.501  25.393  1.00  0.00     0.002 C 
BRANCH   2   3
ATOM      3  C   UNL A   1      36.451  22.588  24.511  1.00  0.00     0.021 C 
BRANCH   3   4
ATOM      4  C   UNL A   1      35.721  23.653  25.324  1.00  0.00     0.116 C 
BRANCH   4   5
ATOM      5  N   UNL A   1      35.303  23.099  26.597  1.00  0.00    -0.354 N 
ATOM      6  C   UNL A   1      34.048  22.762  27.019  1.00  0.00     0.245 C 
ATOM      7  O   UNL A   1      33.898  22.512  28.215  1.00  0.00    -0.273 OA
ATOM      8  H   UNL A   1      36.025  22.945  27.249  1.00  0.00     0.163 HD
BRANCH   6   9
ATOM      9  C   UNL A   1      32.923  22.620  25.966  1.00  0.00     0.200 C 
BRANCH   9  10
ATOM     10  N   UNL A   1      31.733  23.396  26.340  1.00  0.00    -0.338 N 
ATOM     11  C   UNL A   1      31.252  24.642  26.005  1.00  0.00     0.254 C 
ATOM     12  O   UNL A   1      30.116  24.897  26.400  1.00  0.00    -0.269 OA
ATOM     13  H   UNL A   1      31.148  22.919  26.972  1.00  0.00     0.164 HD
BRANCH  11  14
ATOM     14  C   UNL A   1      32.039  25.678  25.268  1.00  0.00     0.075 A 
ATOM     15  C   UNL A   1      33.922  28.853  22.990  1.00  0.00     0.044 C 
ATOM     16  C   UNL A   1      33.290  27.742  23.777  1.00  0.00    -0.048 A 
ATOM     17  C   UNL A   1      33.575  27.568  25.132  1.00  0.00     0.004 A 
ATOM     18  C   UNL A   1      32.433  26.834  23.153  1.00  0.00     0.043 A 
ATOM     19  C   UNL A   1      32.982  26.527  25.859  1.00  0.00     0.017 A 
ATOM     20  C   UNL A   1      31.809  25.827  23.894  1.00  0.00     0.136 A 
ATOM     21  F   UNL A   1      30.955  25.024  23.240  1.00  0.00    -0.206 F 
ENDBRANCH  11  14
ENDBRANCH   9  10
BRANCH   9  22
ATOM     22  C   UNL A   1      32.563  21.123  25.756  1.00  0.00     0.143 C 
ATOM     23  C   UNL A   1      32.751  20.629  24.321  1.00  0.00     0.041 C 
BRANCH  22  24
ATOM     24  O   UNL A   1      33.377  20.289  26.594  1.00  0.00    -0.391 OA
ATOM     25  H   UNL A   1      32.811  19.675  27.087  1.00  0.00     0.211 HD
ENDBRANCH  22  24
ENDBRANCH   9  22
ENDBRANCH   6   9
ENDBRANCH   4   5
ENDBRANCH   3   4
ENDBRANCH   2   3
ENDBRANCH   1   2
BRANCH   1  26
ATOM     26  C   UNL A   1      38.216  19.232  24.951  1.00  0.00     0.021 C 
BRANCH  26  27
ATOM     27  C   UNL A   1      39.179  19.707  26.033  1.00  0.00     0.116 C 
BRANCH  27  28
ATOM     28  N   UNL A   1      40.420  18.945  26.016  1.00  0.00    -0.352 N 
ATOM     29  C   UNL A   1      41.715  19.395  26.062  1.00  0.00     0.251 C 
ATOM     30  H   UNL A   1      40.315  17.967  25.965  1.00  0.00     0.163 HD
ATOM     31  O   UNL A   1      42.641  18.633  25.810  1.00  0.00    -0.269 OA
BRANCH  29  32
ATOM     32  C   UNL A   1      41.981  20.808  26.404  1.00  0.00     0.039 A 
ATOM     33  C   UNL A   1      42.307  21.134  27.722  1.00  0.00     0.014 A 
ATOM     34  C   UNL A   1      41.915  21.802  25.424  1.00  0.00     0.014 A 
ATOM     35  C   UNL A   1      42.624  22.454  28.045  1.00  0.00     0.010 A 
ATOM     36  C   UNL A   1      42.305  23.102  25.732  1.00  0.00     0.010 A 
ATOM     37  C   UNL A   1      42.660  23.442  27.046  1.00  0.00    -0.014 A 
BRANCH  37  38
ATOM     38  C   UNL A   1      43.095  24.828  27.351  1.00  0.00     0.031 A 
ATOM     39  C   UNL A   1      42.147  25.800  27.996  1.00  0.00     0.074 A 
ATOM     40  C   UNL A   1      44.322  25.234  26.965  1.00  0.00     0.049 A 
ATOM     41  N   UNL A   1      42.335  27.061  28.290  1.00  0.00    -0.248 NA
ATOM     42  C   UNL A   1      40.804  25.301  28.334  1.00  0.00     0.031 C 
ATOM     43  C   UNL A   1      45.304  24.407  26.261  1.00  0.00     0.029 A 
ATOM     44  N   UNL A   1      44.942  26.453  27.085  1.00  0.00    -0.354 N 
ATOM     45  C   UNL A   1      41.129  27.513  28.813  1.00  0.00     0.074 A 
ATOM     46  C   UNL A   1      40.206  26.400  28.767  1.00  0.00     0.031 C 
ATOM     47  C   UNL A   1      46.402  25.138  26.016  1.00  0.00     0.029 A 
ATOM     48  C   UNL A   1      46.191  26.494  26.511  1.00  0.00     0.049 A 
ATOM     49  H   UNL A   1      44.532  27.223  27.540  1.00  0.00     0.167 HD
ATOM     50  C   UNL A   1      40.826  28.736  29.311  1.00  0.00     0.034 A 
ATOM     51  C   UNL A   1      47.062  27.514  26.382  1.00  0.00     0.034 A 
ATOM     52  C   UNL A   1      41.756  29.830  29.380  1.00  0.00     0.049 A 
ATOM     53  C   UNL A   1      46.709  28.855  26.965  1.00  0.00     0.074 A 
ATOM     54  C   UNL A   1      41.574  31.080  29.946  1.00  0.00     0.029 A 
ATOM     55  N   UNL A   1      43.040  29.814  28.855  1.00  0.00    -0.354 N 
ATOM     56  N   UNL A   1      45.622  29.216  27.602  1.00  0.00    -0.248 NA
ATOM     57  C   UNL A   1      47.716  29.918  26.842  1.00  0.00     0.031 C 
ATOM     58  C   UNL A   1      42.733  31.832  29.728  1.00  0.00     0.029 A 
ATOM     59  C   UNL A   1      43.654  31.037  29.065  1.00  0.00     0.049 A 
ATOM     60  H   UNL A   1      43.453  29.046  28.398  1.00  0.00     0.167 HD
ATOM     61  C   UNL A   1      45.828  30.536  27.986  1.00  0.00     0.074 A 
ATOM     62  C   UNL A   1      47.153  30.902  27.531  1.00  0.00     0.031 C 
ATOM     63  C   UNL A   1      44.990  31.375  28.645  1.00  0.00     0.034 A 
BRANCH  50  64
ATOM     64  C   UNL A   1      39.437  28.946  29.858  1.00  0.00     0.023 A 
ATOM     65  C   UNL A   1      39.130  28.520  31.167  1.00  0.00     0.012 A 
ATOM     66  C   UNL A   1      38.456  29.619  29.103  1.00  0.00     0.148 A 
ATOM     67  C   UNL A   1      37.859  28.727  31.703  1.00  0.00     0.002 A 
ATOM     68  C   UNL A   1      37.206  29.865  29.662  1.00  0.00     0.091 A 
ATOM     69  F   UNL A   1      38.759  30.000  27.855  1.00  0.00    -0.205 F 
ATOM     70  C   UNL A   1      36.903  29.409  30.955  1.00  0.00     0.022 A 
BRANCH  68  71
ATOM     71  S   UNL A   1      35.933  30.808  28.816  1.00  0.00     0.127 S 
ATOM     72  O   UNL A   1      35.254  29.764  28.050  1.00  0.00    -0.237 OA
ATOM     73  O   UNL A   1      35.158  31.347  29.933  1.00  0.00    -0.237 OA
ATOM     74  O   UNL A   1      36.634  31.808  28.022  1.00  0.00    -0.744 OA
ENDBRANCH  68  71
ENDBRANCH  50  64
BRANCH  51  75
ATOM     75  C   UNL A   1      48.377  27.289  25.715  1.00  0.00     0.023 A 
ATOM     76  C   UNL A   1      49.476  26.853  26.479  1.00  0.00     0.012 A 
ATOM     77  C   UNL A   1      48.537  27.480  24.328  1.00  0.00     0.148 A 
ATOM     78  C   UNL A   1      50.721  26.647  25.882  1.00  0.00     0.002 A 
ATOM     79  C   UNL A   1      49.763  27.216  23.730  1.00  0.00     0.091 A 
ATOM     80  F   UNL A   1      47.481  27.903  23.620  1.00  0.00    -0.205 F 
ATOM     81  C   UNL A   1      50.862  26.819  24.508  1.00  0.00     0.022 A 
BRANCH  79  82
ATOM     82  S   UNL A   1      50.000  27.280  21.950  1.00  0.00     0.127 S 
ATOM     83  O   UNL A   1      48.976  26.353  21.476  1.00  0.00    -0.237 OA
ATOM     84  O   UNL A   1      49.737  28.690  21.661  1.00  0.00    -0.237 OA
ATOM     85  O   UNL A   1      51.379  26.870  21.717  1.00  0.00    -0.744 OA
ENDBRANCH  79  82
ENDBRANCH  51  75
BRANCH  63  86
ATOM     86  C   UNL A   1      45.490  32.763  28.952  1.00  0.00     0.023 A 
ATOM     87  C   UNL A   1      46.131  33.026  30.180  1.00  0.00     0.012 A 
ATOM     88  C   UNL A   1      45.384  33.790  27.995  1.00  0.00     0.148 A 
ATOM     89  C   UNL A   1      46.624  34.299  30.463  1.00  0.00     0.002 A 
ATOM     90  C   UNL A   1      45.925  35.042  28.262  1.00  0.00     0.091 A 
ATOM     91  F   UNL A   1      44.756  33.526  26.839  1.00  0.00    -0.205 F 
ATOM     92  C   UNL A   1      46.533  35.302  29.501  1.00  0.00     0.022 A 
BRANCH  90  93
ATOM     93  S   UNL A   1      45.943  36.366  27.049  1.00  0.00     0.127 S 
ATOM     94  O   UNL A   1      44.587  36.899  27.171  1.00  0.00    -0.237 OA
ATOM     95  O   UNL A   1      46.993  37.245  27.565  1.00  0.00    -0.237 OA
ATOM     96  O   UNL A   1      46.253  35.738  25.771  1.00  0.00    -0.744 OA
ENDBRANCH  90  93
ENDBRANCH  63  86
ENDBRANCH  37  38
ENDBRANCH  29  32
ENDBRANCH  27  28
ENDBRANCH  26  27
ENDBRANCH   1  26
TORSDOF 20
ENDMDL
