MODEL 1
REMARK VINA RESULT:     -11.6      0.000      0.000
REMARK SMILES COc1ccc2c(c1)C=C(C(=O)NCCCCCCNC(=O)c1ccc(-c3c4nc(c(-c5cccc(S(=O)(=O)[O-])c5F)c5ccc([nH]5)c(-c5cccc(S(=O)(=O)[O-])c5F)c5nc(c(-c6cccc(S(=O)(=O)[O-])c6F)c6ccc3[nH]6)C=C5)C=C4)cc1)[C@H](C(F)(F)F)O2
REMARK SMILES IDX 17 1 16 2 15 3 14 4 13 5 11 6 12 7 10 9 3 10 4 11 8 12 5 13
REMARK SMILES IDX 7 14 6 15 9 16 91 17 86 18 2 19 1 20 87 21 88 22 89 23 90 24
REMARK SMILES IDX 18 25 19 26 20 27 21 28 22 30 23 31 24 32 85 33 25 34 84 35
REMARK SMILES IDX 26 36 27 37 28 38 78 39 29 40 83 41 77 42 79 43 30 44 82 45
REMARK SMILES IDX 76 46 75 47 31 49 63 50 43 51 62 52 44 53 47 54 61 55 80 56
REMARK SMILES IDX 45 57 46 58 60 60 81 61 48 62 32 63 33 64 41 65 34 66 36 67
REMARK SMILES IDX 42 68 35 69 37 70 38 71 39 72 40 73 64 74 65 75 73 76 66 77
REMARK SMILES IDX 68 78 74 79 67 80 69 81 70 82 71 83 72 84 49 85 50 86 58 87
REMARK SMILES IDX 51 88 53 89 59 90 52 91 54 92 55 93 56 94 57 95
REMARK H PARENT 13 8 20 29 79 48 47 59
REMARK Flexibility Score: inf
ROOT
ATOM      1  C   UNL A   1      37.377  21.096  24.608  1.00  0.00     0.002 C 
ENDROOT
BRANCH   1   2
ATOM      2  C   UNL A   1      37.124  22.081  25.754  1.00  0.00     0.002 C 
BRANCH   2   3
ATOM      3  C   UNL A   1      37.054  23.555  25.332  1.00  0.00     0.021 C 
BRANCH   3   4
ATOM      4  C   UNL A   1      35.623  24.034  25.051  1.00  0.00     0.116 C 
BRANCH   4   5
ATOM      5  N   UNL A   1      34.767  23.671  26.168  1.00  0.00    -0.352 N 
ATOM      6  C   UNL A   1      33.745  22.785  26.298  1.00  0.00     0.251 C 
ATOM      7  O   UNL A   1      33.049  22.852  27.308  1.00  0.00    -0.270 OA
ATOM      8  H   UNL A   1      34.966  24.165  26.996  1.00  0.00     0.163 HD
BRANCH   6   9
ATOM      9  C   UNL A   1      33.499  21.689  25.324  1.00  0.00     0.067 C 
ATOM     10  C   UNL A   1      33.765  17.130  23.772  1.00  0.00     0.119 A 
ATOM     11  C   UNL A   1      32.807  17.394  22.794  1.00  0.00     0.050 A 
ATOM     12  C   UNL A   1      34.197  18.142  24.628  1.00  0.00     0.058 A 
ATOM     13  C   UNL A   1      32.292  18.685  22.666  1.00  0.00     0.051 A 
ATOM     14  C   UNL A   1      33.687  19.437  24.495  1.00  0.00     0.021 A 
ATOM     15  C   UNL A   1      32.731  19.702  23.516  1.00  0.00     0.128 A 
ATOM     16  C   UNL A   1      34.064  20.479  25.435  1.00  0.00     0.025 C 
ATOM     17  O   UNL A   1      32.116  20.910  23.382  1.00  0.00    -0.475 OA
ATOM     18  C   UNL A   1      32.683  22.055  24.086  1.00  0.00     0.314 C 
BRANCH  10  19
ATOM     19  O   UNL A   1      34.235  15.870  24.016  1.00  0.00    -0.497 OA
ATOM     20  C   UNL A   1      35.013  15.804  25.208  1.00  0.00     0.278 C 
ENDBRANCH  10  19
BRANCH  18  21
ATOM     21  C   UNL A   1      31.537  23.076  24.280  1.00  0.00     0.429 C 
ATOM     22  F   UNL A   1      30.780  22.814  25.370  1.00  0.00    -0.167 F 
ATOM     23  F   UNL A   1      32.032  24.328  24.487  1.00  0.00    -0.167 F 
ATOM     24  F   UNL A   1      30.719  23.155  23.206  1.00  0.00    -0.167 F 
ENDBRANCH  18  21
ENDBRANCH   6   9
ENDBRANCH   4   5
ENDBRANCH   3   4
ENDBRANCH   2   3
ENDBRANCH   1   2
BRANCH   1  25
ATOM     25  C   UNL A   1      38.294  19.922  24.957  1.00  0.00     0.021 C 
BRANCH  25  26
ATOM     26  C   UNL A   1      39.288  20.211  26.079  1.00  0.00     0.116 C 
BRANCH  26  27
ATOM     27  N   UNL A   1      40.394  19.267  26.069  1.00  0.00    -0.352 N 
ATOM     28  C   UNL A   1      41.743  19.512  26.034  1.00  0.00     0.251 C 
ATOM     29  H   UNL A   1      40.138  18.316  26.090  1.00  0.00     0.163 HD
ATOM     30  O   UNL A   1      42.523  18.596  25.785  1.00  0.00    -0.269 OA
BRANCH  28  31
ATOM     31  C   UNL A   1      42.258  20.874  26.296  1.00  0.00     0.039 A 
ATOM     32  C   UNL A   1      42.514  21.259  27.615  1.00  0.00     0.014 A 
ATOM     33  C   UNL A   1      42.446  21.783  25.251  1.00  0.00     0.014 A 
ATOM     34  C   UNL A   1      42.984  22.546  27.882  1.00  0.00     0.010 A 
ATOM     35  C   UNL A   1      42.984  23.040  25.512  1.00  0.00     0.010 A 
ATOM     36  C   UNL A   1      43.236  23.443  26.831  1.00  0.00    -0.014 A 
BRANCH  36  37
ATOM     37  C   UNL A   1      43.731  24.816  27.101  1.00  0.00     0.031 A 
ATOM     38  C   UNL A   1      42.798  25.867  27.639  1.00  0.00     0.074 A 
ATOM     39  C   UNL A   1      45.007  25.135  26.807  1.00  0.00     0.049 A 
ATOM     40  N   UNL A   1      43.047  27.117  27.938  1.00  0.00    -0.248 NA
ATOM     41  C   UNL A   1      41.394  25.473  27.841  1.00  0.00     0.031 C 
ATOM     42  C   UNL A   1      45.986  24.227  26.205  1.00  0.00     0.029 A 
ATOM     43  N   UNL A   1      45.693  26.312  26.959  1.00  0.00    -0.354 N 
ATOM     44  C   UNL A   1      41.830  27.663  28.331  1.00  0.00     0.074 A 
ATOM     45  C   UNL A   1      40.835  26.622  28.190  1.00  0.00     0.031 C 
ATOM     46  C   UNL A   1      47.151  24.877  26.056  1.00  0.00     0.029 A 
ATOM     47  C   UNL A   1      46.998  26.248  26.532  1.00  0.00     0.049 A 
ATOM     48  H   UNL A   1      45.289  27.126  27.339  1.00  0.00     0.167 HD
ATOM     49  C   UNL A   1      41.568  28.906  28.803  1.00  0.00     0.034 A 
ATOM     50  C   UNL A   1      47.965  27.187  26.535  1.00  0.00     0.034 A 
ATOM     51  C   UNL A   1      42.568  29.923  28.983  1.00  0.00     0.049 A 
ATOM     52  C   UNL A   1      47.665  28.542  27.116  1.00  0.00     0.074 A 
ATOM     53  C   UNL A   1      42.424  31.186  29.529  1.00  0.00     0.029 A 
ATOM     54  N   UNL A   1      43.900  29.794  28.620  1.00  0.00    -0.354 N 
ATOM     55  N   UNL A   1      46.546  28.990  27.632  1.00  0.00    -0.248 NA
ATOM     56  C   UNL A   1      48.774  29.507  27.156  1.00  0.00     0.031 C 
ATOM     57  C   UNL A   1      43.668  31.826  29.481  1.00  0.00     0.029 A 
ATOM     58  C   UNL A   1      44.591  30.954  28.926  1.00  0.00     0.049 A 
ATOM     59  H   UNL A   1      44.296  28.993  28.205  1.00  0.00     0.167 HD
ATOM     60  C   UNL A   1      46.825  30.272  28.095  1.00  0.00     0.074 A 
ATOM     61  C   UNL A   1      48.225  30.520  27.812  1.00  0.00     0.031 C 
ATOM     62  C   UNL A   1      45.996  31.166  28.688  1.00  0.00     0.034 A 
BRANCH  49  63
ATOM     63  C   UNL A   1      40.148  29.207  29.209  1.00  0.00     0.023 A 
ATOM     64  C   UNL A   1      39.207  29.577  28.224  1.00  0.00     0.012 A 
ATOM     65  C   UNL A   1      39.732  29.101  30.550  1.00  0.00     0.148 A 
ATOM     66  C   UNL A   1      37.892  29.881  28.572  1.00  0.00     0.002 A 
ATOM     67  C   UNL A   1      38.407  29.361  30.883  1.00  0.00     0.091 A 
ATOM     68  F   UNL A   1      40.641  28.771  31.479  1.00  0.00    -0.205 F 
ATOM     69  C   UNL A   1      37.489  29.764  29.899  1.00  0.00     0.022 A 
BRANCH  67  70
ATOM     70  S   UNL A   1      37.776  29.161  32.554  1.00  0.00     0.127 S 
ATOM     71  O   UNL A   1      38.703  29.991  33.321  1.00  0.00    -0.237 OA
ATOM     72  O   UNL A   1      36.422  29.706  32.443  1.00  0.00    -0.237 OA
ATOM     73  O   UNL A   1      37.830  27.733  32.830  1.00  0.00    -0.744 OA
ENDBRANCH  67  70
ENDBRANCH  49  63
BRANCH  50  74
ATOM     74  C   UNL A   1      49.335  26.838  26.065  1.00  0.00     0.023 A 
ATOM     75  C   UNL A   1      50.173  26.072  26.900  1.00  0.00     0.012 A 
ATOM     76  C   UNL A   1      49.795  27.214  24.789  1.00  0.00     0.148 A 
ATOM     77  C   UNL A   1      51.454  25.711  26.484  1.00  0.00     0.002 A 
ATOM     78  C   UNL A   1      51.053  26.807  24.360  1.00  0.00     0.091 A 
ATOM     79  F   UNL A   1      48.984  27.949  24.014  1.00  0.00    -0.205 F 
ATOM     80  C   UNL A   1      51.891  26.070  25.211  1.00  0.00     0.022 A 
BRANCH  78  81
ATOM     81  S   UNL A   1      51.651  27.111  22.693  1.00  0.00     0.127 S 
ATOM     82  O   UNL A   1      50.540  26.619  21.883  1.00  0.00    -0.237 OA
ATOM     83  O   UNL A   1      51.820  28.563  22.694  1.00  0.00    -0.237 OA
ATOM     84  O   UNL A   1      52.895  26.360  22.579  1.00  0.00    -0.744 OA
ENDBRANCH  78  81
ENDBRANCH  50  74
BRANCH  62  85
ATOM     85  C   UNL A   1      46.584  32.488  29.110  1.00  0.00     0.023 A 
ATOM     86  C   UNL A   1      47.218  32.605  30.362  1.00  0.00     0.012 A 
ATOM     87  C   UNL A   1      46.563  33.594  28.238  1.00  0.00     0.148 A 
ATOM     88  C   UNL A   1      47.791  33.815  30.755  1.00  0.00     0.002 A 
ATOM     89  C   UNL A   1      47.178  34.782  28.617  1.00  0.00     0.091 A 
ATOM     90  F   UNL A   1      45.935  33.470  27.059  1.00  0.00    -0.205 F 
ATOM     91  C   UNL A   1      47.781  34.898  29.879  1.00  0.00     0.022 A 
BRANCH  89  92
ATOM     92  S   UNL A   1      47.296  36.191  27.510  1.00  0.00     0.127 S 
ATOM     93  O   UNL A   1      47.962  35.606  26.349  1.00  0.00    -0.237 OA
ATOM     94  O   UNL A   1      45.890  36.539  27.294  1.00  0.00    -0.237 OA
ATOM     95  O   UNL A   1      48.060  37.201  28.232  1.00  0.00    -0.744 OA
ENDBRANCH  89  92
ENDBRANCH  62  85
ENDBRANCH  36  37
ENDBRANCH  28  31
ENDBRANCH  26  27
ENDBRANCH  25  26
ENDBRANCH   1  25
TORSDOF 18
ENDMDL
MODEL 2
REMARK VINA RESULT:     -11.6      1.555      7.655
REMARK SMILES COc1ccc2c(c1)C=C(C(=O)NCCCCCCNC(=O)c1ccc(-c3c4nc(c(-c5cccc(S(=O)(=O)[O-])c5F)c5ccc([nH]5)c(-c5cccc(S(=O)(=O)[O-])c5F)c5nc(c(-c6cccc(S(=O)(=O)[O-])c6F)c6ccc3[nH]6)C=C5)C=C4)cc1)[C@H](C(F)(F)F)O2
REMARK SMILES IDX 17 1 16 2 15 3 14 4 13 5 11 6 12 7 10 9 3 10 4 11 8 12 5 13
REMARK SMILES IDX 7 14 6 15 9 16 91 17 86 18 2 19 1 20 87 21 88 22 89 23 90 24
REMARK SMILES IDX 18 25 19 26 20 27 21 28 22 30 23 31 24 32 85 33 25 34 84 35
REMARK SMILES IDX 26 36 27 37 28 38 78 39 29 40 83 41 77 42 79 43 30 44 82 45
REMARK SMILES IDX 76 46 75 47 31 49 63 50 43 51 62 52 44 53 47 54 61 55 80 56
REMARK SMILES IDX 45 57 46 58 60 60 81 61 48 62 32 63 33 64 41 65 34 66 36 67
REMARK SMILES IDX 42 68 35 69 37 70 38 71 39 72 40 73 64 74 65 75 73 76 66 77
REMARK SMILES IDX 68 78 74 79 67 80 69 81 70 82 71 83 72 84 49 85 50 86 58 87
REMARK SMILES IDX 51 88 53 89 59 90 52 91 54 92 55 93 56 94 57 95
REMARK H PARENT 13 8 20 29 79 48 47 59
REMARK Flexibility Score: inf
ROOT
ATOM      1  C   UNL A   1      37.361  21.190  24.617  1.00  0.00     0.002 C 
ENDROOT
BRANCH   1   2
ATOM      2  C   UNL A   1      37.248  22.202  25.762  1.00  0.00     0.002 C 
BRANCH   2   3
ATOM      3  C   UNL A   1      37.086  23.662  25.317  1.00  0.00     0.021 C 
BRANCH   3   4
ATOM      4  C   UNL A   1      35.637  24.029  24.971  1.00  0.00     0.116 C 
BRANCH   4   5
ATOM      5  N   UNL A   1      34.776  23.698  26.096  1.00  0.00    -0.352 N 
ATOM      6  C   UNL A   1      33.754  22.816  26.247  1.00  0.00     0.251 C 
ATOM      7  O   UNL A   1      33.054  22.913  27.252  1.00  0.00    -0.270 OA
ATOM      8  H   UNL A   1      34.973  24.216  26.910  1.00  0.00     0.163 HD
BRANCH   6   9
ATOM      9  C   UNL A   1      33.511  21.693  25.304  1.00  0.00     0.067 C 
ATOM     10  C   UNL A   1      33.828  17.102  23.858  1.00  0.00     0.119 A 
ATOM     11  C   UNL A   1      32.851  17.326  22.890  1.00  0.00     0.050 A 
ATOM     12  C   UNL A   1      34.256  18.141  24.683  1.00  0.00     0.058 A 
ATOM     13  C   UNL A   1      32.314  18.606  22.739  1.00  0.00     0.051 A 
ATOM     14  C   UNL A   1      33.724  19.425  24.526  1.00  0.00     0.021 A 
ATOM     15  C   UNL A   1      32.748  19.650  23.557  1.00  0.00     0.128 A 
ATOM     16  C   UNL A   1      34.098  20.495  25.435  1.00  0.00     0.025 C 
ATOM     17  O   UNL A   1      32.112  20.845  23.403  1.00  0.00    -0.475 OA
ATOM     18  C   UNL A   1      32.671  22.015  24.070  1.00  0.00     0.314 C 
BRANCH  10  19
ATOM     19  O   UNL A   1      34.323  15.857  24.126  1.00  0.00    -0.497 OA
ATOM     20  C   UNL A   1      35.154  15.841  25.283  1.00  0.00     0.278 C 
ENDBRANCH  10  19
BRANCH  18  21
ATOM     21  C   UNL A   1      31.511  23.022  24.258  1.00  0.00     0.429 C 
ATOM     22  F   UNL A   1      31.942  24.290  24.450  1.00  0.00    -0.167 F 
ATOM     23  F   UNL A   1      30.733  23.079  23.141  1.00  0.00    -0.167 F 
ATOM     24  F   UNL A   1      30.693  22.693  25.283  1.00  0.00    -0.167 F 
ENDBRANCH  18  21
ENDBRANCH   6   9
ENDBRANCH   4   5
ENDBRANCH   3   4
ENDBRANCH   2   3
ENDBRANCH   1   2
BRANCH   1  25
ATOM     25  C   UNL A   1      38.214  19.958  24.927  1.00  0.00     0.021 C 
BRANCH  25  26
ATOM     26  C   UNL A   1      39.066  20.082  26.186  1.00  0.00     0.116 C 
BRANCH  26  27
ATOM     27  N   UNL A   1      40.284  19.294  26.088  1.00  0.00    -0.352 N 
ATOM     28  C   UNL A   1      41.591  19.713  26.080  1.00  0.00     0.251 C 
ATOM     29  H   UNL A   1      40.153  18.321  26.016  1.00  0.00     0.163 HD
ATOM     30  O   UNL A   1      42.478  18.933  25.745  1.00  0.00    -0.269 OA
BRANCH  28  31
ATOM     31  C   UNL A   1      41.928  21.098  26.474  1.00  0.00     0.039 A 
ATOM     32  C   UNL A   1      41.991  22.086  25.489  1.00  0.00     0.014 A 
ATOM     33  C   UNL A   1      42.225  21.413  27.804  1.00  0.00     0.014 A 
ATOM     34  C   UNL A   1      42.324  23.395  25.841  1.00  0.00     0.010 A 
ATOM     35  C   UNL A   1      42.484  22.733  28.164  1.00  0.00     0.010 A 
ATOM     36  C   UNL A   1      42.561  23.733  27.184  1.00  0.00    -0.014 A 
BRANCH  36  37
ATOM     37  C   UNL A   1      42.921  25.120  27.572  1.00  0.00     0.031 A 
ATOM     38  C   UNL A   1      44.339  25.602  27.432  1.00  0.00     0.074 A 
ATOM     39  C   UNL A   1      41.984  25.927  28.105  1.00  0.00     0.049 A 
ATOM     40  N   UNL A   1      44.843  26.776  27.715  1.00  0.00    -0.248 NA
ATOM     41  C   UNL A   1      45.329  24.632  26.934  1.00  0.00     0.031 C 
ATOM     42  C   UNL A   1      40.594  25.549  28.369  1.00  0.00     0.029 A 
ATOM     43  N   UNL A   1      42.062  27.226  28.537  1.00  0.00    -0.354 N 
ATOM     44  C   UNL A   1      46.207  26.676  27.462  1.00  0.00     0.074 A 
ATOM     45  C   UNL A   1      46.459  25.314  27.045  1.00  0.00     0.031 C 
ATOM     46  C   UNL A   1      39.947  26.598  28.900  1.00  0.00     0.029 A 
ATOM     47  C   UNL A   1      40.877  27.715  29.033  1.00  0.00     0.049 A 
ATOM     48  H   UNL A   1      42.890  27.758  28.495  1.00  0.00     0.167 HD
ATOM     49  C   UNL A   1      47.158  27.638  27.533  1.00  0.00     0.034 A 
ATOM     50  C   UNL A   1      40.573  28.931  29.528  1.00  0.00     0.034 A 
ATOM     51  C   UNL A   1      46.895  29.001  27.905  1.00  0.00     0.049 A 
ATOM     52  C   UNL A   1      41.633  29.999  29.544  1.00  0.00     0.074 A 
ATOM     53  C   UNL A   1      47.770  30.073  27.931  1.00  0.00     0.029 A 
ATOM     54  N   UNL A   1      45.662  29.483  28.319  1.00  0.00    -0.354 N 
ATOM     55  N   UNL A   1      42.881  29.930  29.150  1.00  0.00    -0.248 NA
ATOM     56  C   UNL A   1      41.230  31.326  30.032  1.00  0.00     0.031 C 
ATOM     57  C   UNL A   1      47.068  31.199  28.375  1.00  0.00     0.029 A 
ATOM     58  C   UNL A   1      45.751  30.834  28.605  1.00  0.00     0.049 A 
ATOM     59  H   UNL A   1      44.843  28.942  28.397  1.00  0.00     0.167 HD
ATOM     60  C   UNL A   1      43.402  31.210  29.302  1.00  0.00     0.074 A 
ATOM     61  C   UNL A   1      42.326  32.038  29.810  1.00  0.00     0.031 C 
ATOM     62  C   UNL A   1      44.658  31.657  29.057  1.00  0.00     0.034 A 
BRANCH  49  63
ATOM     63  C   UNL A   1      48.563  27.252  27.144  1.00  0.00     0.023 A 
ATOM     64  C   UNL A   1      49.378  26.570  28.073  1.00  0.00     0.012 A 
ATOM     65  C   UNL A   1      49.070  27.534  25.861  1.00  0.00     0.148 A 
ATOM     66  C   UNL A   1      50.688  26.218  27.749  1.00  0.00     0.002 A 
ATOM     67  C   UNL A   1      50.362  27.140  25.530  1.00  0.00     0.091 A 
ATOM     68  F   UNL A   1      48.294  28.204  24.997  1.00  0.00    -0.205 F 
ATOM     69  C   UNL A   1      51.177  26.494  26.475  1.00  0.00     0.022 A 
BRANCH  67  70
ATOM     70  S   UNL A   1      51.052  27.382  23.888  1.00  0.00     0.127 S 
ATOM     71  O   UNL A   1      50.067  26.701  23.051  1.00  0.00    -0.237 OA
ATOM     72  O   UNL A   1      51.055  28.840  23.763  1.00  0.00    -0.237 OA
ATOM     73  O   UNL A   1      52.377  26.777  23.922  1.00  0.00    -0.744 OA
ENDBRANCH  67  70
ENDBRANCH  49  63
BRANCH  50  74
ATOM     74  C   UNL A   1      39.175  29.228  29.949  1.00  0.00     0.023 A 
ATOM     75  C   UNL A   1      38.736  28.807  31.219  1.00  0.00     0.012 A 
ATOM     76  C   UNL A   1      38.298  29.961  29.127  1.00  0.00     0.148 A 
ATOM     77  C   UNL A   1      37.440  29.085  31.653  1.00  0.00     0.002 A 
ATOM     78  C   UNL A   1      37.025  30.280  29.585  1.00  0.00     0.091 A 
ATOM     79  F   UNL A   1      38.734  30.347  27.918  1.00  0.00    -0.205 F 
ATOM     80  C   UNL A   1      36.588  29.829  30.840  1.00  0.00     0.022 A 
BRANCH  78  81
ATOM     81  S   UNL A   1      35.904  31.342  28.667  1.00  0.00     0.127 S 
ATOM     82  O   UNL A   1      36.690  32.565  28.537  1.00  0.00    -0.237 OA
ATOM     83  O   UNL A   1      35.725  30.588  27.426  1.00  0.00    -0.237 OA
ATOM     84  O   UNL A   1      34.703  31.447  29.485  1.00  0.00    -0.744 OA
ENDBRANCH  78  81
ENDBRANCH  50  74
BRANCH  62  85
ATOM     85  C   UNL A   1      44.937  33.119  29.297  1.00  0.00     0.023 A 
ATOM     86  C   UNL A   1      45.437  33.542  30.543  1.00  0.00     0.012 A 
ATOM     87  C   UNL A   1      44.762  34.062  28.265  1.00  0.00     0.148 A 
ATOM     88  C   UNL A   1      45.726  34.887  30.770  1.00  0.00     0.002 A 
ATOM     89  C   UNL A   1      45.098  35.392  28.483  1.00  0.00     0.091 A 
ATOM     90  F   UNL A   1      44.264  33.643  27.091  1.00  0.00    -0.205 F 
ATOM     91  C   UNL A   1      45.568  35.809  29.738  1.00  0.00     0.022 A 
BRANCH  89  92
ATOM     92  S   UNL A   1      45.017  36.624  27.178  1.00  0.00     0.127 S 
ATOM     93  O   UNL A   1      45.840  36.012  26.137  1.00  0.00    -0.237 OA
ATOM     94  O   UNL A   1      43.586  36.667  26.876  1.00  0.00    -0.237 OA
ATOM     95  O   UNL A   1      45.546  37.852  27.758  1.00  0.00    -0.744 OA
ENDBRANCH  89  92
ENDBRANCH  62  85
ENDBRANCH  36  37
ENDBRANCH  28  31
ENDBRANCH  26  27
ENDBRANCH  25  26
ENDBRANCH   1  25
TORSDOF 18
ENDMDL
MODEL 3
REMARK VINA RESULT:     -11.6      3.137      8.756
REMARK SMILES COc1ccc2c(c1)C=C(C(=O)NCCCCCCNC(=O)c1ccc(-c3c4nc(c(-c5cccc(S(=O)(=O)[O-])c5F)c5ccc([nH]5)c(-c5cccc(S(=O)(=O)[O-])c5F)c5nc(c(-c6cccc(S(=O)(=O)[O-])c6F)c6ccc3[nH]6)C=C5)C=C4)cc1)[C@H](C(F)(F)F)O2
REMARK SMILES IDX 17 1 16 2 15 3 14 4 13 5 11 6 12 7 10 9 3 10 4 11 8 12 5 13
REMARK SMILES IDX 7 14 6 15 9 16 91 17 86 18 2 19 1 20 87 21 88 22 89 23 90 24
REMARK SMILES IDX 18 25 19 26 20 27 21 28 22 30 23 31 24 32 85 33 25 34 84 35
REMARK SMILES IDX 26 36 27 37 28 38 78 39 29 40 83 41 77 42 79 43 30 44 82 45
REMARK SMILES IDX 76 46 75 47 31 49 63 50 43 51 62 52 44 53 47 54 61 55 80 56
REMARK SMILES IDX 45 57 46 58 60 60 81 61 48 62 32 63 33 64 41 65 34 66 36 67
REMARK SMILES IDX 42 68 35 69 37 70 38 71 39 72 40 73 64 74 65 75 73 76 66 77
REMARK SMILES IDX 68 78 74 79 67 80 69 81 70 82 71 83 72 84 49 85 50 86 58 87
REMARK SMILES IDX 51 88 53 89 59 90 52 91 54 92 55 93 56 94 57 95
REMARK H PARENT 13 8 20 29 79 48 47 59
REMARK Flexibility Score: inf
ROOT
ATOM      1  C   UNL A   1      34.645  22.106  23.942  1.00  0.00     0.002 C 
ENDROOT
BRANCH   1   2
ATOM      2  C   UNL A   1      33.986  21.113  24.906  1.00  0.00     0.002 C 
BRANCH   2   3
ATOM      3  C   UNL A   1      32.496  20.854  24.642  1.00  0.00     0.021 C 
BRANCH   3   4
ATOM      4  C   UNL A   1      31.708  22.135  24.337  1.00  0.00     0.116 C 
BRANCH   4   5
ATOM      5  N   UNL A   1      31.248  22.725  25.583  1.00  0.00    -0.352 N 
ATOM      6  C   UNL A   1      31.131  24.010  26.008  1.00  0.00     0.251 C 
ATOM      7  O   UNL A   1      30.924  24.205  27.203  1.00  0.00    -0.270 OA
ATOM      8  H   UNL A   1      30.965  22.062  26.254  1.00  0.00     0.163 HD
BRANCH   6   9
ATOM      9  C   UNL A   1      31.148  25.171  25.080  1.00  0.00     0.067 C 
ATOM     10  C   UNL A   1      29.105  28.778  22.613  1.00  0.00     0.119 A 
ATOM     11  C   UNL A   1      30.358  29.334  22.363  1.00  0.00     0.050 A 
ATOM     12  C   UNL A   1      28.991  27.587  23.329  1.00  0.00     0.058 A 
ATOM     13  C   UNL A   1      31.504  28.680  22.820  1.00  0.00     0.051 A 
ATOM     14  C   UNL A   1      30.139  26.928  23.780  1.00  0.00     0.021 A 
ATOM     15  C   UNL A   1      31.393  27.483  23.528  1.00  0.00     0.128 A 
ATOM     16  C   UNL A   1      30.030  25.734  24.601  1.00  0.00     0.025 C 
ATOM     17  O   UNL A   1      32.551  26.955  24.014  1.00  0.00    -0.475 OA
ATOM     18  C   UNL A   1      32.518  25.605  24.565  1.00  0.00     0.314 C 
BRANCH  10  19
ATOM     19  O   UNL A   1      27.942  29.414  22.282  1.00  0.00    -0.497 OA
ATOM     20  C   UNL A   1      28.161  30.750  21.838  1.00  0.00     0.278 C 
ENDBRANCH  10  19
BRANCH  18  21
ATOM     21  C   UNL A   1      33.705  25.494  25.552  1.00  0.00     0.429 C 
ATOM     22  F   UNL A   1      33.758  24.295  26.175  1.00  0.00    -0.167 F 
ATOM     23  F   UNL A   1      34.893  25.605  24.896  1.00  0.00    -0.167 F 
ATOM     24  F   UNL A   1      33.692  26.462  26.497  1.00  0.00    -0.167 F 
ENDBRANCH  18  21
ENDBRANCH   6   9
ENDBRANCH   4   5
ENDBRANCH   3   4
ENDBRANCH   2   3
ENDBRANCH   1   2
BRANCH   1  25
ATOM     25  C   UNL A   1      36.115  22.414  24.240  1.00  0.00     0.021 C 
BRANCH  25  26
ATOM     26  C   UNL A   1      36.518  22.215  25.697  1.00  0.00     0.116 C 
BRANCH  26  27
ATOM     27  N   UNL A   1      37.483  21.137  25.843  1.00  0.00    -0.352 N 
ATOM     28  C   UNL A   1      38.835  21.207  26.066  1.00  0.00     0.251 C 
ATOM     29  H   UNL A   1      37.113  20.227  25.770  1.00  0.00     0.163 HD
ATOM     30  O   UNL A   1      39.529  20.205  25.918  1.00  0.00    -0.269 OA
BRANCH  28  31
ATOM     31  C   UNL A   1      39.453  22.484  26.485  1.00  0.00     0.039 A 
ATOM     32  C   UNL A   1      39.055  23.667  25.857  1.00  0.00     0.014 A 
ATOM     33  C   UNL A   1      40.452  22.510  27.462  1.00  0.00     0.014 A 
ATOM     34  C   UNL A   1      39.640  24.879  26.228  1.00  0.00     0.010 A 
ATOM     35  C   UNL A   1      40.981  23.727  27.883  1.00  0.00     0.010 A 
ATOM     36  C   UNL A   1      40.598  24.921  27.254  1.00  0.00    -0.014 A 
BRANCH  36  37
ATOM     37  C   UNL A   1      41.232  26.202  27.655  1.00  0.00     0.031 A 
ATOM     38  C   UNL A   1      42.656  26.499  27.269  1.00  0.00     0.074 A 
ATOM     39  C   UNL A   1      40.545  27.075  28.419  1.00  0.00     0.049 A 
ATOM     40  N   UNL A   1      43.376  27.560  27.525  1.00  0.00    -0.248 NA
ATOM     41  C   UNL A   1      43.374  25.455  26.519  1.00  0.00     0.031 C 
ATOM     42  C   UNL A   1      39.188  26.866  28.928  1.00  0.00     0.029 A 
ATOM     43  N   UNL A   1      40.900  28.303  28.914  1.00  0.00    -0.354 N 
ATOM     44  C   UNL A   1      44.637  27.300  26.999  1.00  0.00     0.074 A 
ATOM     45  C   UNL A   1      44.596  25.963  26.449  1.00  0.00     0.031 C 
ATOM     46  C   UNL A   1      38.820  27.938  29.647  1.00  0.00     0.029 A 
ATOM     47  C   UNL A   1      39.918  28.899  29.668  1.00  0.00     0.049 A 
ATOM     48  H   UNL A   1      41.777  28.719  28.744  1.00  0.00     0.167 HD
ATOM     49  C   UNL A   1      45.720  28.111  26.944  1.00  0.00     0.034 A 
ATOM     50  C   UNL A   1      39.901  30.092  30.295  1.00  0.00     0.034 A 
ATOM     51  C   UNL A   1      45.742  29.456  27.453  1.00  0.00     0.049 A 
ATOM     52  C   UNL A   1      41.094  30.999  30.172  1.00  0.00     0.074 A 
ATOM     53  C   UNL A   1      46.760  30.391  27.376  1.00  0.00     0.029 A 
ATOM     54  N   UNL A   1      44.697  30.059  28.136  1.00  0.00    -0.354 N 
ATOM     55  N   UNL A   1      42.222  30.798  29.533  1.00  0.00    -0.248 NA
ATOM     56  C   UNL A   1      40.997  32.315  30.820  1.00  0.00     0.031 C 
ATOM     57  C   UNL A   1      46.333  31.554  28.027  1.00  0.00     0.029 A 
ATOM     58  C   UNL A   1      45.043  31.352  28.489  1.00  0.00     0.049 A 
ATOM     59  H   UNL A   1      43.834  29.630  28.339  1.00  0.00     0.167 HD
ATOM     60  C   UNL A   1      42.951  31.975  29.665  1.00  0.00     0.074 A 
ATOM     61  C   UNL A   1      42.128  32.889  30.432  1.00  0.00     0.031 C 
ATOM     62  C   UNL A   1      44.192  32.268  29.206  1.00  0.00     0.034 A 
BRANCH  49  63
ATOM     63  C   UNL A   1      46.951  27.578  26.257  1.00  0.00     0.023 A 
ATOM     64  C   UNL A   1      47.148  27.839  24.884  1.00  0.00     0.012 A 
ATOM     65  C   UNL A   1      47.925  26.846  26.964  1.00  0.00     0.148 A 
ATOM     66  C   UNL A   1      48.267  27.341  24.217  1.00  0.00     0.002 A 
ATOM     67  C   UNL A   1      49.061  26.392  26.302  1.00  0.00     0.091 A 
ATOM     68  F   UNL A   1      47.714  26.585  28.263  1.00  0.00    -0.205 F 
ATOM     69  C   UNL A   1      49.227  26.626  24.927  1.00  0.00     0.022 A 
BRANCH  67  70
ATOM     70  S   UNL A   1      50.390  25.530  27.150  1.00  0.00     0.127 S 
ATOM     71  O   UNL A   1      51.343  25.315  26.062  1.00  0.00    -0.237 OA
ATOM     72  O   UNL A   1      50.816  26.516  28.145  1.00  0.00    -0.237 OA
ATOM     73  O   UNL A   1      49.791  24.328  27.710  1.00  0.00    -0.744 OA
ENDBRANCH  67  70
ENDBRANCH  49  63
BRANCH  50  74
ATOM     74  C   UNL A   1      38.668  30.535  31.005  1.00  0.00     0.023 A 
ATOM     75  C   UNL A   1      38.565  30.330  32.395  1.00  0.00     0.012 A 
ATOM     76  C   UNL A   1      37.626  31.196  30.329  1.00  0.00     0.148 A 
ATOM     77  C   UNL A   1      37.434  30.749  33.095  1.00  0.00     0.002 A 
ATOM     78  C   UNL A   1      36.524  31.658  31.040  1.00  0.00     0.091 A 
ATOM     79  F   UNL A   1      37.740  31.375  29.005  1.00  0.00    -0.205 F 
ATOM     80  C   UNL A   1      36.418  31.421  32.420  1.00  0.00     0.022 A 
BRANCH  78  81
ATOM     81  S   UNL A   1      35.228  32.645  30.283  1.00  0.00     0.127 S 
ATOM     82  O   UNL A   1      34.278  32.785  31.382  1.00  0.00    -0.237 OA
ATOM     83  O   UNL A   1      35.949  33.867  29.929  1.00  0.00    -0.237 OA
ATOM     84  O   UNL A   1      34.761  31.870  29.140  1.00  0.00    -0.744 OA
ENDBRANCH  78  81
ENDBRANCH  50  74
BRANCH  62  85
ATOM     85  C   UNL A   1      44.730  33.649  29.483  1.00  0.00     0.023 A 
ATOM     86  C   UNL A   1      45.358  33.922  30.714  1.00  0.00     0.012 A 
ATOM     87  C   UNL A   1      44.669  34.655  28.499  1.00  0.00     0.148 A 
ATOM     88  C   UNL A   1      45.885  35.186  30.975  1.00  0.00     0.002 A 
ATOM     89  C   UNL A   1      45.240  35.897  28.747  1.00  0.00     0.091 A 
ATOM     90  F   UNL A   1      44.048  34.383  27.341  1.00  0.00    -0.205 F 
ATOM     91  C   UNL A   1      45.836  36.169  29.988  1.00  0.00     0.022 A 
BRANCH  89  92
ATOM     92  S   UNL A   1      45.307  37.185  27.497  1.00  0.00     0.127 S 
ATOM     93  O   UNL A   1      45.986  36.500  26.399  1.00  0.00    -0.237 OA
ATOM     94  O   UNL A   1      43.890  37.463  27.257  1.00  0.00    -0.237 OA
ATOM     95  O   UNL A   1      46.042  38.288  28.101  1.00  0.00    -0.744 OA
ENDBRANCH  89  92
ENDBRANCH  62  85
ENDBRANCH  36  37
ENDBRANCH  28  31
ENDBRANCH  26  27
ENDBRANCH  25  26
ENDBRANCH   1  25
TORSDOF 18
ENDMDL
