MODEL 1
REMARK VINA RESULT:     -10.5      0.000      0.000
REMARK SMILES O=C(CC1CC[NH+](C[C@H]2COc3ccccc3O2)CC1)NCCCCCCNC(=O)c1ccc(-c2c3nc(c(-c4cccc(S(=O)(=O)[O-])c4F)c4ccc([nH]4)c(-c4cccc(S(=O)(=O)[O-])c4F)c4nc(c(-c5cccc(S(=O)(=O)[O-])c5F)c5ccc2[nH]5)C=C4)C=C3)cc1
REMARK SMILES IDX 24 1 23 2 22 3 21 4 1 5 2 6 3 8 4 9 5 10 20 11 6 12 19 13
REMARK SMILES IDX 7 14 8 16 9 17 10 18 18 19 11 20 17 21 12 22 16 23 13 24
REMARK SMILES IDX 15 25 14 26 25 27 26 28 27 29 28 30 29 31 30 33 31 34 32 35
REMARK SMILES IDX 93 36 33 37 92 38 34 39 35 40 36 41 86 42 37 43 91 44 85 45
REMARK SMILES IDX 87 46 38 47 90 48 84 49 83 50 39 52 71 53 51 54 70 55 52 56
REMARK SMILES IDX 55 57 69 58 88 59 53 60 54 61 68 63 89 64 56 65 40 66 41 67
REMARK SMILES IDX 49 68 42 69 44 70 50 71 43 72 45 73 46 74 47 75 48 76 72 77
REMARK SMILES IDX 73 78 81 79 74 80 76 81 82 82 75 83 77 84 78 85 79 86 80 87
REMARK SMILES IDX 57 88 58 89 66 90 59 91 61 92 67 93 60 94 62 95 63 96 64 97
REMARK SMILES IDX 65 98
REMARK H PARENT 21 7 7 15 28 32 87 51 55 62
REMARK Flexibility Score: inf
ROOT
ATOM      1  C   UNL A   1      35.256  34.117  29.320  1.00  0.00     0.002 C 
ENDROOT
BRANCH   1   2
ATOM      2  C   UNL A   1      34.896  32.646  29.082  1.00  0.00     0.021 C 
BRANCH   2   3
ATOM      3  C   UNL A   1      35.520  32.036  27.829  1.00  0.00     0.116 C 
BRANCH   3   4
ATOM      4  N   UNL A   1      34.718  30.938  27.321  1.00  0.00    -0.356 N 
ATOM      5  O   UNL A   1      35.979  29.293  28.289  1.00  0.00    -0.275 OA
ATOM      6  C   UNL A   1      35.035  29.633  27.581  1.00  0.00     0.220 C 
ATOM      7  H   UNL A   1      33.924  31.138  26.774  1.00  0.00     0.163 HD
BRANCH   6   8
ATOM      8  C   UNL A   1      34.228  28.595  26.833  1.00  0.00     0.104 C 
BRANCH   8   9
ATOM      9  C   UNL A   1      32.716  28.806  26.624  1.00  0.00     0.009 C 
ATOM     10  C   UNL A   1      31.792  27.688  27.115  1.00  0.00     0.066 C 
ATOM     11  C   UNL A   1      32.426  29.005  25.128  1.00  0.00     0.066 C 
ATOM     12  C   UNL A   1      31.874  26.404  26.288  1.00  0.00     0.262 C 
ATOM     13  C   UNL A   1      32.672  27.721  24.327  1.00  0.00     0.262 C 
ATOM     14  N   UNL A   1      31.919  26.578  24.835  1.00  0.00    -0.332 N 
ATOM     15  H   UNL A   1      30.951  26.831  24.632  1.00  0.00     0.348 HD
BRANCH  14  16
ATOM     16  C   UNL A   1      32.207  25.331  24.092  1.00  0.00     0.311 C 
BRANCH  16  17
ATOM     17  C   UNL A   1      33.043  24.184  24.745  1.00  0.00     0.265 C 
ATOM     18  C   UNL A   1      32.382  22.814  24.603  1.00  0.00     0.281 C 
ATOM     19  O   UNL A   1      34.344  24.190  24.114  1.00  0.00    -0.477 OA
ATOM     20  O   UNL A   1      33.159  21.745  25.129  1.00  0.00    -0.486 OA
ATOM     21  C   UNL A   1      35.063  23.053  24.382  1.00  0.00     0.162 A 
ATOM     22  C   UNL A   1      34.484  21.874  24.848  1.00  0.00     0.161 A 
ATOM     23  C   UNL A   1      36.438  23.096  24.156  1.00  0.00     0.050 A 
ATOM     24  C   UNL A   1      35.262  20.742  25.080  1.00  0.00     0.050 A 
ATOM     25  C   UNL A   1      37.224  21.965  24.403  1.00  0.00     0.004 A 
ATOM     26  C   UNL A   1      36.635  20.785  24.857  1.00  0.00     0.004 A 
ENDBRANCH  16  17
ENDBRANCH  14  16
ENDBRANCH   8   9
ENDBRANCH   6   8
ENDBRANCH   3   4
ENDBRANCH   2   3
ENDBRANCH   1   2
BRANCH   1  27
ATOM     27  C   UNL A   1      34.593  35.110  28.360  1.00  0.00     0.002 C 
BRANCH  27  28
ATOM     28  C   UNL A   1      33.516  35.996  28.989  1.00  0.00     0.021 C 
BRANCH  28  29
ATOM     29  C   UNL A   1      32.615  35.289  29.995  1.00  0.00     0.116 C 
BRANCH  29  30
ATOM     30  N   UNL A   1      32.344  36.110  31.166  1.00  0.00    -0.352 N 
ATOM     31  C   UNL A   1      32.910  36.056  32.419  1.00  0.00     0.251 C 
ATOM     32  H   UNL A   1      31.655  36.804  31.045  1.00  0.00     0.163 HD
ATOM     33  O   UNL A   1      32.430  36.710  33.337  1.00  0.00    -0.269 OA
BRANCH  31  34
ATOM     34  C   UNL A   1      34.084  35.188  32.655  1.00  0.00     0.039 A 
ATOM     35  C   UNL A   1      35.360  35.686  32.379  1.00  0.00     0.014 A 
ATOM     36  C   UNL A   1      33.929  33.892  33.156  1.00  0.00     0.014 A 
ATOM     37  C   UNL A   1      36.484  34.909  32.670  1.00  0.00     0.010 A 
ATOM     38  C   UNL A   1      35.051  33.151  33.516  1.00  0.00     0.010 A 
ATOM     39  C   UNL A   1      36.341  33.650  33.276  1.00  0.00    -0.014 A 
BRANCH  39  40
ATOM     40  C   UNL A   1      37.525  32.853  33.691  1.00  0.00     0.031 A 
ATOM     41  C   UNL A   1      38.334  33.259  34.895  1.00  0.00     0.074 A 
ATOM     42  C   UNL A   1      37.927  31.815  32.931  1.00  0.00     0.049 A 
ATOM     43  N   UNL A   1      39.430  32.725  35.369  1.00  0.00    -0.248 NA
ATOM     44  C   UNL A   1      37.864  34.432  35.649  1.00  0.00     0.031 C 
ATOM     45  C   UNL A   1      37.274  31.367  31.698  1.00  0.00     0.029 A 
ATOM     46  N   UNL A   1      38.998  30.965  33.064  1.00  0.00    -0.354 N 
ATOM     47  C   UNL A   1      39.801  33.513  36.451  1.00  0.00     0.074 A 
ATOM     48  C   UNL A   1      38.830  34.582  36.545  1.00  0.00     0.031 C 
ATOM     49  C   UNL A   1      37.955  30.327  31.192  1.00  0.00     0.029 A 
ATOM     50  C   UNL A   1      39.112  30.055  32.039  1.00  0.00     0.049 A 
ATOM     51  H   UNL A   1      39.624  31.004  33.823  1.00  0.00     0.167 HD
ATOM     52  C   UNL A   1      40.839  33.350  37.305  1.00  0.00     0.034 A 
ATOM     53  C   UNL A   1      40.050  29.119  31.797  1.00  0.00     0.034 A 
ATOM     54  C   UNL A   1      41.784  32.268  37.228  1.00  0.00     0.049 A 
ATOM     55  C   UNL A   1      41.182  28.945  32.773  1.00  0.00     0.074 A 
ATOM     56  C   UNL A   1      42.817  31.967  38.098  1.00  0.00     0.029 A 
ATOM     57  N   UNL A   1      41.823  31.321  36.217  1.00  0.00    -0.354 N 
ATOM     58  N   UNL A   1      41.423  29.603  33.881  1.00  0.00    -0.248 NA
ATOM     59  C   UNL A   1      42.151  27.878  32.485  1.00  0.00     0.031 C 
ATOM     60  C   UNL A   1      43.505  30.859  37.592  1.00  0.00     0.029 A 
ATOM     61  C   UNL A   1      42.874  30.444  36.431  1.00  0.00     0.049 A 
ATOM     62  H   UNL A   1      41.198  31.277  35.459  1.00  0.00     0.167 HD
ATOM     63  C   UNL A   1      42.549  29.007  34.441  1.00  0.00     0.074 A 
ATOM     64  C   UNL A   1      42.927  27.921  33.559  1.00  0.00     0.031 C 
ATOM     65  C   UNL A   1      43.214  29.337  35.575  1.00  0.00     0.034 A 
BRANCH  52  66
ATOM     66  C   UNL A   1      40.987  34.345  38.428  1.00  0.00     0.023 A 
ATOM     67  C   UNL A   1      41.873  35.433  38.286  1.00  0.00     0.012 A 
ATOM     68  C   UNL A   1      40.205  34.240  39.596  1.00  0.00     0.148 A 
ATOM     69  C   UNL A   1      42.007  36.378  39.302  1.00  0.00     0.002 A 
ATOM     70  C   UNL A   1      40.308  35.213  40.583  1.00  0.00     0.091 A 
ATOM     71  F   UNL A   1      39.381  33.190  39.721  1.00  0.00    -0.205 F 
ATOM     72  C   UNL A   1      41.218  36.274  40.444  1.00  0.00     0.022 A 
BRANCH  70  73
ATOM     73  S   UNL A   1      39.277  35.216  42.054  1.00  0.00     0.127 S 
ATOM     74  O   UNL A   1      39.958  34.231  42.893  1.00  0.00    -0.237 OA
ATOM     75  O   UNL A   1      39.403  36.599  42.513  1.00  0.00    -0.237 OA
ATOM     76  O   UNL A   1      37.941  34.841  41.611  1.00  0.00    -0.744 OA
ENDBRANCH  70  73
ENDBRANCH  52  66
BRANCH  53  77
ATOM     77  C   UNL A   1      39.933  28.238  30.599  1.00  0.00     0.023 A 
ATOM     78  C   UNL A   1      39.031  27.156  30.618  1.00  0.00     0.012 A 
ATOM     79  C   UNL A   1      40.694  28.478  29.438  1.00  0.00     0.148 A 
ATOM     80  C   UNL A   1      38.915  26.308  29.516  1.00  0.00     0.002 A 
ATOM     81  C   UNL A   1      40.531  27.665  28.324  1.00  0.00     0.091 A 
ATOM     82  F   UNL A   1      41.553  29.507  29.445  1.00  0.00    -0.205 F 
ATOM     83  C   UNL A   1      39.656  26.567  28.367  1.00  0.00     0.022 A 
BRANCH  81  84
ATOM     84  S   UNL A   1      41.343  28.000  26.758  1.00  0.00     0.127 S 
ATOM     85  O   UNL A   1      40.978  26.824  25.973  1.00  0.00    -0.237 OA
ATOM     86  O   UNL A   1      40.694  29.245  26.344  1.00  0.00    -0.237 OA
ATOM     87  O   UNL A   1      42.759  28.138  27.071  1.00  0.00    -0.744 OA
ENDBRANCH  81  84
ENDBRANCH  53  77
BRANCH  65  88
ATOM     88  C   UNL A   1      44.400  28.492  35.962  1.00  0.00     0.023 A 
ATOM     89  C   UNL A   1      45.692  28.845  35.524  1.00  0.00     0.012 A 
ATOM     90  C   UNL A   1      44.240  27.390  36.827  1.00  0.00     0.148 A 
ATOM     91  C   UNL A   1      46.802  28.094  35.912  1.00  0.00     0.002 A 
ATOM     92  C   UNL A   1      45.356  26.680  37.253  1.00  0.00     0.091 A 
ATOM     93  F   UNL A   1      43.001  27.060  37.220  1.00  0.00    -0.205 F 
ATOM     94  C   UNL A   1      46.635  27.021  36.786  1.00  0.00     0.022 A 
BRANCH  92  95
ATOM     95  S   UNL A   1      45.252  25.347  38.452  1.00  0.00     0.127 S 
ATOM     96  O   UNL A   1      46.661  24.996  38.630  1.00  0.00    -0.237 OA
ATOM     97  O   UNL A   1      44.640  26.013  39.602  1.00  0.00    -0.237 OA
ATOM     98  O   UNL A   1      44.427  24.314  37.839  1.00  0.00    -0.744 OA
ENDBRANCH  92  95
ENDBRANCH  65  88
ENDBRANCH  39  40
ENDBRANCH  31  34
ENDBRANCH  29  30
ENDBRANCH  28  29
ENDBRANCH  27  28
ENDBRANCH   1  27
TORSDOF 19
ENDMDL
MODEL 2
REMARK VINA RESULT:     -10.5      1.883      2.419
REMARK SMILES O=C(CC1CC[NH+](C[C@H]2COc3ccccc3O2)CC1)NCCCCCCNC(=O)c1ccc(-c2c3nc(c(-c4cccc(S(=O)(=O)[O-])c4F)c4ccc([nH]4)c(-c4cccc(S(=O)(=O)[O-])c4F)c4nc(c(-c5cccc(S(=O)(=O)[O-])c5F)c5ccc2[nH]5)C=C4)C=C3)cc1
REMARK SMILES IDX 24 1 23 2 22 3 21 4 1 5 2 6 3 8 4 9 5 10 20 11 6 12 19 13
REMARK SMILES IDX 7 14 8 16 9 17 10 18 18 19 11 20 17 21 12 22 16 23 13 24
REMARK SMILES IDX 15 25 14 26 25 27 26 28 27 29 28 30 29 31 30 33 31 34 32 35
REMARK SMILES IDX 93 36 33 37 92 38 34 39 35 40 36 41 86 42 37 43 91 44 85 45
REMARK SMILES IDX 87 46 38 47 90 48 84 49 83 50 39 52 71 53 51 54 70 55 52 56
REMARK SMILES IDX 55 57 69 58 88 59 53 60 54 61 68 63 89 64 56 65 40 66 41 67
REMARK SMILES IDX 49 68 42 69 44 70 50 71 43 72 45 73 46 74 47 75 48 76 72 77
REMARK SMILES IDX 73 78 81 79 74 80 76 81 82 82 75 83 77 84 78 85 79 86 80 87
REMARK SMILES IDX 57 88 58 89 66 90 59 91 61 92 67 93 60 94 62 95 63 96 64 97
REMARK SMILES IDX 65 98
REMARK H PARENT 21 7 7 15 28 32 87 51 55 62
REMARK Flexibility Score: inf
ROOT
ATOM      1  C   UNL A   1      35.114  32.574  28.558  1.00  0.00     0.002 C 
ENDROOT
BRANCH   1   2
ATOM      2  C   UNL A   1      35.481  31.338  27.728  1.00  0.00     0.021 C 
BRANCH   2   3
ATOM      3  C   UNL A   1      34.443  30.218  27.767  1.00  0.00     0.116 C 
BRANCH   3   4
ATOM      4  N   UNL A   1      34.089  29.781  26.429  1.00  0.00    -0.356 N 
ATOM      5  O   UNL A   1      31.949  30.585  26.505  1.00  0.00    -0.275 OA
ATOM      6  C   UNL A   1      32.841  29.986  25.910  1.00  0.00     0.220 C 
ATOM      7  H   UNL A   1      34.767  29.323  25.880  1.00  0.00     0.163 HD
BRANCH   6   8
ATOM      8  C   UNL A   1      32.555  29.310  24.587  1.00  0.00     0.104 C 
BRANCH   8   9
ATOM      9  C   UNL A   1      31.548  28.146  24.525  1.00  0.00     0.009 C 
ATOM     10  C   UNL A   1      31.392  27.304  25.795  1.00  0.00     0.066 C 
ATOM     11  C   UNL A   1      31.943  27.183  23.394  1.00  0.00     0.066 C 
ATOM     12  C   UNL A   1      32.605  26.429  26.117  1.00  0.00     0.262 C 
ATOM     13  C   UNL A   1      33.250  26.445  23.708  1.00  0.00     0.262 C 
ATOM     14  N   UNL A   1      33.211  25.732  24.982  1.00  0.00    -0.332 N 
ATOM     15  H   UNL A   1      32.528  24.993  24.811  1.00  0.00     0.348 HD
BRANCH  14  16
ATOM     16  C   UNL A   1      34.496  25.071  25.303  1.00  0.00     0.311 C 
BRANCH  16  17
ATOM     17  C   UNL A   1      34.770  23.596  24.866  1.00  0.00     0.265 C 
ATOM     18  C   UNL A   1      35.553  22.805  25.912  1.00  0.00     0.281 C 
ATOM     19  O   UNL A   1      33.487  22.979  24.614  1.00  0.00    -0.477 OA
ATOM     20  O   UNL A   1      35.753  21.439  25.567  1.00  0.00    -0.486 OA
ATOM     21  C   UNL A   1      33.572  21.614  24.516  1.00  0.00     0.162 A 
ATOM     22  C   UNL A   1      34.653  20.877  24.997  1.00  0.00     0.161 A 
ATOM     23  C   UNL A   1      32.505  20.948  23.916  1.00  0.00     0.050 A 
ATOM     24  C   UNL A   1      34.672  19.488  24.890  1.00  0.00     0.050 A 
ATOM     25  C   UNL A   1      32.529  19.554  23.793  1.00  0.00     0.004 A 
ATOM     26  C   UNL A   1      33.609  18.823  24.288  1.00  0.00     0.004 A 
ENDBRANCH  16  17
ENDBRANCH  14  16
ENDBRANCH   8   9
ENDBRANCH   6   8
ENDBRANCH   3   4
ENDBRANCH   2   3
ENDBRANCH   1   2
BRANCH   1  27
ATOM     27  C   UNL A   1      35.366  33.917  27.866  1.00  0.00     0.002 C 
BRANCH  27  28
ATOM     28  C   UNL A   1      34.373  35.025  28.225  1.00  0.00     0.021 C 
BRANCH  28  29
ATOM     29  C   UNL A   1      33.146  34.557  28.998  1.00  0.00     0.116 C 
BRANCH  29  30
ATOM     30  N   UNL A   1      32.893  35.369  30.179  1.00  0.00    -0.352 N 
ATOM     31  C   UNL A   1      33.463  35.291  31.429  1.00  0.00     0.251 C 
ATOM     32  H   UNL A   1      32.216  36.076  30.068  1.00  0.00     0.163 HD
ATOM     33  O   UNL A   1      32.998  35.942  32.357  1.00  0.00    -0.269 OA
BRANCH  31  34
ATOM     34  C   UNL A   1      34.623  34.399  31.651  1.00  0.00     0.039 A 
ATOM     35  C   UNL A   1      35.904  34.871  31.356  1.00  0.00     0.014 A 
ATOM     36  C   UNL A   1      34.449  33.108  32.156  1.00  0.00     0.014 A 
ATOM     37  C   UNL A   1      37.016  34.072  31.632  1.00  0.00     0.010 A 
ATOM     38  C   UNL A   1      35.560  32.345  32.501  1.00  0.00     0.010 A 
ATOM     39  C   UNL A   1      36.856  32.817  32.243  1.00  0.00    -0.014 A 
BRANCH  39  40
ATOM     40  C   UNL A   1      38.030  31.997  32.644  1.00  0.00     0.031 A 
ATOM     41  C   UNL A   1      38.768  32.294  33.922  1.00  0.00     0.074 A 
ATOM     42  C   UNL A   1      38.489  31.042  31.810  1.00  0.00     0.049 A 
ATOM     43  N   UNL A   1      39.845  31.729  34.401  1.00  0.00    -0.248 NA
ATOM     44  C   UNL A   1      38.240  33.384  34.759  1.00  0.00     0.031 C 
ATOM     45  C   UNL A   1      37.909  30.708  30.507  1.00  0.00     0.029 A 
ATOM     46  N   UNL A   1      39.564  30.196  31.919  1.00  0.00    -0.354 N 
ATOM     47  C   UNL A   1      40.146  32.414  35.572  1.00  0.00     0.074 A 
ATOM     48  C   UNL A   1      39.155  33.458  35.716  1.00  0.00     0.031 C 
ATOM     49  C   UNL A   1      38.632  29.729  29.940  1.00  0.00     0.029 A 
ATOM     50  C   UNL A   1      39.747  29.390  30.819  1.00  0.00     0.049 A 
ATOM     51  H   UNL A   1      40.149  30.168  32.711  1.00  0.00     0.167 HD
ATOM     52  C   UNL A   1      41.140  32.180  36.462  1.00  0.00     0.034 A 
ATOM     53  C   UNL A   1      40.712  28.492  30.539  1.00  0.00     0.034 A 
ATOM     54  C   UNL A   1      42.106  31.122  36.332  1.00  0.00     0.049 A 
ATOM     55  C   UNL A   1      41.793  28.238  31.554  1.00  0.00     0.074 A 
ATOM     56  C   UNL A   1      43.096  30.749  37.224  1.00  0.00     0.029 A 
ATOM     57  N   UNL A   1      42.214  30.277  35.239  1.00  0.00    -0.354 N 
ATOM     58  N   UNL A   1      41.966  28.788  32.731  1.00  0.00    -0.248 NA
ATOM     59  C   UNL A   1      42.793  27.214  31.218  1.00  0.00     0.031 C 
ATOM     60  C   UNL A   1      43.828  29.703  36.653  1.00  0.00     0.029 A 
ATOM     61  C   UNL A   1      43.266  29.395  35.425  1.00  0.00     0.049 A 
ATOM     62  H   UNL A   1      41.630  30.300  34.448  1.00  0.00     0.167 HD
ATOM     63  C   UNL A   1      43.070  28.154  33.291  1.00  0.00     0.074 A 
ATOM     64  C   UNL A   1      43.511  27.162  32.331  1.00  0.00     0.031 C 
ATOM     65  C   UNL A   1      43.668  28.380  34.486  1.00  0.00     0.034 A 
BRANCH  52  66
ATOM     66  C   UNL A   1      41.212  33.064  37.681  1.00  0.00     0.023 A 
ATOM     67  C   UNL A   1      40.527  32.690  38.856  1.00  0.00     0.012 A 
ATOM     68  C   UNL A   1      42.007  34.228  37.687  1.00  0.00     0.148 A 
ATOM     69  C   UNL A   1      40.600  33.479  40.004  1.00  0.00     0.002 A 
ATOM     70  C   UNL A   1      42.114  34.983  38.849  1.00  0.00     0.091 A 
ATOM     71  F   UNL A   1      42.636  34.576  36.556  1.00  0.00    -0.205 F 
ATOM     72  C   UNL A   1      41.401  34.618  40.003  1.00  0.00     0.022 A 
BRANCH  70  73
ATOM     73  S   UNL A   1      43.183  36.420  38.977  1.00  0.00     0.127 S 
ATOM     74  O   UNL A   1      42.747  36.998  40.248  1.00  0.00    -0.237 OA
ATOM     75  O   UNL A   1      44.512  35.812  39.008  1.00  0.00    -0.237 OA
ATOM     76  O   UNL A   1      42.912  37.231  37.798  1.00  0.00    -0.744 OA
ENDBRANCH  70  73
ENDBRANCH  52  66
BRANCH  53  77
ATOM     77  C   UNL A   1      40.672  27.730  29.257  1.00  0.00     0.023 A 
ATOM     78  C   UNL A   1      39.710  26.717  29.082  1.00  0.00     0.012 A 
ATOM     79  C   UNL A   1      41.568  28.016  28.209  1.00  0.00     0.148 A 
ATOM     80  C   UNL A   1      39.663  25.978  27.898  1.00  0.00     0.002 A 
ATOM     81  C   UNL A   1      41.478  27.317  27.012  1.00  0.00     0.091 A 
ATOM     82  F   UNL A   1      42.482  28.978  28.401  1.00  0.00    -0.205 F 
ATOM     83  C   UNL A   1      40.539  26.284  26.861  1.00  0.00     0.022 A 
BRANCH  81  84
ATOM     84  S   UNL A   1      42.475  27.730  25.577  1.00  0.00     0.127 S 
ATOM     85  O   UNL A   1      43.807  27.853  26.163  1.00  0.00    -0.237 OA
ATOM     86  O   UNL A   1      42.280  26.554  24.727  1.00  0.00    -0.237 OA
ATOM     87  O   UNL A   1      41.904  28.959  25.041  1.00  0.00    -0.744 OA
ENDBRANCH  81  84
ENDBRANCH  53  77
BRANCH  65  88
ATOM     88  C   UNL A   1      44.847  27.515  34.854  1.00  0.00     0.023 A 
ATOM     89  C   UNL A   1      46.156  27.944  34.561  1.00  0.00     0.012 A 
ATOM     90  C   UNL A   1      44.655  26.311  35.562  1.00  0.00     0.148 A 
ATOM     91  C   UNL A   1      47.255  27.170  34.936  1.00  0.00     0.002 A 
ATOM     92  C   UNL A   1      45.756  25.573  35.979  1.00  0.00     0.091 A 
ATOM     93  F   UNL A   1      43.400  25.912  35.817  1.00  0.00    -0.205 F 
ATOM     94  C   UNL A   1      47.056  25.994  35.655  1.00  0.00     0.022 A 
BRANCH  92  95
ATOM     95  S   UNL A   1      45.602  24.100  36.993  1.00  0.00     0.127 S 
ATOM     96  O   UNL A   1      44.873  23.199  36.101  1.00  0.00    -0.237 OA
ATOM     97  O   UNL A   1      47.000  23.733  37.220  1.00  0.00    -0.237 OA
ATOM     98  O   UNL A   1      44.880  24.507  38.191  1.00  0.00    -0.744 OA
ENDBRANCH  92  95
ENDBRANCH  65  88
ENDBRANCH  39  40
ENDBRANCH  31  34
ENDBRANCH  29  30
ENDBRANCH  28  29
ENDBRANCH  27  28
ENDBRANCH   1  27
TORSDOF 19
ENDMDL
MODEL 3
REMARK VINA RESULT:     -10.3      1.222      1.793
REMARK SMILES O=C(CC1CC[NH+](C[C@H]2COc3ccccc3O2)CC1)NCCCCCCNC(=O)c1ccc(-c2c3nc(c(-c4cccc(S(=O)(=O)[O-])c4F)c4ccc([nH]4)c(-c4cccc(S(=O)(=O)[O-])c4F)c4nc(c(-c5cccc(S(=O)(=O)[O-])c5F)c5ccc2[nH]5)C=C4)C=C3)cc1
REMARK SMILES IDX 24 1 23 2 22 3 21 4 1 5 2 6 3 8 4 9 5 10 20 11 6 12 19 13
REMARK SMILES IDX 7 14 8 16 9 17 10 18 18 19 11 20 17 21 12 22 16 23 13 24
REMARK SMILES IDX 15 25 14 26 25 27 26 28 27 29 28 30 29 31 30 33 31 34 32 35
REMARK SMILES IDX 93 36 33 37 92 38 34 39 35 40 36 41 86 42 37 43 91 44 85 45
REMARK SMILES IDX 87 46 38 47 90 48 84 49 83 50 39 52 71 53 51 54 70 55 52 56
REMARK SMILES IDX 55 57 69 58 88 59 53 60 54 61 68 63 89 64 56 65 40 66 41 67
REMARK SMILES IDX 49 68 42 69 44 70 50 71 43 72 45 73 46 74 47 75 48 76 72 77
REMARK SMILES IDX 73 78 81 79 74 80 76 81 82 82 75 83 77 84 78 85 79 86 80 87
REMARK SMILES IDX 57 88 58 89 66 90 59 91 61 92 67 93 60 94 62 95 63 96 64 97
REMARK SMILES IDX 65 98
REMARK H PARENT 21 7 7 15 28 32 87 51 55 62
REMARK Flexibility Score: inf
ROOT
ATOM      1  C   UNL A   1      36.040  32.996  28.509  1.00  0.00     0.002 C 
ENDROOT
BRANCH   1   2
ATOM      2  C   UNL A   1      35.887  31.540  28.053  1.00  0.00     0.021 C 
BRANCH   2   3
ATOM      3  C   UNL A   1      34.486  31.171  27.572  1.00  0.00     0.116 C 
BRANCH   3   4
ATOM      4  N   UNL A   1      34.461  29.842  26.987  1.00  0.00    -0.356 N 
ATOM      5  O   UNL A   1      32.396  30.072  26.030  1.00  0.00    -0.275 OA
ATOM      6  C   UNL A   1      33.389  29.389  26.270  1.00  0.00     0.220 C 
ATOM      7  H   UNL A   1      35.239  29.251  27.110  1.00  0.00     0.163 HD
BRANCH   6   8
ATOM      8  C   UNL A   1      33.420  27.927  25.887  1.00  0.00     0.104 C 
BRANCH   8   9
ATOM      9  C   UNL A   1      32.717  27.460  24.598  1.00  0.00     0.009 C 
ATOM     10  C   UNL A   1      31.390  26.715  24.770  1.00  0.00     0.066 C 
ATOM     11  C   UNL A   1      33.653  26.532  23.808  1.00  0.00     0.066 C 
ATOM     12  C   UNL A   1      31.533  25.316  25.371  1.00  0.00     0.262 C 
ATOM     13  C   UNL A   1      33.880  25.201  24.535  1.00  0.00     0.262 C 
ATOM     14  N   UNL A   1      32.636  24.505  24.852  1.00  0.00    -0.332 N 
ATOM     15  H   UNL A   1      32.279  24.243  23.933  1.00  0.00     0.348 HD
BRANCH  14  16
ATOM     16  C   UNL A   1      32.862  23.251  25.606  1.00  0.00     0.311 C 
BRANCH  16  17
ATOM     17  C   UNL A   1      33.591  22.038  24.943  1.00  0.00     0.265 C 
ATOM     18  C   UNL A   1      34.617  21.386  25.868  1.00  0.00     0.281 C 
ATOM     19  O   UNL A   1      32.573  21.086  24.558  1.00  0.00    -0.477 OA
ATOM     20  O   UNL A   1      35.242  20.236  25.311  1.00  0.00    -0.486 OA
ATOM     21  C   UNL A   1      33.096  19.858  24.242  1.00  0.00     0.162 A 
ATOM     22  C   UNL A   1      34.371  19.447  24.626  1.00  0.00     0.161 A 
ATOM     23  C   UNL A   1      32.289  18.988  23.511  1.00  0.00     0.050 A 
ATOM     24  C   UNL A   1      34.840  18.177  24.295  1.00  0.00     0.050 A 
ATOM     25  C   UNL A   1      32.764  17.718  23.163  1.00  0.00     0.004 A 
ATOM     26  C   UNL A   1      34.036  17.309  23.563  1.00  0.00     0.004 A 
ENDBRANCH  16  17
ENDBRANCH  14  16
ENDBRANCH   8   9
ENDBRANCH   6   8
ENDBRANCH   3   4
ENDBRANCH   2   3
ENDBRANCH   1   2
BRANCH   1  27
ATOM     27  C   UNL A   1      35.198  34.011  27.730  1.00  0.00     0.002 C 
BRANCH  27  28
ATOM     28  C   UNL A   1      34.422  35.006  28.594  1.00  0.00     0.021 C 
BRANCH  28  29
ATOM     29  C   UNL A   1      33.254  34.405  29.368  1.00  0.00     0.116 C 
BRANCH  29  30
ATOM     30  N   UNL A   1      32.701  35.333  30.344  1.00  0.00    -0.352 N 
ATOM     31  C   UNL A   1      33.025  35.498  31.671  1.00  0.00     0.251 C 
ATOM     32  H   UNL A   1      31.993  35.928  30.006  1.00  0.00     0.163 HD
ATOM     33  O   UNL A   1      32.329  36.207  32.388  1.00  0.00    -0.269 OA
BRANCH  31  34
ATOM     34  C   UNL A   1      34.202  34.798  32.230  1.00  0.00     0.039 A 
ATOM     35  C   UNL A   1      34.015  33.576  32.882  1.00  0.00     0.014 A 
ATOM     36  C   UNL A   1      35.485  35.338  32.105  1.00  0.00     0.014 A 
ATOM     37  C   UNL A   1      35.123  32.864  33.347  1.00  0.00     0.010 A 
ATOM     38  C   UNL A   1      36.591  34.592  32.500  1.00  0.00     0.010 A 
ATOM     39  C   UNL A   1      36.424  33.347  33.126  1.00  0.00    -0.014 A 
BRANCH  39  40
ATOM     40  C   UNL A   1      37.619  32.555  33.518  1.00  0.00     0.031 A 
ATOM     41  C   UNL A   1      38.411  32.924  34.744  1.00  0.00     0.074 A 
ATOM     42  C   UNL A   1      38.046  31.557  32.718  1.00  0.00     0.049 A 
ATOM     43  N   UNL A   1      39.512  32.390  35.204  1.00  0.00    -0.248 NA
ATOM     44  C   UNL A   1      37.914  34.056  35.543  1.00  0.00     0.031 C 
ATOM     45  C   UNL A   1      37.410  31.149  31.462  1.00  0.00     0.029 A 
ATOM     46  N   UNL A   1      39.130  30.721  32.825  1.00  0.00    -0.354 N 
ATOM     47  C   UNL A   1      39.861  33.139  36.321  1.00  0.00     0.074 A 
ATOM     48  C   UNL A   1      38.871  34.185  36.452  1.00  0.00     0.031 C 
ATOM     49  C   UNL A   1      38.114  30.144  30.918  1.00  0.00     0.029 A 
ATOM     50  C   UNL A   1      39.269  29.858  31.764  1.00  0.00     0.049 A 
ATOM     51  H   UNL A   1      39.750  30.739  33.590  1.00  0.00     0.167 HD
ATOM     52  C   UNL A   1      40.895  32.958  37.177  1.00  0.00     0.034 A 
ATOM     53  C   UNL A   1      40.226  28.949  31.490  1.00  0.00     0.034 A 
ATOM     54  C   UNL A   1      41.860  31.898  37.063  1.00  0.00     0.049 A 
ATOM     55  C   UNL A   1      41.352  28.754  32.468  1.00  0.00     0.074 A 
ATOM     56  C   UNL A   1      42.892  31.578  37.928  1.00  0.00     0.029 A 
ATOM     57  N   UNL A   1      41.924  30.994  36.014  1.00  0.00    -0.354 N 
ATOM     58  N   UNL A   1      41.574  29.369  33.604  1.00  0.00    -0.248 NA
ATOM     59  C   UNL A   1      42.343  27.717  32.144  1.00  0.00     0.031 C 
ATOM     60  C   UNL A   1      43.603  30.505  37.383  1.00  0.00     0.029 A 
ATOM     61  C   UNL A   1      42.989  30.128  36.200  1.00  0.00     0.049 A 
ATOM     62  H   UNL A   1      41.306  30.972  35.249  1.00  0.00     0.167 HD
ATOM     63  C   UNL A   1      42.706  28.771  34.148  1.00  0.00     0.074 A 
ATOM     64  C   UNL A   1      43.110  27.729  33.226  1.00  0.00     0.031 C 
ATOM     65  C   UNL A   1      43.355  29.064  35.301  1.00  0.00     0.034 A 
BRANCH  52  66
ATOM     66  C   UNL A   1      41.016  33.907  38.342  1.00  0.00     0.023 A 
ATOM     67  C   UNL A   1      41.928  34.982  38.276  1.00  0.00     0.012 A 
ATOM     68  C   UNL A   1      40.186  33.775  39.473  1.00  0.00     0.148 A 
ATOM     69  C   UNL A   1      42.038  35.886  39.332  1.00  0.00     0.002 A 
ATOM     70  C   UNL A   1      40.267  34.709  40.500  1.00  0.00     0.091 A 
ATOM     71  F   UNL A   1      39.338  32.738  39.526  1.00  0.00    -0.205 F 
ATOM     72  C   UNL A   1      41.202  35.756  40.437  1.00  0.00     0.022 A 
BRANCH  70  73
ATOM     73  S   UNL A   1      39.179  34.678  41.928  1.00  0.00     0.127 S 
ATOM     74  O   UNL A   1      39.580  33.431  42.578  1.00  0.00    -0.237 OA
ATOM     75  O   UNL A   1      39.575  35.892  42.641  1.00  0.00    -0.237 OA
ATOM     76  O   UNL A   1      37.821  34.698  41.401  1.00  0.00    -0.744 OA
ENDBRANCH  70  73
ENDBRANCH  52  66
BRANCH  53  77
ATOM     77  C   UNL A   1      40.134  28.117  30.255  1.00  0.00     0.023 A 
ATOM     78  C   UNL A   1      39.216  27.049  30.204  1.00  0.00     0.012 A 
ATOM     79  C   UNL A   1      40.934  28.390  29.129  1.00  0.00     0.148 A 
ATOM     80  C   UNL A   1      39.123  26.246  29.067  1.00  0.00     0.002 A 
ATOM     81  C   UNL A   1      40.794  27.624  27.979  1.00  0.00     0.091 A 
ATOM     82  F   UNL A   1      41.807  29.405  29.202  1.00  0.00    -0.205 F 
ATOM     83  C   UNL A   1      39.904  26.538  27.952  1.00  0.00     0.022 A 
BRANCH  81  84
ATOM     84  S   UNL A   1      41.660  28.008  26.453  1.00  0.00     0.127 S 
ATOM     85  O   UNL A   1      41.122  29.326  26.127  1.00  0.00    -0.237 OA
ATOM     86  O   UNL A   1      43.057  28.002  26.892  1.00  0.00    -0.237 OA
ATOM     87  O   UNL A   1      41.318  26.938  25.526  1.00  0.00    -0.744 OA
ENDBRANCH  81  84
ENDBRANCH  53  77
BRANCH  65  88
ATOM     88  C   UNL A   1      44.554  28.225  35.663  1.00  0.00     0.023 A 
ATOM     89  C   UNL A   1      45.849  28.654  35.311  1.00  0.00     0.012 A 
ATOM     90  C   UNL A   1      44.398  27.047  36.421  1.00  0.00     0.148 A 
ATOM     91  C   UNL A   1      46.968  27.906  35.679  1.00  0.00     0.002 A 
ATOM     92  C   UNL A   1      45.520  26.336  36.830  1.00  0.00     0.091 A 
ATOM     93  F   UNL A   1      43.157  26.646  36.732  1.00  0.00    -0.205 F 
ATOM     94  C   UNL A   1      46.804  26.756  36.448  1.00  0.00     0.022 A 
BRANCH  92  95
ATOM     95  S   UNL A   1      45.415  24.900  37.904  1.00  0.00     0.127 S 
ATOM     96  O   UNL A   1      46.813  24.477  37.973  1.00  0.00    -0.237 OA
ATOM     97  O   UNL A   1      44.891  25.478  39.141  1.00  0.00    -0.237 OA
ATOM     98  O   UNL A   1      44.514  23.965  37.242  1.00  0.00    -0.744 OA
ENDBRANCH  92  95
ENDBRANCH  65  88
ENDBRANCH  39  40
ENDBRANCH  31  34
ENDBRANCH  29  30
ENDBRANCH  28  29
ENDBRANCH  27  28
ENDBRANCH   1  27
TORSDOF 19
ENDMDL
