MODEL 1
REMARK VINA RESULT:     -13.0      0.000      0.000
REMARK SMILES Cc1c(C(=O)NCCCCCCNC(=O)c2ccc(-c3c4nc(c(-c5cccc(S(=O)(=O)[O-])c5F)c5ccc([nH]5)c(-c5cccc(S(=O)(=O)[O-])c5F)c5nc(c(-c6cccc(S(=O)(=O)[O-])c6F)c6ccc3[nH]6)C=C5)C=C4)cc2)oc2c1/C(=N/NC(=O)C(c1ccccc1)c1ccccc1)CCC2
REMARK SMILES IDX 9 1 8 2 7 3 6 4 4 5 5 6 3 8 1 9 2 10 81 11 79 12 80 13 82 14
REMARK SMILES IDX 102 15 83 16 100 17 101 18 84 19 85 20 86 22 87 23 88 24
REMARK SMILES IDX 89 25 93 26 90 27 92 28 91 29 94 30 95 31 99 32 96 33 98 34
REMARK SMILES IDX 97 35 10 36 11 37 12 38 13 39 14 40 15 42 16 43 17 44 78 45
REMARK SMILES IDX 18 46 77 47 19 48 20 49 21 50 71 51 22 52 76 53 70 54 72 55
REMARK SMILES IDX 23 56 75 57 69 58 68 59 24 61 56 62 36 63 55 64 37 65 40 66
REMARK SMILES IDX 54 67 73 68 38 69 39 70 53 72 74 73 41 74 25 75 26 76 34 77
REMARK SMILES IDX 27 78 29 79 35 80 28 81 30 82 31 83 32 84 33 85 57 86 58 87
REMARK SMILES IDX 66 88 59 89 61 90 67 91 60 92 62 93 63 94 64 95 65 96 42 97
REMARK SMILES IDX 43 98 51 99 44 100 46 101 52 102 45 103 47 104 48 105 49 106
REMARK SMILES IDX 50 107
REMARK H PARENT 6 7 84 21 13 41 72 60 40 71
REMARK Flexibility Score: inf
ROOT
ATOM      1  C   UNL A   1      38.233  22.047  26.025  1.00  0.00     0.002 C 
ENDROOT
BRANCH   1   2
ATOM      2  C   UNL A   1      38.097  23.557  25.813  1.00  0.00     0.021 C 
BRANCH   2   3
ATOM      3  C   UNL A   1      36.742  24.085  26.284  1.00  0.00     0.116 C 
BRANCH   3   4
ATOM      4  N   UNL A   1      35.857  23.014  26.764  1.00  0.00    -0.349 N 
ATOM      5  C   UNL A   1      34.523  22.712  26.482  1.00  0.00     0.287 C 
ATOM      6  O   UNL A   1      34.068  21.672  26.937  1.00  0.00    -0.266 OA
ATOM      7  H   UNL A   1      36.282  22.397  27.402  1.00  0.00     0.163 HD
BRANCH   5   8
ATOM      8  C   UNL A   1      33.790  23.602  25.604  1.00  0.00     0.195 A 
ATOM      9  C   UNL A   1      31.596  24.366  26.756  1.00  0.00     0.049 C 
ATOM     10  C   UNL A   1      32.555  24.262  25.630  1.00  0.00     0.010 A 
ATOM     11  C   UNL A   1      32.347  24.708  24.278  1.00  0.00     0.043 A 
ATOM     12  O   UNL A   1      34.390  23.842  24.424  1.00  0.00    -0.455 OA
ATOM     13  C   UNL A   1      33.478  24.315  23.600  1.00  0.00     0.114 A 
ATOM     14  C   UNL A   1      31.275  25.333  23.507  1.00  0.00     0.072 C 
ATOM     15  C   UNL A   1      33.806  24.246  22.169  1.00  0.00     0.076 C 
ATOM     16  N   UNL A   1      30.349  25.962  24.171  1.00  0.00    -0.177 NA
ATOM     17  C   UNL A   1      31.458  25.019  22.036  1.00  0.00     0.059 C 
ATOM     18  C   UNL A   1      32.868  25.186  21.472  1.00  0.00     0.014 C 
BRANCH  16  19
ATOM     19  N   UNL A   1      29.237  26.707  23.845  1.00  0.00    -0.246 N 
ATOM     20  C   UNL A   1      28.895  27.954  23.346  1.00  0.00     0.252 C 
ATOM     21  H   UNL A   1      28.422  26.185  24.024  1.00  0.00     0.193 HD
ATOM     22  O   UNL A   1      27.688  28.245  23.343  1.00  0.00    -0.272 OA
BRANCH  20  23
ATOM     23  C   UNL A   1      29.906  28.947  22.739  1.00  0.00     0.140 C 
BRANCH  23  24
ATOM     24  C   UNL A   1      29.108  30.260  22.351  1.00  0.00    -0.031 A 
ATOM     25  C   UNL A   1      28.523  30.485  21.096  1.00  0.00     0.005 A 
ATOM     26  C   UNL A   1      28.971  31.330  23.285  1.00  0.00     0.005 A 
ATOM     27  C   UNL A   1      27.965  31.746  20.768  1.00  0.00     0.000 A 
ATOM     28  C   UNL A   1      28.462  32.588  22.951  1.00  0.00     0.000 A 
ATOM     29  C   UNL A   1      27.968  32.802  21.681  1.00  0.00     0.000 A 
ENDBRANCH  23  24
BRANCH  23  30
ATOM     30  C   UNL A   1      31.203  28.886  23.667  1.00  0.00    -0.031 A 
ATOM     31  C   UNL A   1      31.181  28.892  25.072  1.00  0.00     0.005 A 
ATOM     32  C   UNL A   1      32.472  28.627  23.072  1.00  0.00     0.005 A 
ATOM     33  C   UNL A   1      32.294  28.422  25.807  1.00  0.00     0.000 A 
ATOM     34  C   UNL A   1      33.557  28.125  23.793  1.00  0.00     0.000 A 
ATOM     35  C   UNL A   1      33.455  27.985  25.165  1.00  0.00     0.000 A 
ENDBRANCH  23  30
ENDBRANCH  20  23
ENDBRANCH  16  19
ENDBRANCH   5   8
ENDBRANCH   3   4
ENDBRANCH   2   3
ENDBRANCH   1   2
BRANCH   1  36
ATOM     36  C   UNL A   1      37.737  21.180  24.853  1.00  0.00     0.002 C 
BRANCH  36  37
ATOM     37  C   UNL A   1      38.339  19.769  24.747  1.00  0.00     0.021 C 
BRANCH  37  38
ATOM     38  C   UNL A   1      39.056  19.337  26.014  1.00  0.00     0.116 C 
BRANCH  38  39
ATOM     39  N   UNL A   1      40.421  18.873  25.736  1.00  0.00    -0.352 N 
ATOM     40  C   UNL A   1      41.600  19.593  25.748  1.00  0.00     0.251 C 
ATOM     41  H   UNL A   1      40.508  17.918  25.509  1.00  0.00     0.163 HD
ATOM     42  O   UNL A   1      42.602  19.174  25.182  1.00  0.00    -0.269 OA
BRANCH  40  43
ATOM     43  C   UNL A   1      41.624  20.869  26.476  1.00  0.00     0.039 A 
ATOM     44  C   UNL A   1      41.171  20.988  27.793  1.00  0.00     0.014 A 
ATOM     45  C   UNL A   1      42.167  21.958  25.807  1.00  0.00     0.014 A 
ATOM     46  C   UNL A   1      41.332  22.208  28.442  1.00  0.00     0.010 A 
ATOM     47  C   UNL A   1      42.539  23.061  26.513  1.00  0.00     0.010 A 
ATOM     48  C   UNL A   1      42.026  23.236  27.789  1.00  0.00    -0.014 A 
BRANCH  48  49
ATOM     49  C   UNL A   1      42.312  24.509  28.431  1.00  0.00     0.031 A 
ATOM     50  C   UNL A   1      41.263  25.539  28.221  1.00  0.00     0.074 A 
ATOM     51  C   UNL A   1      43.299  24.625  29.348  1.00  0.00     0.049 A 
ATOM     52  N   UNL A   1      41.349  26.626  27.530  1.00  0.00    -0.248 NA
ATOM     53  C   UNL A   1      39.900  25.240  28.690  1.00  0.00     0.031 C 
ATOM     54  C   UNL A   1      44.151  23.560  29.906  1.00  0.00     0.029 A 
ATOM     55  N   UNL A   1      43.642  25.695  30.109  1.00  0.00    -0.354 N 
ATOM     56  C   UNL A   1      40.127  27.274  27.708  1.00  0.00     0.074 A 
ATOM     57  C   UNL A   1      39.216  26.277  28.201  1.00  0.00     0.031 C 
ATOM     58  C   UNL A   1      44.688  23.974  31.075  1.00  0.00     0.029 A 
ATOM     59  C   UNL A   1      44.376  25.378  31.249  1.00  0.00     0.049 A 
ATOM     60  H   UNL A   1      43.392  26.618  29.874  1.00  0.00     0.167 HD
ATOM     61  C   UNL A   1      40.047  28.634  27.719  1.00  0.00     0.034 A 
ATOM     62  C   UNL A   1      44.653  26.203  32.288  1.00  0.00     0.034 A 
ATOM     63  C   UNL A   1      41.257  29.225  27.201  1.00  0.00     0.049 A 
ATOM     64  C   UNL A   1      44.441  27.587  31.806  1.00  0.00     0.074 A 
ATOM     65  C   UNL A   1      41.955  29.145  26.012  1.00  0.00     0.029 A 
ATOM     66  N   UNL A   1      42.144  29.722  28.127  1.00  0.00    -0.354 N 
ATOM     67  N   UNL A   1      45.161  28.140  30.869  1.00  0.00    -0.248 NA
ATOM     68  C   UNL A   1      43.135  28.183  32.032  1.00  0.00     0.031 C 
ATOM     69  C   UNL A   1      43.329  29.129  26.398  1.00  0.00     0.029 A 
ATOM     70  C   UNL A   1      43.393  29.281  27.785  1.00  0.00     0.049 A 
ATOM     71  H   UNL A   1      41.920  30.293  28.896  1.00  0.00     0.167 HD
ATOM     72  C   UNL A   1      44.238  28.825  30.089  1.00  0.00     0.074 A 
ATOM     73  C   UNL A   1      43.030  28.901  30.911  1.00  0.00     0.031 C 
ATOM     74  C   UNL A   1      44.436  28.995  28.748  1.00  0.00     0.034 A 
BRANCH  61  75
ATOM     75  C   UNL A   1      39.078  29.449  28.555  1.00  0.00     0.023 A 
ATOM     76  C   UNL A   1      39.251  29.402  29.958  1.00  0.00     0.012 A 
ATOM     77  C   UNL A   1      37.870  30.013  28.083  1.00  0.00     0.148 A 
ATOM     78  C   UNL A   1      38.250  29.823  30.839  1.00  0.00     0.002 A 
ATOM     79  C   UNL A   1      36.909  30.502  28.962  1.00  0.00     0.091 A 
ATOM     80  F   UNL A   1      37.565  29.971  26.785  1.00  0.00    -0.205 F 
ATOM     81  C   UNL A   1      37.079  30.377  30.341  1.00  0.00     0.022 A 
BRANCH  79  82
ATOM     82  S   UNL A   1      35.394  31.272  28.372  1.00  0.00     0.127 S 
ATOM     83  O   UNL A   1      35.920  32.302  27.480  1.00  0.00    -0.237 OA
ATOM     84  O   UNL A   1      34.731  30.151  27.706  1.00  0.00    -0.237 OA
ATOM     85  O   UNL A   1      34.704  31.749  29.564  1.00  0.00    -0.744 OA
ENDBRANCH  79  82
ENDBRANCH  61  75
BRANCH  62  86
ATOM     86  C   UNL A   1      44.787  25.887  33.730  1.00  0.00     0.023 A 
ATOM     87  C   UNL A   1      46.067  25.729  34.297  1.00  0.00     0.012 A 
ATOM     88  C   UNL A   1      43.684  26.025  34.603  1.00  0.00     0.148 A 
ATOM     89  C   UNL A   1      46.247  25.738  35.687  1.00  0.00     0.002 A 
ATOM     90  C   UNL A   1      43.867  26.030  35.983  1.00  0.00     0.091 A 
ATOM     91  F   UNL A   1      42.472  26.245  34.076  1.00  0.00    -0.205 F 
ATOM     92  C   UNL A   1      45.149  25.898  36.529  1.00  0.00     0.022 A 
BRANCH  90  93
ATOM     93  S   UNL A   1      42.500  26.264  37.130  1.00  0.00     0.127 S 
ATOM     94  O   UNL A   1      41.723  25.042  36.923  1.00  0.00    -0.237 OA
ATOM     95  O   UNL A   1      43.190  26.341  38.415  1.00  0.00    -0.237 OA
ATOM     96  O   UNL A   1      41.828  27.484  36.704  1.00  0.00    -0.744 OA
ENDBRANCH  90  93
ENDBRANCH  62  86
BRANCH  74  97
ATOM     97  C   UNL A   1      45.786  28.636  28.176  1.00  0.00     0.023 A 
ATOM     98  C   UNL A   1      46.916  29.473  28.299  1.00  0.00     0.012 A 
ATOM     99  C   UNL A   1      45.956  27.339  27.667  1.00  0.00     0.148 A 
ATOM    100  C   UNL A   1      48.184  29.028  27.908  1.00  0.00     0.002 A 
ATOM    101  C   UNL A   1      47.223  26.885  27.324  1.00  0.00     0.091 A 
ATOM    102  F   UNL A   1      44.872  26.556  27.561  1.00  0.00    -0.205 F 
ATOM    103  C   UNL A   1      48.340  27.728  27.434  1.00  0.00     0.022 A 
BRANCH 101 104
ATOM    104  S   UNL A   1      47.503  25.183  26.832  1.00  0.00     0.127 S 
ATOM    105  O   UNL A   1      46.852  25.133  25.524  1.00  0.00    -0.237 OA
ATOM    106  O   UNL A   1      48.964  25.103  26.793  1.00  0.00    -0.237 OA
ATOM    107  O   UNL A   1      46.890  24.359  27.868  1.00  0.00    -0.744 OA
ENDBRANCH 101 104
ENDBRANCH  74  97
ENDBRANCH  48  49
ENDBRANCH  40  43
ENDBRANCH  38  39
ENDBRANCH  37  38
ENDBRANCH  36  37
ENDBRANCH   1  36
TORSDOF 20
ENDMDL
MODEL 2
REMARK VINA RESULT:     -12.9      1.757      2.140
REMARK SMILES Cc1c(C(=O)NCCCCCCNC(=O)c2ccc(-c3c4nc(c(-c5cccc(S(=O)(=O)[O-])c5F)c5ccc([nH]5)c(-c5cccc(S(=O)(=O)[O-])c5F)c5nc(c(-c6cccc(S(=O)(=O)[O-])c6F)c6ccc3[nH]6)C=C5)C=C4)cc2)oc2c1/C(=N/NC(=O)C(c1ccccc1)c1ccccc1)CCC2
REMARK SMILES IDX 9 1 8 2 7 3 6 4 4 5 5 6 3 8 1 9 2 10 81 11 79 12 80 13 82 14
REMARK SMILES IDX 102 15 83 16 100 17 101 18 84 19 85 20 86 22 87 23 88 24
REMARK SMILES IDX 89 25 93 26 90 27 92 28 91 29 94 30 95 31 99 32 96 33 98 34
REMARK SMILES IDX 97 35 10 36 11 37 12 38 13 39 14 40 15 42 16 43 17 44 78 45
REMARK SMILES IDX 18 46 77 47 19 48 20 49 21 50 71 51 22 52 76 53 70 54 72 55
REMARK SMILES IDX 23 56 75 57 69 58 68 59 24 61 56 62 36 63 55 64 37 65 40 66
REMARK SMILES IDX 54 67 73 68 38 69 39 70 53 72 74 73 41 74 25 75 26 76 34 77
REMARK SMILES IDX 27 78 29 79 35 80 28 81 30 82 31 83 32 84 33 85 57 86 58 87
REMARK SMILES IDX 66 88 59 89 61 90 67 91 60 92 62 93 63 94 64 95 65 96 42 97
REMARK SMILES IDX 43 98 51 99 44 100 46 101 52 102 45 103 47 104 48 105 49 106
REMARK SMILES IDX 50 107
REMARK H PARENT 6 7 84 21 13 41 72 60 40 71
REMARK Flexibility Score: inf
ROOT
ATOM      1  C   UNL A   1      37.851  22.856  25.706  1.00  0.00     0.002 C 
ENDROOT
BRANCH   1   2
ATOM      2  C   UNL A   1      36.639  22.026  25.275  1.00  0.00     0.021 C 
BRANCH   2   3
ATOM      3  C   UNL A   1      35.638  21.833  26.414  1.00  0.00     0.116 C 
BRANCH   3   4
ATOM      4  N   UNL A   1      34.672  20.759  26.140  1.00  0.00    -0.349 N 
ATOM      5  C   UNL A   1      33.470  20.748  25.430  1.00  0.00     0.287 C 
ATOM      6  O   UNL A   1      32.924  19.668  25.255  1.00  0.00    -0.266 OA
ATOM      7  H   UNL A   1      34.918  19.889  26.528  1.00  0.00     0.163 HD
BRANCH   5   8
ATOM      8  C   UNL A   1      32.989  21.998  24.879  1.00  0.00     0.195 A 
ATOM      9  C   UNL A   1      30.671  22.575  25.890  1.00  0.00     0.049 C 
ATOM     10  C   UNL A   1      31.822  22.769  24.976  1.00  0.00     0.010 A 
ATOM     11  C   UNL A   1      31.916  23.717  23.898  1.00  0.00     0.043 A 
ATOM     12  O   UNL A   1      33.824  22.579  23.997  1.00  0.00    -0.455 OA
ATOM     13  C   UNL A   1      33.128  23.453  23.301  1.00  0.00     0.114 A 
ATOM     14  C   UNL A   1      31.064  24.732  23.284  1.00  0.00     0.072 C 
ATOM     15  C   UNL A   1      33.724  23.884  22.028  1.00  0.00     0.076 C 
ATOM     16  N   UNL A   1      30.072  25.189  23.994  1.00  0.00    -0.177 NA
ATOM     17  C   UNL A   1      31.509  24.975  21.857  1.00  0.00     0.059 C 
ATOM     18  C   UNL A   1      33.011  25.140  21.628  1.00  0.00     0.014 C 
BRANCH  16  19
ATOM     19  N   UNL A   1      29.102  26.152  23.825  1.00  0.00    -0.246 N 
ATOM     20  C   UNL A   1      28.976  27.512  23.587  1.00  0.00     0.252 C 
ATOM     21  H   UNL A   1      28.209  25.742  23.898  1.00  0.00     0.193 HD
ATOM     22  O   UNL A   1      27.830  27.987  23.643  1.00  0.00    -0.272 OA
BRANCH  20  23
ATOM     23  C   UNL A   1      30.149  28.430  23.189  1.00  0.00     0.140 C 
BRANCH  23  24
ATOM     24  C   UNL A   1      29.540  29.845  22.819  1.00  0.00    -0.031 A 
ATOM     25  C   UNL A   1      29.313  30.874  23.746  1.00  0.00     0.005 A 
ATOM     26  C   UNL A   1      29.147  30.139  21.479  1.00  0.00     0.005 A 
ATOM     27  C   UNL A   1      28.617  32.051  23.373  1.00  0.00     0.000 A 
ATOM     28  C   UNL A   1      28.422  31.278  21.117  1.00  0.00     0.000 A 
ATOM     29  C   UNL A   1      28.143  32.234  22.072  1.00  0.00     0.000 A 
ENDBRANCH  23  24
BRANCH  23  30
ATOM     30  C   UNL A   1      31.304  28.165  24.257  1.00  0.00    -0.031 A 
ATOM     31  C   UNL A   1      31.090  27.943  25.628  1.00  0.00     0.005 A 
ATOM     32  C   UNL A   1      32.638  27.953  23.800  1.00  0.00     0.005 A 
ATOM     33  C   UNL A   1      32.082  27.314  26.415  1.00  0.00     0.000 A 
ATOM     34  C   UNL A   1      33.604  27.296  24.565  1.00  0.00     0.000 A 
ATOM     35  C   UNL A   1      33.312  26.938  25.868  1.00  0.00     0.000 A 
ENDBRANCH  23  30
ENDBRANCH  20  23
ENDBRANCH  16  19
ENDBRANCH   5   8
ENDBRANCH   3   4
ENDBRANCH   2   3
ENDBRANCH   1   2
BRANCH   1  36
ATOM     36  C   UNL A   1      39.083  22.034  26.130  1.00  0.00     0.002 C 
BRANCH  36  37
ATOM     37  C   UNL A   1      39.278  20.684  25.421  1.00  0.00     0.021 C 
BRANCH  37  38
ATOM     38  C   UNL A   1      39.777  19.595  26.353  1.00  0.00     0.116 C 
BRANCH  38  39
ATOM     39  N   UNL A   1      41.028  18.997  25.871  1.00  0.00    -0.352 N 
ATOM     40  C   UNL A   1      42.249  19.604  25.645  1.00  0.00     0.251 C 
ATOM     41  H   UNL A   1      40.993  18.031  25.682  1.00  0.00     0.163 HD
ATOM     42  O   UNL A   1      43.097  19.075  24.940  1.00  0.00    -0.269 OA
BRANCH  40  43
ATOM     43  C   UNL A   1      42.508  20.898  26.293  1.00  0.00     0.039 A 
ATOM     44  C   UNL A   1      42.834  22.046  25.567  1.00  0.00     0.014 A 
ATOM     45  C   UNL A   1      42.367  20.942  27.674  1.00  0.00     0.014 A 
ATOM     46  C   UNL A   1      42.955  23.252  26.253  1.00  0.00     0.010 A 
ATOM     47  C   UNL A   1      42.247  22.147  28.297  1.00  0.00     0.010 A 
ATOM     48  C   UNL A   1      42.650  23.287  27.620  1.00  0.00    -0.014 A 
BRANCH  48  49
ATOM     49  C   UNL A   1      42.667  24.521  28.388  1.00  0.00     0.031 A 
ATOM     50  C   UNL A   1      41.496  25.401  28.141  1.00  0.00     0.074 A 
ATOM     51  C   UNL A   1      43.527  24.694  29.418  1.00  0.00     0.049 A 
ATOM     52  N   UNL A   1      41.480  26.549  27.551  1.00  0.00    -0.248 NA
ATOM     53  C   UNL A   1      40.157  24.861  28.428  1.00  0.00     0.031 C 
ATOM     54  C   UNL A   1      44.475  23.719  29.984  1.00  0.00     0.029 A 
ATOM     55  N   UNL A   1      43.620  25.727  30.293  1.00  0.00    -0.354 N 
ATOM     56  C   UNL A   1      40.160  26.990  27.639  1.00  0.00     0.074 A 
ATOM     57  C   UNL A   1      39.371  25.828  27.947  1.00  0.00     0.031 C 
ATOM     58  C   UNL A   1      44.820  24.096  31.234  1.00  0.00     0.029 A 
ATOM     59  C   UNL A   1      44.277  25.415  31.481  1.00  0.00     0.049 A 
ATOM     60  H   UNL A   1      43.253  26.621  30.105  1.00  0.00     0.167 HD
ATOM     61  C   UNL A   1      39.867  28.316  27.747  1.00  0.00     0.034 A 
ATOM     62  C   UNL A   1      44.315  26.171  32.606  1.00  0.00     0.034 A 
ATOM     63  C   UNL A   1      41.015  29.126  27.417  1.00  0.00     0.049 A 
ATOM     64  C   UNL A   1      43.939  27.547  32.213  1.00  0.00     0.074 A 
ATOM     65  C   UNL A   1      41.833  29.262  26.313  1.00  0.00     0.029 A 
ATOM     66  N   UNL A   1      41.716  29.658  28.474  1.00  0.00    -0.354 N 
ATOM     67  N   UNL A   1      44.653  28.286  31.409  1.00  0.00    -0.248 NA
ATOM     68  C   UNL A   1      42.540  27.921  32.334  1.00  0.00     0.031 C 
ATOM     69  C   UNL A   1      43.147  29.412  26.850  1.00  0.00     0.029 A 
ATOM     70  C   UNL A   1      43.047  29.440  28.243  1.00  0.00     0.049 A 
ATOM     71  H   UNL A   1      41.329  30.115  29.255  1.00  0.00     0.167 HD
ATOM     72  C   UNL A   1      43.717  28.898  30.585  1.00  0.00     0.074 A 
ATOM     73  C   UNL A   1      42.436  28.718  31.268  1.00  0.00     0.031 C 
ATOM     74  C   UNL A   1      44.020  29.222  29.293  1.00  0.00     0.034 A 
BRANCH  61  75
ATOM     75  C   UNL A   1      38.704  28.897  28.529  1.00  0.00     0.023 A 
ATOM     76  C   UNL A   1      37.812  29.732  27.816  1.00  0.00     0.012 A 
ATOM     77  C   UNL A   1      38.593  28.907  29.939  1.00  0.00     0.148 A 
ATOM     78  C   UNL A   1      36.914  30.581  28.471  1.00  0.00     0.002 A 
ATOM     79  C   UNL A   1      37.646  29.696  30.583  1.00  0.00     0.091 A 
ATOM     80  F   UNL A   1      39.483  28.260  30.692  1.00  0.00    -0.205 F 
ATOM     81  C   UNL A   1      36.828  30.561  29.856  1.00  0.00     0.022 A 
BRANCH  79  82
ATOM     82  S   UNL A   1      37.460  29.675  32.373  1.00  0.00     0.127 S 
ATOM     83  O   UNL A   1      36.207  30.404  32.544  1.00  0.00    -0.237 OA
ATOM     84  O   UNL A   1      37.388  28.240  32.648  1.00  0.00    -0.237 OA
ATOM     85  O   UNL A   1      38.654  30.323  32.901  1.00  0.00    -0.744 OA
ENDBRANCH  79  82
ENDBRANCH  61  75
BRANCH  62  86
ATOM     86  C   UNL A   1      44.352  25.743  34.025  1.00  0.00     0.023 A 
ATOM     87  C   UNL A   1      43.344  24.899  34.530  1.00  0.00     0.012 A 
ATOM     88  C   UNL A   1      45.520  25.926  34.801  1.00  0.00     0.148 A 
ATOM     89  C   UNL A   1      43.506  24.234  35.753  1.00  0.00     0.002 A 
ATOM     90  C   UNL A   1      45.674  25.266  36.017  1.00  0.00     0.091 A 
ATOM     91  F   UNL A   1      46.514  26.671  34.300  1.00  0.00    -0.205 F 
ATOM     92  C   UNL A   1      44.673  24.410  36.492  1.00  0.00     0.022 A 
BRANCH  90  93
ATOM     93  S   UNL A   1      47.169  25.420  37.009  1.00  0.00     0.127 S 
ATOM     94  O   UNL A   1      48.184  24.878  36.107  1.00  0.00    -0.237 OA
ATOM     95  O   UNL A   1      47.245  26.863  37.221  1.00  0.00    -0.237 OA
ATOM     96  O   UNL A   1      46.936  24.621  38.204  1.00  0.00    -0.744 OA
ENDBRANCH  90  93
ENDBRANCH  62  86
BRANCH  74  97
ATOM     97  C   UNL A   1      45.459  29.121  28.851  1.00  0.00     0.023 A 
ATOM     98  C   UNL A   1      46.424  30.105  29.158  1.00  0.00     0.012 A 
ATOM     99  C   UNL A   1      45.884  27.913  28.275  1.00  0.00     0.148 A 
ATOM    100  C   UNL A   1      47.779  29.892  28.881  1.00  0.00     0.002 A 
ATOM    101  C   UNL A   1      47.235  27.686  28.045  1.00  0.00     0.091 A 
ATOM    102  F   UNL A   1      44.955  26.988  27.995  1.00  0.00    -0.205 F 
ATOM    103  C   UNL A   1      48.187  28.676  28.337  1.00  0.00     0.022 A 
BRANCH 101 104
ATOM    104  S   UNL A   1      47.829  26.095  27.470  1.00  0.00     0.127 S 
ATOM    105  O   UNL A   1      47.249  26.019  26.130  1.00  0.00    -0.237 OA
ATOM    106  O   UNL A   1      49.282  26.273  27.498  1.00  0.00    -0.237 OA
ATOM    107  O   UNL A   1      47.332  25.111  28.425  1.00  0.00    -0.744 OA
ENDBRANCH 101 104
ENDBRANCH  74  97
ENDBRANCH  48  49
ENDBRANCH  40  43
ENDBRANCH  38  39
ENDBRANCH  37  38
ENDBRANCH  36  37
ENDBRANCH   1  36
TORSDOF 20
ENDMDL
MODEL 3
REMARK VINA RESULT:     -12.1      1.836      2.997
REMARK SMILES Cc1c(C(=O)NCCCCCCNC(=O)c2ccc(-c3c4nc(c(-c5cccc(S(=O)(=O)[O-])c5F)c5ccc([nH]5)c(-c5cccc(S(=O)(=O)[O-])c5F)c5nc(c(-c6cccc(S(=O)(=O)[O-])c6F)c6ccc3[nH]6)C=C5)C=C4)cc2)oc2c1/C(=N/NC(=O)C(c1ccccc1)c1ccccc1)CCC2
REMARK SMILES IDX 9 1 8 2 7 3 6 4 4 5 5 6 3 8 1 9 2 10 81 11 79 12 80 13 82 14
REMARK SMILES IDX 102 15 83 16 100 17 101 18 84 19 85 20 86 22 87 23 88 24
REMARK SMILES IDX 89 25 93 26 90 27 92 28 91 29 94 30 95 31 99 32 96 33 98 34
REMARK SMILES IDX 97 35 10 36 11 37 12 38 13 39 14 40 15 42 16 43 17 44 78 45
REMARK SMILES IDX 18 46 77 47 19 48 20 49 21 50 71 51 22 52 76 53 70 54 72 55
REMARK SMILES IDX 23 56 75 57 69 58 68 59 24 61 56 62 36 63 55 64 37 65 40 66
REMARK SMILES IDX 54 67 73 68 38 69 39 70 53 72 74 73 41 74 25 75 26 76 34 77
REMARK SMILES IDX 27 78 29 79 35 80 28 81 30 82 31 83 32 84 33 85 57 86 58 87
REMARK SMILES IDX 66 88 59 89 61 90 67 91 60 92 62 93 63 94 64 95 65 96 42 97
REMARK SMILES IDX 43 98 51 99 44 100 46 101 52 102 45 103 47 104 48 105 49 106
REMARK SMILES IDX 50 107
REMARK H PARENT 6 7 84 21 13 41 72 60 40 71
REMARK Flexibility Score: inf
ROOT
ATOM      1  C   UNL A   1      39.361  21.897  26.318  1.00  0.00     0.002 C 
ENDROOT
BRANCH   1   2
ATOM      2  C   UNL A   1      38.362  23.006  25.975  1.00  0.00     0.021 C 
BRANCH   2   3
ATOM      3  C   UNL A   1      37.050  22.448  25.422  1.00  0.00     0.116 C 
BRANCH   3   4
ATOM      4  N   UNL A   1      36.123  22.033  26.485  1.00  0.00    -0.349 N 
ATOM      5  C   UNL A   1      34.747  22.211  26.642  1.00  0.00     0.287 C 
ATOM      6  O   UNL A   1      34.204  21.645  27.581  1.00  0.00    -0.266 OA
ATOM      7  H   UNL A   1      36.551  21.540  27.222  1.00  0.00     0.163 HD
BRANCH   5   8
ATOM      8  C   UNL A   1      34.038  22.984  25.643  1.00  0.00     0.195 A 
ATOM      9  C   UNL A   1      34.983  25.398  25.561  1.00  0.00     0.049 C 
ATOM     10  C   UNL A   1      34.042  24.312  25.196  1.00  0.00     0.010 A 
ATOM     11  C   UNL A   1      32.847  24.438  24.405  1.00  0.00     0.043 A 
ATOM     12  O   UNL A   1      33.081  22.304  24.985  1.00  0.00    -0.455 OA
ATOM     13  C   UNL A   1      32.280  23.184  24.421  1.00  0.00     0.114 A 
ATOM     14  C   UNL A   1      32.111  25.507  23.734  1.00  0.00     0.072 C 
ATOM     15  C   UNL A   1      30.956  22.686  24.020  1.00  0.00     0.076 C 
ATOM     16  N   UNL A   1      32.762  26.601  23.463  1.00  0.00    -0.177 NA
ATOM     17  C   UNL A   1      30.661  25.102  23.572  1.00  0.00     0.059 C 
ATOM     18  C   UNL A   1      30.399  23.689  23.054  1.00  0.00     0.014 C 
BRANCH  16  19
ATOM     19  N   UNL A   1      32.475  27.783  22.815  1.00  0.00    -0.246 N 
ATOM     20  C   UNL A   1      31.554  28.819  22.840  1.00  0.00     0.252 C 
ATOM     21  H   UNL A   1      33.138  27.944  22.105  1.00  0.00     0.193 HD
ATOM     22  O   UNL A   1      31.627  29.656  21.925  1.00  0.00    -0.272 OA
BRANCH  20  23
ATOM     23  C   UNL A   1      30.515  29.023  23.961  1.00  0.00     0.140 C 
BRANCH  23  24
ATOM     24  C   UNL A   1      31.310  29.206  25.318  1.00  0.00    -0.031 A 
ATOM     25  C   UNL A   1      31.912  30.408  25.724  1.00  0.00     0.005 A 
ATOM     26  C   UNL A   1      31.487  28.107  26.211  1.00  0.00     0.005 A 
ATOM     27  C   UNL A   1      32.742  30.455  26.872  1.00  0.00     0.000 A 
ATOM     28  C   UNL A   1      32.341  28.139  27.318  1.00  0.00     0.000 A 
ATOM     29  C   UNL A   1      32.983  29.316  27.643  1.00  0.00     0.000 A 
ENDBRANCH  23  24
BRANCH  23  30
ATOM     30  C   UNL A   1      29.424  30.030  23.377  1.00  0.00    -0.031 A 
ATOM     31  C   UNL A   1      29.255  31.359  23.802  1.00  0.00     0.005 A 
ATOM     32  C   UNL A   1      28.673  29.651  22.227  1.00  0.00     0.005 A 
ATOM     33  C   UNL A   1      28.582  32.293  22.979  1.00  0.00     0.000 A 
ATOM     34  C   UNL A   1      28.043  30.579  21.395  1.00  0.00     0.000 A 
ATOM     35  C   UNL A   1      28.031  31.914  21.753  1.00  0.00     0.000 A 
ENDBRANCH  23  30
ENDBRANCH  20  23
ENDBRANCH  16  19
ENDBRANCH   5   8
ENDBRANCH   3   4
ENDBRANCH   2   3
ENDBRANCH   1   2
BRANCH   1  36
ATOM     36  C   UNL A   1      39.370  20.707  25.341  1.00  0.00     0.002 C 
BRANCH  36  37
ATOM     37  C   UNL A   1      39.557  19.315  25.966  1.00  0.00     0.021 C 
BRANCH  37  38
ATOM     38  C   UNL A   1      40.810  19.214  26.817  1.00  0.00     0.116 C 
BRANCH  38  39
ATOM     39  N   UNL A   1      41.982  18.833  26.018  1.00  0.00    -0.352 N 
ATOM     40  C   UNL A   1      42.970  19.641  25.489  1.00  0.00     0.251 C 
ATOM     41  H   UNL A   1      42.075  17.870  25.833  1.00  0.00     0.163 HD
ATOM     42  O   UNL A   1      43.689  19.248  24.581  1.00  0.00    -0.269 OA
BRANCH  40  43
ATOM     43  C   UNL A   1      43.147  20.983  26.063  1.00  0.00     0.039 A 
ATOM     44  C   UNL A   1      43.413  22.105  25.274  1.00  0.00     0.014 A 
ATOM     45  C   UNL A   1      42.990  21.097  27.439  1.00  0.00     0.014 A 
ATOM     46  C   UNL A   1      43.456  23.353  25.890  1.00  0.00     0.010 A 
ATOM     47  C   UNL A   1      42.794  22.327  27.990  1.00  0.00     0.010 A 
ATOM     48  C   UNL A   1      43.137  23.448  27.251  1.00  0.00    -0.014 A 
BRANCH  48  49
ATOM     49  C   UNL A   1      43.075  24.723  27.946  1.00  0.00     0.031 A 
ATOM     50  C   UNL A   1      41.747  25.386  27.871  1.00  0.00     0.074 A 
ATOM     51  C   UNL A   1      44.053  25.106  28.798  1.00  0.00     0.049 A 
ATOM     52  N   UNL A   1      41.440  26.470  27.241  1.00  0.00    -0.248 NA
ATOM     53  C   UNL A   1      40.585  24.665  28.416  1.00  0.00     0.031 C 
ATOM     54  C   UNL A   1      45.233  24.337  29.231  1.00  0.00     0.029 A 
ATOM     55  N   UNL A   1      44.117  26.202  29.595  1.00  0.00    -0.354 N 
ATOM     56  C   UNL A   1      40.098  26.703  27.542  1.00  0.00     0.074 A 
ATOM     57  C   UNL A   1      39.579  25.457  28.038  1.00  0.00     0.031 C 
ATOM     58  C   UNL A   1      45.715  24.855  30.382  1.00  0.00     0.029 A 
ATOM     59  C   UNL A   1      45.006  26.087  30.661  1.00  0.00     0.049 A 
ATOM     60  H   UNL A   1      43.578  27.011  29.434  1.00  0.00     0.167 HD
ATOM     61  C   UNL A   1      39.609  27.971  27.640  1.00  0.00     0.034 A 
ATOM     62  C   UNL A   1      45.105  26.920  31.725  1.00  0.00     0.034 A 
ATOM     63  C   UNL A   1      40.533  28.925  27.074  1.00  0.00     0.049 A 
ATOM     64  C   UNL A   1      44.442  28.187  31.342  1.00  0.00     0.074 A 
ATOM     65  C   UNL A   1      41.119  29.106  25.837  1.00  0.00     0.029 A 
ATOM     66  N   UNL A   1      41.301  29.638  27.964  1.00  0.00    -0.354 N 
ATOM     67  N   UNL A   1      44.877  28.968  30.392  1.00  0.00    -0.248 NA
ATOM     68  C   UNL A   1      43.040  28.344  31.693  1.00  0.00     0.031 C 
ATOM     69  C   UNL A   1      42.461  29.500  26.126  1.00  0.00     0.029 A 
ATOM     70  C   UNL A   1      42.592  29.616  27.511  1.00  0.00     0.049 A 
ATOM     71  H   UNL A   1      40.979  30.084  28.780  1.00  0.00     0.167 HD
ATOM     72  C   UNL A   1      43.727  29.362  29.719  1.00  0.00     0.074 A 
ATOM     73  C   UNL A   1      42.626  29.033  30.626  1.00  0.00     0.031 C 
ATOM     74  C   UNL A   1      43.750  29.632  28.380  1.00  0.00     0.034 A 
BRANCH  61  75
ATOM     75  C   UNL A   1      38.512  28.418  28.588  1.00  0.00     0.023 A 
ATOM     76  C   UNL A   1      37.411  29.095  28.014  1.00  0.00     0.012 A 
ATOM     77  C   UNL A   1      38.623  28.467  29.997  1.00  0.00     0.148 A 
ATOM     78  C   UNL A   1      36.516  29.838  28.790  1.00  0.00     0.002 A 
ATOM     79  C   UNL A   1      37.687  29.144  30.772  1.00  0.00     0.091 A 
ATOM     80  F   UNL A   1      39.702  27.976  30.608  1.00  0.00    -0.205 F 
ATOM     81  C   UNL A   1      36.652  29.861  30.171  1.00  0.00     0.022 A 
BRANCH  79  82
ATOM     82  S   UNL A   1      37.788  29.166  32.568  1.00  0.00     0.127 S 
ATOM     83  O   UNL A   1      37.738  27.741  32.880  1.00  0.00    -0.237 OA
ATOM     84  O   UNL A   1      39.085  29.806  32.786  1.00  0.00    -0.237 OA
ATOM     85  O   UNL A   1      36.650  29.960  33.017  1.00  0.00    -0.744 OA
ENDBRANCH  79  82
ENDBRANCH  61  75
BRANCH  62  86
ATOM     86  C   UNL A   1      45.451  26.611  33.133  1.00  0.00     0.023 A 
ATOM     87  C   UNL A   1      46.319  27.462  33.845  1.00  0.00     0.012 A 
ATOM     88  C   UNL A   1      44.710  25.653  33.862  1.00  0.00     0.148 A 
ATOM     89  C   UNL A   1      46.424  27.381  35.240  1.00  0.00     0.002 A 
ATOM     90  C   UNL A   1      44.820  25.574  35.247  1.00  0.00     0.091 A 
ATOM     91  F   UNL A   1      43.830  24.885  33.205  1.00  0.00    -0.205 F 
ATOM     92  C   UNL A   1      45.669  26.444  35.942  1.00  0.00     0.022 A 
BRANCH  90  93
ATOM     93  S   UNL A   1      43.852  24.411  36.222  1.00  0.00     0.127 S 
ATOM     94  O   UNL A   1      44.887  23.752  37.018  1.00  0.00    -0.237 OA
ATOM     95  O   UNL A   1      42.973  25.302  36.975  1.00  0.00    -0.237 OA
ATOM     96  O   UNL A   1      43.189  23.542  35.259  1.00  0.00    -0.744 OA
ENDBRANCH  90  93
ENDBRANCH  62  86
BRANCH  74  97
ATOM     97  C   UNL A   1      45.091  29.727  27.695  1.00  0.00     0.023 A 
ATOM     98  C   UNL A   1      45.932  30.855  27.812  1.00  0.00     0.012 A 
ATOM     99  C   UNL A   1      45.591  28.572  27.074  1.00  0.00     0.148 A 
ATOM    100  C   UNL A   1      47.236  30.833  27.306  1.00  0.00     0.002 A 
ATOM    101  C   UNL A   1      46.902  28.538  26.614  1.00  0.00     0.091 A 
ATOM    102  F   UNL A   1      44.781  27.508  26.976  1.00  0.00    -0.205 F 
ATOM    103  C   UNL A   1      47.726  29.670  26.720  1.00  0.00     0.022 A 
BRANCH 101 104
ATOM    104  S   UNL A   1      47.627  27.030  25.971  1.00  0.00     0.127 S 
ATOM    105  O   UNL A   1      48.957  27.480  25.565  1.00  0.00    -0.237 OA
ATOM    106  O   UNL A   1      47.609  26.148  27.139  1.00  0.00    -0.237 OA
ATOM    107  O   UNL A   1      46.754  26.595  24.886  1.00  0.00    -0.744 OA
ENDBRANCH 101 104
ENDBRANCH  74  97
ENDBRANCH  48  49
ENDBRANCH  40  43
ENDBRANCH  38  39
ENDBRANCH  37  38
ENDBRANCH  36  37
ENDBRANCH   1  36
TORSDOF 20
ENDMDL
