MODEL 1
REMARK VINA RESULT:     -11.9      0.000      0.000
REMARK SMILES CS(=O)(=O)N1C[C@@H]2CN(C(=O)C3CCOCC3)C[C@]2(C(=O)NCCCCCCNC(=O)c2ccc(-c3c4nc(c(-c5cccc(S(=O)(=O)[O-])c5F)c5ccc([nH]5)c(-c5cccc(S(=O)(=O)[O-])c5F)c5nc(c(-c6cccc(S(=O)(=O)[O-])c6F)c6ccc3[nH]6)C=C5)C=C4)cc2)C1
REMARK SMILES IDX 26 1 25 2 24 3 23 4 22 5 20 6 21 7 19 9 5 10 6 11 95 12 7 13
REMARK SMILES IDX 8 14 18 15 9 16 2 17 1 18 3 19 4 20 10 21 11 22 12 23 13 24
REMARK SMILES IDX 17 25 14 26 16 27 15 28 27 29 28 30 29 31 30 32 31 34 32 35
REMARK SMILES IDX 33 36 94 37 34 38 93 39 35 40 36 41 37 42 87 43 38 44 92 45
REMARK SMILES IDX 86 46 88 47 39 48 91 49 85 50 84 51 40 53 72 54 52 55 71 56
REMARK SMILES IDX 53 57 56 58 70 59 89 60 54 61 55 62 69 64 90 65 57 66 41 67
REMARK SMILES IDX 42 68 50 69 43 70 45 71 51 72 44 73 46 74 47 75 48 76 49 77
REMARK SMILES IDX 73 78 74 79 82 80 75 81 77 82 83 83 76 84 78 85 79 86 80 87
REMARK SMILES IDX 81 88 58 89 59 90 67 91 60 92 62 93 68 94 61 95 63 96 64 97
REMARK SMILES IDX 65 98 66 99
REMARK H PARENT 22 8 29 33 88 52 56 63
REMARK Flexibility Score: inf
ROOT
ATOM      1  C   UNL A   1      36.846  20.763  24.533  1.00  0.00     0.002 C 
ENDROOT
BRANCH   1   2
ATOM      2  C   UNL A   1      37.354  22.202  24.480  1.00  0.00     0.002 C 
BRANCH   2   3
ATOM      3  C   UNL A   1      37.225  23.024  25.762  1.00  0.00     0.021 C 
BRANCH   3   4
ATOM      4  C   UNL A   1      35.854  23.615  26.121  1.00  0.00     0.116 C 
BRANCH   4   5
ATOM      5  N   UNL A   1      35.094  22.620  26.864  1.00  0.00    -0.356 N 
ATOM      6  C   UNL A   1      33.756  22.330  26.723  1.00  0.00     0.229 C 
ATOM      7  O   UNL A   1      33.126  22.040  27.742  1.00  0.00    -0.274 OA
ATOM      8  H   UNL A   1      35.590  22.100  27.537  1.00  0.00     0.163 HD
BRANCH   6   9
ATOM      9  C   UNL A   1      33.159  22.315  25.265  1.00  0.00     0.086 C 
ATOM     10  N   UNL A   1      33.135  20.041  24.134  1.00  0.00    -0.201 NA
ATOM     11  C   UNL A   1      32.213  20.886  23.395  1.00  0.00     0.108 C 
ATOM     12  C   UNL A   1      33.300  20.708  25.467  1.00  0.00     0.121 C 
ATOM     13  C   UNL A   1      31.869  21.968  24.396  1.00  0.00     0.042 C 
ATOM     14  C   UNL A   1      31.439  23.211  23.653  1.00  0.00     0.125 C 
ATOM     15  C   UNL A   1      32.356  23.636  25.761  1.00  0.00     0.138 C 
ATOM     16  N   UNL A   1      31.686  24.236  24.609  1.00  0.00    -0.341 N 
BRANCH  10  17
ATOM     17  S   UNL A   1      32.812  18.379  24.233  1.00  0.00     0.211 S 
ATOM     18  C   UNL A   1      34.440  17.659  24.295  1.00  0.00     0.176 C 
ATOM     19  O   UNL A   1      32.187  17.976  22.994  1.00  0.00    -0.213 OA
ATOM     20  O   UNL A   1      32.163  18.143  25.508  1.00  0.00    -0.213 OA
ENDBRANCH  10  17
BRANCH  16  21
ATOM     21  C   UNL A   1      31.259  25.516  24.330  1.00  0.00     0.225 C 
ATOM     22  O   UNL A   1      30.359  25.692  23.498  1.00  0.00    -0.275 OA
BRANCH  21  23
ATOM     23  C   UNL A   1      31.938  26.750  24.917  1.00  0.00     0.083 C 
ATOM     24  C   UNL A   1      30.913  27.877  25.012  1.00  0.00     0.042 C 
ATOM     25  C   UNL A   1      33.278  27.135  24.290  1.00  0.00     0.042 C 
ATOM     26  C   UNL A   1      31.548  29.233  25.247  1.00  0.00     0.161 C 
ATOM     27  C   UNL A   1      33.713  28.532  24.701  1.00  0.00     0.161 C 
ATOM     28  O   UNL A   1      32.672  29.454  24.404  1.00  0.00    -0.381 OA
ENDBRANCH  21  23
ENDBRANCH  16  21
ENDBRANCH   6   9
ENDBRANCH   4   5
ENDBRANCH   3   4
ENDBRANCH   2   3
ENDBRANCH   1   2
BRANCH   1  29
ATOM     29  C   UNL A   1      37.824  19.681  25.005  1.00  0.00     0.021 C 
BRANCH  29  30
ATOM     30  C   UNL A   1      39.096  20.098  25.750  1.00  0.00     0.116 C 
BRANCH  30  31
ATOM     31  N   UNL A   1      40.159  19.125  25.832  1.00  0.00    -0.352 N 
ATOM     32  C   UNL A   1      41.459  19.333  26.233  1.00  0.00     0.251 C 
ATOM     33  H   UNL A   1      39.927  18.204  25.570  1.00  0.00     0.163 HD
ATOM     34  O   UNL A   1      42.228  18.380  26.331  1.00  0.00    -0.269 OA
BRANCH  32  35
ATOM     35  C   UNL A   1      41.954  20.707  26.489  1.00  0.00     0.039 A 
ATOM     36  C   UNL A   1      42.220  21.511  25.381  1.00  0.00     0.014 A 
ATOM     37  C   UNL A   1      42.153  21.210  27.780  1.00  0.00     0.014 A 
ATOM     38  C   UNL A   1      42.636  22.832  25.561  1.00  0.00     0.010 A 
ATOM     39  C   UNL A   1      42.516  22.552  27.959  1.00  0.00     0.010 A 
ATOM     40  C   UNL A   1      42.759  23.379  26.851  1.00  0.00    -0.014 A 
BRANCH  40  41
ATOM     41  C   UNL A   1      43.098  24.821  27.003  1.00  0.00     0.031 A 
ATOM     42  C   UNL A   1      42.159  25.783  27.679  1.00  0.00     0.074 A 
ATOM     43  C   UNL A   1      44.280  25.271  26.531  1.00  0.00     0.049 A 
ATOM     44  N   UNL A   1      42.360  27.037  28.003  1.00  0.00    -0.248 NA
ATOM     45  C   UNL A   1      40.820  25.285  28.026  1.00  0.00     0.031 C 
ATOM     46  C   UNL A   1      45.247  24.466  25.783  1.00  0.00     0.029 A 
ATOM     47  N   UNL A   1      44.869  26.509  26.610  1.00  0.00    -0.354 N 
ATOM     48  C   UNL A   1      41.174  27.481  28.577  1.00  0.00     0.074 A 
ATOM     49  C   UNL A   1      40.245  26.372  28.522  1.00  0.00     0.031 C 
ATOM     50  C   UNL A   1      46.322  25.219  25.500  1.00  0.00     0.029 A 
ATOM     51  C   UNL A   1      46.111  26.567  26.020  1.00  0.00     0.049 A 
ATOM     52  H   UNL A   1      44.444  27.281  27.048  1.00  0.00     0.167 HD
ATOM     53  C   UNL A   1      40.891  28.689  29.124  1.00  0.00     0.034 A 
ATOM     54  C   UNL A   1      46.988  27.585  25.915  1.00  0.00     0.034 A 
ATOM     55  C   UNL A   1      41.820  29.788  29.190  1.00  0.00     0.049 A 
ATOM     56  C   UNL A   1      46.662  28.905  26.557  1.00  0.00     0.074 A 
ATOM     57  C   UNL A   1      41.649  31.024  29.791  1.00  0.00     0.029 A 
ATOM     58  N   UNL A   1      43.083  29.797  28.619  1.00  0.00    -0.354 N 
ATOM     59  N   UNL A   1      45.601  29.250  27.246  1.00  0.00    -0.248 NA
ATOM     60  C   UNL A   1      47.673  29.966  26.444  1.00  0.00     0.031 C 
ATOM     61  C   UNL A   1      42.794  31.793  29.550  1.00  0.00     0.029 A 
ATOM     62  C   UNL A   1      43.697  31.021  28.838  1.00  0.00     0.049 A 
ATOM     63  H   UNL A   1      43.487  29.044  28.130  1.00  0.00     0.167 HD
ATOM     64  C   UNL A   1      45.830  30.553  27.674  1.00  0.00     0.074 A 
ATOM     65  C   UNL A   1      47.146  30.922  27.195  1.00  0.00     0.031 C 
ATOM     66  C   UNL A   1      45.019  31.373  28.387  1.00  0.00     0.034 A 
BRANCH  53  67
ATOM     67  C   UNL A   1      39.525  28.879  29.737  1.00  0.00     0.023 A 
ATOM     68  C   UNL A   1      39.266  28.383  31.032  1.00  0.00     0.012 A 
ATOM     69  C   UNL A   1      38.521  29.602  29.062  1.00  0.00     0.148 A 
ATOM     70  C   UNL A   1      38.020  28.571  31.630  1.00  0.00     0.002 A 
ATOM     71  C   UNL A   1      37.297  29.826  29.685  1.00  0.00     0.091 A 
ATOM     72  F   UNL A   1      38.777  30.051  27.826  1.00  0.00    -0.205 F 
ATOM     73  C   UNL A   1      37.041  29.301  30.962  1.00  0.00     0.022 A 
BRANCH  71  74
ATOM     74  S   UNL A   1      35.999  30.821  28.944  1.00  0.00     0.127 S 
ATOM     75  O   UNL A   1      35.281  31.297  30.127  1.00  0.00    -0.237 OA
ATOM     76  O   UNL A   1      36.765  31.851  28.242  1.00  0.00    -0.237 OA
ATOM     77  O   UNL A   1      35.246  29.924  28.079  1.00  0.00    -0.744 OA
ENDBRANCH  71  74
ENDBRANCH  53  67
BRANCH  54  78
ATOM     78  C   UNL A   1      48.290  27.379  25.217  1.00  0.00     0.023 A 
ATOM     79  C   UNL A   1      49.396  26.880  25.932  1.00  0.00     0.012 A 
ATOM     80  C   UNL A   1      48.431  27.665  23.846  1.00  0.00     0.148 A 
ATOM     81  C   UNL A   1      50.630  26.706  25.302  1.00  0.00     0.002 A 
ATOM     82  C   UNL A   1      49.644  27.430  23.211  1.00  0.00     0.091 A 
ATOM     83  F   UNL A   1      47.369  28.150  23.187  1.00  0.00    -0.205 F 
ATOM     84  C   UNL A   1      50.751  26.971  23.940  1.00  0.00     0.022 A 
BRANCH  82  85
ATOM     85  S   UNL A   1      49.850  27.613  21.436  1.00  0.00     0.127 S 
ATOM     86  O   UNL A   1      49.541  29.027  21.243  1.00  0.00    -0.237 OA
ATOM     87  O   UNL A   1      51.259  27.260  21.260  1.00  0.00    -0.237 OA
ATOM     88  O   UNL A   1      48.916  26.673  20.831  1.00  0.00    -0.744 OA
ENDBRANCH  82  85
ENDBRANCH  54  78
BRANCH  66  89
ATOM     89  C   UNL A   1      45.544  32.748  28.720  1.00  0.00     0.023 A 
ATOM     90  C   UNL A   1      46.233  32.967  29.932  1.00  0.00     0.012 A 
ATOM     91  C   UNL A   1      45.382  33.819  27.819  1.00  0.00     0.148 A 
ATOM     92  C   UNL A   1      46.699  34.239  30.265  1.00  0.00     0.002 A 
ATOM     93  C   UNL A   1      45.899  35.070  28.132  1.00  0.00     0.091 A 
ATOM     94  F   UNL A   1      44.712  33.600  26.678  1.00  0.00    -0.205 F 
ATOM     95  C   UNL A   1      46.541  35.287  29.362  1.00  0.00     0.022 A 
BRANCH  93  96
ATOM     96  S   UNL A   1      45.829  36.454  26.989  1.00  0.00     0.127 S 
ATOM     97  O   UNL A   1      44.392  36.720  26.929  1.00  0.00    -0.237 OA
ATOM     98  O   UNL A   1      46.609  37.476  27.689  1.00  0.00    -0.237 OA
ATOM     99  O   UNL A   1      46.431  35.981  25.750  1.00  0.00    -0.744 OA
ENDBRANCH  93  96
ENDBRANCH  66  89
ENDBRANCH  40  41
ENDBRANCH  32  35
ENDBRANCH  30  31
ENDBRANCH  29  30
ENDBRANCH   1  29
TORSDOF 19
ENDMDL
MODEL 2
REMARK VINA RESULT:     -11.8      1.659      7.364
REMARK SMILES CS(=O)(=O)N1C[C@@H]2CN(C(=O)C3CCOCC3)C[C@]2(C(=O)NCCCCCCNC(=O)c2ccc(-c3c4nc(c(-c5cccc(S(=O)(=O)[O-])c5F)c5ccc([nH]5)c(-c5cccc(S(=O)(=O)[O-])c5F)c5nc(c(-c6cccc(S(=O)(=O)[O-])c6F)c6ccc3[nH]6)C=C5)C=C4)cc2)C1
REMARK SMILES IDX 26 1 25 2 24 3 23 4 22 5 20 6 21 7 19 9 5 10 6 11 95 12 7 13
REMARK SMILES IDX 8 14 18 15 9 16 2 17 1 18 3 19 4 20 10 21 11 22 12 23 13 24
REMARK SMILES IDX 17 25 14 26 16 27 15 28 27 29 28 30 29 31 30 32 31 34 32 35
REMARK SMILES IDX 33 36 94 37 34 38 93 39 35 40 36 41 37 42 87 43 38 44 92 45
REMARK SMILES IDX 86 46 88 47 39 48 91 49 85 50 84 51 40 53 72 54 52 55 71 56
REMARK SMILES IDX 53 57 56 58 70 59 89 60 54 61 55 62 69 64 90 65 57 66 41 67
REMARK SMILES IDX 42 68 50 69 43 70 45 71 51 72 44 73 46 74 47 75 48 76 49 77
REMARK SMILES IDX 73 78 74 79 82 80 75 81 77 82 83 83 76 84 78 85 79 86 80 87
REMARK SMILES IDX 81 88 58 89 59 90 67 91 60 92 62 93 68 94 61 95 63 96 64 97
REMARK SMILES IDX 65 98 66 99
REMARK H PARENT 22 8 29 33 88 52 56 63
REMARK Flexibility Score: inf
ROOT
ATOM      1  C   UNL A   1      39.580  22.866  26.858  1.00  0.00     0.002 C 
ENDROOT
BRANCH   1   2
ATOM      2  C   UNL A   1      38.560  23.954  26.530  1.00  0.00     0.002 C 
BRANCH   2   3
ATOM      3  C   UNL A   1      37.570  23.652  25.405  1.00  0.00     0.021 C 
BRANCH   3   4
ATOM      4  C   UNL A   1      36.069  23.823  25.680  1.00  0.00     0.116 C 
BRANCH   4   5
ATOM      5  N   UNL A   1      35.632  22.762  26.575  1.00  0.00    -0.356 N 
ATOM      6  C   UNL A   1      34.334  22.397  26.850  1.00  0.00     0.229 C 
ATOM      7  O   UNL A   1      34.075  22.038  28.000  1.00  0.00    -0.274 OA
ATOM      8  H   UNL A   1      36.340  22.252  27.032  1.00  0.00     0.163 HD
BRANCH   6   9
ATOM      9  C   UNL A   1      33.306  22.392  25.656  1.00  0.00     0.086 C 
ATOM     10  N   UNL A   1      33.210  20.231  24.325  1.00  0.00    -0.201 NA
ATOM     11  C   UNL A   1      31.999  20.969  24.013  1.00  0.00     0.108 C 
ATOM     12  C   UNL A   1      33.710  20.818  25.612  1.00  0.00     0.121 C 
ATOM     13  C   UNL A   1      31.860  21.907  25.192  1.00  0.00     0.042 C 
ATOM     14  C   UNL A   1      31.058  23.116  24.771  1.00  0.00     0.125 C 
ATOM     15  C   UNL A   1      32.543  23.528  26.529  1.00  0.00     0.138 C 
ATOM     16  N   UNL A   1      31.467  24.096  25.719  1.00  0.00    -0.341 N 
BRANCH  10  17
ATOM     17  S   UNL A   1      33.153  18.535  24.321  1.00  0.00     0.211 S 
ATOM     18  C   UNL A   1      32.549  18.160  22.688  1.00  0.00     0.176 C 
ATOM     19  O   UNL A   1      32.151  18.126  25.278  1.00  0.00    -0.213 OA
ATOM     20  O   UNL A   1      34.519  18.059  24.420  1.00  0.00    -0.213 OA
ENDBRANCH  10  17
BRANCH  16  21
ATOM     21  C   UNL A   1      30.813  25.308  25.739  1.00  0.00     0.225 C 
ATOM     22  O   UNL A   1      29.851  25.471  26.501  1.00  0.00    -0.275 OA
BRANCH  21  23
ATOM     23  C   UNL A   1      31.147  26.433  24.763  1.00  0.00     0.083 C 
ATOM     24  C   UNL A   1      29.877  26.829  24.015  1.00  0.00     0.042 C 
ATOM     25  C   UNL A   1      32.381  26.210  23.887  1.00  0.00     0.042 C 
ATOM     26  C   UNL A   1      30.155  27.678  22.790  1.00  0.00     0.161 C 
ATOM     27  C   UNL A   1      32.447  27.207  22.742  1.00  0.00     0.161 C 
ATOM     28  O   UNL A   1      31.228  27.164  22.011  1.00  0.00    -0.381 OA
ENDBRANCH  21  23
ENDBRANCH  16  21
ENDBRANCH   6   9
ENDBRANCH   4   5
ENDBRANCH   3   4
ENDBRANCH   2   3
ENDBRANCH   1   2
BRANCH   1  29
ATOM     29  C   UNL A   1      39.438  21.519  26.140  1.00  0.00     0.021 C 
BRANCH  29  30
ATOM     30  C   UNL A   1      40.159  20.292  26.706  1.00  0.00     0.116 C 
BRANCH  30  31
ATOM     31  N   UNL A   1      41.219  19.725  25.906  1.00  0.00    -0.352 N 
ATOM     32  C   UNL A   1      42.501  20.200  25.753  1.00  0.00     0.251 C 
ATOM     33  H   UNL A   1      40.998  18.902  25.413  1.00  0.00     0.163 HD
ATOM     34  O   UNL A   1      43.317  19.554  25.100  1.00  0.00    -0.269 OA
BRANCH  32  35
ATOM     35  C   UNL A   1      42.886  21.515  26.318  1.00  0.00     0.039 A 
ATOM     36  C   UNL A   1      43.013  22.585  25.429  1.00  0.00     0.014 A 
ATOM     37  C   UNL A   1      43.115  21.714  27.684  1.00  0.00     0.014 A 
ATOM     38  C   UNL A   1      43.320  23.858  25.911  1.00  0.00     0.010 A 
ATOM     39  C   UNL A   1      43.367  23.003  28.172  1.00  0.00     0.010 A 
ATOM     40  C   UNL A   1      43.470  24.091  27.290  1.00  0.00    -0.014 A 
BRANCH  40  41
ATOM     41  C   UNL A   1      43.687  25.481  27.777  1.00  0.00     0.031 A 
ATOM     42  C   UNL A   1      45.053  26.115  27.768  1.00  0.00     0.074 A 
ATOM     43  C   UNL A   1      42.632  26.191  28.229  1.00  0.00     0.049 A 
ATOM     44  N   UNL A   1      45.386  27.353  28.037  1.00  0.00    -0.248 NA
ATOM     45  C   UNL A   1      46.192  25.250  27.427  1.00  0.00     0.031 C 
ATOM     46  C   UNL A   1      41.269  25.674  28.369  1.00  0.00     0.029 A 
ATOM     47  N   UNL A   1      42.536  27.495  28.648  1.00  0.00    -0.354 N 
ATOM     48  C   UNL A   1      46.769  27.415  27.912  1.00  0.00     0.074 A 
ATOM     49  C   UNL A   1      47.217  26.079  27.580  1.00  0.00     0.031 C 
ATOM     50  C   UNL A   1      40.468  26.656  28.811  1.00  0.00     0.029 A 
ATOM     51  C   UNL A   1      41.261  27.865  29.012  1.00  0.00     0.049 A 
ATOM     52  H   UNL A   1      43.306  28.107  28.685  1.00  0.00     0.167 HD
ATOM     53  C   UNL A   1      47.589  28.487  28.035  1.00  0.00     0.034 A 
ATOM     54  C   UNL A   1      40.779  29.045  29.449  1.00  0.00     0.034 A 
ATOM     55  C   UNL A   1      47.143  29.819  28.353  1.00  0.00     0.049 A 
ATOM     56  C   UNL A   1      41.705  30.227  29.547  1.00  0.00     0.074 A 
ATOM     57  C   UNL A   1      47.889  30.983  28.425  1.00  0.00     0.029 A 
ATOM     58  N   UNL A   1      45.839  30.165  28.674  1.00  0.00    -0.354 N 
ATOM     59  N   UNL A   1      42.981  30.303  29.257  1.00  0.00    -0.248 NA
ATOM     60  C   UNL A   1      41.115  31.497  29.991  1.00  0.00     0.031 C 
ATOM     61  C   UNL A   1      47.044  32.024  28.827  1.00  0.00     0.029 A 
ATOM     62  C   UNL A   1      45.762  31.520  28.961  1.00  0.00     0.049 A 
ATOM     63  H   UNL A   1      45.078  29.541  28.694  1.00  0.00     0.167 HD
ATOM     64  C   UNL A   1      43.339  31.632  29.454  1.00  0.00     0.074 A 
ATOM     65  C   UNL A   1      42.135  32.331  29.855  1.00  0.00     0.031 C 
ATOM     66  C   UNL A   1      44.556  32.217  29.328  1.00  0.00     0.034 A 
BRANCH  53  67
ATOM     67  C   UNL A   1      49.063  28.276  27.784  1.00  0.00     0.023 A 
ATOM     68  C   UNL A   1      49.923  28.005  28.868  1.00  0.00     0.012 A 
ATOM     69  C   UNL A   1      49.585  28.281  26.475  1.00  0.00     0.148 A 
ATOM     70  C   UNL A   1      51.283  27.779  28.658  1.00  0.00     0.002 A 
ATOM     71  C   UNL A   1      50.933  28.008  26.270  1.00  0.00     0.091 A 
ATOM     72  F   UNL A   1      48.757  28.557  25.458  1.00  0.00    -0.205 F 
ATOM     73  C   UNL A   1      51.786  27.770  27.360  1.00  0.00     0.022 A 
BRANCH  71  74
ATOM     74  S   UNL A   1      51.662  27.892  24.633  1.00  0.00     0.127 S 
ATOM     75  O   UNL A   1      50.967  26.729  24.082  1.00  0.00    -0.237 OA
ATOM     76  O   UNL A   1      51.277  29.170  24.034  1.00  0.00    -0.237 OA
ATOM     77  O   UNL A   1      53.093  27.721  24.840  1.00  0.00    -0.744 OA
ENDBRANCH  71  74
ENDBRANCH  53  67
BRANCH  54  78
ATOM     78  C   UNL A   1      39.331  29.185  29.775  1.00  0.00     0.023 A 
ATOM     79  C   UNL A   1      38.869  28.861  31.066  1.00  0.00     0.012 A 
ATOM     80  C   UNL A   1      38.412  29.649  28.815  1.00  0.00     0.148 A 
ATOM     81  C   UNL A   1      37.513  28.960  31.382  1.00  0.00     0.002 A 
ATOM     82  C   UNL A   1      37.075  29.805  29.154  1.00  0.00     0.091 A 
ATOM     83  F   UNL A   1      38.870  29.941  27.589  1.00  0.00    -0.205 F 
ATOM     84  C   UNL A   1      36.618  29.442  30.430  1.00  0.00     0.022 A 
BRANCH  82  85
ATOM     85  S   UNL A   1      35.880  30.545  28.036  1.00  0.00     0.127 S 
ATOM     86  O   UNL A   1      35.995  29.685  26.862  1.00  0.00    -0.237 OA
ATOM     87  O   UNL A   1      34.633  30.398  28.789  1.00  0.00    -0.237 OA
ATOM     88  O   UNL A   1      36.311  31.925  27.854  1.00  0.00    -0.744 OA
ENDBRANCH  82  85
ENDBRANCH  54  78
BRANCH  66  89
ATOM     89  C   UNL A   1      44.643  33.700  29.598  1.00  0.00     0.023 A 
ATOM     90  C   UNL A   1      44.908  34.166  30.903  1.00  0.00     0.012 A 
ATOM     91  C   UNL A   1      44.490  34.633  28.553  1.00  0.00     0.148 A 
ATOM     92  C   UNL A   1      44.964  35.534  31.172  1.00  0.00     0.002 A 
ATOM     93  C   UNL A   1      44.603  35.992  28.818  1.00  0.00     0.091 A 
ATOM     94  F   UNL A   1      44.222  34.176  27.321  1.00  0.00    -0.205 F 
ATOM     95  C   UNL A   1      44.821  36.445  30.129  1.00  0.00     0.022 A 
BRANCH  93  96
ATOM     96  S   UNL A   1      44.531  37.234  27.523  1.00  0.00     0.127 S 
ATOM     97  O   UNL A   1      43.168  37.063  27.021  1.00  0.00    -0.237 OA
ATOM     98  O   UNL A   1      44.755  38.474  28.268  1.00  0.00    -0.237 OA
ATOM     99  O   UNL A   1      45.592  36.895  26.584  1.00  0.00    -0.744 OA
ENDBRANCH  93  96
ENDBRANCH  66  89
ENDBRANCH  40  41
ENDBRANCH  32  35
ENDBRANCH  30  31
ENDBRANCH  29  30
ENDBRANCH   1  29
TORSDOF 19
ENDMDL
MODEL 3
REMARK VINA RESULT:     -11.6      1.326      3.824
REMARK SMILES CS(=O)(=O)N1C[C@@H]2CN(C(=O)C3CCOCC3)C[C@]2(C(=O)NCCCCCCNC(=O)c2ccc(-c3c4nc(c(-c5cccc(S(=O)(=O)[O-])c5F)c5ccc([nH]5)c(-c5cccc(S(=O)(=O)[O-])c5F)c5nc(c(-c6cccc(S(=O)(=O)[O-])c6F)c6ccc3[nH]6)C=C5)C=C4)cc2)C1
REMARK SMILES IDX 26 1 25 2 24 3 23 4 22 5 20 6 21 7 19 9 5 10 6 11 95 12 7 13
REMARK SMILES IDX 8 14 18 15 9 16 2 17 1 18 3 19 4 20 10 21 11 22 12 23 13 24
REMARK SMILES IDX 17 25 14 26 16 27 15 28 27 29 28 30 29 31 30 32 31 34 32 35
REMARK SMILES IDX 33 36 94 37 34 38 93 39 35 40 36 41 37 42 87 43 38 44 92 45
REMARK SMILES IDX 86 46 88 47 39 48 91 49 85 50 84 51 40 53 72 54 52 55 71 56
REMARK SMILES IDX 53 57 56 58 70 59 89 60 54 61 55 62 69 64 90 65 57 66 41 67
REMARK SMILES IDX 42 68 50 69 43 70 45 71 51 72 44 73 46 74 47 75 48 76 49 77
REMARK SMILES IDX 73 78 74 79 82 80 75 81 77 82 83 83 76 84 78 85 79 86 80 87
REMARK SMILES IDX 81 88 58 89 59 90 67 91 60 92 62 93 68 94 61 95 63 96 64 97
REMARK SMILES IDX 65 98 66 99
REMARK H PARENT 22 8 29 33 88 52 56 63
REMARK Flexibility Score: inf
ROOT
ATOM      1  C   UNL A   1      36.276  20.801  24.761  1.00  0.00     0.002 C 
ENDROOT
BRANCH   1   2
ATOM      2  C   UNL A   1      36.194  21.954  25.759  1.00  0.00     0.002 C 
BRANCH   2   3
ATOM      3  C   UNL A   1      35.079  21.881  26.802  1.00  0.00     0.021 C 
BRANCH   3   4
ATOM      4  C   UNL A   1      34.103  23.061  26.919  1.00  0.00     0.116 C 
BRANCH   4   5
ATOM      5  N   UNL A   1      32.797  22.554  27.313  1.00  0.00    -0.356 N 
ATOM      6  C   UNL A   1      31.608  22.726  26.642  1.00  0.00     0.229 C 
ATOM      7  O   UNL A   1      30.588  22.874  27.318  1.00  0.00    -0.274 OA
ATOM      8  H   UNL A   1      32.761  22.033  28.148  1.00  0.00     0.163 HD
BRANCH   6   9
ATOM      9  C   UNL A   1      31.636  22.642  25.068  1.00  0.00     0.086 C 
ATOM     10  N   UNL A   1      31.592  24.880  23.869  1.00  0.00    -0.201 NA
ATOM     11  C   UNL A   1      32.048  23.896  22.903  1.00  0.00     0.108 C 
ATOM     12  C   UNL A   1      31.820  24.251  25.211  1.00  0.00     0.121 C 
ATOM     13  C   UNL A   1      32.563  22.774  23.780  1.00  0.00     0.042 C 
ATOM     14  C   UNL A   1      32.505  21.477  23.008  1.00  0.00     0.125 C 
ATOM     15  C   UNL A   1      32.356  21.210  25.326  1.00  0.00     0.138 C 
ATOM     16  N   UNL A   1      32.467  20.507  24.049  1.00  0.00    -0.341 N 
BRANCH  10  17
ATOM     17  S   UNL A   1      32.175  26.469  23.747  1.00  0.00     0.211 S 
ATOM     18  C   UNL A   1      33.791  26.359  24.489  1.00  0.00     0.176 C 
ATOM     19  O   UNL A   1      31.349  27.307  24.586  1.00  0.00    -0.213 OA
ATOM     20  O   UNL A   1      32.342  26.758  22.336  1.00  0.00    -0.213 OA
ENDBRANCH  10  17
BRANCH  16  21
ATOM     21  C   UNL A   1      32.567  19.175  23.713  1.00  0.00     0.225 C 
ATOM     22  O   UNL A   1      32.130  18.785  22.623  1.00  0.00    -0.275 OA
BRANCH  21  23
ATOM     23  C   UNL A   1      33.090  18.124  24.688  1.00  0.00     0.083 C 
ATOM     24  C   UNL A   1      34.469  17.664  24.223  1.00  0.00     0.042 C 
ATOM     25  C   UNL A   1      32.113  17.004  25.048  1.00  0.00     0.042 C 
ATOM     26  C   UNL A   1      34.926  16.389  24.904  1.00  0.00     0.161 C 
ATOM     27  C   UNL A   1      32.811  15.849  25.748  1.00  0.00     0.161 C 
ATOM     28  O   UNL A   1      33.900  15.405  24.948  1.00  0.00    -0.381 OA
ENDBRANCH  21  23
ENDBRANCH  16  21
ENDBRANCH   6   9
ENDBRANCH   4   5
ENDBRANCH   3   4
ENDBRANCH   2   3
ENDBRANCH   1   2
BRANCH   1  29
ATOM     29  C   UNL A   1      37.385  19.763  24.964  1.00  0.00     0.021 C 
BRANCH  29  30
ATOM     30  C   UNL A   1      38.681  20.183  25.665  1.00  0.00     0.116 C 
BRANCH  30  31
ATOM     31  N   UNL A   1      39.737  19.201  25.739  1.00  0.00    -0.352 N 
ATOM     32  C   UNL A   1      41.030  19.388  26.171  1.00  0.00     0.251 C 
ATOM     33  H   UNL A   1      39.505  18.290  25.444  1.00  0.00     0.163 HD
ATOM     34  O   UNL A   1      41.792  18.428  26.254  1.00  0.00    -0.269 OA
BRANCH  32  35
ATOM     35  C   UNL A   1      41.527  20.751  26.479  1.00  0.00     0.039 A 
ATOM     36  C   UNL A   1      42.063  21.493  25.425  1.00  0.00     0.014 A 
ATOM     37  C   UNL A   1      41.473  21.303  27.764  1.00  0.00     0.014 A 
ATOM     38  C   UNL A   1      42.495  22.802  25.644  1.00  0.00     0.010 A 
ATOM     39  C   UNL A   1      41.855  22.636  27.969  1.00  0.00     0.010 A 
ATOM     40  C   UNL A   1      42.370  23.401  26.911  1.00  0.00    -0.014 A 
BRANCH  40  41
ATOM     41  C   UNL A   1      42.740  24.834  27.081  1.00  0.00     0.031 A 
ATOM     42  C   UNL A   1      41.800  25.819  27.723  1.00  0.00     0.074 A 
ATOM     43  C   UNL A   1      43.950  25.254  26.657  1.00  0.00     0.049 A 
ATOM     44  N   UNL A   1      42.021  27.066  28.059  1.00  0.00    -0.248 NA
ATOM     45  C   UNL A   1      40.436  25.354  28.014  1.00  0.00     0.031 C 
ATOM     46  C   UNL A   1      44.926  24.425  25.945  1.00  0.00     0.029 A 
ATOM     47  N   UNL A   1      44.568  26.475  26.764  1.00  0.00    -0.354 N 
ATOM     48  C   UNL A   1      40.826  27.540  28.587  1.00  0.00     0.074 A 
ATOM     49  C   UNL A   1      39.871  26.455  28.492  1.00  0.00     0.031 C 
ATOM     50  C   UNL A   1      46.030  25.150  25.707  1.00  0.00     0.029 A 
ATOM     51  C   UNL A   1      45.834  26.502  26.224  1.00  0.00     0.049 A 
ATOM     52  H   UNL A   1      44.147  27.257  27.187  1.00  0.00     0.167 HD
ATOM     53  C   UNL A   1      40.553  28.753  29.126  1.00  0.00     0.034 A 
ATOM     54  C   UNL A   1      46.741  27.497  26.157  1.00  0.00     0.034 A 
ATOM     55  C   UNL A   1      41.506  29.827  29.233  1.00  0.00     0.049 A 
ATOM     56  C   UNL A   1      46.424  28.824  26.791  1.00  0.00     0.074 A 
ATOM     57  C   UNL A   1      41.345  31.065  29.831  1.00  0.00     0.029 A 
ATOM     58  N   UNL A   1      42.791  29.804  28.713  1.00  0.00    -0.354 N 
ATOM     59  N   UNL A   1      45.346  29.194  27.438  1.00  0.00    -0.248 NA
ATOM     60  C   UNL A   1      47.467  29.857  26.721  1.00  0.00     0.031 C 
ATOM     61  C   UNL A   1      42.518  31.804  29.638  1.00  0.00     0.029 A 
ATOM     62  C   UNL A   1      43.428  31.011  28.960  1.00  0.00     0.049 A 
ATOM     63  H   UNL A   1      43.194  29.042  28.237  1.00  0.00     0.167 HD
ATOM     64  C   UNL A   1      45.592  30.490  27.880  1.00  0.00     0.074 A 
ATOM     65  C   UNL A   1      46.936  30.825  27.454  1.00  0.00     0.031 C 
ATOM     66  C   UNL A   1      44.775  31.329  28.563  1.00  0.00     0.034 A 
BRANCH  53  67
ATOM     67  C   UNL A   1      39.169  28.977  29.686  1.00  0.00     0.023 A 
ATOM     68  C   UNL A   1      38.862  28.532  30.988  1.00  0.00     0.012 A 
ATOM     69  C   UNL A   1      38.195  29.684  28.952  1.00  0.00     0.148 A 
ATOM     70  C   UNL A   1      37.599  28.753  31.537  1.00  0.00     0.002 A 
ATOM     71  C   UNL A   1      36.954  29.941  29.524  1.00  0.00     0.091 A 
ATOM     72  F   UNL A   1      38.497  30.085  27.710  1.00  0.00    -0.205 F 
ATOM     73  C   UNL A   1      36.649  29.466  30.810  1.00  0.00     0.022 A 
BRANCH  71  74
ATOM     74  S   UNL A   1      35.691  30.921  28.704  1.00  0.00     0.127 S 
ATOM     75  O   UNL A   1      35.024  29.912  27.882  1.00  0.00    -0.237 OA
ATOM     76  O   UNL A   1      34.898  31.406  29.834  1.00  0.00    -0.237 OA
ATOM     77  O   UNL A   1      36.400  31.956  27.966  1.00  0.00    -0.744 OA
ENDBRANCH  71  74
ENDBRANCH  53  67
BRANCH  54  78
ATOM     78  C   UNL A   1      48.063  27.258  25.511  1.00  0.00     0.023 A 
ATOM     79  C   UNL A   1      49.153  26.818  26.287  1.00  0.00     0.012 A 
ATOM     80  C   UNL A   1      48.241  27.455  24.128  1.00  0.00     0.148 A 
ATOM     81  C   UNL A   1      50.405  26.616  25.704  1.00  0.00     0.002 A 
ATOM     82  C   UNL A   1      49.473  27.190  23.543  1.00  0.00     0.091 A 
ATOM     83  F   UNL A   1      47.193  27.884  23.409  1.00  0.00    -0.205 F 
ATOM     84  C   UNL A   1      50.562  26.791  24.331  1.00  0.00     0.022 A 
BRANCH  82  85
ATOM     85  S   UNL A   1      49.727  27.259  21.767  1.00  0.00     0.127 S 
ATOM     86  O   UNL A   1      49.456  28.664  21.479  1.00  0.00    -0.237 OA
ATOM     87  O   UNL A   1      51.132  26.865  21.650  1.00  0.00    -0.237 OA
ATOM     88  O   UNL A   1      48.788  26.303  21.196  1.00  0.00    -0.744 OA
ENDBRANCH  82  85
ENDBRANCH  54  78
BRANCH  66  89
ATOM     89  C   UNL A   1      45.323  32.689  28.921  1.00  0.00     0.023 A 
ATOM     90  C   UNL A   1      46.081  32.858  30.099  1.00  0.00     0.012 A 
ATOM     91  C   UNL A   1      45.112  33.797  28.076  1.00  0.00     0.148 A 
ATOM     92  C   UNL A   1      46.570  34.115  30.457  1.00  0.00     0.002 A 
ATOM     93  C   UNL A   1      45.650  35.034  28.410  1.00  0.00     0.091 A 
ATOM     94  F   UNL A   1      44.376  33.625  26.968  1.00  0.00    -0.205 F 
ATOM     95  C   UNL A   1      46.363  35.199  29.608  1.00  0.00     0.022 A 
BRANCH  93  96
ATOM     96  S   UNL A   1      45.518  36.463  27.331  1.00  0.00     0.127 S 
ATOM     97  O   UNL A   1      44.207  36.255  26.718  1.00  0.00    -0.237 OA
ATOM     98  O   UNL A   1      45.576  37.576  28.279  1.00  0.00    -0.237 OA
ATOM     99  O   UNL A   1      46.653  36.386  26.422  1.00  0.00    -0.744 OA
ENDBRANCH  93  96
ENDBRANCH  66  89
ENDBRANCH  40  41
ENDBRANCH  32  35
ENDBRANCH  30  31
ENDBRANCH  29  30
ENDBRANCH   1  29
TORSDOF 19
ENDMDL
