MODEL 1
REMARK VINA RESULT:     -11.9      0.000      0.000
REMARK SMILES O=C(CNC(=O)Nc1cccc2c1CCCC2)NCCCCCCNC(=O)c1ccc(-c2c3nc(c(-c4cccc(S(=O)(=O)[O-])c4F)c4ccc([nH]4)c(-c4cccc(S(=O)(=O)[O-])c4F)c4nc(c(-c5cccc(S(=O)(=O)[O-])c5F)c5ccc2[nH]5)C=C4)C=C3)cc1
REMARK SMILES IDX 22 1 21 2 20 3 19 4 18 5 1 6 2 7 3 9 4 10 5 11 6 13 7 14
REMARK SMILES IDX 8 16 9 17 13 18 10 19 12 20 14 21 11 22 17 23 15 24 16 25
REMARK SMILES IDX 23 26 24 27 25 28 26 29 27 31 28 32 29 33 90 34 30 35 89 36
REMARK SMILES IDX 31 37 32 38 33 39 83 40 34 41 88 42 82 43 84 44 35 45 87 46
REMARK SMILES IDX 81 47 80 48 36 50 68 51 48 52 67 53 49 54 52 55 66 56 85 57
REMARK SMILES IDX 50 58 51 59 65 61 86 62 53 63 37 64 38 65 46 66 39 67 41 68
REMARK SMILES IDX 47 69 40 70 42 71 43 72 44 73 45 74 69 75 70 76 78 77 71 78
REMARK SMILES IDX 73 79 79 80 72 81 74 82 75 83 76 84 77 85 54 86 55 87 63 88
REMARK SMILES IDX 56 89 58 90 64 91 57 92 59 93 60 94 61 95 62 96
REMARK H PARENT 18 8 4 12 7 15 25 30 84 49 52 60
REMARK Flexibility Score: inf
ROOT
ATOM      1  C   UNL A   1      33.519  28.186  24.289  1.00  0.00     0.002 C 
ENDROOT
BRANCH   1   2
ATOM      2  C   UNL A   1      33.648  27.890  22.792  1.00  0.00     0.002 C 
BRANCH   2   3
ATOM      3  C   UNL A   1      33.340  26.444  22.378  1.00  0.00     0.021 C 
BRANCH   3   4
ATOM      4  C   UNL A   1      31.924  26.221  21.839  1.00  0.00     0.116 C 
BRANCH   4   5
ATOM      5  N   UNL A   1      31.381  24.978  22.334  1.00  0.00    -0.355 N 
ATOM      6  O   UNL A   1      30.635  25.820  24.337  1.00  0.00    -0.273 OA
ATOM      7  C   UNL A   1      30.844  24.868  23.593  1.00  0.00     0.239 C 
ATOM      8  H   UNL A   1      31.397  24.185  21.751  1.00  0.00     0.163 HD
BRANCH   7   9
ATOM      9  C   UNL A   1      30.825  23.438  24.107  1.00  0.00     0.217 C 
BRANCH   9  10
ATOM     10  N   UNL A   1      30.280  23.222  25.443  1.00  0.00    -0.329 N 
ATOM     11  C   UNL A   1      30.827  23.156  26.670  1.00  0.00     0.319 C 
ATOM     12  H   UNL A   1      29.303  23.099  25.447  1.00  0.00     0.165 HD
ATOM     13  O   UNL A   1      30.063  22.955  27.619  1.00  0.00    -0.248 OA
ATOM     14  N   UNL A   1      32.155  23.196  26.926  1.00  0.00    -0.308 N 
ATOM     15  H   UNL A   1      32.387  23.020  27.866  1.00  0.00     0.171 HD
BRANCH  14  16
ATOM     16  C   UNL A   1      33.261  23.440  26.102  1.00  0.00     0.046 A 
ATOM     17  C   UNL A   1      33.678  24.774  26.020  1.00  0.00     0.026 A 
ATOM     18  C   UNL A   1      33.981  22.424  25.442  1.00  0.00    -0.021 A 
ATOM     19  C   UNL A   1      34.897  25.089  25.431  1.00  0.00     0.002 A 
ATOM     20  C   UNL A   1      35.260  22.740  24.937  1.00  0.00    -0.043 A 
ATOM     21  C   UNL A   1      33.404  21.034  25.272  1.00  0.00     0.038 C 
ATOM     22  C   UNL A   1      35.701  24.072  24.926  1.00  0.00     0.004 A 
ATOM     23  C   UNL A   1      36.193  21.661  24.447  1.00  0.00     0.036 C 
ATOM     24  C   UNL A   1      34.357  19.997  24.670  1.00  0.00     0.005 C 
ATOM     25  C   UNL A   1      35.812  20.291  25.001  1.00  0.00     0.005 C 
ENDBRANCH  14  16
ENDBRANCH   9  10
ENDBRANCH   7   9
ENDBRANCH   4   5
ENDBRANCH   3   4
ENDBRANCH   2   3
ENDBRANCH   1   2
BRANCH   1  26
ATOM     26  C   UNL A   1      32.641  29.387  24.639  1.00  0.00     0.021 C 
BRANCH  26  27
ATOM     27  C   UNL A   1      32.556  29.699  26.126  1.00  0.00     0.116 C 
BRANCH  27  28
ATOM     28  N   UNL A   1      32.249  31.098  26.376  1.00  0.00    -0.352 N 
ATOM     29  C   UNL A   1      32.919  31.994  27.176  1.00  0.00     0.251 C 
ATOM     30  H   UNL A   1      31.457  31.451  25.909  1.00  0.00     0.163 HD
ATOM     31  O   UNL A   1      32.429  33.088  27.425  1.00  0.00    -0.269 OA
BRANCH  29  32
ATOM     32  C   UNL A   1      34.227  31.610  27.751  1.00  0.00     0.039 A 
ATOM     33  C   UNL A   1      35.186  32.599  27.980  1.00  0.00     0.014 A 
ATOM     34  C   UNL A   1      34.491  30.280  28.090  1.00  0.00     0.014 A 
ATOM     35  C   UNL A   1      36.389  32.263  28.606  1.00  0.00     0.010 A 
ATOM     36  C   UNL A   1      35.654  29.962  28.781  1.00  0.00     0.010 A 
ATOM     37  C   UNL A   1      36.620  30.948  29.042  1.00  0.00    -0.014 A 
BRANCH  37  38
ATOM     38  C   UNL A   1      37.858  30.572  29.775  1.00  0.00     0.031 A 
ATOM     39  C   UNL A   1      38.832  29.605  29.155  1.00  0.00     0.074 A 
ATOM     40  C   UNL A   1      38.055  31.017  31.033  1.00  0.00     0.049 A 
ATOM     41  N   UNL A   1      39.912  29.079  29.672  1.00  0.00    -0.248 NA
ATOM     42  C   UNL A   1      38.542  29.146  27.785  1.00  0.00     0.031 C 
ATOM     43  C   UNL A   1      37.152  31.903  31.771  1.00  0.00     0.029 A 
ATOM     44  N   UNL A   1      39.062  30.754  31.930  1.00  0.00    -0.354 N 
ATOM     45  C   UNL A   1      40.396  28.191  28.718  1.00  0.00     0.074 A 
ATOM     46  C   UNL A   1      39.487  28.237  27.595  1.00  0.00     0.031 C 
ATOM     47  C   UNL A   1      37.643  32.107  33.005  1.00  0.00     0.029 A 
ATOM     48  C   UNL A   1      38.873  31.338  33.162  1.00  0.00     0.049 A 
ATOM     49  H   UNL A   1      39.846  30.200  31.710  1.00  0.00     0.167 HD
ATOM     50  C   UNL A   1      41.509  27.422  28.766  1.00  0.00     0.034 A 
ATOM     51  C   UNL A   1      39.598  31.248  34.296  1.00  0.00     0.034 A 
ATOM     52  C   UNL A   1      42.443  27.424  29.858  1.00  0.00     0.049 A 
ATOM     53  C   UNL A   1      40.852  30.413  34.298  1.00  0.00     0.074 A 
ATOM     54  C   UNL A   1      43.658  26.767  29.946  1.00  0.00     0.029 A 
ATOM     55  N   UNL A   1      42.265  28.103  31.051  1.00  0.00    -0.354 N 
ATOM     56  N   UNL A   1      41.385  29.720  33.322  1.00  0.00    -0.248 NA
ATOM     57  C   UNL A   1      41.624  30.374  35.549  1.00  0.00     0.031 C 
ATOM     58  C   UNL A   1      44.198  27.019  31.209  1.00  0.00     0.029 A 
ATOM     59  C   UNL A   1      43.339  27.866  31.890  1.00  0.00     0.049 A 
ATOM     60  H   UNL A   1      41.491  28.669  31.270  1.00  0.00     0.167 HD
ATOM     61  C   UNL A   1      42.575  29.205  33.825  1.00  0.00     0.074 A 
ATOM     62  C   UNL A   1      42.693  29.679  35.187  1.00  0.00     0.031 C 
ATOM     63  C   UNL A   1      43.481  28.402  33.218  1.00  0.00     0.034 A 
BRANCH  50  64
ATOM     64  C   UNL A   1      41.814  26.533  27.589  1.00  0.00     0.023 A 
ATOM     65  C   UNL A   1      42.520  27.051  26.486  1.00  0.00     0.012 A 
ATOM     66  C   UNL A   1      41.496  25.161  27.629  1.00  0.00     0.148 A 
ATOM     67  C   UNL A   1      42.889  26.219  25.428  1.00  0.00     0.002 A 
ATOM     68  C   UNL A   1      41.908  24.330  26.595  1.00  0.00     0.091 A 
ATOM     69  F   UNL A   1      40.808  24.695  28.681  1.00  0.00    -0.205 F 
ATOM     70  C   UNL A   1      42.596  24.859  25.490  1.00  0.00     0.022 A 
BRANCH  68  71
ATOM     71  S   UNL A   1      41.656  22.552  26.619  1.00  0.00     0.127 S 
ATOM     72  O   UNL A   1      42.376  22.170  27.835  1.00  0.00    -0.237 OA
ATOM     73  O   UNL A   1      40.200  22.451  26.716  1.00  0.00    -0.237 OA
ATOM     74  O   UNL A   1      42.224  22.045  25.378  1.00  0.00    -0.744 OA
ENDBRANCH  68  71
ENDBRANCH  50  64
BRANCH  51  75
ATOM     75  C   UNL A   1      39.192  32.000  35.518  1.00  0.00     0.023 A 
ATOM     76  C   UNL A   1      38.287  31.409  36.424  1.00  0.00     0.012 A 
ATOM     77  C   UNL A   1      39.671  33.296  35.779  1.00  0.00     0.148 A 
ATOM     78  C   UNL A   1      37.829  32.115  37.537  1.00  0.00     0.002 A 
ATOM     79  C   UNL A   1      39.255  33.973  36.921  1.00  0.00     0.091 A 
ATOM     80  F   UNL A   1      40.520  33.850  34.901  1.00  0.00    -0.205 F 
ATOM     81  C   UNL A   1      38.318  33.394  37.790  1.00  0.00     0.022 A 
BRANCH  79  82
ATOM     82  S   UNL A   1      39.934  35.569  37.389  1.00  0.00     0.127 S 
ATOM     83  O   UNL A   1      39.206  35.853  38.623  1.00  0.00    -0.237 OA
ATOM     84  O   UNL A   1      41.352  35.257  37.567  1.00  0.00    -0.237 OA
ATOM     85  O   UNL A   1      39.655  36.454  36.266  1.00  0.00    -0.744 OA
ENDBRANCH  79  82
ENDBRANCH  51  75
BRANCH  63  86
ATOM     86  C   UNL A   1      44.723  28.030  33.984  1.00  0.00     0.023 A 
ATOM     87  C   UNL A   1      45.850  28.874  33.956  1.00  0.00     0.012 A 
ATOM     88  C   UNL A   1      44.734  26.886  34.808  1.00  0.00     0.148 A 
ATOM     89  C   UNL A   1      46.980  28.571  34.716  1.00  0.00     0.002 A 
ATOM     90  C   UNL A   1      45.842  26.619  35.602  1.00  0.00     0.091 A 
ATOM     91  F   UNL A   1      43.656  26.088  34.806  1.00  0.00    -0.205 F 
ATOM     92  C   UNL A   1      46.971  27.453  35.546  1.00  0.00     0.022 A 
BRANCH  90  93
ATOM     93  S   UNL A   1      45.878  25.263  36.779  1.00  0.00     0.127 S 
ATOM     94  O   UNL A   1      46.004  24.105  35.896  1.00  0.00    -0.237 OA
ATOM     95  O   UNL A   1      47.077  25.566  37.562  1.00  0.00    -0.237 OA
ATOM     96  O   UNL A   1      44.631  25.343  37.527  1.00  0.00    -0.744 OA
ENDBRANCH  90  93
ENDBRANCH  63  86
ENDBRANCH  37  38
ENDBRANCH  29  32
ENDBRANCH  27  28
ENDBRANCH  26  27
ENDBRANCH   1  26
TORSDOF 18
ENDMDL
MODEL 2
REMARK VINA RESULT:     -11.7      2.276      3.205
REMARK SMILES O=C(CNC(=O)Nc1cccc2c1CCCC2)NCCCCCCNC(=O)c1ccc(-c2c3nc(c(-c4cccc(S(=O)(=O)[O-])c4F)c4ccc([nH]4)c(-c4cccc(S(=O)(=O)[O-])c4F)c4nc(c(-c5cccc(S(=O)(=O)[O-])c5F)c5ccc2[nH]5)C=C4)C=C3)cc1
REMARK SMILES IDX 22 1 21 2 20 3 19 4 18 5 1 6 2 7 3 9 4 10 5 11 6 13 7 14
REMARK SMILES IDX 8 16 9 17 13 18 10 19 12 20 14 21 11 22 17 23 15 24 16 25
REMARK SMILES IDX 23 26 24 27 25 28 26 29 27 31 28 32 29 33 90 34 30 35 89 36
REMARK SMILES IDX 31 37 32 38 33 39 83 40 34 41 88 42 82 43 84 44 35 45 87 46
REMARK SMILES IDX 81 47 80 48 36 50 68 51 48 52 67 53 49 54 52 55 66 56 85 57
REMARK SMILES IDX 50 58 51 59 65 61 86 62 53 63 37 64 38 65 46 66 39 67 41 68
REMARK SMILES IDX 47 69 40 70 42 71 43 72 44 73 45 74 69 75 70 76 78 77 71 78
REMARK SMILES IDX 73 79 79 80 72 81 74 82 75 83 76 84 77 85 54 86 55 87 63 88
REMARK SMILES IDX 56 89 58 90 64 91 57 92 59 93 60 94 61 95 62 96
REMARK H PARENT 18 8 4 12 7 15 25 30 84 49 52 60
REMARK Flexibility Score: inf
ROOT
ATOM      1  C   UNL A   1      31.982  30.421  26.216  1.00  0.00     0.002 C 
ENDROOT
BRANCH   1   2
ATOM      2  C   UNL A   1      32.742  29.530  27.204  1.00  0.00     0.002 C 
BRANCH   2   3
ATOM      3  C   UNL A   1      33.937  28.767  26.617  1.00  0.00     0.021 C 
BRANCH   3   4
ATOM      4  C   UNL A   1      33.639  28.012  25.318  1.00  0.00     0.116 C 
BRANCH   4   5
ATOM      5  N   UNL A   1      33.530  26.594  25.568  1.00  0.00    -0.355 N 
ATOM      6  O   UNL A   1      31.299  26.614  26.117  1.00  0.00    -0.273 OA
ATOM      7  C   UNL A   1      32.370  26.022  26.027  1.00  0.00     0.239 C 
ATOM      8  H   UNL A   1      34.312  26.020  25.404  1.00  0.00     0.163 HD
BRANCH   7   9
ATOM      9  C   UNL A   1      32.597  24.685  26.712  1.00  0.00     0.217 C 
BRANCH   9  10
ATOM     10  N   UNL A   1      31.419  23.994  27.225  1.00  0.00    -0.329 N 
ATOM     11  C   UNL A   1      30.487  23.204  26.662  1.00  0.00     0.319 C 
ATOM     12  H   UNL A   1      31.277  24.136  28.188  1.00  0.00     0.165 HD
ATOM     13  O   UNL A   1      29.596  22.770  27.399  1.00  0.00    -0.248 OA
ATOM     14  N   UNL A   1      30.400  22.935  25.339  1.00  0.00    -0.308 N 
ATOM     15  H   UNL A   1      29.592  22.433  25.085  1.00  0.00     0.171 HD
BRANCH  14  16
ATOM     16  C   UNL A   1      31.245  23.236  24.264  1.00  0.00     0.046 A 
ATOM     17  C   UNL A   1      30.802  24.249  23.405  1.00  0.00     0.026 A 
ATOM     18  C   UNL A   1      32.503  22.633  24.068  1.00  0.00    -0.021 A 
ATOM     19  C   UNL A   1      31.664  24.788  22.457  1.00  0.00     0.002 A 
ATOM     20  C   UNL A   1      33.403  23.252  23.174  1.00  0.00    -0.043 A 
ATOM     21  C   UNL A   1      32.885  21.357  24.789  1.00  0.00     0.038 C 
ATOM     22  C   UNL A   1      32.970  24.317  22.368  1.00  0.00     0.004 A 
ATOM     23  C   UNL A   1      34.846  22.822  23.096  1.00  0.00     0.036 C 
ATOM     24  C   UNL A   1      34.334  20.901  24.593  1.00  0.00     0.005 C 
ATOM     25  C   UNL A   1      35.278  22.069  24.352  1.00  0.00     0.005 C 
ENDBRANCH  14  16
ENDBRANCH   9  10
ENDBRANCH   7   9
ENDBRANCH   4   5
ENDBRANCH   3   4
ENDBRANCH   2   3
ENDBRANCH   1   2
BRANCH   1  26
ATOM     26  C   UNL A   1      31.651  31.822  26.729  1.00  0.00     0.021 C 
BRANCH  26  27
ATOM     27  C   UNL A   1      32.813  32.541  27.402  1.00  0.00     0.116 C 
BRANCH  27  28
ATOM     28  N   UNL A   1      32.524  33.947  27.635  1.00  0.00    -0.352 N 
ATOM     29  C   UNL A   1      33.089  34.798  28.557  1.00  0.00     0.251 C 
ATOM     30  H   UNL A   1      31.835  34.344  27.054  1.00  0.00     0.163 HD
ATOM     31  O   UNL A   1      32.608  35.907  28.751  1.00  0.00    -0.269 OA
BRANCH  29  32
ATOM     32  C   UNL A   1      34.269  34.346  29.327  1.00  0.00     0.039 A 
ATOM     33  C   UNL A   1      34.080  33.779  30.590  1.00  0.00     0.014 A 
ATOM     34  C   UNL A   1      35.553  34.458  28.789  1.00  0.00     0.014 A 
ATOM     35  C   UNL A   1      35.178  33.266  31.287  1.00  0.00     0.010 A 
ATOM     36  C   UNL A   1      36.631  33.879  29.450  1.00  0.00     0.010 A 
ATOM     37  C   UNL A   1      36.458  33.281  30.709  1.00  0.00    -0.014 A 
BRANCH  37  38
ATOM     38  C   UNL A   1      37.632  32.680  31.393  1.00  0.00     0.031 A 
ATOM     39  C   UNL A   1      38.370  31.535  30.751  1.00  0.00     0.074 A 
ATOM     40  C   UNL A   1      37.971  33.092  32.633  1.00  0.00     0.049 A 
ATOM     41  N   UNL A   1      39.350  30.814  31.229  1.00  0.00    -0.248 NA
ATOM     42  C   UNL A   1      37.932  31.126  29.404  1.00  0.00     0.031 C 
ATOM     43  C   UNL A   1      37.293  34.145  33.392  1.00  0.00     0.029 A 
ATOM     44  N   UNL A   1      38.949  32.648  33.489  1.00  0.00    -0.354 N 
ATOM     45  C   UNL A   1      39.607  29.839  30.273  1.00  0.00     0.074 A 
ATOM     46  C   UNL A   1      38.672  30.049  29.191  1.00  0.00     0.031 C 
ATOM     47  C   UNL A   1      37.872  34.262  34.599  1.00  0.00     0.029 A 
ATOM     48  C   UNL A   1      38.935  33.270  34.716  1.00  0.00     0.049 A 
ATOM     49  H   UNL A   1      39.599  31.949  33.246  1.00  0.00     0.167 HD
ATOM     50  C   UNL A   1      40.551  28.869  30.287  1.00  0.00     0.034 A 
ATOM     51  C   UNL A   1      39.682  33.054  35.819  1.00  0.00     0.034 A 
ATOM     52  C   UNL A   1      41.518  28.701  31.336  1.00  0.00     0.049 A 
ATOM     53  C   UNL A   1      40.748  31.991  35.782  1.00  0.00     0.074 A 
ATOM     54  C   UNL A   1      42.586  27.821  31.384  1.00  0.00     0.029 A 
ATOM     55  N   UNL A   1      41.532  29.414  32.522  1.00  0.00    -0.354 N 
ATOM     56  N   UNL A   1      41.091  31.196  34.797  1.00  0.00    -0.248 NA
ATOM     57  C   UNL A   1      41.556  31.815  36.999  1.00  0.00     0.031 C 
ATOM     58  C   UNL A   1      43.224  27.977  32.617  1.00  0.00     0.029 A 
ATOM     59  C   UNL A   1      42.578  28.982  33.318  1.00  0.00     0.049 A 
ATOM     60  H   UNL A   1      40.893  30.123  32.764  1.00  0.00     0.167 HD
ATOM     61  C   UNL A   1      42.180  30.465  35.258  1.00  0.00     0.074 A 
ATOM     62  C   UNL A   1      42.452  30.922  36.604  1.00  0.00     0.031 C 
ATOM     63  C   UNL A   1      42.884  29.494  34.627  1.00  0.00     0.034 A 
BRANCH  50  64
ATOM     64  C   UNL A   1      40.622  27.925  29.116  1.00  0.00     0.023 A 
ATOM     65  C   UNL A   1      39.688  26.877  29.003  1.00  0.00     0.012 A 
ATOM     66  C   UNL A   1      41.547  28.146  28.076  1.00  0.00     0.148 A 
ATOM     67  C   UNL A   1      39.684  26.050  27.880  1.00  0.00     0.002 A 
ATOM     68  C   UNL A   1      41.507  27.348  26.939  1.00  0.00     0.091 A 
ATOM     69  F   UNL A   1      42.439  29.138  28.215  1.00  0.00    -0.205 F 
ATOM     70  C   UNL A   1      40.582  26.294  26.844  1.00  0.00     0.022 A 
BRANCH  68  71
ATOM     71  S   UNL A   1      42.562  27.634  25.515  1.00  0.00     0.127 S 
ATOM     72  O   UNL A   1      42.341  26.415  24.736  1.00  0.00    -0.237 OA
ATOM     73  O   UNL A   1      41.973  28.842  24.936  1.00  0.00    -0.237 OA
ATOM     74  O   UNL A   1      43.911  27.799  26.036  1.00  0.00    -0.744 OA
ENDBRANCH  68  71
ENDBRANCH  50  64
BRANCH  51  75
ATOM     75  C   UNL A   1      39.487  33.883  37.043  1.00  0.00     0.023 A 
ATOM     76  C   UNL A   1      39.967  35.209  37.063  1.00  0.00     0.012 A 
ATOM     77  C   UNL A   1      38.856  33.367  38.190  1.00  0.00     0.148 A 
ATOM     78  C   UNL A   1      39.868  35.985  38.220  1.00  0.00     0.002 A 
ATOM     79  C   UNL A   1      38.709  34.165  39.319  1.00  0.00     0.091 A 
ATOM     80  F   UNL A   1      38.418  32.100  38.159  1.00  0.00    -0.205 F 
ATOM     81  C   UNL A   1      39.233  35.466  39.344  1.00  0.00     0.022 A 
BRANCH  79  82
ATOM     82  S   UNL A   1      37.791  33.620  40.764  1.00  0.00     0.127 S 
ATOM     83  O   UNL A   1      37.703  34.851  41.545  1.00  0.00    -0.237 OA
ATOM     84  O   UNL A   1      36.529  33.174  40.172  1.00  0.00    -0.237 OA
ATOM     85  O   UNL A   1      38.586  32.549  41.349  1.00  0.00    -0.744 OA
ENDBRANCH  79  82
ENDBRANCH  51  75
BRANCH  63  86
ATOM     86  C   UNL A   1      44.065  28.896  35.345  1.00  0.00     0.023 A 
ATOM     87  C   UNL A   1      45.338  29.484  35.222  1.00  0.00     0.012 A 
ATOM     88  C   UNL A   1      43.887  27.803  36.217  1.00  0.00     0.148 A 
ATOM     89  C   UNL A   1      46.424  28.976  35.936  1.00  0.00     0.002 A 
ATOM     90  C   UNL A   1      44.960  27.337  36.965  1.00  0.00     0.091 A 
ATOM     91  F   UNL A   1      42.669  27.249  36.306  1.00  0.00    -0.205 F 
ATOM     92  C   UNL A   1      46.232  27.913  36.815  1.00  0.00     0.022 A 
BRANCH  90  93
ATOM     93  S   UNL A   1      44.784  26.043  38.199  1.00  0.00     0.127 S 
ATOM     94  O   UNL A   1      46.151  25.927  38.706  1.00  0.00    -0.237 OA
ATOM     95  O   UNL A   1      43.834  26.639  39.138  1.00  0.00    -0.237 OA
ATOM     96  O   UNL A   1      44.283  24.874  37.490  1.00  0.00    -0.744 OA
ENDBRANCH  90  93
ENDBRANCH  63  86
ENDBRANCH  37  38
ENDBRANCH  29  32
ENDBRANCH  27  28
ENDBRANCH  26  27
ENDBRANCH   1  26
TORSDOF 18
ENDMDL
MODEL 3
REMARK VINA RESULT:     -11.6      1.910      2.641
REMARK SMILES O=C(CNC(=O)Nc1cccc2c1CCCC2)NCCCCCCNC(=O)c1ccc(-c2c3nc(c(-c4cccc(S(=O)(=O)[O-])c4F)c4ccc([nH]4)c(-c4cccc(S(=O)(=O)[O-])c4F)c4nc(c(-c5cccc(S(=O)(=O)[O-])c5F)c5ccc2[nH]5)C=C4)C=C3)cc1
REMARK SMILES IDX 22 1 21 2 20 3 19 4 18 5 1 6 2 7 3 9 4 10 5 11 6 13 7 14
REMARK SMILES IDX 8 16 9 17 13 18 10 19 12 20 14 21 11 22 17 23 15 24 16 25
REMARK SMILES IDX 23 26 24 27 25 28 26 29 27 31 28 32 29 33 90 34 30 35 89 36
REMARK SMILES IDX 31 37 32 38 33 39 83 40 34 41 88 42 82 43 84 44 35 45 87 46
REMARK SMILES IDX 81 47 80 48 36 50 68 51 48 52 67 53 49 54 52 55 66 56 85 57
REMARK SMILES IDX 50 58 51 59 65 61 86 62 53 63 37 64 38 65 46 66 39 67 41 68
REMARK SMILES IDX 47 69 40 70 42 71 43 72 44 73 45 74 69 75 70 76 78 77 71 78
REMARK SMILES IDX 73 79 79 80 72 81 74 82 75 83 76 84 77 85 54 86 55 87 63 88
REMARK SMILES IDX 56 89 58 90 64 91 57 92 59 93 60 94 61 95 62 96
REMARK H PARENT 18 8 4 12 7 15 25 30 84 49 52 60
REMARK Flexibility Score: inf
ROOT
ATOM      1  C   UNL A   1      31.830  27.734  23.402  1.00  0.00     0.002 C 
ENDROOT
BRANCH   1   2
ATOM      2  C   UNL A   1      32.002  26.242  23.096  1.00  0.00     0.002 C 
BRANCH   2   3
ATOM      3  C   UNL A   1      32.831  25.452  24.118  1.00  0.00     0.021 C 
BRANCH   3   4
ATOM      4  C   UNL A   1      34.235  25.069  23.642  1.00  0.00     0.116 C 
BRANCH   4   5
ATOM      5  N   UNL A   1      34.742  23.950  24.402  1.00  0.00    -0.355 N 
ATOM      6  O   UNL A   1      35.881  22.971  22.664  1.00  0.00    -0.273 OA
ATOM      7  C   UNL A   1      35.469  22.942  23.819  1.00  0.00     0.239 C 
ATOM      8  H   UNL A   1      34.560  23.910  25.369  1.00  0.00     0.163 HD
BRANCH   7   9
ATOM      9  C   UNL A   1      35.448  21.654  24.623  1.00  0.00     0.217 C 
BRANCH   9  10
ATOM     10  N   UNL A   1      35.137  21.764  26.044  1.00  0.00    -0.329 N 
ATOM     11  C   UNL A   1      34.059  21.453  26.786  1.00  0.00     0.319 C 
ATOM     12  H   UNL A   1      35.874  22.147  26.573  1.00  0.00     0.165 HD
ATOM     13  O   UNL A   1      34.123  21.681  27.998  1.00  0.00    -0.248 OA
ATOM     14  N   UNL A   1      32.883  21.006  26.289  1.00  0.00    -0.308 N 
ATOM     15  H   UNL A   1      32.165  20.938  26.959  1.00  0.00     0.171 HD
BRANCH  14  16
ATOM     16  C   UNL A   1      32.496  20.623  24.999  1.00  0.00     0.046 A 
ATOM     17  C   UNL A   1      32.088  21.659  24.150  1.00  0.00     0.026 A 
ATOM     18  C   UNL A   1      32.570  19.298  24.524  1.00  0.00    -0.021 A 
ATOM     19  C   UNL A   1      31.917  21.423  22.791  1.00  0.00     0.002 A 
ATOM     20  C   UNL A   1      32.492  19.088  23.131  1.00  0.00    -0.043 A 
ATOM     21  C   UNL A   1      32.724  18.128  25.475  1.00  0.00     0.038 C 
ATOM     22  C   UNL A   1      32.154  20.151  22.279  1.00  0.00     0.004 A 
ATOM     23  C   UNL A   1      32.812  17.745  22.525  1.00  0.00     0.036 C 
ATOM     24  C   UNL A   1      32.940  16.766  24.810  1.00  0.00     0.005 C 
ATOM     25  C   UNL A   1      33.649  16.885  23.470  1.00  0.00     0.005 C 
ENDBRANCH  14  16
ENDBRANCH   9  10
ENDBRANCH   7   9
ENDBRANCH   4   5
ENDBRANCH   3   4
ENDBRANCH   2   3
ENDBRANCH   1   2
BRANCH   1  26
ATOM     26  C   UNL A   1      32.088  28.131  24.855  1.00  0.00     0.021 C 
BRANCH  26  27
ATOM     27  C   UNL A   1      33.024  29.319  25.031  1.00  0.00     0.116 C 
BRANCH  27  28
ATOM     28  N   UNL A   1      32.358  30.453  25.650  1.00  0.00    -0.352 N 
ATOM     29  C   UNL A   1      32.727  31.158  26.772  1.00  0.00     0.251 C 
ATOM     30  H   UNL A   1      31.533  30.759  25.207  1.00  0.00     0.163 HD
ATOM     31  O   UNL A   1      31.962  31.973  27.272  1.00  0.00    -0.269 OA
BRANCH  29  32
ATOM     32  C   UNL A   1      34.052  30.903  27.381  1.00  0.00     0.039 A 
ATOM     33  C   UNL A   1      34.904  31.981  27.633  1.00  0.00     0.014 A 
ATOM     34  C   UNL A   1      34.436  29.605  27.726  1.00  0.00     0.014 A 
ATOM     35  C   UNL A   1      36.117  31.762  28.290  1.00  0.00     0.010 A 
ATOM     36  C   UNL A   1      35.607  29.400  28.448  1.00  0.00     0.010 A 
ATOM     37  C   UNL A   1      36.465  30.475  28.733  1.00  0.00    -0.014 A 
BRANCH  37  38
ATOM     38  C   UNL A   1      37.714  30.221  29.497  1.00  0.00     0.031 A 
ATOM     39  C   UNL A   1      38.757  29.287  28.941  1.00  0.00     0.074 A 
ATOM     40  C   UNL A   1      37.864  30.743  30.732  1.00  0.00     0.049 A 
ATOM     41  N   UNL A   1      39.861  28.861  29.496  1.00  0.00    -0.248 NA
ATOM     42  C   UNL A   1      38.515  28.738  27.595  1.00  0.00     0.031 C 
ATOM     43  C   UNL A   1      36.896  31.607  31.412  1.00  0.00     0.029 A 
ATOM     44  N   UNL A   1      38.875  30.595  31.651  1.00  0.00    -0.354 N 
ATOM     45  C   UNL A   1      40.415  27.957  28.597  1.00  0.00     0.074 A 
ATOM     46  C   UNL A   1      39.520  27.884  27.464  1.00  0.00     0.031 C 
ATOM     47  C   UNL A   1      37.356  31.908  32.637  1.00  0.00     0.029 A 
ATOM     48  C   UNL A   1      38.631  31.230  32.848  1.00  0.00     0.049 A 
ATOM     49  H   UNL A   1      39.695  30.082  31.470  1.00  0.00     0.167 HD
ATOM     50  C   UNL A   1      41.574  27.266  28.697  1.00  0.00     0.034 A 
ATOM     51  C   UNL A   1      39.345  31.249  33.992  1.00  0.00     0.034 A 
ATOM     52  C   UNL A   1      42.491  27.388  29.797  1.00  0.00     0.049 A 
ATOM     53  C   UNL A   1      40.650  30.499  34.053  1.00  0.00     0.074 A 
ATOM     54  C   UNL A   1      43.745  26.817  29.932  1.00  0.00     0.029 A 
ATOM     55  N   UNL A   1      42.254  28.116  30.949  1.00  0.00    -0.354 N 
ATOM     56  N   UNL A   1      41.240  29.791  33.121  1.00  0.00    -0.248 NA
ATOM     57  C   UNL A   1      41.406  30.576  35.312  1.00  0.00     0.031 C 
ATOM     58  C   UNL A   1      44.251  27.171  31.186  1.00  0.00     0.029 A 
ATOM     59  C   UNL A   1      43.330  27.994  31.811  1.00  0.00     0.049 A 
ATOM     60  H   UNL A   1      41.441  28.641  31.130  1.00  0.00     0.167 HD
ATOM     61  C   UNL A   1      42.453  29.382  33.663  1.00  0.00     0.074 A 
ATOM     62  C   UNL A   1      42.523  29.934  34.999  1.00  0.00     0.031 C 
ATOM     63  C   UNL A   1      43.419  28.609  33.110  1.00  0.00     0.034 A 
BRANCH  50  64
ATOM     64  C   UNL A   1      41.952  26.338  27.574  1.00  0.00     0.023 A 
ATOM     65  C   UNL A   1      42.797  26.794  26.543  1.00  0.00     0.012 A 
ATOM     66  C   UNL A   1      41.558  24.985  27.600  1.00  0.00     0.148 A 
ATOM     67  C   UNL A   1      43.229  25.922  25.544  1.00  0.00     0.002 A 
ATOM     68  C   UNL A   1      42.030  24.112  26.629  1.00  0.00     0.091 A 
ATOM     69  F   UNL A   1      40.738  24.579  28.581  1.00  0.00    -0.205 F 
ATOM     70  C   UNL A   1      42.858  24.581  25.595  1.00  0.00     0.022 A 
BRANCH  68  71
ATOM     71  S   UNL A   1      41.680  22.351  26.654  1.00  0.00     0.127 S 
ATOM     72  O   UNL A   1      42.308  21.909  25.408  1.00  0.00    -0.237 OA
ATOM     73  O   UNL A   1      42.369  21.920  27.870  1.00  0.00    -0.237 OA
ATOM     74  O   UNL A   1      40.230  22.226  26.695  1.00  0.00    -0.744 OA
ENDBRANCH  68  71
ENDBRANCH  50  64
BRANCH  51  75
ATOM     75  C   UNL A   1      38.874  32.036  35.169  1.00  0.00     0.023 A 
ATOM     76  C   UNL A   1      39.028  33.438  35.169  1.00  0.00     0.012 A 
ATOM     77  C   UNL A   1      38.301  31.411  36.291  1.00  0.00     0.148 A 
ATOM     78  C   UNL A   1      38.668  34.194  36.285  1.00  0.00     0.002 A 
ATOM     79  C   UNL A   1      37.891  32.177  37.377  1.00  0.00     0.091 A 
ATOM     80  F   UNL A   1      38.175  30.076  36.282  1.00  0.00    -0.205 F 
ATOM     81  C   UNL A   1      38.093  33.566  37.386  1.00  0.00     0.022 A 
BRANCH  79  82
ATOM     82  S   UNL A   1      37.025  31.463  38.780  1.00  0.00     0.127 S 
ATOM     83  O   UNL A   1      37.995  31.646  39.855  1.00  0.00    -0.237 OA
ATOM     84  O   UNL A   1      35.837  32.314  38.870  1.00  0.00    -0.237 OA
ATOM     85  O   UNL A   1      36.743  30.085  38.403  1.00  0.00    -0.744 OA
ENDBRANCH  79  82
ENDBRANCH  51  75
BRANCH  63  86
ATOM     86  C   UNL A   1      44.671  28.360  33.908  1.00  0.00     0.023 A 
ATOM     87  C   UNL A   1      45.743  29.271  33.843  1.00  0.00     0.012 A 
ATOM     88  C   UNL A   1      44.744  27.267  34.794  1.00  0.00     0.148 A 
ATOM     89  C   UNL A   1      46.880  29.083  34.629  1.00  0.00     0.002 A 
ATOM     90  C   UNL A   1      45.856  27.116  35.612  1.00  0.00     0.091 A 
ATOM     91  F   UNL A   1      43.719  26.402  34.826  1.00  0.00    -0.205 F 
ATOM     92  C   UNL A   1      46.930  28.015  35.521  1.00  0.00     0.022 A 
BRANCH  90  93
ATOM     93  S   UNL A   1      45.962  25.832  36.865  1.00  0.00     0.127 S 
ATOM     94  O   UNL A   1      47.274  26.097  37.452  1.00  0.00    -0.237 OA
ATOM     95  O   UNL A   1      44.829  26.154  37.733  1.00  0.00    -0.237 OA
ATOM     96  O   UNL A   1      45.842  24.566  36.157  1.00  0.00    -0.744 OA
ENDBRANCH  90  93
ENDBRANCH  63  86
ENDBRANCH  37  38
ENDBRANCH  29  32
ENDBRANCH  27  28
ENDBRANCH  26  27
ENDBRANCH   1  26
TORSDOF 18
ENDMDL
