MODEL 1
REMARK VINA RESULT:     -10.9      0.000      0.000
REMARK SMILES O=C(NCCCCCCNC(=O)[C@@H]1CCC(=O)N(CCCOC2CCCCC2)[C@H]1c1ccco1)c1ccc(-c2c3nc(c(-c4cccc(S(=O)(=O)[O-])c4F)c4ccc([nH]4)c(-c4cccc(S(=O)(=O)[O-])c4F)c4nc(c(-c5cccc(S(=O)(=O)[O-])c5F)c5ccc2[nH]5)C=C4)C=C3)cc1
REMARK SMILES IDX 7 1 6 2 5 3 4 4 3 5 1 6 2 7 35 9 36 10 97 11 37 12 96 13
REMARK SMILES IDX 38 14 39 15 40 16 90 17 41 18 95 19 89 20 91 21 42 22 94 23
REMARK SMILES IDX 88 24 87 25 43 27 75 28 55 29 74 30 56 31 59 32 73 33 92 34
REMARK SMILES IDX 57 35 58 36 72 38 93 39 60 40 44 41 45 42 53 43 46 44 48 45
REMARK SMILES IDX 54 46 47 47 49 48 50 49 51 50 52 51 76 52 77 53 85 54 78 55
REMARK SMILES IDX 80 56 86 57 79 58 81 59 82 60 83 61 84 62 61 63 62 64 70 65
REMARK SMILES IDX 63 66 65 67 71 68 64 69 66 70 67 71 68 72 69 73 8 74 9 75
REMARK SMILES IDX 10 76 11 77 12 79 13 80 14 81 29 82 15 83 18 84 16 85 17 86
REMARK SMILES IDX 30 87 31 88 34 89 32 90 33 91 19 92 20 93 21 94 22 95 23 96
REMARK SMILES IDX 24 97 28 98 25 99 27 100 26 101
REMARK H PARENT 3 8 91 26 59 37 10 78
REMARK Flexibility Score: inf
ROOT
ATOM      1  C   UNL A   1      34.448  31.709  28.527  1.00  0.00     0.002 C 
ENDROOT
BRANCH   1   2
ATOM      2  C   UNL A   1      34.606  33.149  28.022  1.00  0.00     0.002 C 
BRANCH   2   3
ATOM      3  C   UNL A   1      33.362  34.030  28.155  1.00  0.00     0.021 C 
BRANCH   3   4
ATOM      4  C   UNL A   1      33.615  35.417  28.737  1.00  0.00     0.116 C 
BRANCH   4   5
ATOM      5  N   UNL A   1      32.779  35.693  29.893  1.00  0.00    -0.352 N 
ATOM      6  O   UNL A   1      32.006  35.444  31.993  1.00  0.00    -0.269 OA
ATOM      7  C   UNL A   1      32.925  35.272  31.191  1.00  0.00     0.251 C 
ATOM      8  H   UNL A   1      31.994  36.263  29.720  1.00  0.00     0.163 HD
BRANCH   7   9
ATOM      9  C   UNL A   1      34.169  34.595  31.617  1.00  0.00     0.039 A 
ATOM     10  C   UNL A   1      34.125  33.502  32.490  1.00  0.00     0.014 A 
ATOM     11  C   UNL A   1      35.392  35.050  31.123  1.00  0.00     0.014 A 
ATOM     12  C   UNL A   1      35.310  32.945  32.966  1.00  0.00     0.010 A 
ATOM     13  C   UNL A   1      36.577  34.441  31.545  1.00  0.00     0.010 A 
ATOM     14  C   UNL A   1      36.548  33.403  32.491  1.00  0.00    -0.014 A 
BRANCH  14  15
ATOM     15  C   UNL A   1      37.810  32.761  32.935  1.00  0.00     0.031 A 
ATOM     16  C   UNL A   1      38.409  31.624  32.158  1.00  0.00     0.074 A 
ATOM     17  C   UNL A   1      38.379  33.165  34.087  1.00  0.00     0.049 A 
ATOM     18  N   UNL A   1      39.443  30.879  32.451  1.00  0.00    -0.248 NA
ATOM     19  C   UNL A   1      37.754  31.269  30.890  1.00  0.00     0.031 C 
ATOM     20  C   UNL A   1      37.871  34.238  34.944  1.00  0.00     0.029 A 
ATOM     21  N   UNL A   1      39.480  32.695  34.757  1.00  0.00    -0.354 N 
ATOM     22  C   UNL A   1      39.535  29.936  31.435  1.00  0.00     0.074 A 
ATOM     23  C   UNL A   1      38.448  30.203  30.517  1.00  0.00     0.031 C 
ATOM     24  C   UNL A   1      38.645  34.332  36.034  1.00  0.00     0.029 A 
ATOM     25  C   UNL A   1      39.665  33.291  35.983  1.00  0.00     0.049 A 
ATOM     26  H   UNL A   1      40.080  32.003  34.396  1.00  0.00     0.167 HD
ATOM     27  C   UNL A   1      40.442  28.940  31.282  1.00  0.00     0.034 A 
ATOM     28  C   UNL A   1      40.525  33.004  36.979  1.00  0.00     0.034 A 
ATOM     29  C   UNL A   1      41.523  28.690  32.198  1.00  0.00     0.049 A 
ATOM     30  C   UNL A   1      41.516  31.893  36.793  1.00  0.00     0.074 A 
ATOM     31  C   UNL A   1      42.537  27.755  32.095  1.00  0.00     0.029 A 
ATOM     32  N   UNL A   1      41.716  29.357  33.399  1.00  0.00    -0.354 N 
ATOM     33  N   UNL A   1      41.666  31.089  35.770  1.00  0.00    -0.248 NA
ATOM     34  C   UNL A   1      42.476  31.666  37.883  1.00  0.00     0.031 C 
ATOM     35  C   UNL A   1      43.316  27.827  33.255  1.00  0.00     0.029 A 
ATOM     36  C   UNL A   1      42.820  28.842  34.056  1.00  0.00     0.049 A 
ATOM     37  H   UNL A   1      41.150  30.090  33.734  1.00  0.00     0.167 HD
ATOM     38  C   UNL A   1      42.761  30.288  36.071  1.00  0.00     0.074 A 
ATOM     39  C   UNL A   1      43.236  30.705  37.374  1.00  0.00     0.031 C 
ATOM     40  C   UNL A   1      43.317  29.298  35.331  1.00  0.00     0.034 A 
BRANCH  27  41
ATOM     41  C   UNL A   1      40.301  28.045  30.076  1.00  0.00     0.023 A 
ATOM     42  C   UNL A   1      39.360  26.995  30.082  1.00  0.00     0.012 A 
ATOM     43  C   UNL A   1      41.080  28.264  28.923  1.00  0.00     0.148 A 
ATOM     44  C   UNL A   1      39.234  26.146  28.981  1.00  0.00     0.002 A 
ATOM     45  C   UNL A   1      40.915  27.445  27.812  1.00  0.00     0.091 A 
ATOM     46  F   UNL A   1      41.984  29.255  28.938  1.00  0.00    -0.205 F 
ATOM     47  C   UNL A   1      40.005  26.376  27.846  1.00  0.00     0.022 A 
BRANCH  45  48
ATOM     48  S   UNL A   1      41.802  27.715  26.274  1.00  0.00     0.127 S 
ATOM     49  O   UNL A   1      41.275  26.638  25.438  1.00  0.00    -0.237 OA
ATOM     50  O   UNL A   1      41.358  29.056  25.892  1.00  0.00    -0.237 OA
ATOM     51  O   UNL A   1      43.217  27.620  26.607  1.00  0.00    -0.744 OA
ENDBRANCH  45  48
ENDBRANCH  27  41
BRANCH  28  52
ATOM     52  C   UNL A   1      40.477  33.810  38.230  1.00  0.00     0.023 A 
ATOM     53  C   UNL A   1      41.324  34.925  38.372  1.00  0.00     0.012 A 
ATOM     54  C   UNL A   1      39.533  33.526  39.236  1.00  0.00     0.148 A 
ATOM     55  C   UNL A   1      41.240  35.736  39.504  1.00  0.00     0.002 A 
ATOM     56  C   UNL A   1      39.416  34.371  40.332  1.00  0.00     0.091 A 
ATOM     57  F   UNL A   1      38.738  32.458  39.076  1.00  0.00    -0.205 F 
ATOM     58  C   UNL A   1      40.279  35.467  40.476  1.00  0.00     0.022 A 
BRANCH  56  59
ATOM     59  S   UNL A   1      38.119  34.188  41.561  1.00  0.00     0.127 S 
ATOM     60  O   UNL A   1      37.056  33.558  40.782  1.00  0.00    -0.237 OA
ATOM     61  O   UNL A   1      38.763  33.317  42.545  1.00  0.00    -0.237 OA
ATOM     62  O   UNL A   1      37.831  35.534  42.039  1.00  0.00    -0.744 OA
ENDBRANCH  56  59
ENDBRANCH  28  52
BRANCH  40  63
ATOM     63  C   UNL A   1      44.551  28.623  35.866  1.00  0.00     0.023 A 
ATOM     64  C   UNL A   1      45.831  29.082  35.500  1.00  0.00     0.012 A 
ATOM     65  C   UNL A   1      44.430  27.602  36.831  1.00  0.00     0.148 A 
ATOM     66  C   UNL A   1      46.972  28.524  36.077  1.00  0.00     0.002 A 
ATOM     67  C   UNL A   1      45.568  27.089  37.439  1.00  0.00     0.091 A 
ATOM     68  F   UNL A   1      43.201  27.167  37.147  1.00  0.00    -0.205 F 
ATOM     69  C   UNL A   1      46.840  27.541  37.057  1.00  0.00     0.022 A 
BRANCH  67  70
ATOM     70  S   UNL A   1      45.490  25.899  38.782  1.00  0.00     0.127 S 
ATOM     71  O   UNL A   1      46.885  25.848  39.217  1.00  0.00    -0.237 OA
ATOM     72  O   UNL A   1      44.580  26.556  39.722  1.00  0.00    -0.237 OA
ATOM     73  O   UNL A   1      44.976  24.665  38.202  1.00  0.00    -0.744 OA
ENDBRANCH  67  70
ENDBRANCH  40  63
ENDBRANCH  14  15
ENDBRANCH   7   9
ENDBRANCH   4   5
ENDBRANCH   3   4
ENDBRANCH   2   3
ENDBRANCH   1   2
BRANCH   1  74
ATOM     74  C   UNL A   1      35.406  30.674  27.912  1.00  0.00     0.021 C 
BRANCH  74  75
ATOM     75  C   UNL A   1      34.807  29.279  27.709  1.00  0.00     0.116 C 
BRANCH  75  76
ATOM     76  N   UNL A   1      33.399  29.360  27.372  1.00  0.00    -0.356 N 
ATOM     77  C   UNL A   1      32.565  28.489  26.744  1.00  0.00     0.225 C 
ATOM     78  H   UNL A   1      32.967  30.200  27.649  1.00  0.00     0.163 HD
ATOM     79  O   UNL A   1      31.453  28.923  26.439  1.00  0.00    -0.275 OA
BRANCH  77  80
ATOM     80  C   UNL A   1      32.977  27.035  26.493  1.00  0.00     0.109 C 
ATOM     81  C   UNL A   1      34.192  26.930  25.581  1.00  0.00     0.026 C 
ATOM     82  C   UNL A   1      31.798  26.255  25.881  1.00  0.00     0.164 C 
ATOM     83  C   UNL A   1      33.905  27.390  24.167  1.00  0.00     0.101 C 
ATOM     84  N   UNL A   1      31.589  26.447  24.430  1.00  0.00    -0.332 N 
ATOM     85  C   UNL A   1      32.545  27.037  23.606  1.00  0.00     0.223 C 
ATOM     86  O   UNL A   1      32.315  27.298  22.419  1.00  0.00    -0.275 OA
BRANCH  82  87
ATOM     87  C   UNL A   1      31.856  24.787  26.208  1.00  0.00     0.127 A 
ATOM     88  C   UNL A   1      32.888  23.866  26.181  1.00  0.00     0.048 A 
ATOM     89  O   UNL A   1      30.747  24.207  26.756  1.00  0.00    -0.467 OA
ATOM     90  C   UNL A   1      32.403  22.697  26.814  1.00  0.00     0.042 A 
ATOM     91  C   UNL A   1      31.098  22.959  27.156  1.00  0.00     0.195 A 
ENDBRANCH  82  87
BRANCH  84  92
ATOM     92  C   UNL A   1      30.321  26.092  23.748  1.00  0.00     0.122 C 
BRANCH  92  93
ATOM     93  C   UNL A   1      29.044  26.955  23.740  1.00  0.00     0.050 C 
BRANCH  93  94
ATOM     94  C   UNL A   1      28.999  28.406  23.246  1.00  0.00     0.162 C 
BRANCH  94  95
ATOM     95  O   UNL A   1      27.842  28.742  22.479  1.00  0.00    -0.378 OA
BRANCH  95  96
ATOM     96  C   UNL A   1      27.532  30.141  22.392  1.00  0.00     0.118 C 
ATOM     97  C   UNL A   1      28.241  30.874  23.519  1.00  0.00     0.032 C 
ATOM     98  C   UNL A   1      28.014  30.650  21.027  1.00  0.00     0.032 C 
ATOM     99  C   UNL A   1      28.238  32.378  23.409  1.00  0.00     0.003 C 
ATOM    100  C   UNL A   1      28.084  32.177  20.937  1.00  0.00     0.003 C 
ATOM    101  C   UNL A   1      28.865  32.789  22.096  1.00  0.00     0.000 C 
ENDBRANCH  95  96
ENDBRANCH  94  95
ENDBRANCH  93  94
ENDBRANCH  92  93
ENDBRANCH  84  92
ENDBRANCH  77  80
ENDBRANCH  75  76
ENDBRANCH  74  75
ENDBRANCH   1  74
TORSDOF 22
ENDMDL
MODEL 2
REMARK VINA RESULT:     -10.9      0.577      7.455
REMARK SMILES O=C(NCCCCCCNC(=O)[C@@H]1CCC(=O)N(CCCOC2CCCCC2)[C@H]1c1ccco1)c1ccc(-c2c3nc(c(-c4cccc(S(=O)(=O)[O-])c4F)c4ccc([nH]4)c(-c4cccc(S(=O)(=O)[O-])c4F)c4nc(c(-c5cccc(S(=O)(=O)[O-])c5F)c5ccc2[nH]5)C=C4)C=C3)cc1
REMARK SMILES IDX 7 1 6 2 5 3 4 4 3 5 1 6 2 7 35 9 36 10 97 11 37 12 96 13
REMARK SMILES IDX 38 14 39 15 40 16 90 17 41 18 95 19 89 20 91 21 42 22 94 23
REMARK SMILES IDX 88 24 87 25 43 27 75 28 55 29 74 30 56 31 59 32 73 33 92 34
REMARK SMILES IDX 57 35 58 36 72 38 93 39 60 40 44 41 45 42 53 43 46 44 48 45
REMARK SMILES IDX 54 46 47 47 49 48 50 49 51 50 52 51 76 52 77 53 85 54 78 55
REMARK SMILES IDX 80 56 86 57 79 58 81 59 82 60 83 61 84 62 61 63 62 64 70 65
REMARK SMILES IDX 63 66 65 67 71 68 64 69 66 70 67 71 68 72 69 73 8 74 9 75
REMARK SMILES IDX 10 76 11 77 12 79 13 80 14 81 29 82 15 83 18 84 16 85 17 86
REMARK SMILES IDX 30 87 31 88 34 89 32 90 33 91 19 92 20 93 21 94 22 95 23 96
REMARK SMILES IDX 24 97 28 98 25 99 27 100 26 101
REMARK H PARENT 3 8 91 26 59 37 10 78
REMARK Flexibility Score: inf
ROOT
ATOM      1  C   UNL A   1      34.491  31.324  28.348  1.00  0.00     0.002 C 
ENDROOT
BRANCH   1   2
ATOM      2  C   UNL A   1      34.809  32.815  28.184  1.00  0.00     0.002 C 
BRANCH   2   3
ATOM      3  C   UNL A   1      33.592  33.733  28.052  1.00  0.00     0.021 C 
BRANCH   3   4
ATOM      4  C   UNL A   1      33.857  35.202  28.369  1.00  0.00     0.116 C 
BRANCH   4   5
ATOM      5  N   UNL A   1      33.041  35.686  29.470  1.00  0.00    -0.352 N 
ATOM      6  O   UNL A   1      32.188  35.719  31.554  1.00  0.00    -0.269 OA
ATOM      7  C   UNL A   1      33.092  35.354  30.801  1.00  0.00     0.251 C 
ATOM      8  H   UNL A   1      32.351  36.346  29.226  1.00  0.00     0.163 HD
BRANCH   7   9
ATOM      9  C   UNL A   1      34.214  34.544  31.322  1.00  0.00     0.039 A 
ATOM     10  C   UNL A   1      33.973  33.368  32.041  1.00  0.00     0.014 A 
ATOM     11  C   UNL A   1      35.523  34.958  31.073  1.00  0.00     0.014 A 
ATOM     12  C   UNL A   1      35.036  32.675  32.616  1.00  0.00     0.010 A 
ATOM     13  C   UNL A   1      36.591  34.221  31.589  1.00  0.00     0.010 A 
ATOM     14  C   UNL A   1      36.357  33.089  32.388  1.00  0.00    -0.014 A 
BRANCH  14  15
ATOM     15  C   UNL A   1      37.495  32.310  32.935  1.00  0.00     0.031 A 
ATOM     16  C   UNL A   1      38.180  32.735  34.202  1.00  0.00     0.074 A 
ATOM     17  C   UNL A   1      37.957  31.252  32.241  1.00  0.00     0.049 A 
ATOM     18  N   UNL A   1      39.249  32.239  34.768  1.00  0.00    -0.248 NA
ATOM     19  C   UNL A   1      37.592  33.874  34.924  1.00  0.00     0.031 C 
ATOM     20  C   UNL A   1      37.394  30.764  30.981  1.00  0.00     0.029 A 
ATOM     21  N   UNL A   1      39.026  30.424  32.473  1.00  0.00    -0.354 N 
ATOM     22  C   UNL A   1      39.495  33.033  35.882  1.00  0.00     0.074 A 
ATOM     23  C   UNL A   1      38.461  34.047  35.910  1.00  0.00     0.031 C 
ATOM     24  C   UNL A   1      38.132  29.736  30.540  1.00  0.00     0.029 A 
ATOM     25  C   UNL A   1      39.252  29.531  31.452  1.00  0.00     0.049 A 
ATOM     26  H   UNL A   1      39.575  30.463  33.289  1.00  0.00     0.167 HD
ATOM     27  C   UNL A   1      40.490  32.927  36.797  1.00  0.00     0.034 A 
ATOM     28  C   UNL A   1      40.271  28.675  31.241  1.00  0.00     0.034 A 
ATOM     29  C   UNL A   1      41.508  31.910  36.762  1.00  0.00     0.049 A 
ATOM     30  C   UNL A   1      41.367  28.577  32.262  1.00  0.00     0.074 A 
ATOM     31  C   UNL A   1      42.515  31.670  37.680  1.00  0.00     0.029 A 
ATOM     32  N   UNL A   1      41.666  30.981  35.744  1.00  0.00    -0.354 N 
ATOM     33  N   UNL A   1      41.516  29.254  33.373  1.00  0.00    -0.248 NA
ATOM     34  C   UNL A   1      42.419  27.579  32.018  1.00  0.00     0.031 C 
ATOM     35  C   UNL A   1      43.309  30.627  37.194  1.00  0.00     0.029 A 
ATOM     36  C   UNL A   1      42.765  30.180  36.000  1.00  0.00     0.049 A 
ATOM     37  H   UNL A   1      41.082  30.903  34.956  1.00  0.00     0.167 HD
ATOM     38  C   UNL A   1      42.654  28.739  33.984  1.00  0.00     0.074 A 
ATOM     39  C   UNL A   1      43.154  27.692  33.117  1.00  0.00     0.031 C 
ATOM     40  C   UNL A   1      43.226  29.105  35.156  1.00  0.00     0.034 A 
BRANCH  27  41
ATOM     41  C   UNL A   1      40.525  33.940  37.913  1.00  0.00     0.023 A 
ATOM     42  C   UNL A   1      41.351  35.077  37.810  1.00  0.00     0.012 A 
ATOM     43  C   UNL A   1      39.713  33.781  39.054  1.00  0.00     0.148 A 
ATOM     44  C   UNL A   1      41.410  36.011  38.845  1.00  0.00     0.002 A 
ATOM     45  C   UNL A   1      39.740  34.741  40.059  1.00  0.00     0.091 A 
ATOM     46  F   UNL A   1      38.946  32.685  39.148  1.00  0.00    -0.205 F 
ATOM     47  C   UNL A   1      40.599  35.847  39.964  1.00  0.00     0.022 A 
BRANCH  45  48
ATOM     48  S   UNL A   1      38.670  34.659  41.500  1.00  0.00     0.127 S 
ATOM     49  O   UNL A   1      38.392  36.074  41.739  1.00  0.00    -0.237 OA
ATOM     50  O   UNL A   1      37.531  33.891  40.995  1.00  0.00    -0.237 OA
ATOM     51  O   UNL A   1      39.443  33.984  42.533  1.00  0.00    -0.744 OA
ENDBRANCH  45  48
ENDBRANCH  27  41
BRANCH  28  52
ATOM     52  C   UNL A   1      40.270  27.839  30.010  1.00  0.00     0.023 A 
ATOM     53  C   UNL A   1      39.342  26.789  29.882  1.00  0.00     0.012 A 
ATOM     54  C   UNL A   1      41.127  28.139  28.933  1.00  0.00     0.148 A 
ATOM     55  C   UNL A   1      39.276  26.043  28.705  1.00  0.00     0.002 A 
ATOM     56  C   UNL A   1      41.016  27.430  27.744  1.00  0.00     0.091 A 
ATOM     57  F   UNL A   1      42.001  29.144  29.081  1.00  0.00    -0.205 F 
ATOM     58  C   UNL A   1      40.102  26.372  27.633  1.00  0.00     0.022 A 
BRANCH  56  59
ATOM     59  S   UNL A   1      41.935  27.871  26.265  1.00  0.00     0.127 S 
ATOM     60  O   UNL A   1      41.427  29.212  25.986  1.00  0.00    -0.237 OA
ATOM     61  O   UNL A   1      43.315  27.821  26.748  1.00  0.00    -0.237 OA
ATOM     62  O   UNL A   1      41.604  26.857  25.273  1.00  0.00    -0.744 OA
ENDBRANCH  56  59
ENDBRANCH  28  52
BRANCH  40  63
ATOM     63  C   UNL A   1      44.430  28.333  35.626  1.00  0.00     0.023 A 
ATOM     64  C   UNL A   1      45.721  28.693  35.196  1.00  0.00     0.012 A 
ATOM     65  C   UNL A   1      44.280  27.319  36.595  1.00  0.00     0.148 A 
ATOM     66  C   UNL A   1      46.844  28.045  35.713  1.00  0.00     0.002 A 
ATOM     67  C   UNL A   1      45.404  26.716  37.143  1.00  0.00     0.091 A 
ATOM     68  F   UNL A   1      43.038  26.979  36.973  1.00  0.00    -0.205 F 
ATOM     69  C   UNL A   1      46.686  27.070  36.697  1.00  0.00     0.022 A 
BRANCH  67  70
ATOM     70  S   UNL A   1      45.302  25.529  38.487  1.00  0.00     0.127 S 
ATOM     71  O   UNL A   1      44.584  26.292  39.507  1.00  0.00    -0.237 OA
ATOM     72  O   UNL A   1      44.531  24.443  37.880  1.00  0.00    -0.237 OA
ATOM     73  O   UNL A   1      46.676  25.182  38.827  1.00  0.00    -0.744 OA
ENDBRANCH  67  70
ENDBRANCH  40  63
ENDBRANCH  14  15
ENDBRANCH   7   9
ENDBRANCH   4   5
ENDBRANCH   3   4
ENDBRANCH   2   3
ENDBRANCH   1   2
BRANCH   1  74
ATOM     74  C   UNL A   1      35.433  30.353  27.616  1.00  0.00     0.021 C 
BRANCH  74  75
ATOM     75  C   UNL A   1      34.822  28.988  27.281  1.00  0.00     0.116 C 
BRANCH  75  76
ATOM     76  N   UNL A   1      33.404  29.105  27.005  1.00  0.00    -0.356 N 
ATOM     77  C   UNL A   1      32.523  28.259  26.408  1.00  0.00     0.225 C 
ATOM     78  H   UNL A   1      33.004  29.954  27.305  1.00  0.00     0.163 HD
ATOM     79  O   UNL A   1      31.410  28.721  26.154  1.00  0.00    -0.275 OA
BRANCH  77  80
ATOM     80  C   UNL A   1      32.889  26.797  26.131  1.00  0.00     0.109 C 
ATOM     81  C   UNL A   1      34.018  26.667  25.118  1.00  0.00     0.026 C 
ATOM     82  C   UNL A   1      31.648  26.033  25.629  1.00  0.00     0.164 C 
ATOM     83  C   UNL A   1      33.615  27.125  23.731  1.00  0.00     0.101 C 
ATOM     84  N   UNL A   1      31.316  26.221  24.201  1.00  0.00    -0.332 N 
ATOM     85  C   UNL A   1      32.206  26.791  23.293  1.00  0.00     0.223 C 
ATOM     86  O   UNL A   1      31.878  27.050  22.129  1.00  0.00    -0.275 OA
BRANCH  82  87
ATOM     87  C   UNL A   1      31.712  24.566  25.959  1.00  0.00     0.127 A 
ATOM     88  C   UNL A   1      32.176  23.471  25.253  1.00  0.00     0.048 A 
ATOM     89  O   UNL A   1      31.374  24.177  27.226  1.00  0.00    -0.467 OA
ATOM     90  C   UNL A   1      32.194  22.384  26.159  1.00  0.00     0.042 A 
ATOM     91  C   UNL A   1      31.706  22.868  27.349  1.00  0.00     0.195 A 
ENDBRANCH  82  87
BRANCH  84  92
ATOM     92  C   UNL A   1      29.988  25.883  23.634  1.00  0.00     0.122 C 
BRANCH  92  93
ATOM     93  C   UNL A   1      28.698  26.701  23.844  1.00  0.00     0.050 C 
BRANCH  93  94
ATOM     94  C   UNL A   1      28.500  28.129  23.323  1.00  0.00     0.162 C 
BRANCH  94  95
ATOM     95  O   UNL A   1      29.570  29.027  23.617  1.00  0.00    -0.378 OA
BRANCH  95  96
ATOM     96  C   UNL A   1      29.606  30.235  22.842  1.00  0.00     0.118 C 
ATOM     97  C   UNL A   1      28.691  30.076  21.639  1.00  0.00     0.032 C 
ATOM     98  C   UNL A   1      29.131  31.388  23.736  1.00  0.00     0.032 C 
ATOM     99  C   UNL A   1      28.408  31.345  20.875  1.00  0.00     0.003 C 
ATOM    100  C   UNL A   1      28.772  32.655  22.955  1.00  0.00     0.003 C 
ATOM    101  C   UNL A   1      27.807  32.372  21.808  1.00  0.00     0.000 C 
ENDBRANCH  95  96
ENDBRANCH  94  95
ENDBRANCH  93  94
ENDBRANCH  92  93
ENDBRANCH  84  92
ENDBRANCH  77  80
ENDBRANCH  75  76
ENDBRANCH  74  75
ENDBRANCH   1  74
TORSDOF 22
ENDMDL
MODEL 3
REMARK VINA RESULT:     -10.8      5.632      9.243
REMARK SMILES O=C(NCCCCCCNC(=O)[C@@H]1CCC(=O)N(CCCOC2CCCCC2)[C@H]1c1ccco1)c1ccc(-c2c3nc(c(-c4cccc(S(=O)(=O)[O-])c4F)c4ccc([nH]4)c(-c4cccc(S(=O)(=O)[O-])c4F)c4nc(c(-c5cccc(S(=O)(=O)[O-])c5F)c5ccc2[nH]5)C=C4)C=C3)cc1
REMARK SMILES IDX 7 1 6 2 5 3 4 4 3 5 1 6 2 7 35 9 36 10 97 11 37 12 96 13
REMARK SMILES IDX 38 14 39 15 40 16 90 17 41 18 95 19 89 20 91 21 42 22 94 23
REMARK SMILES IDX 88 24 87 25 43 27 75 28 55 29 74 30 56 31 59 32 73 33 92 34
REMARK SMILES IDX 57 35 58 36 72 38 93 39 60 40 44 41 45 42 53 43 46 44 48 45
REMARK SMILES IDX 54 46 47 47 49 48 50 49 51 50 52 51 76 52 77 53 85 54 78 55
REMARK SMILES IDX 80 56 86 57 79 58 81 59 82 60 83 61 84 62 61 63 62 64 70 65
REMARK SMILES IDX 63 66 65 67 71 68 64 69 66 70 67 71 68 72 69 73 8 74 9 75
REMARK SMILES IDX 10 76 11 77 12 79 13 80 14 81 29 82 15 83 18 84 16 85 17 86
REMARK SMILES IDX 30 87 31 88 34 89 32 90 33 91 19 92 20 93 21 94 22 95 23 96
REMARK SMILES IDX 24 97 28 98 25 99 27 100 26 101
REMARK H PARENT 3 8 91 26 59 37 10 78
REMARK Flexibility Score: inf
ROOT
ATOM      1  C   UNL A   1      34.300  24.422  23.027  1.00  0.00     0.002 C 
ENDROOT
BRANCH   1   2
ATOM      2  C   UNL A   1      34.850  24.350  24.457  1.00  0.00     0.002 C 
BRANCH   2   3
ATOM      3  C   UNL A   1      36.216  23.677  24.599  1.00  0.00     0.021 C 
BRANCH   3   4
ATOM      4  C   UNL A   1      36.699  23.498  26.035  1.00  0.00     0.116 C 
BRANCH   4   5
ATOM      5  N   UNL A   1      37.825  22.584  26.131  1.00  0.00    -0.352 N 
ATOM      6  O   UNL A   1      39.990  21.976  26.259  1.00  0.00    -0.269 OA
ATOM      7  C   UNL A   1      39.140  22.854  26.419  1.00  0.00     0.251 C 
ATOM      8  H   UNL A   1      37.616  21.637  25.963  1.00  0.00     0.163 HD
BRANCH   7   9
ATOM      9  C   UNL A   1      39.536  24.196  26.896  1.00  0.00     0.039 A 
ATOM     10  C   UNL A   1      40.076  25.138  26.014  1.00  0.00     0.014 A 
ATOM     11  C   UNL A   1      39.350  24.521  28.241  1.00  0.00     0.014 A 
ATOM     12  C   UNL A   1      40.543  26.358  26.499  1.00  0.00     0.010 A 
ATOM     13  C   UNL A   1      39.752  25.773  28.711  1.00  0.00     0.010 A 
ATOM     14  C   UNL A   1      40.378  26.691  27.851  1.00  0.00    -0.014 A 
BRANCH  14  15
ATOM     15  C   UNL A   1      40.803  28.019  28.358  1.00  0.00     0.031 A 
ATOM     16  C   UNL A   1      42.257  28.331  28.570  1.00  0.00     0.074 A 
ATOM     17  C   UNL A   1      39.863  28.924  28.692  1.00  0.00     0.049 A 
ATOM     18  N   UNL A   1      42.804  29.395  29.100  1.00  0.00    -0.248 NA
ATOM     19  C   UNL A   1      43.224  27.309  28.141  1.00  0.00     0.031 C 
ATOM     20  C   UNL A   1      38.419  28.723  28.560  1.00  0.00     0.029 A 
ATOM     21  N   UNL A   1      39.978  30.173  29.250  1.00  0.00    -0.354 N 
ATOM     22  C   UNL A   1      44.172  29.153  29.117  1.00  0.00     0.074 A 
ATOM     23  C   UNL A   1      44.372  27.837  28.545  1.00  0.00     0.031 C 
ATOM     24  C   UNL A   1      37.781  29.799  29.041  1.00  0.00     0.029 A 
ATOM     25  C   UNL A   1      38.765  30.738  29.568  1.00  0.00     0.049 A 
ATOM     26  H   UNL A   1      40.841  30.620  29.404  1.00  0.00     0.167 HD
ATOM     27  C   UNL A   1      45.169  29.952  29.568  1.00  0.00     0.034 A 
ATOM     28  C   UNL A   1      38.470  31.861  30.250  1.00  0.00     0.034 A 
ATOM     29  C   UNL A   1      44.958  31.262  30.127  1.00  0.00     0.049 A 
ATOM     30  C   UNL A   1      39.588  32.729  30.748  1.00  0.00     0.074 A 
ATOM     31  C   UNL A   1      45.904  32.181  30.544  1.00  0.00     0.029 A 
ATOM     32  N   UNL A   1      43.716  31.828  30.375  1.00  0.00    -0.354 N 
ATOM     33  N   UNL A   1      40.881  32.542  30.646  1.00  0.00    -0.248 NA
ATOM     34  C   UNL A   1      39.212  33.978  31.427  1.00  0.00     0.031 C 
ATOM     35  C   UNL A   1      45.234  33.282  31.085  1.00  0.00     0.029 A 
ATOM     36  C   UNL A   1      43.870  33.074  30.956  1.00  0.00     0.049 A 
ATOM     37  H   UNL A   1      42.852  31.404  30.166  1.00  0.00     0.167 HD
ATOM     38  C   UNL A   1      41.475  33.665  31.210  1.00  0.00     0.074 A 
ATOM     39  C   UNL A   1      40.398  34.528  31.651  1.00  0.00     0.031 C 
ATOM     40  C   UNL A   1      42.792  33.949  31.346  1.00  0.00     0.034 A 
BRANCH  27  41
ATOM     41  C   UNL A   1      46.581  29.431  29.474  1.00  0.00     0.023 A 
ATOM     42  C   UNL A   1      47.140  28.707  30.546  1.00  0.00     0.012 A 
ATOM     43  C   UNL A   1      47.346  29.632  28.307  1.00  0.00     0.148 A 
ATOM     44  C   UNL A   1      48.452  28.237  30.481  1.00  0.00     0.002 A 
ATOM     45  C   UNL A   1      48.635  29.119  28.230  1.00  0.00     0.091 A 
ATOM     46  F   UNL A   1      46.809  30.338  27.301  1.00  0.00    -0.205 F 
ATOM     47  C   UNL A   1      49.196  28.436  29.322  1.00  0.00     0.022 A 
BRANCH  45  48
ATOM     48  S   UNL A   1      49.639  29.251  26.746  1.00  0.00     0.127 S 
ATOM     49  O   UNL A   1      50.821  28.476  27.122  1.00  0.00    -0.237 OA
ATOM     50  O   UNL A   1      48.788  28.616  25.739  1.00  0.00    -0.237 OA
ATOM     51  O   UNL A   1      49.859  30.676  26.540  1.00  0.00    -0.744 OA
ENDBRANCH  45  48
ENDBRANCH  27  41
BRANCH  28  52
ATOM     52  C   UNL A   1      37.042  32.215  30.477  1.00  0.00     0.023 A 
ATOM     53  C   UNL A   1      36.464  32.000  31.742  1.00  0.00     0.012 A 
ATOM     54  C   UNL A   1      36.286  32.846  29.469  1.00  0.00     0.148 A 
ATOM     55  C   UNL A   1      35.150  32.395  31.994  1.00  0.00     0.002 A 
ATOM     56  C   UNL A   1      35.000  33.289  29.746  1.00  0.00     0.091 A 
ATOM     57  F   UNL A   1      36.861  33.039  28.274  1.00  0.00    -0.205 F 
ATOM     58  C   UNL A   1      34.423  33.051  31.002  1.00  0.00     0.022 A 
BRANCH  56  59
ATOM     59  S   UNL A   1      34.040  34.264  28.582  1.00  0.00     0.127 S 
ATOM     60  O   UNL A   1      34.919  35.409  28.356  1.00  0.00    -0.237 OA
ATOM     61  O   UNL A   1      33.922  33.344  27.451  1.00  0.00    -0.237 OA
ATOM     62  O   UNL A   1      32.783  34.563  29.254  1.00  0.00    -0.744 OA
ENDBRANCH  56  59
ENDBRANCH  28  52
BRANCH  40  63
ATOM     63  C   UNL A   1      43.171  35.279  31.941  1.00  0.00     0.023 A 
ATOM     64  C   UNL A   1      43.300  35.427  33.335  1.00  0.00     0.012 A 
ATOM     65  C   UNL A   1      43.515  36.354  31.095  1.00  0.00     0.148 A 
ATOM     66  C   UNL A   1      43.753  36.630  33.879  1.00  0.00     0.002 A 
ATOM     67  C   UNL A   1      44.015  37.529  31.640  1.00  0.00     0.091 A 
ATOM     68  F   UNL A   1      43.364  36.196  29.771  1.00  0.00    -0.205 F 
ATOM     69  C   UNL A   1      44.125  37.673  33.033  1.00  0.00     0.022 A 
BRANCH  67  70
ATOM     70  S   UNL A   1      44.617  38.883  30.626  1.00  0.00     0.127 S 
ATOM     71  O   UNL A   1      45.371  39.673  31.599  1.00  0.00    -0.237 OA
ATOM     72  O   UNL A   1      45.439  38.185  29.637  1.00  0.00    -0.237 OA
ATOM     73  O   UNL A   1      43.435  39.538  30.080  1.00  0.00    -0.744 OA
ENDBRANCH  67  70
ENDBRANCH  40  63
ENDBRANCH  14  15
ENDBRANCH   7   9
ENDBRANCH   4   5
ENDBRANCH   3   4
ENDBRANCH   2   3
ENDBRANCH   1   2
BRANCH   1  74
ATOM     74  C   UNL A   1      33.052  25.301  22.833  1.00  0.00     0.021 C 
BRANCH  74  75
ATOM     75  C   UNL A   1      33.339  26.787  22.593  1.00  0.00     0.116 C 
BRANCH  75  76
ATOM     76  N   UNL A   1      34.048  27.370  23.716  1.00  0.00    -0.356 N 
ATOM     77  C   UNL A   1      33.779  28.448  24.497  1.00  0.00     0.225 C 
ATOM     78  H   UNL A   1      34.878  26.897  23.956  1.00  0.00     0.163 HD
ATOM     79  O   UNL A   1      34.675  28.803  25.264  1.00  0.00    -0.275 OA
BRANCH  77  80
ATOM     80  C   UNL A   1      32.410  29.136  24.458  1.00  0.00     0.109 C 
ATOM     81  C   UNL A   1      32.239  30.143  25.587  1.00  0.00     0.026 C 
ATOM     82  C   UNL A   1      31.291  28.079  24.529  1.00  0.00     0.164 C 
ATOM     83  C   UNL A   1      32.188  29.489  26.953  1.00  0.00     0.101 C 
ATOM     84  N   UNL A   1      30.991  27.556  25.878  1.00  0.00    -0.332 N 
ATOM     85  C   UNL A   1      31.453  28.169  27.041  1.00  0.00     0.223 C 
ATOM     86  O   UNL A   1      31.295  27.661  28.157  1.00  0.00    -0.275 OA
BRANCH  82  87
ATOM     87  C   UNL A   1      30.026  28.544  23.858  1.00  0.00     0.127 A 
ATOM     88  C   UNL A   1      29.666  29.748  23.280  1.00  0.00     0.048 A 
ATOM     89  O   UNL A   1      29.043  27.622  23.633  1.00  0.00    -0.467 OA
ATOM     90  C   UNL A   1      28.442  29.522  22.606  1.00  0.00     0.042 A 
ATOM     91  C   UNL A   1      28.110  28.210  22.842  1.00  0.00     0.195 A 
ENDBRANCH  82  87
BRANCH  84  92
ATOM     92  C   UNL A   1      30.233  26.301  26.103  1.00  0.00     0.122 C 
BRANCH  92  93
ATOM     93  C   UNL A   1      30.673  24.900  25.633  1.00  0.00     0.050 C 
BRANCH  93  94
ATOM     94  C   UNL A   1      31.809  24.101  26.284  1.00  0.00     0.162 C 
BRANCH  94  95
ATOM     95  O   UNL A   1      31.415  22.847  26.841  1.00  0.00    -0.378 OA
BRANCH  95  96
ATOM     96  C   UNL A   1      31.992  21.682  26.233  1.00  0.00     0.118 C 
ATOM     97  C   UNL A   1      31.883  21.809  24.722  1.00  0.00     0.032 C 
ATOM     98  C   UNL A   1      33.462  21.599  26.665  1.00  0.00     0.032 C 
ATOM     99  C   UNL A   1      32.681  20.801  23.933  1.00  0.00     0.003 C 
ATOM    100  C   UNL A   1      34.293  20.631  25.817  1.00  0.00     0.003 C 
ATOM    101  C   UNL A   1      34.139  20.896  24.323  1.00  0.00     0.000 C 
ENDBRANCH  95  96
ENDBRANCH  94  95
ENDBRANCH  93  94
ENDBRANCH  92  93
ENDBRANCH  84  92
ENDBRANCH  77  80
ENDBRANCH  75  76
ENDBRANCH  74  75
ENDBRANCH   1  74
TORSDOF 22
ENDMDL
