MODEL 1
REMARK VINA RESULT:     -10.9      0.000      0.000
REMARK SMILES Cc1n[nH]cc1CNC(=O)NC[C@H](CC(C)C)C(=O)NCCCCCCNC(=O)c1ccc(-c2c3nc(c(-c4cccc(S(=O)(=O)[O-])c4F)c4ccc([nH]4)c(-c4cccc(S(=O)(=O)[O-])c4F)c4nc(c(-c5cccc(S(=O)(=O)[O-])c5F)c5ccc2[nH]5)C=C4)C=C3)cc1
REMARK SMILES IDX 23 1 22 2 21 3 20 4 18 5 19 6 13 8 12 9 11 10 8 11 9 12
REMARK SMILES IDX 10 14 7 16 6 17 1 18 2 19 3 20 4 21 5 22 14 24 15 25 16 26
REMARK SMILES IDX 17 27 24 28 25 29 26 30 27 31 28 32 29 34 30 35 31 36 92 37
REMARK SMILES IDX 32 38 91 39 33 40 34 41 35 42 85 43 36 44 90 45 84 46 86 47
REMARK SMILES IDX 37 48 89 49 83 50 82 51 38 53 70 54 50 55 69 56 51 57 54 58
REMARK SMILES IDX 68 59 87 60 52 61 53 62 67 64 88 65 55 66 39 67 40 68 48 69
REMARK SMILES IDX 41 70 43 71 49 72 42 73 44 74 45 75 46 76 47 77 71 78 72 79
REMARK SMILES IDX 80 80 73 81 75 82 81 83 74 84 76 85 77 86 78 87 79 88 56 89
REMARK SMILES IDX 57 90 65 91 58 92 60 93 66 94 59 95 61 96 62 97 63 98 64 99
REMARK H PARENT 20 7 8 13 11 15 4 23 27 33 86 52 54 63
REMARK Flexibility Score: inf
ROOT
ATOM      1  C   UNL A   1      30.244  28.074  22.733  1.00  0.00     0.002 C 
ENDROOT
BRANCH   1   2
ATOM      2  C   UNL A   1      29.346  27.324  23.718  1.00  0.00     0.021 C 
BRANCH   2   3
ATOM      3  C   UNL A   1      29.606  25.817  23.823  1.00  0.00     0.116 C 
BRANCH   3   4
ATOM      4  N   UNL A   1      29.841  25.390  25.190  1.00  0.00    -0.356 N 
ATOM      5  C   UNL A   1      30.798  24.604  25.750  1.00  0.00     0.224 C 
ATOM      6  O   UNL A   1      30.722  24.436  26.974  1.00  0.00    -0.275 OA
ATOM      7  H   UNL A   1      29.181  25.735  25.834  1.00  0.00     0.163 HD
BRANCH   5   8
ATOM      8  C   UNL A   1      31.932  23.928  24.967  1.00  0.00     0.098 C 
BRANCH   8   9
ATOM      9  C   UNL A   1      32.231  22.499  25.446  1.00  0.00     0.131 C 
BRANCH   9  10
ATOM     10  N   UNL A   1      33.604  22.296  25.869  1.00  0.00    -0.337 N 
ATOM     11  N   UNL A   1      34.182  20.013  25.593  1.00  0.00    -0.334 N 
ATOM     12  C   UNL A   1      34.476  21.285  25.848  1.00  0.00     0.315 C 
ATOM     13  H   UNL A   1      34.992  19.463  25.481  1.00  0.00     0.165 HD
ATOM     14  O   UNL A   1      35.652  21.567  26.097  1.00  0.00    -0.249 OA
ATOM     15  H   UNL A   1      33.989  23.108  26.271  1.00  0.00     0.165 HD
BRANCH  11  16
ATOM     16  C   UNL A   1      32.977  19.235  25.439  1.00  0.00     0.157 C 
BRANCH  16  17
ATOM     17  C   UNL A   1      32.682  18.971  24.006  1.00  0.00     0.012 A 
ATOM     18  C   UNL A   1      33.514  16.500  23.824  1.00  0.00     0.069 C 
ATOM     19  C   UNL A   1      32.920  17.754  23.303  1.00  0.00     0.064 A 
ATOM     20  N   UNL A   1      32.539  17.826  22.024  1.00  0.00    -0.181 NA
ATOM     21  N   UNL A   1      32.152  19.101  21.877  1.00  0.00    -0.285 N 
ATOM     22  C   UNL A   1      32.151  19.805  23.043  1.00  0.00     0.111 A 
ATOM     23  H   UNL A   1      31.892  19.490  21.011  1.00  0.00     0.189 HD
ENDBRANCH  16  17
ENDBRANCH  11  16
ENDBRANCH   9  10
ENDBRANCH   8   9
BRANCH   8  24
ATOM     24  C   UNL A   1      33.082  24.879  24.548  1.00  0.00     0.018 C 
BRANCH  24  25
ATOM     25  C   UNL A   1      33.443  25.076  23.068  1.00  0.00    -0.017 C 
ATOM     26  C   UNL A   1      32.320  24.705  22.105  1.00  0.00     0.007 C 
ATOM     27  C   UNL A   1      33.841  26.533  22.800  1.00  0.00     0.007 C 
ENDBRANCH  24  25
ENDBRANCH   8  24
ENDBRANCH   5   8
ENDBRANCH   3   4
ENDBRANCH   2   3
ENDBRANCH   1   2
BRANCH   1  28
ATOM     28  C   UNL A   1      31.303  28.986  23.357  1.00  0.00     0.002 C 
BRANCH  28  29
ATOM     29  C   UNL A   1      31.665  28.699  24.819  1.00  0.00     0.021 C 
BRANCH  29  30
ATOM     30  C   UNL A   1      32.839  29.496  25.377  1.00  0.00     0.116 C 
BRANCH  30  31
ATOM     31  N   UNL A   1      32.434  30.815  25.830  1.00  0.00    -0.352 N 
ATOM     32  C   UNL A   1      32.862  31.572  26.894  1.00  0.00     0.251 C 
ATOM     33  H   UNL A   1      31.734  31.239  25.283  1.00  0.00     0.163 HD
ATOM     34  O   UNL A   1      32.200  32.551  27.228  1.00  0.00    -0.269 OA
BRANCH  32  35
ATOM     35  C   UNL A   1      34.097  31.231  27.642  1.00  0.00     0.039 A 
ATOM     36  C   UNL A   1      35.034  32.242  27.887  1.00  0.00     0.014 A 
ATOM     37  C   UNL A   1      34.382  29.922  28.032  1.00  0.00     0.014 A 
ATOM     38  C   UNL A   1      36.227  31.947  28.556  1.00  0.00     0.010 A 
ATOM     39  C   UNL A   1      35.532  29.644  28.771  1.00  0.00     0.010 A 
ATOM     40  C   UNL A   1      36.478  30.647  29.025  1.00  0.00    -0.014 A 
BRANCH  40  41
ATOM     41  C   UNL A   1      37.726  30.314  29.763  1.00  0.00     0.031 A 
ATOM     42  C   UNL A   1      38.730  29.359  29.169  1.00  0.00     0.074 A 
ATOM     43  C   UNL A   1      37.918  30.799  31.007  1.00  0.00     0.049 A 
ATOM     44  N   UNL A   1      39.835  28.891  29.691  1.00  0.00    -0.248 NA
ATOM     45  C   UNL A   1      38.441  28.838  27.822  1.00  0.00     0.031 C 
ATOM     46  C   UNL A   1      36.991  31.673  31.727  1.00  0.00     0.029 A 
ATOM     47  N   UNL A   1      38.946  30.601  31.897  1.00  0.00    -0.354 N 
ATOM     48  C   UNL A   1      40.344  27.989  28.763  1.00  0.00     0.074 A 
ATOM     49  C   UNL A   1      39.415  27.955  27.655  1.00  0.00     0.031 C 
ATOM     50  C   UNL A   1      37.492  31.940  32.944  1.00  0.00     0.029 A 
ATOM     51  C   UNL A   1      38.758  31.234  33.105  1.00  0.00     0.049 A 
ATOM     52  H   UNL A   1      39.740  30.058  31.691  1.00  0.00     0.167 HD
ATOM     53  C   UNL A   1      41.494  27.275  28.813  1.00  0.00     0.034 A 
ATOM     54  C   UNL A   1      39.519  31.242  34.218  1.00  0.00     0.034 A 
ATOM     55  C   UNL A   1      42.451  27.360  29.884  1.00  0.00     0.049 A 
ATOM     56  C   UNL A   1      40.819  30.483  34.224  1.00  0.00     0.074 A 
ATOM     57  C   UNL A   1      43.695  26.761  29.976  1.00  0.00     0.029 A 
ATOM     58  N   UNL A   1      42.270  28.088  31.049  1.00  0.00    -0.354 N 
ATOM     59  N   UNL A   1      41.361  29.768  33.268  1.00  0.00    -0.248 NA
ATOM     60  C   UNL A   1      41.630  30.564  35.448  1.00  0.00     0.031 C 
ATOM     61  C   UNL A   1      44.258  27.112  31.207  1.00  0.00     0.029 A 
ATOM     62  C   UNL A   1      43.374  27.945  31.872  1.00  0.00     0.049 A 
ATOM     63  H   UNL A   1      41.474  28.626  31.262  1.00  0.00     0.167 HD
ATOM     64  C   UNL A   1      42.591  29.344  33.760  1.00  0.00     0.074 A 
ATOM     65  C   UNL A   1      42.722  29.901  35.091  1.00  0.00     0.031 C 
ATOM     66  C   UNL A   1      43.519  28.553  33.170  1.00  0.00     0.034 A 
BRANCH  53  67
ATOM     67  C   UNL A   1      41.818  26.377  27.646  1.00  0.00     0.023 A 
ATOM     68  C   UNL A   1      42.485  26.908  26.523  1.00  0.00     0.012 A 
ATOM     69  C   UNL A   1      41.525  25.000  27.687  1.00  0.00     0.148 A 
ATOM     70  C   UNL A   1      42.823  26.091  25.446  1.00  0.00     0.002 A 
ATOM     71  C   UNL A   1      41.906  24.182  26.629  1.00  0.00     0.091 A 
ATOM     72  F   UNL A   1      40.873  24.515  28.754  1.00  0.00    -0.205 F 
ATOM     73  C   UNL A   1      42.545  24.728  25.503  1.00  0.00     0.022 A 
BRANCH  71  74
ATOM     74  S   UNL A   1      41.663  22.402  26.640  1.00  0.00     0.127 S 
ATOM     75  O   UNL A   1      42.305  22.009  25.386  1.00  0.00    -0.237 OA
ATOM     76  O   UNL A   1      42.386  22.000  27.847  1.00  0.00    -0.237 OA
ATOM     77  O   UNL A   1      40.223  22.196  26.699  1.00  0.00    -0.744 OA
ENDBRANCH  71  74
ENDBRANCH  53  67
BRANCH  54  78
ATOM     78  C   UNL A   1      39.107  32.057  35.396  1.00  0.00     0.023 A 
ATOM     79  C   UNL A   1      38.214  31.505  36.336  1.00  0.00     0.012 A 
ATOM     80  C   UNL A   1      39.609  33.356  35.607  1.00  0.00     0.148 A 
ATOM     81  C   UNL A   1      37.804  32.242  37.447  1.00  0.00     0.002 A 
ATOM     82  C   UNL A   1      39.237  34.065  36.744  1.00  0.00     0.091 A 
ATOM     83  F   UNL A   1      40.446  33.870  34.695  1.00  0.00    -0.205 F 
ATOM     84  C   UNL A   1      38.322  33.517  37.656  1.00  0.00     0.022 A 
BRANCH  82  85
ATOM     85  S   UNL A   1      39.955  35.659  37.160  1.00  0.00     0.127 S 
ATOM     86  O   UNL A   1      41.363  35.317  37.335  1.00  0.00    -0.237 OA
ATOM     87  O   UNL A   1      39.656  36.449  35.965  1.00  0.00    -0.237 OA
ATOM     88  O   UNL A   1      39.253  36.101  38.358  1.00  0.00    -0.744 OA
ENDBRANCH  82  85
ENDBRANCH  54  78
BRANCH  66  89
ATOM     89  C   UNL A   1      44.784  28.264  33.935  1.00  0.00     0.023 A 
ATOM     90  C   UNL A   1      45.876  29.150  33.842  1.00  0.00     0.012 A 
ATOM     91  C   UNL A   1      44.863  27.160  34.807  1.00  0.00     0.148 A 
ATOM     92  C   UNL A   1      47.036  28.925  34.582  1.00  0.00     0.002 A 
ATOM     93  C   UNL A   1      46.004  26.969  35.577  1.00  0.00     0.091 A 
ATOM     94  F   UNL A   1      43.821  26.318  34.867  1.00  0.00    -0.205 F 
ATOM     95  C   UNL A   1      47.095  27.844  35.457  1.00  0.00     0.022 A 
BRANCH  93  96
ATOM     96  S   UNL A   1      46.128  25.659  36.801  1.00  0.00     0.127 S 
ATOM     97  O   UNL A   1      45.006  25.970  37.685  1.00  0.00    -0.237 OA
ATOM     98  O   UNL A   1      45.948  24.455  35.987  1.00  0.00    -0.237 OA
ATOM     99  O   UNL A   1      47.452  25.792  37.396  1.00  0.00    -0.744 OA
ENDBRANCH  93  96
ENDBRANCH  66  89
ENDBRANCH  40  41
ENDBRANCH  32  35
ENDBRANCH  30  31
ENDBRANCH  29  30
ENDBRANCH  28  29
ENDBRANCH   1  28
TORSDOF 22
ENDMDL
MODEL 2
REMARK VINA RESULT:     -10.8      5.376     10.482
REMARK SMILES Cc1n[nH]cc1CNC(=O)NC[C@H](CC(C)C)C(=O)NCCCCCCNC(=O)c1ccc(-c2c3nc(c(-c4cccc(S(=O)(=O)[O-])c4F)c4ccc([nH]4)c(-c4cccc(S(=O)(=O)[O-])c4F)c4nc(c(-c5cccc(S(=O)(=O)[O-])c5F)c5ccc2[nH]5)C=C4)C=C3)cc1
REMARK SMILES IDX 23 1 22 2 21 3 20 4 18 5 19 6 13 8 12 9 11 10 8 11 9 12
REMARK SMILES IDX 10 14 7 16 6 17 1 18 2 19 3 20 4 21 5 22 14 24 15 25 16 26
REMARK SMILES IDX 17 27 24 28 25 29 26 30 27 31 28 32 29 34 30 35 31 36 92 37
REMARK SMILES IDX 32 38 91 39 33 40 34 41 35 42 85 43 36 44 90 45 84 46 86 47
REMARK SMILES IDX 37 48 89 49 83 50 82 51 38 53 70 54 50 55 69 56 51 57 54 58
REMARK SMILES IDX 68 59 87 60 52 61 53 62 67 64 88 65 55 66 39 67 40 68 48 69
REMARK SMILES IDX 41 70 43 71 49 72 42 73 44 74 45 75 46 76 47 77 71 78 72 79
REMARK SMILES IDX 80 80 73 81 75 82 81 83 74 84 76 85 77 86 78 87 79 88 56 89
REMARK SMILES IDX 57 90 65 91 58 92 60 93 66 94 59 95 61 96 62 97 63 98 64 99
REMARK H PARENT 20 7 8 13 11 15 4 23 27 33 86 52 54 63
REMARK Flexibility Score: inf
ROOT
ATOM      1  C   UNL A   1      38.534  22.555  25.673  1.00  0.00     0.002 C 
ENDROOT
BRANCH   1   2
ATOM      2  C   UNL A   1      37.653  23.652  26.272  1.00  0.00     0.021 C 
BRANCH   2   3
ATOM      3  C   UNL A   1      36.172  23.587  25.885  1.00  0.00     0.116 C 
BRANCH   3   4
ATOM      4  N   UNL A   1      35.397  22.763  26.794  1.00  0.00    -0.356 N 
ATOM      5  C   UNL A   1      34.400  21.863  26.587  1.00  0.00     0.224 C 
ATOM      6  O   UNL A   1      33.943  21.311  27.596  1.00  0.00    -0.275 OA
ATOM      7  H   UNL A   1      35.640  22.879  27.741  1.00  0.00     0.163 HD
BRANCH   5   8
ATOM      8  C   UNL A   1      33.822  21.511  25.210  1.00  0.00     0.098 C 
BRANCH   8   9
ATOM      9  C   UNL A   1      32.578  22.336  24.845  1.00  0.00     0.131 C 
BRANCH   9  10
ATOM     10  N   UNL A   1      31.775  22.724  25.989  1.00  0.00    -0.337 N 
ATOM     11  N   UNL A   1      30.294  24.464  25.355  1.00  0.00    -0.334 N 
ATOM     12  C   UNL A   1      30.743  23.544  26.205  1.00  0.00     0.315 C 
ATOM     13  H   UNL A   1      29.436  24.850  25.650  1.00  0.00     0.165 HD
ATOM     14  O   UNL A   1      30.170  23.434  27.293  1.00  0.00    -0.249 OA
ATOM     15  H   UNL A   1      32.062  22.268  26.813  1.00  0.00     0.165 HD
BRANCH  11  16
ATOM     16  C   UNL A   1      30.744  25.039  24.111  1.00  0.00     0.157 C 
BRANCH  16  17
ATOM     17  C   UNL A   1      31.752  26.108  24.342  1.00  0.00     0.012 A 
ATOM     18  C   UNL A   1      33.663  25.269  22.770  1.00  0.00     0.069 C 
ATOM     19  C   UNL A   1      33.039  26.201  23.738  1.00  0.00     0.064 A 
ATOM     20  N   UNL A   1      33.710  27.284  24.143  1.00  0.00    -0.181 NA
ATOM     21  N   UNL A   1      32.908  27.830  25.068  1.00  0.00    -0.285 N 
ATOM     22  C   UNL A   1      31.701  27.208  25.174  1.00  0.00     0.111 A 
ATOM     23  H   UNL A   1      33.166  28.606  25.616  1.00  0.00     0.189 HD
ENDBRANCH  16  17
ENDBRANCH  11  16
ENDBRANCH   9  10
ENDBRANCH   8   9
BRANCH   8  24
ATOM     24  C   UNL A   1      33.911  20.008  24.839  1.00  0.00     0.018 C 
BRANCH  24  25
ATOM     25  C   UNL A   1      32.644  19.149  24.722  1.00  0.00    -0.017 C 
ATOM     26  C   UNL A   1      32.391  18.609  23.318  1.00  0.00     0.007 C 
ATOM     27  C   UNL A   1      32.710  17.957  25.687  1.00  0.00     0.007 C 
ENDBRANCH  24  25
ENDBRANCH   8  24
ENDBRANCH   5   8
ENDBRANCH   3   4
ENDBRANCH   2   3
ENDBRANCH   1   2
BRANCH   1  28
ATOM     28  C   UNL A   1      37.804  21.489  24.851  1.00  0.00     0.002 C 
BRANCH  28  29
ATOM     29  C   UNL A   1      38.284  20.045  25.041  1.00  0.00     0.021 C 
BRANCH  29  30
ATOM     30  C   UNL A   1      39.023  19.761  26.345  1.00  0.00     0.116 C 
BRANCH  30  31
ATOM     31  N   UNL A   1      40.246  19.009  26.125  1.00  0.00    -0.352 N 
ATOM     32  C   UNL A   1      41.547  19.428  25.986  1.00  0.00     0.251 C 
ATOM     33  H   UNL A   1      40.121  18.035  26.065  1.00  0.00     0.163 HD
ATOM     34  O   UNL A   1      42.381  18.635  25.558  1.00  0.00    -0.269 OA
BRANCH  32  35
ATOM     35  C   UNL A   1      41.959  20.808  26.337  1.00  0.00     0.039 A 
ATOM     36  C   UNL A   1      42.053  21.762  25.316  1.00  0.00     0.014 A 
ATOM     37  C   UNL A   1      42.332  21.156  27.637  1.00  0.00     0.014 A 
ATOM     38  C   UNL A   1      42.477  23.063  25.607  1.00  0.00     0.010 A 
ATOM     39  C   UNL A   1      42.674  22.474  27.940  1.00  0.00     0.010 A 
ATOM     40  C   UNL A   1      42.771  23.439  26.928  1.00  0.00    -0.014 A 
BRANCH  40  41
ATOM     41  C   UNL A   1      43.196  24.823  27.267  1.00  0.00     0.031 A 
ATOM     42  C   UNL A   1      42.216  25.794  27.876  1.00  0.00     0.074 A 
ATOM     43  C   UNL A   1      44.439  25.239  26.947  1.00  0.00     0.049 A 
ATOM     44  N   UNL A   1      42.380  27.058  28.170  1.00  0.00    -0.248 NA
ATOM     45  C   UNL A   1      40.865  25.285  28.166  1.00  0.00     0.031 C 
ATOM     46  C   UNL A   1      45.461  24.423  26.289  1.00  0.00     0.029 A 
ATOM     47  N   UNL A   1      45.044  26.462  27.108  1.00  0.00    -0.354 N 
ATOM     48  C   UNL A   1      41.147  27.506  28.632  1.00  0.00     0.074 A 
ATOM     49  C   UNL A   1      40.236  26.385  28.555  1.00  0.00     0.031 C 
ATOM     50  C   UNL A   1      46.566  25.164  26.106  1.00  0.00     0.029 A 
ATOM     51  C   UNL A   1      46.324  26.514  26.605  1.00  0.00     0.049 A 
ATOM     52  H   UNL A   1      44.604  27.228  27.543  1.00  0.00     0.167 HD
ATOM     53  C   UNL A   1      40.808  28.729  29.104  1.00  0.00     0.034 A 
ATOM     54  C   UNL A   1      47.202  27.535  26.547  1.00  0.00     0.034 A 
ATOM     55  C   UNL A   1      41.731  29.824  29.243  1.00  0.00     0.049 A 
ATOM     56  C   UNL A   1      46.817  28.868  27.129  1.00  0.00     0.074 A 
ATOM     57  C   UNL A   1      41.512  31.067  29.810  1.00  0.00     0.029 A 
ATOM     58  N   UNL A   1      43.047  29.809  28.809  1.00  0.00    -0.354 N 
ATOM     59  N   UNL A   1      45.697  29.221  27.712  1.00  0.00    -0.248 NA
ATOM     60  C   UNL A   1      47.830  29.934  27.080  1.00  0.00     0.031 C 
ATOM     61  C   UNL A   1      42.691  31.811  29.702  1.00  0.00     0.029 A 
ATOM     62  C   UNL A   1      43.649  31.023  29.086  1.00  0.00     0.049 A 
ATOM     63  H   UNL A   1      43.487  29.047  28.368  1.00  0.00     0.167 HD
ATOM     64  C   UNL A   1      45.883  30.534  28.132  1.00  0.00     0.074 A 
ATOM     65  C   UNL A   1      47.231  30.906  27.754  1.00  0.00     0.031 C 
ATOM     66  C   UNL A   1      45.011  31.362  28.758  1.00  0.00     0.034 A 
BRANCH  53  67
ATOM     67  C   UNL A   1      39.387  28.939  29.564  1.00  0.00     0.023 A 
ATOM     68  C   UNL A   1      39.012  28.543  30.864  1.00  0.00     0.012 A 
ATOM     69  C   UNL A   1      38.446  29.586  28.740  1.00  0.00     0.148 A 
ATOM     70  C   UNL A   1      37.713  28.756  31.324  1.00  0.00     0.002 A 
ATOM     71  C   UNL A   1      37.165  29.836  29.222  1.00  0.00     0.091 A 
ATOM     72  F   UNL A   1      38.814  29.939  27.500  1.00  0.00    -0.205 F 
ATOM     73  C   UNL A   1      36.794  29.412  30.509  1.00  0.00     0.022 A 
BRANCH  71  74
ATOM     74  S   UNL A   1      35.933  30.743  28.279  1.00  0.00     0.127 S 
ATOM     75  O   UNL A   1      34.871  30.912  29.270  1.00  0.00    -0.237 OA
ATOM     76  O   UNL A   1      36.650  31.972  27.937  1.00  0.00    -0.237 OA
ATOM     77  O   UNL A   1      35.600  29.898  27.141  1.00  0.00    -0.744 OA
ENDBRANCH  71  74
ENDBRANCH  53  67
BRANCH  54  78
ATOM     78  C   UNL A   1      48.563  27.316  25.980  1.00  0.00     0.023 A 
ATOM     79  C   UNL A   1      49.588  26.837  26.820  1.00  0.00     0.012 A 
ATOM     80  C   UNL A   1      48.843  27.551  24.620  1.00  0.00     0.148 A 
ATOM     81  C   UNL A   1      50.875  26.625  26.323  1.00  0.00     0.002 A 
ATOM     82  C   UNL A   1      50.114  27.287  24.120  1.00  0.00     0.091 A 
ATOM     83  F   UNL A   1      47.860  28.020  23.839  1.00  0.00    -0.205 F 
ATOM     84  C   UNL A   1      51.136  26.841  24.973  1.00  0.00     0.022 A 
BRANCH  82  85
ATOM     85  S   UNL A   1      50.504  27.413  22.370  1.00  0.00     0.127 S 
ATOM     86  O   UNL A   1      49.527  26.503  21.780  1.00  0.00    -0.237 OA
ATOM     87  O   UNL A   1      50.265  28.832  22.106  1.00  0.00    -0.237 OA
ATOM     88  O   UNL A   1      51.900  27.011  22.253  1.00  0.00    -0.744 OA
ENDBRANCH  82  85
ENDBRANCH  54  78
BRANCH  66  89
ATOM     89  C   UNL A   1      45.489  32.745  29.115  1.00  0.00     0.023 A 
ATOM     90  C   UNL A   1      46.149  32.963  30.341  1.00  0.00     0.012 A 
ATOM     91  C   UNL A   1      45.356  33.811  28.203  1.00  0.00     0.148 A 
ATOM     92  C   UNL A   1      46.642  34.225  30.665  1.00  0.00     0.002 A 
ATOM     93  C   UNL A   1      45.892  35.055  28.513  1.00  0.00     0.091 A 
ATOM     94  F   UNL A   1      44.708  33.589  27.050  1.00  0.00    -0.205 F 
ATOM     95  C   UNL A   1      46.525  35.266  29.748  1.00  0.00     0.022 A 
BRANCH  93  96
ATOM     96  S   UNL A   1      45.872  36.426  27.352  1.00  0.00     0.127 S 
ATOM     97  O   UNL A   1      46.563  35.849  26.199  1.00  0.00    -0.237 OA
ATOM     98  O   UNL A   1      44.439  36.647  27.155  1.00  0.00    -0.237 OA
ATOM     99  O   UNL A   1      46.566  37.522  28.015  1.00  0.00    -0.744 OA
ENDBRANCH  93  96
ENDBRANCH  66  89
ENDBRANCH  40  41
ENDBRANCH  32  35
ENDBRANCH  30  31
ENDBRANCH  29  30
ENDBRANCH  28  29
ENDBRANCH   1  28
TORSDOF 22
ENDMDL
MODEL 3
REMARK VINA RESULT:     -10.6      5.271     10.625
REMARK SMILES Cc1n[nH]cc1CNC(=O)NC[C@H](CC(C)C)C(=O)NCCCCCCNC(=O)c1ccc(-c2c3nc(c(-c4cccc(S(=O)(=O)[O-])c4F)c4ccc([nH]4)c(-c4cccc(S(=O)(=O)[O-])c4F)c4nc(c(-c5cccc(S(=O)(=O)[O-])c5F)c5ccc2[nH]5)C=C4)C=C3)cc1
REMARK SMILES IDX 23 1 22 2 21 3 20 4 18 5 19 6 13 8 12 9 11 10 8 11 9 12
REMARK SMILES IDX 10 14 7 16 6 17 1 18 2 19 3 20 4 21 5 22 14 24 15 25 16 26
REMARK SMILES IDX 17 27 24 28 25 29 26 30 27 31 28 32 29 34 30 35 31 36 92 37
REMARK SMILES IDX 32 38 91 39 33 40 34 41 35 42 85 43 36 44 90 45 84 46 86 47
REMARK SMILES IDX 37 48 89 49 83 50 82 51 38 53 70 54 50 55 69 56 51 57 54 58
REMARK SMILES IDX 68 59 87 60 52 61 53 62 67 64 88 65 55 66 39 67 40 68 48 69
REMARK SMILES IDX 41 70 43 71 49 72 42 73 44 74 45 75 46 76 47 77 71 78 72 79
REMARK SMILES IDX 80 80 73 81 75 82 81 83 74 84 76 85 77 86 78 87 79 88 56 89
REMARK SMILES IDX 57 90 65 91 58 92 60 93 66 94 59 95 61 96 62 97 63 98 64 99
REMARK H PARENT 20 7 8 13 11 15 4 23 27 33 86 52 54 63
REMARK Flexibility Score: inf
ROOT
ATOM      1  C   UNL A   1      36.987  21.552  24.642  1.00  0.00     0.002 C 
ENDROOT
BRANCH   1   2
ATOM      2  C   UNL A   1      35.735  22.393  24.396  1.00  0.00     0.021 C 
BRANCH   2   3
ATOM      3  C   UNL A   1      34.429  21.791  24.925  1.00  0.00     0.116 C 
BRANCH   3   4
ATOM      4  N   UNL A   1      33.522  21.410  23.858  1.00  0.00    -0.356 N 
ATOM      5  C   UNL A   1      32.549  22.092  23.198  1.00  0.00     0.224 C 
ATOM      6  O   UNL A   1      31.948  21.470  22.313  1.00  0.00    -0.275 OA
ATOM      7  H   UNL A   1      33.634  20.480  23.554  1.00  0.00     0.163 HD
BRANCH   5   8
ATOM      8  C   UNL A   1      32.162  23.548  23.489  1.00  0.00     0.098 C 
BRANCH   8   9
ATOM      9  C   UNL A   1      30.691  23.714  23.902  1.00  0.00     0.131 C 
BRANCH   9  10
ATOM     10  N   UNL A   1      30.439  23.427  25.302  1.00  0.00    -0.337 N 
ATOM     11  N   UNL A   1      30.189  25.465  26.487  1.00  0.00    -0.334 N 
ATOM     12  C   UNL A   1      30.127  24.140  26.387  1.00  0.00     0.315 C 
ATOM     13  H   UNL A   1      29.773  25.791  27.319  1.00  0.00     0.165 HD
ATOM     14  O   UNL A   1      29.760  23.502  27.378  1.00  0.00    -0.249 OA
ATOM     15  H   UNL A   1      30.517  22.466  25.501  1.00  0.00     0.165 HD
BRANCH  11  16
ATOM     16  C   UNL A   1      30.710  26.546  25.686  1.00  0.00     0.157 C 
BRANCH  16  17
ATOM     17  C   UNL A   1      31.716  27.341  26.439  1.00  0.00     0.012 A 
ATOM     18  C   UNL A   1      33.915  26.343  25.437  1.00  0.00     0.069 C 
ATOM     19  C   UNL A   1      33.133  27.245  26.315  1.00  0.00     0.064 A 
ATOM     20  N   UNL A   1      33.769  28.100  27.122  1.00  0.00    -0.181 NA
ATOM     21  N   UNL A   1      32.783  28.671  27.826  1.00  0.00    -0.285 N 
ATOM     22  C   UNL A   1      31.538  28.305  27.410  1.00  0.00     0.111 A 
ATOM     23  H   UNL A   1      32.941  29.294  28.571  1.00  0.00     0.189 HD
ENDBRANCH  16  17
ENDBRANCH  11  16
ENDBRANCH   9  10
ENDBRANCH   8   9
BRANCH   8  24
ATOM     24  C   UNL A   1      32.848  24.593  22.571  1.00  0.00     0.018 C 
BRANCH  24  25
ATOM     25  C   UNL A   1      32.016  25.556  21.713  1.00  0.00    -0.017 C 
ATOM     26  C   UNL A   1      32.063  27.005  22.188  1.00  0.00     0.007 C 
ATOM     27  C   UNL A   1      32.483  25.518  20.252  1.00  0.00     0.007 C 
ENDBRANCH  24  25
ENDBRANCH   8  24
ENDBRANCH   5   8
ENDBRANCH   3   4
ENDBRANCH   2   3
ENDBRANCH   1   2
BRANCH   1  28
ATOM     28  C   UNL A   1      36.761  20.044  24.786  1.00  0.00     0.002 C 
BRANCH  28  29
ATOM     29  C   UNL A   1      38.003  19.202  25.100  1.00  0.00     0.021 C 
BRANCH  29  30
ATOM     30  C   UNL A   1      39.122  19.927  25.841  1.00  0.00     0.116 C 
BRANCH  30  31
ATOM     31  N   UNL A   1      40.288  19.082  26.026  1.00  0.00    -0.352 N 
ATOM     32  C   UNL A   1      41.613  19.402  26.195  1.00  0.00     0.251 C 
ATOM     33  H   UNL A   1      40.097  18.116  26.031  1.00  0.00     0.163 HD
ATOM     34  O   UNL A   1      42.456  18.515  26.082  1.00  0.00    -0.269 OA
BRANCH  32  35
ATOM     35  C   UNL A   1      42.044  20.787  26.506  1.00  0.00     0.039 A 
ATOM     36  C   UNL A   1      42.150  21.708  25.457  1.00  0.00     0.014 A 
ATOM     37  C   UNL A   1      42.421  21.167  27.795  1.00  0.00     0.014 A 
ATOM     38  C   UNL A   1      42.591  23.012  25.710  1.00  0.00     0.010 A 
ATOM     39  C   UNL A   1      42.781  22.489  28.060  1.00  0.00     0.010 A 
ATOM     40  C   UNL A   1      42.889  23.422  27.019  1.00  0.00    -0.014 A 
BRANCH  40  41
ATOM     41  C   UNL A   1      43.333  24.811  27.318  1.00  0.00     0.031 A 
ATOM     42  C   UNL A   1      42.406  25.772  28.019  1.00  0.00     0.074 A 
ATOM     43  C   UNL A   1      44.536  25.237  26.882  1.00  0.00     0.049 A 
ATOM     44  N   UNL A   1      42.585  27.037  28.297  1.00  0.00    -0.248 NA
ATOM     45  C   UNL A   1      41.093  25.251  28.436  1.00  0.00     0.031 C 
ATOM     46  C   UNL A   1      45.497  24.431  26.129  1.00  0.00     0.029 A 
ATOM     47  N   UNL A   1      45.142  26.466  26.986  1.00  0.00    -0.354 N 
ATOM     48  C   UNL A   1      41.398  27.474  28.874  1.00  0.00     0.074 A 
ATOM     49  C   UNL A   1      40.494  26.345  28.884  1.00  0.00     0.031 C 
ATOM     50  C   UNL A   1      46.573  25.183  25.843  1.00  0.00     0.029 A 
ATOM     51  C   UNL A   1      46.368  26.530  26.363  1.00  0.00     0.049 A 
ATOM     52  H   UNL A   1      44.739  27.228  27.462  1.00  0.00     0.167 HD
ATOM     53  C   UNL A   1      41.095  28.694  29.378  1.00  0.00     0.034 A 
ATOM     54  C   UNL A   1      47.227  27.559  26.223  1.00  0.00     0.034 A 
ATOM     55  C   UNL A   1      42.016  29.798  29.430  1.00  0.00     0.049 A 
ATOM     56  C   UNL A   1      46.887  28.889  26.841  1.00  0.00     0.074 A 
ATOM     57  C   UNL A   1      41.841  31.038  30.017  1.00  0.00     0.029 A 
ATOM     58  N   UNL A   1      43.285  29.794  28.873  1.00  0.00    -0.354 N 
ATOM     59  N   UNL A   1      45.824  29.231  27.529  1.00  0.00    -0.248 NA
ATOM     60  C   UNL A   1      47.881  29.963  26.698  1.00  0.00     0.031 C 
ATOM     61  C   UNL A   1      42.998  31.793  29.798  1.00  0.00     0.029 A 
ATOM     62  C   UNL A   1      43.901  31.014  29.092  1.00  0.00     0.049 A 
ATOM     63  H   UNL A   1      43.689  29.037  28.391  1.00  0.00     0.167 HD
ATOM     64  C   UNL A   1      46.038  30.545  27.930  1.00  0.00     0.074 A 
ATOM     65  C   UNL A   1      47.340  30.930  27.426  1.00  0.00     0.031 C 
ATOM     66  C   UNL A   1      45.222  31.365  28.637  1.00  0.00     0.034 A 
BRANCH  53  67
ATOM     67  C   UNL A   1      39.722  28.891  29.972  1.00  0.00     0.023 A 
ATOM     68  C   UNL A   1      39.401  28.276  31.199  1.00  0.00     0.012 A 
ATOM     69  C   UNL A   1      38.779  29.734  29.353  1.00  0.00     0.148 A 
ATOM     70  C   UNL A   1      38.150  28.470  31.783  1.00  0.00     0.002 A 
ATOM     71  C   UNL A   1      37.550  29.958  29.965  1.00  0.00     0.091 A 
ATOM     72  F   UNL A   1      39.094  30.295  28.177  1.00  0.00    -0.205 F 
ATOM     73  C   UNL A   1      37.230  29.318  31.174  1.00  0.00     0.022 A 
BRANCH  71  74
ATOM     74  S   UNL A   1      36.327  31.095  29.300  1.00  0.00     0.127 S 
ATOM     75  O   UNL A   1      35.348  30.171  28.729  1.00  0.00    -0.237 OA
ATOM     76  O   UNL A   1      35.874  31.798  30.501  1.00  0.00    -0.237 OA
ATOM     77  O   UNL A   1      37.037  31.928  28.340  1.00  0.00    -0.744 OA
ENDBRANCH  71  74
ENDBRANCH  53  67
BRANCH  54  78
ATOM     78  C   UNL A   1      48.530  27.352  25.530  1.00  0.00     0.023 A 
ATOM     79  C   UNL A   1      49.643  26.911  26.274  1.00  0.00     0.012 A 
ATOM     80  C   UNL A   1      48.670  27.561  24.144  1.00  0.00     0.148 A 
ATOM     81  C   UNL A   1      50.878  26.713  25.657  1.00  0.00     0.002 A 
ATOM     82  C   UNL A   1      49.891  27.310  23.527  1.00  0.00     0.091 A 
ATOM     83  F   UNL A   1      47.606  27.994  23.455  1.00  0.00    -0.205 F 
ATOM     84  C   UNL A   1      51.000  26.902  24.284  1.00  0.00     0.022 A 
BRANCH  82  85
ATOM     85  S   UNL A   1      50.104  27.403  21.745  1.00  0.00     0.127 S 
ATOM     86  O   UNL A   1      49.640  28.756  21.458  1.00  0.00    -0.237 OA
ATOM     87  O   UNL A   1      51.545  27.200  21.598  1.00  0.00    -0.237 OA
ATOM     88  O   UNL A   1      49.291  26.323  21.199  1.00  0.00    -0.744 OA
ENDBRANCH  82  85
ENDBRANCH  54  78
BRANCH  66  89
ATOM     89  C   UNL A   1      45.719  32.752  28.949  1.00  0.00     0.023 A 
ATOM     90  C   UNL A   1      46.473  32.979  30.117  1.00  0.00     0.012 A 
ATOM     91  C   UNL A   1      45.508  33.813  28.046  1.00  0.00     0.148 A 
ATOM     92  C   UNL A   1      46.984  34.246  30.396  1.00  0.00     0.002 A 
ATOM     93  C   UNL A   1      46.060  35.061  28.307  1.00  0.00     0.091 A 
ATOM     94  F   UNL A   1      44.771  33.582  26.949  1.00  0.00    -0.205 F 
ATOM     95  C   UNL A   1      46.788  35.282  29.486  1.00  0.00     0.022 A 
BRANCH  93  96
ATOM     96  S   UNL A   1      45.940  36.426  27.144  1.00  0.00     0.127 S 
ATOM     97  O   UNL A   1      46.821  37.418  27.758  1.00  0.00    -0.237 OA
ATOM     98  O   UNL A   1      46.457  35.831  25.911  1.00  0.00    -0.237 OA
ATOM     99  O   UNL A   1      44.529  36.786  27.093  1.00  0.00    -0.744 OA
ENDBRANCH  93  96
ENDBRANCH  66  89
ENDBRANCH  40  41
ENDBRANCH  32  35
ENDBRANCH  30  31
ENDBRANCH  29  30
ENDBRANCH  28  29
ENDBRANCH   1  28
TORSDOF 22
ENDMDL
