MODEL 1
REMARK VINA RESULT:     -11.5      0.000      0.000
REMARK SMILES O=C(NCCCCCCNC(=O)c1cc(SCc2csc(-c3ccsc3)n2)ccn1)c1ccc(-c2c3nc(c(-c4cccc(S(=O)(=O)[O-])c4F)c4ccc([nH]4)c(-c4cccc(S(=O)(=O)[O-])c4F)c4nc(c(-c5cccc(S(=O)(=O)[O-])c5F)c5ccc2[nH]5)C=C4)C=C3)cc1
REMARK SMILES IDX 7 1 6 2 5 3 4 4 3 5 1 6 2 7 31 9 32 10 93 11 33 12 92 13
REMARK SMILES IDX 34 14 35 15 36 16 86 17 37 18 91 19 85 20 87 21 38 22 90 23
REMARK SMILES IDX 84 24 83 25 39 27 71 28 51 29 70 30 52 31 55 32 69 33 88 34
REMARK SMILES IDX 53 35 54 36 68 38 89 39 56 40 40 41 41 42 49 43 42 44 44 45
REMARK SMILES IDX 50 46 43 47 45 48 46 49 47 50 48 51 72 52 73 53 81 54 74 55
REMARK SMILES IDX 76 56 82 57 75 58 77 59 78 60 79 61 80 62 57 63 58 64 66 65
REMARK SMILES IDX 59 66 61 67 67 68 60 69 62 70 63 71 64 72 65 73 8 74 9 75
REMARK SMILES IDX 10 76 11 77 12 79 13 80 14 81 30 82 15 83 29 84 28 85 16 86
REMARK SMILES IDX 17 87 18 88 19 89 27 90 20 91 21 92 22 93 23 94 26 95 24 96
REMARK SMILES IDX 25 97
REMARK H PARENT 3 8 87 26 55 37 10 78
REMARK Flexibility Score: inf
ROOT
ATOM      1  C   UNL A   1      32.350  29.891  26.956  1.00  0.00     0.002 C 
ENDROOT
BRANCH   1   2
ATOM      2  C   UNL A   1      31.591  30.937  26.133  1.00  0.00     0.002 C 
BRANCH   2   3
ATOM      3  C   UNL A   1      31.432  32.304  26.795  1.00  0.00     0.021 C 
BRANCH   3   4
ATOM      4  C   UNL A   1      32.719  32.914  27.335  1.00  0.00     0.116 C 
BRANCH   4   5
ATOM      5  N   UNL A   1      32.513  34.254  27.858  1.00  0.00    -0.352 N 
ATOM      6  O   UNL A   1      32.643  35.954  29.318  1.00  0.00    -0.269 OA
ATOM      7  C   UNL A   1      33.128  34.902  28.903  1.00  0.00     0.251 C 
ATOM      8  H   UNL A   1      31.826  34.781  27.390  1.00  0.00     0.163 HD
BRANCH   7   9
ATOM      9  C   UNL A   1      34.351  34.351  29.541  1.00  0.00     0.039 A 
ATOM     10  C   UNL A   1      34.280  33.548  30.680  1.00  0.00     0.014 A 
ATOM     11  C   UNL A   1      35.597  34.580  28.945  1.00  0.00     0.014 A 
ATOM     12  C   UNL A   1      35.446  33.111  31.305  1.00  0.00     0.010 A 
ATOM     13  C   UNL A   1      36.761  34.041  29.510  1.00  0.00     0.010 A 
ATOM     14  C   UNL A   1      36.702  33.324  30.713  1.00  0.00    -0.014 A 
BRANCH  14  15
ATOM     15  C   UNL A   1      37.901  32.683  31.326  1.00  0.00     0.031 A 
ATOM     16  C   UNL A   1      38.498  33.171  32.618  1.00  0.00     0.074 A 
ATOM     17  C   UNL A   1      38.437  31.610  30.711  1.00  0.00     0.049 A 
ATOM     18  N   UNL A   1      39.424  32.614  33.360  1.00  0.00    -0.248 NA
ATOM     19  C   UNL A   1      37.996  34.442  33.156  1.00  0.00     0.031 C 
ATOM     20  C   UNL A   1      38.002  31.078  29.417  1.00  0.00     0.029 A 
ATOM     21  N   UNL A   1      39.456  30.772  31.085  1.00  0.00    -0.354 N 
ATOM     22  C   UNL A   1      39.602  33.457  34.451  1.00  0.00     0.074 A 
ATOM     23  C   UNL A   1      38.704  34.575  34.269  1.00  0.00     0.031 C 
ATOM     24  C   UNL A   1      38.725  29.990  29.118  1.00  0.00     0.029 A 
ATOM     25  C   UNL A   1      39.708  29.773  30.174  1.00  0.00     0.049 A 
ATOM     26  H   UNL A   1      39.958  30.874  31.926  1.00  0.00     0.167 HD
ATOM     27  C   UNL A   1      40.431  33.312  35.513  1.00  0.00     0.034 A 
ATOM     28  C   UNL A   1      40.637  28.798  30.174  1.00  0.00     0.034 A 
ATOM     29  C   UNL A   1      41.368  32.230  35.667  1.00  0.00     0.049 A 
ATOM     30  C   UNL A   1      41.557  28.672  31.352  1.00  0.00     0.074 A 
ATOM     31  C   UNL A   1      42.248  31.992  36.709  1.00  0.00     0.029 A 
ATOM     32  N   UNL A   1      41.574  31.224  34.736  1.00  0.00    -0.354 N 
ATOM     33  N   UNL A   1      41.592  29.385  32.451  1.00  0.00    -0.248 NA
ATOM     34  C   UNL A   1      42.545  27.585  31.306  1.00  0.00     0.031 C 
ATOM     35  C   UNL A   1      43.003  30.858  36.395  1.00  0.00     0.029 A 
ATOM     36  C   UNL A   1      42.574  30.371  35.171  1.00  0.00     0.049 A 
ATOM     37  H   UNL A   1      41.081  31.129  33.888  1.00  0.00     0.167 HD
ATOM     38  C   UNL A   1      42.589  28.820  33.237  1.00  0.00     0.074 A 
ATOM     39  C   UNL A   1      43.107  27.685  32.502  1.00  0.00     0.031 C 
ATOM     40  C   UNL A   1      43.050  29.219  34.448  1.00  0.00     0.034 A 
BRANCH  27  41
ATOM     41  C   UNL A   1      40.338  34.332  36.620  1.00  0.00     0.023 A 
ATOM     42  C   UNL A   1      40.770  35.651  36.373  1.00  0.00     0.012 A 
ATOM     43  C   UNL A   1      39.763  34.016  37.866  1.00  0.00     0.148 A 
ATOM     44  C   UNL A   1      40.650  36.635  37.353  1.00  0.00     0.002 A 
ATOM     45  C   UNL A   1      39.614  35.011  38.827  1.00  0.00     0.091 A 
ATOM     46  F   UNL A   1      39.375  32.752  38.089  1.00  0.00    -0.205 F 
ATOM     47  C   UNL A   1      40.064  36.318  38.575  1.00  0.00     0.022 A 
BRANCH  45  48
ATOM     48  S   UNL A   1      38.816  34.726  40.411  1.00  0.00     0.127 S 
ATOM     49  O   UNL A   1      38.451  36.085  40.806  1.00  0.00    -0.237 OA
ATOM     50  O   UNL A   1      37.687  33.875  40.038  1.00  0.00    -0.237 OA
ATOM     51  O   UNL A   1      39.815  34.080  41.253  1.00  0.00    -0.744 OA
ENDBRANCH  45  48
ENDBRANCH  27  41
BRANCH  28  52
ATOM     52  C   UNL A   1      40.715  27.852  29.025  1.00  0.00     0.023 A 
ATOM     53  C   UNL A   1      39.828  26.761  28.953  1.00  0.00     0.012 A 
ATOM     54  C   UNL A   1      41.644  28.052  27.986  1.00  0.00     0.148 A 
ATOM     55  C   UNL A   1      39.888  25.869  27.881  1.00  0.00     0.002 A 
ATOM     56  C   UNL A   1      41.654  27.197  26.891  1.00  0.00     0.091 A 
ATOM     57  F   UNL A   1      42.494  29.084  28.081  1.00  0.00    -0.205 F 
ATOM     58  C   UNL A   1      40.791  26.094  26.845  1.00  0.00     0.022 A 
BRANCH  56  59
ATOM     59  S   UNL A   1      42.682  27.512  25.452  1.00  0.00     0.127 S 
ATOM     60  O   UNL A   1      43.993  27.720  26.060  1.00  0.00    -0.237 OA
ATOM     61  O   UNL A   1      42.543  26.266  24.697  1.00  0.00    -0.237 OA
ATOM     62  O   UNL A   1      42.086  28.671  24.800  1.00  0.00    -0.744 OA
ENDBRANCH  56  59
ENDBRANCH  28  52
BRANCH  40  63
ATOM     63  C   UNL A   1      44.158  28.408  35.065  1.00  0.00     0.023 A 
ATOM     64  C   UNL A   1      45.494  28.647  34.686  1.00  0.00     0.012 A 
ATOM     65  C   UNL A   1      43.880  27.444  36.053  1.00  0.00     0.148 A 
ATOM     66  C   UNL A   1      46.534  27.910  35.253  1.00  0.00     0.002 A 
ATOM     67  C   UNL A   1      44.925  26.748  36.649  1.00  0.00     0.091 A 
ATOM     68  F   UNL A   1      42.600  27.216  36.384  1.00  0.00    -0.205 F 
ATOM     69  C   UNL A   1      46.250  26.969  36.240  1.00  0.00     0.022 A 
BRANCH  67  70
ATOM     70  S   UNL A   1      44.656  25.588  37.993  1.00  0.00     0.127 S 
ATOM     71  O   UNL A   1      43.942  26.418  38.964  1.00  0.00    -0.237 OA
ATOM     72  O   UNL A   1      43.835  24.557  37.355  1.00  0.00    -0.237 OA
ATOM     73  O   UNL A   1      45.977  25.138  38.404  1.00  0.00    -0.744 OA
ENDBRANCH  67  70
ENDBRANCH  40  63
ENDBRANCH  14  15
ENDBRANCH   7   9
ENDBRANCH   4   5
ENDBRANCH   3   4
ENDBRANCH   2   3
ENDBRANCH   1   2
BRANCH   1  74
ATOM     74  C   UNL A   1      33.824  29.686  26.584  1.00  0.00     0.021 C 
BRANCH  74  75
ATOM     75  C   UNL A   1      34.123  28.408  25.803  1.00  0.00     0.116 C 
BRANCH  75  76
ATOM     76  N   UNL A   1      34.409  28.678  24.403  1.00  0.00    -0.351 N 
ATOM     77  C   UNL A   1      33.683  28.325  23.287  1.00  0.00     0.269 C 
ATOM     78  H   UNL A   1      35.236  29.183  24.228  1.00  0.00     0.163 HD
ATOM     79  O   UNL A   1      34.137  28.544  22.164  1.00  0.00    -0.268 OA
BRANCH  77  80
ATOM     80  C   UNL A   1      32.334  27.722  23.454  1.00  0.00     0.129 A 
ATOM     81  C   UNL A   1      32.221  26.338  23.506  1.00  0.00     0.049 A 
ATOM     82  N   UNL A   1      31.286  28.577  23.528  1.00  0.00    -0.251 NA
ATOM     83  C   UNL A   1      30.949  25.786  23.572  1.00  0.00     0.011 A 
ATOM     84  C   UNL A   1      30.068  28.016  23.640  1.00  0.00     0.113 A 
ATOM     85  C   UNL A   1      29.852  26.647  23.657  1.00  0.00     0.035 A 
BRANCH  83  86
ATOM     86  S   UNL A   1      30.608  24.035  23.562  1.00  0.00    -0.120 SA
BRANCH  86  87
ATOM     87  C   UNL A   1      30.912  23.515  25.282  1.00  0.00     0.132 C 
BRANCH  87  88
ATOM     88  C   UNL A   1      32.062  22.578  25.505  1.00  0.00     0.062 A 
ATOM     89  C   UNL A   1      33.318  22.842  26.026  1.00  0.00     0.091 A 
ATOM     90  N   UNL A   1      31.908  21.272  25.052  1.00  0.00    -0.240 NA
ATOM     91  S   UNL A   1      34.374  21.527  25.713  1.00  0.00    -0.122 S 
ATOM     92  C   UNL A   1      33.082  20.677  24.972  1.00  0.00     0.124 A 
BRANCH  92  93
ATOM     93  C   UNL A   1      33.243  19.374  24.247  1.00  0.00     0.021 A 
ATOM     94  C   UNL A   1      32.383  18.863  23.228  1.00  0.00     0.023 A 
ATOM     95  C   UNL A   1      34.253  18.488  24.558  1.00  0.00     0.076 A 
ATOM     96  C   UNL A   1      32.748  17.591  22.845  1.00  0.00     0.065 A 
ATOM     97  S   UNL A   1      34.176  17.062  23.619  1.00  0.00    -0.152 S 
ENDBRANCH  92  93
ENDBRANCH  87  88
ENDBRANCH  86  87
ENDBRANCH  83  86
ENDBRANCH  77  80
ENDBRANCH  75  76
ENDBRANCH  74  75
ENDBRANCH   1  74
TORSDOF 20
ENDMDL
MODEL 2
REMARK VINA RESULT:     -11.2      1.037      7.488
REMARK SMILES O=C(NCCCCCCNC(=O)c1cc(SCc2csc(-c3ccsc3)n2)ccn1)c1ccc(-c2c3nc(c(-c4cccc(S(=O)(=O)[O-])c4F)c4ccc([nH]4)c(-c4cccc(S(=O)(=O)[O-])c4F)c4nc(c(-c5cccc(S(=O)(=O)[O-])c5F)c5ccc2[nH]5)C=C4)C=C3)cc1
REMARK SMILES IDX 7 1 6 2 5 3 4 4 3 5 1 6 2 7 31 9 32 10 93 11 33 12 92 13
REMARK SMILES IDX 34 14 35 15 36 16 86 17 37 18 91 19 85 20 87 21 38 22 90 23
REMARK SMILES IDX 84 24 83 25 39 27 71 28 51 29 70 30 52 31 55 32 69 33 88 34
REMARK SMILES IDX 53 35 54 36 68 38 89 39 56 40 40 41 41 42 49 43 42 44 44 45
REMARK SMILES IDX 50 46 43 47 45 48 46 49 47 50 48 51 72 52 73 53 81 54 74 55
REMARK SMILES IDX 76 56 82 57 75 58 77 59 78 60 79 61 80 62 57 63 58 64 66 65
REMARK SMILES IDX 59 66 61 67 67 68 60 69 62 70 63 71 64 72 65 73 8 74 9 75
REMARK SMILES IDX 10 76 11 77 12 79 13 80 14 81 30 82 15 83 29 84 28 85 16 86
REMARK SMILES IDX 17 87 18 88 19 89 27 90 20 91 21 92 22 93 23 94 26 95 24 96
REMARK SMILES IDX 25 97
REMARK H PARENT 3 8 87 26 55 37 10 78
REMARK Flexibility Score: inf
ROOT
ATOM      1  C   UNL A   1      31.931  29.641  26.693  1.00  0.00     0.002 C 
ENDROOT
BRANCH   1   2
ATOM      2  C   UNL A   1      31.475  30.883  25.920  1.00  0.00     0.002 C 
BRANCH   2   3
ATOM      3  C   UNL A   1      31.413  32.175  26.732  1.00  0.00     0.021 C 
BRANCH   3   4
ATOM      4  C   UNL A   1      32.746  32.649  27.295  1.00  0.00     0.116 C 
BRANCH   4   5
ATOM      5  N   UNL A   1      32.713  34.051  27.677  1.00  0.00    -0.352 N 
ATOM      6  O   UNL A   1      33.018  35.855  28.978  1.00  0.00    -0.269 OA
ATOM      7  C   UNL A   1      33.365  34.709  28.693  1.00  0.00     0.251 C 
ATOM      8  H   UNL A   1      32.132  34.619  27.121  1.00  0.00     0.163 HD
BRANCH   7   9
ATOM      9  C   UNL A   1      34.462  34.059  29.454  1.00  0.00     0.039 A 
ATOM     10  C   UNL A   1      34.201  33.125  30.458  1.00  0.00     0.014 A 
ATOM     11  C   UNL A   1      35.791  34.334  29.108  1.00  0.00     0.014 A 
ATOM     12  C   UNL A   1      35.244  32.592  31.210  1.00  0.00     0.010 A 
ATOM     13  C   UNL A   1      36.843  33.706  29.790  1.00  0.00     0.010 A 
ATOM     14  C   UNL A   1      36.583  32.849  30.869  1.00  0.00    -0.014 A 
BRANCH  14  15
ATOM     15  C   UNL A   1      37.660  32.114  31.590  1.00  0.00     0.031 A 
ATOM     16  C   UNL A   1      38.397  30.958  30.969  1.00  0.00     0.074 A 
ATOM     17  C   UNL A   1      38.003  32.532  32.825  1.00  0.00     0.049 A 
ATOM     18  N   UNL A   1      39.467  30.337  31.398  1.00  0.00    -0.248 NA
ATOM     19  C   UNL A   1      37.874  30.428  29.703  1.00  0.00     0.031 C 
ATOM     20  C   UNL A   1      37.323  33.593  33.573  1.00  0.00     0.029 A 
ATOM     21  N   UNL A   1      39.003  32.123  33.670  1.00  0.00    -0.354 N 
ATOM     22  C   UNL A   1      39.750  29.358  30.452  1.00  0.00     0.074 A 
ATOM     23  C   UNL A   1      38.729  29.451  29.434  1.00  0.00     0.031 C 
ATOM     24  C   UNL A   1      37.940  33.772  34.749  1.00  0.00     0.029 A 
ATOM     25  C   UNL A   1      39.029  32.809  34.862  1.00  0.00     0.049 A 
ATOM     26  H   UNL A   1      39.643  31.409  33.444  1.00  0.00     0.167 HD
ATOM     27  C   UNL A   1      40.770  28.466  30.428  1.00  0.00     0.034 A 
ATOM     28  C   UNL A   1      39.828  32.672  35.937  1.00  0.00     0.034 A 
ATOM     29  C   UNL A   1      41.754  28.332  31.470  1.00  0.00     0.049 A 
ATOM     30  C   UNL A   1      40.938  31.663  35.893  1.00  0.00     0.074 A 
ATOM     31  C   UNL A   1      42.829  27.463  31.535  1.00  0.00     0.029 A 
ATOM     32  N   UNL A   1      41.763  29.064  32.648  1.00  0.00    -0.354 N 
ATOM     33  N   UNL A   1      41.287  30.863  34.915  1.00  0.00    -0.248 NA
ATOM     34  C   UNL A   1      41.787  31.561  37.088  1.00  0.00     0.031 C 
ATOM     35  C   UNL A   1      43.471  27.652  32.764  1.00  0.00     0.029 A 
ATOM     36  C   UNL A   1      42.814  28.659  33.451  1.00  0.00     0.049 A 
ATOM     37  H   UNL A   1      41.115  29.769  32.879  1.00  0.00     0.167 HD
ATOM     38  C   UNL A   1      42.408  30.178  35.367  1.00  0.00     0.074 A 
ATOM     39  C   UNL A   1      42.699  30.684  36.693  1.00  0.00     0.031 C 
ATOM     40  C   UNL A   1      43.118  29.201  34.751  1.00  0.00     0.034 A 
BRANCH  27  41
ATOM     41  C   UNL A   1      40.902  27.584  29.212  1.00  0.00     0.023 A 
ATOM     42  C   UNL A   1      40.131  26.406  29.134  1.00  0.00     0.012 A 
ATOM     43  C   UNL A   1      41.719  27.947  28.123  1.00  0.00     0.148 A 
ATOM     44  C   UNL A   1      40.184  25.593  28.003  1.00  0.00     0.002 A 
ATOM     45  C   UNL A   1      41.740  27.149  26.984  1.00  0.00     0.091 A 
ATOM     46  F   UNL A   1      42.458  29.060  28.223  1.00  0.00    -0.205 F 
ATOM     47  C   UNL A   1      40.980  25.969  26.925  1.00  0.00     0.022 A 
BRANCH  45  48
ATOM     48  S   UNL A   1      42.682  27.574  25.514  1.00  0.00     0.127 S 
ATOM     49  O   UNL A   1      44.035  27.686  26.054  1.00  0.00    -0.237 OA
ATOM     50  O   UNL A   1      42.462  26.408  24.659  1.00  0.00    -0.237 OA
ATOM     51  O   UNL A   1      42.106  28.816  25.012  1.00  0.00    -0.744 OA
ENDBRANCH  45  48
ENDBRANCH  27  41
BRANCH  28  52
ATOM     52  C   UNL A   1      39.616  33.537  37.131  1.00  0.00     0.023 A 
ATOM     53  C   UNL A   1      38.632  33.197  38.078  1.00  0.00     0.012 A 
ATOM     54  C   UNL A   1      40.413  34.678  37.348  1.00  0.00     0.148 A 
ATOM     55  C   UNL A   1      38.424  33.997  39.204  1.00  0.00     0.002 A 
ATOM     56  C   UNL A   1      40.244  35.432  38.502  1.00  0.00     0.091 A 
ATOM     57  F   UNL A   1      41.332  34.998  36.425  1.00  0.00    -0.205 F 
ATOM     58  C   UNL A   1      39.238  35.106  39.422  1.00  0.00     0.022 A 
BRANCH  56  59
ATOM     59  S   UNL A   1      41.354  36.780  38.924  1.00  0.00     0.127 S 
ATOM     60  O   UNL A   1      42.156  36.187  39.989  1.00  0.00    -0.237 OA
ATOM     61  O   UNL A   1      42.066  36.997  37.663  1.00  0.00    -0.237 OA
ATOM     62  O   UNL A   1      40.487  37.885  39.313  1.00  0.00    -0.744 OA
ENDBRANCH  56  59
ENDBRANCH  28  52
BRANCH  40  63
ATOM     63  C   UNL A   1      44.295  28.630  35.496  1.00  0.00     0.023 A 
ATOM     64  C   UNL A   1      45.587  29.139  35.259  1.00  0.00     0.012 A 
ATOM     65  C   UNL A   1      44.114  27.623  36.463  1.00  0.00     0.148 A 
ATOM     66  C   UNL A   1      46.688  28.627  35.945  1.00  0.00     0.002 A 
ATOM     67  C   UNL A   1      45.208  27.151  37.179  1.00  0.00     0.091 A 
ATOM     68  F   UNL A   1      42.880  27.136  36.658  1.00  0.00    -0.205 F 
ATOM     69  C   UNL A   1      46.497  27.642  36.911  1.00  0.00     0.022 A 
BRANCH  67  70
ATOM     70  S   UNL A   1      45.038  25.952  38.504  1.00  0.00     0.127 S 
ATOM     71  O   UNL A   1      44.516  24.788  37.787  1.00  0.00    -0.237 OA
ATOM     72  O   UNL A   1      46.418  25.808  38.973  1.00  0.00    -0.237 OA
ATOM     73  O   UNL A   1      44.132  26.551  39.471  1.00  0.00    -0.744 OA
ENDBRANCH  67  70
ENDBRANCH  40  63
ENDBRANCH  14  15
ENDBRANCH   7   9
ENDBRANCH   4   5
ENDBRANCH   3   4
ENDBRANCH   2   3
ENDBRANCH   1   2
BRANCH   1  74
ATOM     74  C   UNL A   1      33.446  29.421  26.775  1.00  0.00     0.021 C 
BRANCH  74  75
ATOM     75  C   UNL A   1      33.975  28.242  25.960  1.00  0.00     0.116 C 
BRANCH  75  76
ATOM     76  N   UNL A   1      34.377  28.642  24.621  1.00  0.00    -0.351 N 
ATOM     77  C   UNL A   1      33.747  28.403  23.419  1.00  0.00     0.269 C 
ATOM     78  H   UNL A   1      35.216  29.154  24.564  1.00  0.00     0.163 HD
ATOM     79  O   UNL A   1      34.294  28.725  22.364  1.00  0.00    -0.268 OA
BRANCH  77  80
ATOM     80  C   UNL A   1      32.388  27.799  23.415  1.00  0.00     0.129 A 
ATOM     81  C   UNL A   1      32.265  26.426  23.585  1.00  0.00     0.049 A 
ATOM     82  N   UNL A   1      31.344  28.641  23.223  1.00  0.00    -0.251 NA
ATOM     83  C   UNL A   1      31.000  25.863  23.490  1.00  0.00     0.011 A 
ATOM     84  C   UNL A   1      30.124  28.074  23.183  1.00  0.00     0.113 A 
ATOM     85  C   UNL A   1      29.906  26.711  23.300  1.00  0.00     0.035 A 
BRANCH  83  86
ATOM     86  S   UNL A   1      30.664  24.115  23.599  1.00  0.00    -0.120 SA
BRANCH  86  87
ATOM     87  C   UNL A   1      31.067  23.692  25.325  1.00  0.00     0.132 C 
BRANCH  87  88
ATOM     88  C   UNL A   1      32.135  22.658  25.530  1.00  0.00     0.062 A 
ATOM     89  C   UNL A   1      33.398  22.800  26.079  1.00  0.00     0.091 A 
ATOM     90  N   UNL A   1      31.885  21.387  25.025  1.00  0.00    -0.240 NA
ATOM     91  S   UNL A   1      34.350  21.417  25.731  1.00  0.00    -0.122 S 
ATOM     92  C   UNL A   1      33.008  20.702  24.939  1.00  0.00     0.124 A 
BRANCH  92  93
ATOM     93  C   UNL A   1      33.078  19.418  24.167  1.00  0.00     0.021 A 
ATOM     94  C   UNL A   1      32.322  19.093  23.001  1.00  0.00     0.023 A 
ATOM     95  C   UNL A   1      33.875  18.367  24.571  1.00  0.00     0.076 A 
ATOM     96  C   UNL A   1      32.540  17.793  22.599  1.00  0.00     0.065 A 
ATOM     97  S   UNL A   1      33.727  17.009  23.545  1.00  0.00    -0.152 S 
ENDBRANCH  92  93
ENDBRANCH  87  88
ENDBRANCH  86  87
ENDBRANCH  83  86
ENDBRANCH  77  80
ENDBRANCH  75  76
ENDBRANCH  74  75
ENDBRANCH   1  74
TORSDOF 20
ENDMDL
MODEL 3
REMARK VINA RESULT:     -11.0      2.314      2.971
REMARK SMILES O=C(NCCCCCCNC(=O)c1cc(SCc2csc(-c3ccsc3)n2)ccn1)c1ccc(-c2c3nc(c(-c4cccc(S(=O)(=O)[O-])c4F)c4ccc([nH]4)c(-c4cccc(S(=O)(=O)[O-])c4F)c4nc(c(-c5cccc(S(=O)(=O)[O-])c5F)c5ccc2[nH]5)C=C4)C=C3)cc1
REMARK SMILES IDX 7 1 6 2 5 3 4 4 3 5 1 6 2 7 31 9 32 10 93 11 33 12 92 13
REMARK SMILES IDX 34 14 35 15 36 16 86 17 37 18 91 19 85 20 87 21 38 22 90 23
REMARK SMILES IDX 84 24 83 25 39 27 71 28 51 29 70 30 52 31 55 32 69 33 88 34
REMARK SMILES IDX 53 35 54 36 68 38 89 39 56 40 40 41 41 42 49 43 42 44 44 45
REMARK SMILES IDX 50 46 43 47 45 48 46 49 47 50 48 51 72 52 73 53 81 54 74 55
REMARK SMILES IDX 76 56 82 57 75 58 77 59 78 60 79 61 80 62 57 63 58 64 66 65
REMARK SMILES IDX 59 66 61 67 67 68 60 69 62 70 63 71 64 72 65 73 8 74 9 75
REMARK SMILES IDX 10 76 11 77 12 79 13 80 14 81 30 82 15 83 29 84 28 85 16 86
REMARK SMILES IDX 17 87 18 88 19 89 27 90 20 91 21 92 22 93 23 94 26 95 24 96
REMARK SMILES IDX 25 97
REMARK H PARENT 3 8 87 26 55 37 10 78
REMARK Flexibility Score: inf
ROOT
ATOM      1  C   UNL A   1      35.377  32.003  28.608  1.00  0.00     0.002 C 
ENDROOT
BRANCH   1   2
ATOM      2  C   UNL A   1      35.620  33.273  27.786  1.00  0.00     0.002 C 
BRANCH   2   3
ATOM      3  C   UNL A   1      34.652  34.425  28.056  1.00  0.00     0.021 C 
BRANCH   3   4
ATOM      4  C   UNL A   1      33.347  34.026  28.730  1.00  0.00     0.116 C 
BRANCH   4   5
ATOM      5  N   UNL A   1      33.032  34.882  29.862  1.00  0.00    -0.352 N 
ATOM      6  O   UNL A   1      33.006  35.570  31.999  1.00  0.00    -0.269 OA
ATOM      7  C   UNL A   1      33.576  34.918  31.124  1.00  0.00     0.251 C 
ATOM      8  H   UNL A   1      32.317  35.539  29.700  1.00  0.00     0.163 HD
BRANCH   7   9
ATOM      9  C   UNL A   1      34.823  34.179  31.449  1.00  0.00     0.039 A 
ATOM     10  C   UNL A   1      36.082  34.724  31.193  1.00  0.00     0.014 A 
ATOM     11  C   UNL A   1      34.736  32.938  32.092  1.00  0.00     0.014 A 
ATOM     12  C   UNL A   1      37.232  33.977  31.431  1.00  0.00     0.010 A 
ATOM     13  C   UNL A   1      35.900  32.238  32.439  1.00  0.00     0.010 A 
ATOM     14  C   UNL A   1      37.162  32.736  32.086  1.00  0.00    -0.014 A 
BRANCH  14  15
ATOM     15  C   UNL A   1      38.431  32.060  32.479  1.00  0.00     0.031 A 
ATOM     16  C   UNL A   1      39.157  32.395  33.754  1.00  0.00     0.074 A 
ATOM     17  C   UNL A   1      38.916  31.092  31.675  1.00  0.00     0.049 A 
ATOM     18  N   UNL A   1      40.167  31.776  34.314  1.00  0.00    -0.248 NA
ATOM     19  C   UNL A   1      38.694  33.569  34.504  1.00  0.00     0.031 C 
ATOM     20  C   UNL A   1      38.352  30.718  30.375  1.00  0.00     0.029 A 
ATOM     21  N   UNL A   1      39.984  30.246  31.825  1.00  0.00    -0.354 N 
ATOM     22  C   UNL A   1      40.448  32.477  35.482  1.00  0.00     0.074 A 
ATOM     23  C   UNL A   1      39.516  33.580  35.544  1.00  0.00     0.031 C 
ATOM     24  C   UNL A   1      39.058  29.702  29.861  1.00  0.00     0.029 A 
ATOM     25  C   UNL A   1      40.153  29.382  30.769  1.00  0.00     0.049 A 
ATOM     26  H   UNL A   1      40.573  30.254  32.615  1.00  0.00     0.167 HD
ATOM     27  C   UNL A   1      41.390  32.221  36.422  1.00  0.00     0.034 A 
ATOM     28  C   UNL A   1      41.093  28.445  30.542  1.00  0.00     0.034 A 
ATOM     29  C   UNL A   1      42.357  31.159  36.332  1.00  0.00     0.049 A 
ATOM     30  C   UNL A   1      42.138  28.196  31.590  1.00  0.00     0.074 A 
ATOM     31  C   UNL A   1      43.349  30.816  37.235  1.00  0.00     0.029 A 
ATOM     32  N   UNL A   1      42.478  30.288  35.260  1.00  0.00    -0.354 N 
ATOM     33  N   UNL A   1      42.280  28.762  32.764  1.00  0.00    -0.248 NA
ATOM     34  C   UNL A   1      43.134  27.156  31.297  1.00  0.00     0.031 C 
ATOM     35  C   UNL A   1      44.085  29.756  36.696  1.00  0.00     0.029 A 
ATOM     36  C   UNL A   1      43.534  29.418  35.472  1.00  0.00     0.049 A 
ATOM     37  H   UNL A   1      41.897  30.289  34.464  1.00  0.00     0.167 HD
ATOM     38  C   UNL A   1      43.366  28.132  33.359  1.00  0.00     0.074 A 
ATOM     39  C   UNL A   1      43.821  27.118  32.430  1.00  0.00     0.031 C 
ATOM     40  C   UNL A   1      43.949  28.385  34.557  1.00  0.00     0.034 A 
BRANCH  27  41
ATOM     41  C   UNL A   1      41.400  33.086  37.658  1.00  0.00     0.023 A 
ATOM     42  C   UNL A   1      40.645  32.686  38.779  1.00  0.00     0.012 A 
ATOM     43  C   UNL A   1      42.204  34.240  37.742  1.00  0.00     0.148 A 
ATOM     44  C   UNL A   1      40.672  33.429  39.958  1.00  0.00     0.002 A 
ATOM     45  C   UNL A   1      42.252  34.957  38.934  1.00  0.00     0.091 A 
ATOM     46  F   UNL A   1      42.900  34.615  36.660  1.00  0.00    -0.205 F 
ATOM     47  C   UNL A   1      41.482  34.559  40.039  1.00  0.00     0.022 A 
BRANCH  45  48
ATOM     48  S   UNL A   1      43.310  36.391  39.166  1.00  0.00     0.127 S 
ATOM     49  O   UNL A   1      44.630  35.832  38.878  1.00  0.00    -0.237 OA
ATOM     50  O   UNL A   1      42.805  37.314  38.151  1.00  0.00    -0.237 OA
ATOM     51  O   UNL A   1      43.104  36.824  40.542  1.00  0.00    -0.744 OA
ENDBRANCH  45  48
ENDBRANCH  27  41
BRANCH  28  52
ATOM     52  C   UNL A   1      41.062  27.657  29.277  1.00  0.00     0.023 A 
ATOM     53  C   UNL A   1      40.184  26.565  29.151  1.00  0.00     0.012 A 
ATOM     54  C   UNL A   1      41.878  28.013  28.185  1.00  0.00     0.148 A 
ATOM     55  C   UNL A   1      40.143  25.821  27.971  1.00  0.00     0.002 A 
ATOM     56  C   UNL A   1      41.784  27.308  26.992  1.00  0.00     0.091 A 
ATOM     57  F   UNL A   1      42.723  29.045  28.330  1.00  0.00    -0.205 F 
ATOM     58  C   UNL A   1      40.932  26.200  26.888  1.00  0.00     0.022 A 
BRANCH  56  59
ATOM     59  S   UNL A   1      42.655  27.832  25.511  1.00  0.00     0.127 S 
ATOM     60  O   UNL A   1      42.509  26.664  24.648  1.00  0.00    -0.237 OA
ATOM     61  O   UNL A   1      41.883  29.005  25.099  1.00  0.00    -0.237 OA
ATOM     62  O   UNL A   1      44.011  28.138  25.951  1.00  0.00    -0.744 OA
ENDBRANCH  56  59
ENDBRANCH  28  52
BRANCH  40  63
ATOM     63  C   UNL A   1      45.132  27.537  34.941  1.00  0.00     0.023 A 
ATOM     64  C   UNL A   1      46.437  27.992  34.669  1.00  0.00     0.012 A 
ATOM     65  C   UNL A   1      44.950  26.313  35.612  1.00  0.00     0.148 A 
ATOM     66  C   UNL A   1      47.544  27.222  35.025  1.00  0.00     0.002 A 
ATOM     67  C   UNL A   1      46.060  25.574  36.008  1.00  0.00     0.091 A 
ATOM     68  F   UNL A   1      43.700  25.886  35.842  1.00  0.00    -0.205 F 
ATOM     69  C   UNL A   1      47.355  26.020  35.702  1.00  0.00     0.022 A 
BRANCH  67  70
ATOM     70  S   UNL A   1      45.909  24.062  36.966  1.00  0.00     0.127 S 
ATOM     71  O   UNL A   1      47.311  23.690  37.156  1.00  0.00    -0.237 OA
ATOM     72  O   UNL A   1      45.234  24.529  38.179  1.00  0.00    -0.237 OA
ATOM     73  O   UNL A   1      45.122  23.150  36.151  1.00  0.00    -0.744 OA
ENDBRANCH  67  70
ENDBRANCH  40  63
ENDBRANCH  14  15
ENDBRANCH   7   9
ENDBRANCH   4   5
ENDBRANCH   3   4
ENDBRANCH   2   3
ENDBRANCH   1   2
BRANCH   1  74
ATOM     74  C   UNL A   1      35.662  30.677  27.893  1.00  0.00     0.021 C 
BRANCH  74  75
ATOM     75  C   UNL A   1      34.430  29.956  27.351  1.00  0.00     0.116 C 
BRANCH  75  76
ATOM     76  N   UNL A   1      33.272  30.834  27.278  1.00  0.00    -0.351 N 
ATOM     77  C   UNL A   1      32.058  30.617  26.664  1.00  0.00     0.269 C 
ATOM     78  H   UNL A   1      33.370  31.703  27.730  1.00  0.00     0.163 HD
ATOM     79  O   UNL A   1      31.227  31.524  26.610  1.00  0.00    -0.268 OA
BRANCH  77  80
ATOM     80  C   UNL A   1      31.749  29.271  26.114  1.00  0.00     0.129 A 
ATOM     81  C   UNL A   1      31.690  29.107  24.736  1.00  0.00     0.049 A 
ATOM     82  N   UNL A   1      31.522  28.280  27.011  1.00  0.00    -0.251 NA
ATOM     83  C   UNL A   1      31.312  27.869  24.237  1.00  0.00     0.011 A 
ATOM     84  C   UNL A   1      31.205  27.077  26.498  1.00  0.00     0.113 A 
ATOM     85  C   UNL A   1      31.080  26.828  25.141  1.00  0.00     0.035 A 
BRANCH  83  86
ATOM     86  S   UNL A   1      31.104  27.501  22.504  1.00  0.00    -0.120 SA
BRANCH  86  87
ATOM     87  C   UNL A   1      32.661  26.679  22.035  1.00  0.00     0.132 C 
BRANCH  87  88
ATOM     88  C   UNL A   1      32.756  25.210  22.318  1.00  0.00     0.062 A 
ATOM     89  C   UNL A   1      31.744  24.271  22.425  1.00  0.00     0.091 A 
ATOM     90  N   UNL A   1      34.019  24.705  22.609  1.00  0.00    -0.240 NA
ATOM     91  S   UNL A   1      32.349  22.831  23.133  1.00  0.00    -0.122 S 
ATOM     92  C   UNL A   1      33.916  23.525  23.187  1.00  0.00     0.124 A 
BRANCH  92  93
ATOM     93  C   UNL A   1      35.092  22.885  23.862  1.00  0.00     0.021 A 
ATOM     94  C   UNL A   1      36.407  22.754  23.321  1.00  0.00     0.023 A 
ATOM     95  C   UNL A   1      34.985  22.289  25.101  1.00  0.00     0.076 A 
ATOM     96  C   UNL A   1      37.228  22.021  24.151  1.00  0.00     0.065 A 
ATOM     97  S   UNL A   1      36.460  21.593  25.616  1.00  0.00    -0.152 S 
ENDBRANCH  92  93
ENDBRANCH  87  88
ENDBRANCH  86  87
ENDBRANCH  83  86
ENDBRANCH  77  80
ENDBRANCH  75  76
ENDBRANCH  74  75
ENDBRANCH   1  74
TORSDOF 20
ENDMDL
