MODEL 1
REMARK VINA RESULT:     -12.7      0.000      0.000
REMARK SMILES O=C(NCCCCCCNC(=O)c1nnn(-c2cccc(C(F)(F)F)c2)c1[C@@H]1COc2ccccc2O1)c1ccc(-c2c3nc(c(-c4cccc(S(=O)(=O)[O-])c4F)c4ccc([nH]4)c(-c4cccc(S(=O)(=O)[O-])c4F)c4nc(c(-c5cccc(S(=O)(=O)[O-])c5F)c5ccc2[nH]5)C=C4)C=C3)cc1
REMARK SMILES IDX 6 1 5 2 4 3 3 4 1 5 2 6 38 8 39 9 100 10 40 11 99 12 41 13
REMARK SMILES IDX 42 14 43 15 93 16 44 17 98 18 92 19 94 20 45 21 97 22 91 23
REMARK SMILES IDX 90 24 46 26 78 27 58 28 77 29 59 30 62 31 76 32 95 33 60 34
REMARK SMILES IDX 61 35 75 37 96 38 63 39 47 40 48 41 56 42 49 43 51 44 57 45
REMARK SMILES IDX 50 46 52 47 53 48 54 49 55 50 79 51 80 52 88 53 81 54 83 55
REMARK SMILES IDX 89 56 82 57 84 58 85 59 86 60 87 61 64 62 65 63 73 64 66 65
REMARK SMILES IDX 68 66 74 67 67 68 69 69 70 70 71 71 72 72 7 73 8 74 9 75
REMARK SMILES IDX 10 76 11 77 12 79 13 80 14 81 27 82 15 83 16 84 28 85 29 86
REMARK SMILES IDX 37 87 30 88 36 89 31 90 35 91 32 92 34 93 33 94 17 95 18 96
REMARK SMILES IDX 26 97 19 98 21 99 20 100 22 101 23 102 24 103 25 104
REMARK H PARENT 3 7 94 25 62 36 10 78
REMARK Flexibility Score: inf
ROOT
ATOM      1  C   UNL A   1      34.368  28.919  26.626  1.00  0.00     0.002 C 
ENDROOT
BRANCH   1   2
ATOM      2  C   UNL A   1      35.457  29.322  27.627  1.00  0.00     0.021 C 
BRANCH   2   3
ATOM      3  C   UNL A   1      35.534  30.812  27.960  1.00  0.00     0.116 C 
BRANCH   3   4
ATOM      4  N   UNL A   1      35.224  31.156  29.331  1.00  0.00    -0.352 N 
ATOM      5  O   UNL A   1      35.365  31.608  31.494  1.00  0.00    -0.269 OA
ATOM      6  C   UNL A   1      35.945  31.182  30.494  1.00  0.00     0.251 C 
ATOM      7  H   UNL A   1      34.289  31.433  29.454  1.00  0.00     0.163 HD
BRANCH   6   8
ATOM      8  C   UNL A   1      37.325  30.656  30.619  1.00  0.00     0.039 A 
ATOM      9  C   UNL A   1      38.479  31.443  30.624  1.00  0.00     0.014 A 
ATOM     10  C   UNL A   1      37.446  29.263  30.735  1.00  0.00     0.014 A 
ATOM     11  C   UNL A   1      39.734  30.850  30.597  1.00  0.00     0.010 A 
ATOM     12  C   UNL A   1      38.698  28.667  30.759  1.00  0.00     0.010 A 
ATOM     13  C   UNL A   1      39.838  29.463  30.632  1.00  0.00    -0.014 A 
BRANCH  13  14
ATOM     14  C   UNL A   1      41.171  28.868  30.641  1.00  0.00     0.031 A 
ATOM     15  C   UNL A   1      41.813  28.720  31.984  1.00  0.00     0.074 A 
ATOM     16  C   UNL A   1      41.678  28.303  29.527  1.00  0.00     0.049 A 
ATOM     17  N   UNL A   1      43.014  29.041  32.356  1.00  0.00    -0.248 NA
ATOM     18  C   UNL A   1      40.969  28.207  33.078  1.00  0.00     0.031 C 
ATOM     19  C   UNL A   1      40.996  28.126  28.239  1.00  0.00     0.029 A 
ATOM     20  N   UNL A   1      42.830  27.590  29.371  1.00  0.00    -0.354 N 
ATOM     21  C   UNL A   1      43.138  28.582  33.670  1.00  0.00     0.074 A 
ATOM     22  C   UNL A   1      41.818  28.210  34.105  1.00  0.00     0.031 C 
ATOM     23  C   UNL A   1      41.598  27.128  27.560  1.00  0.00     0.029 A 
ATOM     24  C   UNL A   1      42.763  26.694  28.308  1.00  0.00     0.049 A 
ATOM     25  H   UNL A   1      43.620  27.696  29.947  1.00  0.00     0.167 HD
ATOM     26  C   UNL A   1      44.340  28.333  34.260  1.00  0.00     0.034 A 
ATOM     27  C   UNL A   1      43.527  25.590  28.132  1.00  0.00     0.034 A 
ATOM     28  C   UNL A   1      45.430  28.981  33.593  1.00  0.00     0.049 A 
ATOM     29  C   UNL A   1      44.730  25.729  28.982  1.00  0.00     0.074 A 
ATOM     30  C   UNL A   1      45.779  30.286  33.316  1.00  0.00     0.029 A 
ATOM     31  N   UNL A   1      46.247  28.203  32.810  1.00  0.00    -0.354 N 
ATOM     32  N   UNL A   1      45.649  26.634  28.796  1.00  0.00    -0.248 NA
ATOM     33  C   UNL A   1      44.716  25.110  30.296  1.00  0.00     0.031 C 
ATOM     34  C   UNL A   1      46.420  30.230  32.044  1.00  0.00     0.029 A 
ATOM     35  C   UNL A   1      46.438  28.892  31.644  1.00  0.00     0.049 A 
ATOM     36  H   UNL A   1      46.622  27.323  33.043  1.00  0.00     0.167 HD
ATOM     37  C   UNL A   1      46.038  27.006  30.076  1.00  0.00     0.074 A 
ATOM     38  C   UNL A   1      45.518  25.955  30.948  1.00  0.00     0.031 C 
ATOM     39  C   UNL A   1      46.488  28.268  30.341  1.00  0.00     0.034 A 
BRANCH  26  40
ATOM     40  C   UNL A   1      44.574  27.233  35.268  1.00  0.00     0.023 A 
ATOM     41  C   UNL A   1      45.125  27.584  36.520  1.00  0.00     0.012 A 
ATOM     42  C   UNL A   1      44.539  25.857  34.944  1.00  0.00     0.148 A 
ATOM     43  C   UNL A   1      45.642  26.616  37.390  1.00  0.00     0.002 A 
ATOM     44  C   UNL A   1      44.979  24.895  35.846  1.00  0.00     0.091 A 
ATOM     45  F   UNL A   1      44.207  25.472  33.706  1.00  0.00    -0.205 F 
ATOM     46  C   UNL A   1      45.559  25.269  37.059  1.00  0.00     0.022 A 
BRANCH  44  47
ATOM     47  S   UNL A   1      44.831  23.144  35.476  1.00  0.00     0.127 S 
ATOM     48  O   UNL A   1      45.770  22.998  34.370  1.00  0.00    -0.237 OA
ATOM     49  O   UNL A   1      45.254  22.530  36.735  1.00  0.00    -0.237 OA
ATOM     50  O   UNL A   1      43.421  22.945  35.165  1.00  0.00    -0.744 OA
ENDBRANCH  44  47
ENDBRANCH  26  40
BRANCH  27  51
ATOM     51  C   UNL A   1      43.120  24.301  27.528  1.00  0.00     0.023 A 
ATOM     52  C   UNL A   1      41.794  23.850  27.658  1.00  0.00     0.012 A 
ATOM     53  C   UNL A   1      43.972  23.619  26.628  1.00  0.00     0.148 A 
ATOM     54  C   UNL A   1      41.331  22.756  26.913  1.00  0.00     0.002 A 
ATOM     55  C   UNL A   1      43.516  22.520  25.910  1.00  0.00     0.091 A 
ATOM     56  F   UNL A   1      45.202  24.104  26.409  1.00  0.00    -0.205 F 
ATOM     57  C   UNL A   1      42.191  22.091  26.042  1.00  0.00     0.022 A 
BRANCH  55  58
ATOM     58  S   UNL A   1      44.580  21.613  24.779  1.00  0.00     0.127 S 
ATOM     59  O   UNL A   1      43.884  20.330  24.671  1.00  0.00    -0.237 OA
ATOM     60  O   UNL A   1      44.524  22.442  23.578  1.00  0.00    -0.237 OA
ATOM     61  O   UNL A   1      45.878  21.532  25.436  1.00  0.00    -0.744 OA
ENDBRANCH  55  58
ENDBRANCH  27  51
BRANCH  39  62
ATOM     62  C   UNL A   1      46.744  29.193  29.174  1.00  0.00     0.023 A 
ATOM     63  C   UNL A   1      47.962  29.155  28.463  1.00  0.00     0.012 A 
ATOM     64  C   UNL A   1      45.684  29.958  28.661  1.00  0.00     0.148 A 
ATOM     65  C   UNL A   1      48.133  29.883  27.285  1.00  0.00     0.002 A 
ATOM     66  C   UNL A   1      45.843  30.648  27.463  1.00  0.00     0.091 A 
ATOM     67  F   UNL A   1      44.524  29.968  29.334  1.00  0.00    -0.205 F 
ATOM     68  C   UNL A   1      47.067  30.620  26.777  1.00  0.00     0.022 A 
BRANCH  66  69
ATOM     69  S   UNL A   1      44.473  31.504  26.680  1.00  0.00     0.127 S 
ATOM     70  O   UNL A   1      44.127  32.509  27.688  1.00  0.00    -0.237 OA
ATOM     71  O   UNL A   1      45.098  32.049  25.470  1.00  0.00    -0.237 OA
ATOM     72  O   UNL A   1      43.460  30.498  26.423  1.00  0.00    -0.744 OA
ENDBRANCH  66  69
ENDBRANCH  39  62
ENDBRANCH  13  14
ENDBRANCH   6   8
ENDBRANCH   3   4
ENDBRANCH   2   3
ENDBRANCH   1   2
BRANCH   1  73
ATOM     73  C   UNL A   1      32.944  28.762  27.174  1.00  0.00     0.002 C 
BRANCH  73  74
ATOM     74  C   UNL A   1      31.806  29.042  26.197  1.00  0.00     0.021 C 
BRANCH  74  75
ATOM     75  C   UNL A   1      32.204  29.622  24.847  1.00  0.00     0.116 C 
BRANCH  75  76
ATOM     76  N   UNL A   1      31.330  29.306  23.750  1.00  0.00    -0.351 N 
ATOM     77  C   UNL A   1      30.814  28.136  23.234  1.00  0.00     0.273 C 
ATOM     78  H   UNL A   1      31.033  30.104  23.257  1.00  0.00     0.163 HD
ATOM     79  O   UNL A   1      30.140  28.314  22.212  1.00  0.00    -0.267 OA
BRANCH  77  80
ATOM     80  C   UNL A   1      30.997  26.758  23.753  1.00  0.00     0.178 A 
ATOM     81  N   UNL A   1      29.849  25.975  23.793  1.00  0.00    -0.124 NA
ATOM     82  C   UNL A   1      32.054  25.953  24.202  1.00  0.00     0.122 A 
ATOM     83  N   UNL A   1      30.152  24.759  24.208  1.00  0.00    -0.061 NA
ATOM     84  N   UNL A   1      31.436  24.771  24.597  1.00  0.00    -0.213 N 
BRANCH  82  85
ATOM     85  C   UNL A   1      33.542  26.087  24.082  1.00  0.00     0.262 C 
ATOM     86  C   UNL A   1      33.985  25.649  22.666  1.00  0.00     0.281 C 
ATOM     87  O   UNL A   1      34.269  25.461  25.146  1.00  0.00    -0.477 OA
ATOM     88  O   UNL A   1      34.149  24.235  22.571  1.00  0.00    -0.485 OA
ATOM     89  C   UNL A   1      35.194  24.540  24.725  1.00  0.00     0.162 A 
ATOM     90  C   UNL A   1      35.092  23.879  23.497  1.00  0.00     0.161 A 
ATOM     91  C   UNL A   1      36.224  24.213  25.597  1.00  0.00     0.050 A 
ATOM     92  C   UNL A   1      35.949  22.836  23.171  1.00  0.00     0.050 A 
ATOM     93  C   UNL A   1      37.128  23.205  25.248  1.00  0.00     0.004 A 
ATOM     94  C   UNL A   1      36.976  22.503  24.049  1.00  0.00     0.004 A 
ENDBRANCH  82  85
BRANCH  84  95
ATOM     95  C   UNL A   1      31.971  23.666  25.279  1.00  0.00     0.067 A 
ATOM     96  C   UNL A   1      32.151  23.731  26.663  1.00  0.00     0.028 A 
ATOM     97  C   UNL A   1      32.209  22.480  24.574  1.00  0.00     0.041 A 
ATOM     98  C   UNL A   1      32.465  22.564  27.359  1.00  0.00     0.003 A 
ATOM     99  C   UNL A   1      32.557  21.313  25.268  1.00  0.00     0.058 A 
ATOM    100  C   UNL A   1      32.653  21.361  26.669  1.00  0.00     0.013 A 
BRANCH  99 101
ATOM    101  C   UNL A   1      32.762  20.011  24.534  1.00  0.00     0.416 C 
ATOM    102  F   UNL A   1      32.178  18.959  25.174  1.00  0.00    -0.166 F 
ATOM    103  F   UNL A   1      32.236  20.028  23.280  1.00  0.00    -0.166 F 
ATOM    104  F   UNL A   1      34.074  19.673  24.389  1.00  0.00    -0.166 F 
ENDBRANCH  99 101
ENDBRANCH  84  95
ENDBRANCH  77  80
ENDBRANCH  75  76
ENDBRANCH  74  75
ENDBRANCH  73  74
ENDBRANCH   1  73
TORSDOF 19
ENDMDL
MODEL 2
REMARK VINA RESULT:     -12.1      1.928      2.335
REMARK SMILES O=C(NCCCCCCNC(=O)c1nnn(-c2cccc(C(F)(F)F)c2)c1[C@@H]1COc2ccccc2O1)c1ccc(-c2c3nc(c(-c4cccc(S(=O)(=O)[O-])c4F)c4ccc([nH]4)c(-c4cccc(S(=O)(=O)[O-])c4F)c4nc(c(-c5cccc(S(=O)(=O)[O-])c5F)c5ccc2[nH]5)C=C4)C=C3)cc1
REMARK SMILES IDX 6 1 5 2 4 3 3 4 1 5 2 6 38 8 39 9 100 10 40 11 99 12 41 13
REMARK SMILES IDX 42 14 43 15 93 16 44 17 98 18 92 19 94 20 45 21 97 22 91 23
REMARK SMILES IDX 90 24 46 26 78 27 58 28 77 29 59 30 62 31 76 32 95 33 60 34
REMARK SMILES IDX 61 35 75 37 96 38 63 39 47 40 48 41 56 42 49 43 51 44 57 45
REMARK SMILES IDX 50 46 52 47 53 48 54 49 55 50 79 51 80 52 88 53 81 54 83 55
REMARK SMILES IDX 89 56 82 57 84 58 85 59 86 60 87 61 64 62 65 63 73 64 66 65
REMARK SMILES IDX 68 66 74 67 67 68 69 69 70 70 71 71 72 72 7 73 8 74 9 75
REMARK SMILES IDX 10 76 11 77 12 79 13 80 14 81 27 82 15 83 16 84 28 85 29 86
REMARK SMILES IDX 37 87 30 88 36 89 31 90 35 91 32 92 34 93 33 94 17 95 18 96
REMARK SMILES IDX 26 97 19 98 21 99 20 100 22 101 23 102 24 103 25 104
REMARK H PARENT 3 7 94 25 62 36 10 78
REMARK Flexibility Score: inf
ROOT
ATOM      1  C   UNL A   1      34.078  28.673  26.592  1.00  0.00     0.002 C 
ENDROOT
BRANCH   1   2
ATOM      2  C   UNL A   1      35.057  29.360  27.551  1.00  0.00     0.021 C 
BRANCH   2   3
ATOM      3  C   UNL A   1      34.825  30.854  27.779  1.00  0.00     0.116 C 
BRANCH   3   4
ATOM      4  N   UNL A   1      34.863  31.282  29.161  1.00  0.00    -0.352 N 
ATOM      5  O   UNL A   1      35.523  31.799  31.210  1.00  0.00    -0.269 OA
ATOM      6  C   UNL A   1      35.822  31.274  30.136  1.00  0.00     0.251 C 
ATOM      7  H   UNL A   1      34.009  31.663  29.466  1.00  0.00     0.163 HD
BRANCH   6   8
ATOM      8  C   UNL A   1      37.138  30.607  29.991  1.00  0.00     0.039 A 
ATOM      9  C   UNL A   1      37.329  29.223  29.960  1.00  0.00     0.014 A 
ATOM     10  C   UNL A   1      38.251  31.454  29.885  1.00  0.00     0.014 A 
ATOM     11  C   UNL A   1      38.611  28.690  29.970  1.00  0.00     0.010 A 
ATOM     12  C   UNL A   1      39.533  30.927  29.845  1.00  0.00     0.010 A 
ATOM     13  C   UNL A   1      39.709  29.545  29.946  1.00  0.00    -0.014 A 
BRANCH  13  14
ATOM     14  C   UNL A   1      41.044  28.957  29.918  1.00  0.00     0.031 A 
ATOM     15  C   UNL A   1      41.665  28.676  31.250  1.00  0.00     0.074 A 
ATOM     16  C   UNL A   1      41.573  28.509  28.761  1.00  0.00     0.049 A 
ATOM     17  N   UNL A   1      42.858  28.962  31.673  1.00  0.00    -0.248 NA
ATOM     18  C   UNL A   1      40.806  28.051  32.271  1.00  0.00     0.031 C 
ATOM     19  C   UNL A   1      40.913  28.462  27.451  1.00  0.00     0.029 A 
ATOM     20  N   UNL A   1      42.731  27.820  28.553  1.00  0.00    -0.354 N 
ATOM     21  C   UNL A   1      42.962  28.373  32.935  1.00  0.00     0.074 A 
ATOM     22  C   UNL A   1      41.637  27.953  33.307  1.00  0.00     0.031 C 
ATOM     23  C   UNL A   1      41.532  27.540  26.684  1.00  0.00     0.029 A 
ATOM     24  C   UNL A   1      42.687  27.036  27.404  1.00  0.00     0.049 A 
ATOM     25  H   UNL A   1      43.511  27.870  29.151  1.00  0.00     0.167 HD
ATOM     26  C   UNL A   1      44.155  28.070  33.518  1.00  0.00     0.034 A 
ATOM     27  C   UNL A   1      43.460  25.959  27.131  1.00  0.00     0.034 A 
ATOM     28  C   UNL A   1      45.253  28.785  32.938  1.00  0.00     0.049 A 
ATOM     29  C   UNL A   1      44.647  26.015  28.011  1.00  0.00     0.074 A 
ATOM     30  C   UNL A   1      45.599  30.114  32.801  1.00  0.00     0.029 A 
ATOM     31  N   UNL A   1      46.087  28.095  32.095  1.00  0.00    -0.354 N 
ATOM     32  N   UNL A   1      45.564  26.938  27.933  1.00  0.00    -0.248 NA
ATOM     33  C   UNL A   1      44.615  25.267  29.255  1.00  0.00     0.031 C 
ATOM     34  C   UNL A   1      46.261  30.189  31.541  1.00  0.00     0.029 A 
ATOM     35  C   UNL A   1      46.294  28.899  31.008  1.00  0.00     0.049 A 
ATOM     36  H   UNL A   1      46.463  27.197  32.244  1.00  0.00     0.167 HD
ATOM     37  C   UNL A   1      45.930  27.180  29.250  1.00  0.00     0.074 A 
ATOM     38  C   UNL A   1      45.402  26.044  30.003  1.00  0.00     0.031 C 
ATOM     39  C   UNL A   1      46.369  28.410  29.649  1.00  0.00     0.034 A 
BRANCH  26  40
ATOM     40  C   UNL A   1      44.379  26.874  34.413  1.00  0.00     0.023 A 
ATOM     41  C   UNL A   1      44.153  25.588  33.874  1.00  0.00     0.012 A 
ATOM     42  C   UNL A   1      44.528  26.966  35.816  1.00  0.00     0.148 A 
ATOM     43  C   UNL A   1      44.050  24.457  34.695  1.00  0.00     0.002 A 
ATOM     44  C   UNL A   1      44.506  25.830  36.617  1.00  0.00     0.091 A 
ATOM     45  F   UNL A   1      44.555  28.167  36.406  1.00  0.00    -0.205 F 
ATOM     46  C   UNL A   1      44.238  24.576  36.066  1.00  0.00     0.022 A 
BRANCH  44  47
ATOM     47  S   UNL A   1      44.805  25.939  38.384  1.00  0.00     0.127 S 
ATOM     48  O   UNL A   1      44.880  24.530  38.756  1.00  0.00    -0.237 OA
ATOM     49  O   UNL A   1      46.075  26.664  38.435  1.00  0.00    -0.237 OA
ATOM     50  O   UNL A   1      43.673  26.693  38.910  1.00  0.00    -0.744 OA
ENDBRANCH  44  47
ENDBRANCH  26  40
BRANCH  27  51
ATOM     51  C   UNL A   1      43.069  24.736  26.392  1.00  0.00     0.023 A 
ATOM     52  C   UNL A   1      43.826  24.312  25.284  1.00  0.00     0.012 A 
ATOM     53  C   UNL A   1      42.090  23.857  26.908  1.00  0.00     0.148 A 
ATOM     54  C   UNL A   1      43.614  23.050  24.712  1.00  0.00     0.002 A 
ATOM     55  C   UNL A   1      41.866  22.616  26.322  1.00  0.00     0.091 A 
ATOM     56  F   UNL A   1      41.440  24.199  28.029  1.00  0.00    -0.205 F 
ATOM     57  C   UNL A   1      42.634  22.204  25.228  1.00  0.00     0.022 A 
BRANCH  55  58
ATOM     58  S   UNL A   1      40.610  21.486  26.936  1.00  0.00     0.127 S 
ATOM     59  O   UNL A   1      40.823  20.309  26.091  1.00  0.00    -0.237 OA
ATOM     60  O   UNL A   1      41.006  21.318  28.331  1.00  0.00    -0.237 OA
ATOM     61  O   UNL A   1      39.333  22.153  26.713  1.00  0.00    -0.744 OA
ENDBRANCH  55  58
ENDBRANCH  27  51
BRANCH  39  62
ATOM     62  C   UNL A   1      46.639  29.450  28.587  1.00  0.00     0.023 A 
ATOM     63  C   UNL A   1      45.617  30.306  28.124  1.00  0.00     0.012 A 
ATOM     64  C   UNL A   1      47.965  29.706  28.201  1.00  0.00     0.148 A 
ATOM     65  C   UNL A   1      45.903  31.376  27.274  1.00  0.00     0.002 A 
ATOM     66  C   UNL A   1      48.251  30.799  27.388  1.00  0.00     0.091 A 
ATOM     67  F   UNL A   1      48.929  28.899  28.665  1.00  0.00    -0.205 F 
ATOM     68  C   UNL A   1      47.223  31.630  26.916  1.00  0.00     0.022 A 
BRANCH  66  69
ATOM     69  S   UNL A   1      49.940  31.268  27.000  1.00  0.00     0.127 S 
ATOM     70  O   UNL A   1      50.402  30.119  26.217  1.00  0.00    -0.237 OA
ATOM     71  O   UNL A   1      49.750  32.496  26.221  1.00  0.00    -0.237 OA
ATOM     72  O   UNL A   1      50.607  31.469  28.273  1.00  0.00    -0.744 OA
ENDBRANCH  66  69
ENDBRANCH  39  62
ENDBRANCH  13  14
ENDBRANCH   6   8
ENDBRANCH   3   4
ENDBRANCH   2   3
ENDBRANCH   1   2
BRANCH   1  73
ATOM     73  C   UNL A   1      32.643  28.464  27.092  1.00  0.00     0.002 C 
BRANCH  73  74
ATOM     74  C   UNL A   1      31.537  29.132  26.281  1.00  0.00     0.021 C 
BRANCH  74  75
ATOM     75  C   UNL A   1      31.955  29.751  24.955  1.00  0.00     0.116 C 
BRANCH  75  76
ATOM     76  N   UNL A   1      31.107  29.452  23.832  1.00  0.00    -0.351 N 
ATOM     77  C   UNL A   1      30.618  28.289  23.276  1.00  0.00     0.273 C 
ATOM     78  H   UNL A   1      30.809  30.259  23.353  1.00  0.00     0.163 HD
ATOM     79  O   UNL A   1      29.963  28.484  22.246  1.00  0.00    -0.267 OA
BRANCH  77  80
ATOM     80  C   UNL A   1      30.810  26.901  23.764  1.00  0.00     0.178 A 
ATOM     81  N   UNL A   1      29.660  26.122  23.823  1.00  0.00    -0.124 NA
ATOM     82  C   UNL A   1      31.876  26.083  24.165  1.00  0.00     0.122 A 
ATOM     83  N   UNL A   1      29.969  24.898  24.206  1.00  0.00    -0.061 NA
ATOM     84  N   UNL A   1      31.264  24.897  24.557  1.00  0.00    -0.213 N 
BRANCH  82  85
ATOM     85  C   UNL A   1      33.360  26.213  24.004  1.00  0.00     0.262 C 
ATOM     86  C   UNL A   1      33.760  25.798  22.569  1.00  0.00     0.281 C 
ATOM     87  O   UNL A   1      34.115  25.565  25.035  1.00  0.00    -0.477 OA
ATOM     88  O   UNL A   1      33.913  24.385  22.444  1.00  0.00    -0.485 OA
ATOM     89  C   UNL A   1      35.023  24.647  24.571  1.00  0.00     0.162 A 
ATOM     90  C   UNL A   1      34.882  24.009  23.335  1.00  0.00     0.161 A 
ATOM     91  C   UNL A   1      36.077  24.300  25.407  1.00  0.00     0.050 A 
ATOM     92  C   UNL A   1      35.723  22.968  22.966  1.00  0.00     0.050 A 
ATOM     93  C   UNL A   1      36.965  23.296  25.014  1.00  0.00     0.004 A 
ATOM     94  C   UNL A   1      36.774  22.615  23.808  1.00  0.00     0.004 A 
ENDBRANCH  82  85
BRANCH  84  95
ATOM     95  C   UNL A   1      31.813  23.776  25.202  1.00  0.00     0.067 A 
ATOM     96  C   UNL A   1      31.968  23.787  26.591  1.00  0.00     0.028 A 
ATOM     97  C   UNL A   1      32.092  22.627  24.453  1.00  0.00     0.041 A 
ATOM     98  C   UNL A   1      32.298  22.600  27.243  1.00  0.00     0.003 A 
ATOM     99  C   UNL A   1      32.456  21.440  25.104  1.00  0.00     0.058 A 
ATOM    100  C   UNL A   1      32.527  21.431  26.507  1.00  0.00     0.013 A 
BRANCH  99 101
ATOM    101  C   UNL A   1      32.704  20.175  24.321  1.00  0.00     0.416 C 
ATOM    102  F   UNL A   1      32.010  19.113  24.819  1.00  0.00    -0.166 F 
ATOM    103  F   UNL A   1      32.336  20.285  23.016  1.00  0.00    -0.166 F 
ATOM    104  F   UNL A   1      34.011  19.792  24.313  1.00  0.00    -0.166 F 
ENDBRANCH  99 101
ENDBRANCH  84  95
ENDBRANCH  77  80
ENDBRANCH  75  76
ENDBRANCH  74  75
ENDBRANCH  73  74
ENDBRANCH   1  73
TORSDOF 19
ENDMDL
MODEL 3
REMARK VINA RESULT:     -12.1      1.593      2.001
REMARK SMILES O=C(NCCCCCCNC(=O)c1nnn(-c2cccc(C(F)(F)F)c2)c1[C@@H]1COc2ccccc2O1)c1ccc(-c2c3nc(c(-c4cccc(S(=O)(=O)[O-])c4F)c4ccc([nH]4)c(-c4cccc(S(=O)(=O)[O-])c4F)c4nc(c(-c5cccc(S(=O)(=O)[O-])c5F)c5ccc2[nH]5)C=C4)C=C3)cc1
REMARK SMILES IDX 6 1 5 2 4 3 3 4 1 5 2 6 38 8 39 9 100 10 40 11 99 12 41 13
REMARK SMILES IDX 42 14 43 15 93 16 44 17 98 18 92 19 94 20 45 21 97 22 91 23
REMARK SMILES IDX 90 24 46 26 78 27 58 28 77 29 59 30 62 31 76 32 95 33 60 34
REMARK SMILES IDX 61 35 75 37 96 38 63 39 47 40 48 41 56 42 49 43 51 44 57 45
REMARK SMILES IDX 50 46 52 47 53 48 54 49 55 50 79 51 80 52 88 53 81 54 83 55
REMARK SMILES IDX 89 56 82 57 84 58 85 59 86 60 87 61 64 62 65 63 73 64 66 65
REMARK SMILES IDX 68 66 74 67 67 68 69 69 70 70 71 71 72 72 7 73 8 74 9 75
REMARK SMILES IDX 10 76 11 77 12 79 13 80 14 81 27 82 15 83 16 84 28 85 29 86
REMARK SMILES IDX 37 87 30 88 36 89 31 90 35 91 32 92 34 93 33 94 17 95 18 96
REMARK SMILES IDX 26 97 19 98 21 99 20 100 22 101 23 102 24 103 25 104
REMARK H PARENT 3 7 94 25 62 36 10 78
REMARK Flexibility Score: inf
ROOT
ATOM      1  C   UNL A   1      34.693  30.713  27.227  1.00  0.00     0.002 C 
ENDROOT
BRANCH   1   2
ATOM      2  C   UNL A   1      35.430  31.907  27.847  1.00  0.00     0.021 C 
BRANCH   2   3
ATOM      3  C   UNL A   1      34.542  33.031  28.379  1.00  0.00     0.116 C 
BRANCH   3   4
ATOM      4  N   UNL A   1      34.119  32.887  29.755  1.00  0.00    -0.352 N 
ATOM      5  O   UNL A   1      34.084  32.579  31.948  1.00  0.00    -0.269 OA
ATOM      6  C   UNL A   1      34.750  32.521  30.913  1.00  0.00     0.251 C 
ATOM      7  H   UNL A   1      33.168  33.100  29.889  1.00  0.00     0.163 HD
BRANCH   6   8
ATOM      8  C   UNL A   1      36.134  31.993  30.965  1.00  0.00     0.039 A 
ATOM      9  C   UNL A   1      37.288  32.777  30.897  1.00  0.00     0.014 A 
ATOM     10  C   UNL A   1      36.259  30.600  31.087  1.00  0.00     0.014 A 
ATOM     11  C   UNL A   1      38.539  32.181  30.804  1.00  0.00     0.010 A 
ATOM     12  C   UNL A   1      37.509  30.001  31.044  1.00  0.00     0.010 A 
ATOM     13  C   UNL A   1      38.642  30.794  30.846  1.00  0.00    -0.014 A 
BRANCH  13  14
ATOM     14  C   UNL A   1      39.972  30.196  30.785  1.00  0.00     0.031 A 
ATOM     15  C   UNL A   1      40.737  30.166  32.071  1.00  0.00     0.074 A 
ATOM     16  C   UNL A   1      40.375  29.528  29.685  1.00  0.00     0.049 A 
ATOM     17  N   UNL A   1      41.966  30.514  32.298  1.00  0.00    -0.248 NA
ATOM     18  C   UNL A   1      40.000  29.759  33.280  1.00  0.00     0.031 C 
ATOM     19  C   UNL A   1      39.576  29.239  28.487  1.00  0.00     0.029 A 
ATOM     20  N   UNL A   1      41.510  28.798  29.488  1.00  0.00    -0.354 N 
ATOM     21  C   UNL A   1      42.213  30.176  33.631  1.00  0.00     0.074 A 
ATOM     22  C   UNL A   1      40.940  29.851  34.219  1.00  0.00     0.031 C 
ATOM     23  C   UNL A   1      40.116  28.181  27.849  1.00  0.00     0.029 A 
ATOM     24  C   UNL A   1      41.347  27.810  28.521  1.00  0.00     0.049 A 
ATOM     25  H   UNL A   1      42.350  28.953  29.976  1.00  0.00     0.167 HD
ATOM     26  C   UNL A   1      43.465  29.975  34.127  1.00  0.00     0.034 A 
ATOM     27  C   UNL A   1      42.095  26.691  28.376  1.00  0.00     0.034 A 
ATOM     28  C   UNL A   1      44.486  30.554  33.305  1.00  0.00     0.049 A 
ATOM     29  C   UNL A   1      43.371  26.900  29.094  1.00  0.00     0.074 A 
ATOM     30  C   UNL A   1      44.804  31.827  32.880  1.00  0.00     0.029 A 
ATOM     31  N   UNL A   1      45.230  29.705  32.524  1.00  0.00    -0.354 N 
ATOM     32  N   UNL A   1      44.266  27.781  28.742  1.00  0.00    -0.248 NA
ATOM     33  C   UNL A   1      43.482  26.404  30.455  1.00  0.00     0.031 C 
ATOM     34  C   UNL A   1      45.323  31.652  31.564  1.00  0.00     0.029 A 
ATOM     35  C   UNL A   1      45.309  30.284  31.287  1.00  0.00     0.049 A 
ATOM     36  H   UNL A   1      45.628  28.847  32.800  1.00  0.00     0.167 HD
ATOM     37  C   UNL A   1      44.771  28.265  29.942  1.00  0.00     0.074 A 
ATOM     38  C   UNL A   1      44.339  27.301  30.950  1.00  0.00     0.031 C 
ATOM     39  C   UNL A   1      45.240  29.544  30.047  1.00  0.00     0.034 A 
BRANCH  26  40
ATOM     40  C   UNL A   1      43.796  28.970  35.205  1.00  0.00     0.023 A 
ATOM     41  C   UNL A   1      44.586  29.398  36.294  1.00  0.00     0.012 A 
ATOM     42  C   UNL A   1      43.604  27.577  35.058  1.00  0.00     0.148 A 
ATOM     43  C   UNL A   1      45.179  28.483  37.174  1.00  0.00     0.002 A 
ATOM     44  C   UNL A   1      44.128  26.678  35.980  1.00  0.00     0.091 A 
ATOM     45  F   UNL A   1      43.030  27.096  33.949  1.00  0.00    -0.205 F 
ATOM     46  C   UNL A   1      44.942  27.122  37.024  1.00  0.00     0.022 A 
BRANCH  44  47
ATOM     47  S   UNL A   1      43.791  24.919  35.852  1.00  0.00     0.127 S 
ATOM     48  O   UNL A   1      44.491  24.575  34.620  1.00  0.00    -0.237 OA
ATOM     49  O   UNL A   1      44.401  24.402  37.078  1.00  0.00    -0.237 OA
ATOM     50  O   UNL A   1      42.337  24.817  35.827  1.00  0.00    -0.744 OA
ENDBRANCH  44  47
ENDBRANCH  26  40
BRANCH  27  51
ATOM     51  C   UNL A   1      41.638  25.354  27.932  1.00  0.00     0.023 A 
ATOM     52  C   UNL A   1      40.286  24.992  28.069  1.00  0.00     0.012 A 
ATOM     53  C   UNL A   1      42.480  24.518  27.164  1.00  0.00     0.148 A 
ATOM     54  C   UNL A   1      39.789  23.833  27.458  1.00  0.00     0.002 A 
ATOM     55  C   UNL A   1      41.988  23.356  26.579  1.00  0.00     0.091 A 
ATOM     56  F   UNL A   1      43.741  24.907  26.930  1.00  0.00    -0.205 F 
ATOM     57  C   UNL A   1      40.638  23.015  26.716  1.00  0.00     0.022 A 
BRANCH  55  58
ATOM     58  S   UNL A   1      43.036  22.255  25.619  1.00  0.00     0.127 S 
ATOM     59  O   UNL A   1      44.217  22.137  26.477  1.00  0.00    -0.237 OA
ATOM     60  O   UNL A   1      42.216  21.050  25.537  1.00  0.00    -0.237 OA
ATOM     61  O   UNL A   1      43.284  22.943  24.358  1.00  0.00    -0.744 OA
ENDBRANCH  55  58
ENDBRANCH  27  51
BRANCH  39  62
ATOM     62  C   UNL A   1      45.383  30.358  28.783  1.00  0.00     0.023 A 
ATOM     63  C   UNL A   1      44.252  30.850  28.097  1.00  0.00     0.012 A 
ATOM     64  C   UNL A   1      46.657  30.804  28.396  1.00  0.00     0.148 A 
ATOM     65  C   UNL A   1      44.386  31.742  27.032  1.00  0.00     0.002 A 
ATOM     66  C   UNL A   1      46.784  31.728  27.362  1.00  0.00     0.091 A 
ATOM     67  F   UNL A   1      47.722  30.347  29.069  1.00  0.00    -0.205 F 
ATOM     68  C   UNL A   1      45.652  32.192  26.673  1.00  0.00     0.022 A 
BRANCH  66  69
ATOM     69  S   UNL A   1      48.369  32.454  26.937  1.00  0.00     0.127 S 
ATOM     70  O   UNL A   1      49.142  31.279  26.530  1.00  0.00    -0.237 OA
ATOM     71  O   UNL A   1      48.012  33.357  25.837  1.00  0.00    -0.237 OA
ATOM     72  O   UNL A   1      48.839  33.130  28.132  1.00  0.00    -0.744 OA
ENDBRANCH  66  69
ENDBRANCH  39  62
ENDBRANCH  13  14
ENDBRANCH   6   8
ENDBRANCH   3   4
ENDBRANCH   2   3
ENDBRANCH   1   2
BRANCH   1  73
ATOM     73  C   UNL A   1      33.236  30.496  27.655  1.00  0.00     0.002 C 
BRANCH  73  74
ATOM     74  C   UNL A   1      32.207  30.387  26.533  1.00  0.00     0.021 C 
BRANCH  74  75
ATOM     75  C   UNL A   1      32.700  29.787  25.225  1.00  0.00     0.116 C 
BRANCH  75  76
ATOM     76  N   UNL A   1      31.696  29.587  24.214  1.00  0.00    -0.351 N 
ATOM     77  C   UNL A   1      31.038  28.485  23.713  1.00  0.00     0.273 C 
ATOM     78  H   UNL A   1      31.416  30.427  23.784  1.00  0.00     0.163 HD
ATOM     79  O   UNL A   1      30.280  28.759  22.774  1.00  0.00    -0.267 OA
BRANCH  77  80
ATOM     80  C   UNL A   1      31.160  27.075  24.159  1.00  0.00     0.178 A 
ATOM     81  N   UNL A   1      29.968  26.364  24.237  1.00  0.00    -0.124 NA
ATOM     82  C   UNL A   1      32.188  26.185  24.506  1.00  0.00     0.122 A 
ATOM     83  N   UNL A   1      30.215  25.114  24.579  1.00  0.00    -0.061 NA
ATOM     84  N   UNL A   1      31.517  25.027  24.888  1.00  0.00    -0.213 N 
BRANCH  82  85
ATOM     85  C   UNL A   1      33.671  26.231  24.300  1.00  0.00     0.262 C 
ATOM     86  C   UNL A   1      34.000  25.838  22.841  1.00  0.00     0.281 C 
ATOM     87  O   UNL A   1      34.417  25.507  25.286  1.00  0.00    -0.477 OA
ATOM     88  O   UNL A   1      34.063  24.423  22.669  1.00  0.00    -0.485 OA
ATOM     89  C   UNL A   1      35.252  24.551  24.765  1.00  0.00     0.162 A 
ATOM     90  C   UNL A   1      35.034  23.962  23.516  1.00  0.00     0.161 A 
ATOM     91  C   UNL A   1      36.309  24.116  25.555  1.00  0.00     0.050 A 
ATOM     92  C   UNL A   1      35.799  22.885  23.089  1.00  0.00     0.050 A 
ATOM     93  C   UNL A   1      37.121  23.073  25.103  1.00  0.00     0.004 A 
ATOM     94  C   UNL A   1      36.852  22.443  23.885  1.00  0.00     0.004 A 
ENDBRANCH  82  85
BRANCH  84  95
ATOM     95  C   UNL A   1      32.018  23.859  25.487  1.00  0.00     0.067 A 
ATOM     96  C   UNL A   1      32.227  23.828  26.868  1.00  0.00     0.028 A 
ATOM     97  C   UNL A   1      32.193  22.712  24.704  1.00  0.00     0.041 A 
ATOM     98  C   UNL A   1      32.505  22.607  27.482  1.00  0.00     0.003 A 
ATOM     99  C   UNL A   1      32.504  21.490  25.315  1.00  0.00     0.058 A 
ATOM    100  C   UNL A   1      32.629  21.444  26.714  1.00  0.00     0.013 A 
BRANCH  99 101
ATOM    101  C   UNL A   1      32.640  20.230  24.496  1.00  0.00     0.416 C 
ATOM    102  F   UNL A   1      33.942  19.894  24.276  1.00  0.00    -0.166 F 
ATOM    103  F   UNL A   1      32.069  19.151  25.097  1.00  0.00    -0.166 F 
ATOM    104  F   UNL A   1      32.069  20.322  23.264  1.00  0.00    -0.166 F 
ENDBRANCH  99 101
ENDBRANCH  84  95
ENDBRANCH  77  80
ENDBRANCH  75  76
ENDBRANCH  74  75
ENDBRANCH  73  74
ENDBRANCH   1  73
TORSDOF 19
ENDMDL
