MODEL 1
REMARK VINA RESULT:     -10.2      0.000      0.000
REMARK SMILES CCOC(=O)c1cccc(Nc2c(-c3ccc(C(=O)NCCCCCCNC(=O)c4ccc(-c5c6nc(c(-c7cccc(S(=O)(=O)[O-])c7F)c7ccc([nH]7)c(-c7cccc(S(=O)(=O)[O-])c7F)c7nc(c(-c8cccc(S(=O)(=O)[O-])c8F)c8ccc5[nH]8)C=C7)C=C6)cc4)cc3)nc3cnccn23)c1
REMARK SMILES IDX 22 1 21 2 20 3 18 4 19 5 17 7 14 8 15 9 94 10 16 11 93 12
REMARK SMILES IDX 13 13 12 14 101 15 95 16 96 17 100 18 97 19 99 20 98 21
REMARK SMILES IDX 11 22 10 24 6 25 7 26 102 27 8 28 9 29 4 30 5 31 3 32 2 33
REMARK SMILES IDX 1 34 23 35 24 36 25 37 26 38 27 39 28 40 29 42 30 43 31 44
REMARK SMILES IDX 92 45 32 46 91 47 33 48 34 49 35 50 85 51 36 52 90 53 84 54
REMARK SMILES IDX 86 55 37 56 89 57 83 58 82 59 38 61 70 62 50 63 69 64 51 65
REMARK SMILES IDX 54 66 68 67 87 68 52 69 53 70 67 72 88 73 55 74 39 75 40 76
REMARK SMILES IDX 48 77 41 78 43 79 49 80 42 81 44 82 45 83 46 84 47 85 71 86
REMARK SMILES IDX 72 87 80 88 73 89 75 90 81 91 74 92 76 93 77 94 78 95 79 96
REMARK SMILES IDX 56 97 57 98 65 99 58 100 60 101 66 102 59 103 61 104 62 105
REMARK SMILES IDX 63 106 64 107
REMARK H PARENT 20 6 11 23 27 41 86 60 54 71
REMARK Flexibility Score: inf
ROOT
ATOM      1  C   UNL A   1      38.911  28.752  28.372  1.00  0.00     0.021 C 
ENDROOT
BRANCH   1   2
ATOM      2  C   UNL A   1      37.798  29.046  29.382  1.00  0.00     0.116 C 
BRANCH   2   3
ATOM      3  N   UNL A   1      37.475  30.460  29.363  1.00  0.00    -0.352 N 
ATOM      4  C   UNL A   1      36.476  31.166  28.750  1.00  0.00     0.251 C 
ATOM      5  O   UNL A   1      36.448  32.387  28.914  1.00  0.00    -0.269 OA
ATOM      6  H   UNL A   1      38.091  31.018  29.892  1.00  0.00     0.163 HD
BRANCH   4   7
ATOM      7  C   UNL A   1      35.402  30.525  27.941  1.00  0.00     0.039 A 
ATOM      8  C   UNL A   1      33.265  29.473  26.448  1.00  0.00     0.004 A 
ATOM      9  C   UNL A   1      33.113  30.684  27.128  1.00  0.00     0.011 A 
ATOM     10  C   UNL A   1      34.486  28.797  26.501  1.00  0.00     0.011 A 
ATOM     11  C   UNL A   1      34.173  31.201  27.874  1.00  0.00     0.014 A 
ATOM     12  C   UNL A   1      35.559  29.341  27.214  1.00  0.00     0.014 A 
BRANCH   8  13
ATOM     13  C   UNL A   1      32.209  28.967  25.605  1.00  0.00     0.114 A 
ATOM     14  C   UNL A   1      31.674  27.692  25.725  1.00  0.00     0.143 A 
ATOM     15  N   UNL A   1      30.654  27.667  24.798  1.00  0.00    -0.283 N 
ATOM     16  N   UNL A   1      31.602  29.693  24.610  1.00  0.00    -0.225 NA
ATOM     17  C   UNL A   1      30.676  28.880  24.153  1.00  0.00     0.157 A 
ATOM     18  C   UNL A   1      29.685  26.733  24.475  1.00  0.00     0.115 A 
ATOM     19  C   UNL A   1      29.704  29.124  23.124  1.00  0.00     0.158 A 
ATOM     20  C   UNL A   1      28.805  27.037  23.505  1.00  0.00     0.129 A 
ATOM     21  N   UNL A   1      28.806  28.230  22.799  1.00  0.00    -0.259 NA
BRANCH  14  22
ATOM     22  N   UNL A   1      31.944  26.699  26.615  1.00  0.00    -0.339 N 
ATOM     23  H   UNL A   1      31.803  26.902  27.568  1.00  0.00     0.168 HD
BRANCH  22  24
ATOM     24  C   UNL A   1      32.407  25.400  26.297  1.00  0.00     0.040 A 
ATOM     25  C   UNL A   1      34.066  24.022  25.163  1.00  0.00     0.062 A 
ATOM     26  C   UNL A   1      33.398  22.863  25.564  1.00  0.00     0.016 A 
ATOM     27  C   UNL A   1      33.586  25.281  25.544  1.00  0.00     0.041 A 
ATOM     28  C   UNL A   1      32.256  22.967  26.353  1.00  0.00     0.003 A 
ATOM     29  C   UNL A   1      31.766  24.225  26.713  1.00  0.00     0.026 A 
BRANCH  25  30
ATOM     30  C   UNL A   1      35.236  23.886  24.271  1.00  0.00     0.338 C 
ATOM     31  O   UNL A   1      35.146  23.607  23.087  1.00  0.00    -0.246 OA
BRANCH  30  32
ATOM     32  O   UNL A   1      36.376  24.064  24.981  1.00  0.00    -0.462 OA
BRANCH  32  33
ATOM     33  C   UNL A   1      36.792  22.943  25.776  1.00  0.00     0.230 C 
ATOM     34  C   UNL A   1      37.575  21.930  24.957  1.00  0.00     0.049 C 
ENDBRANCH  32  33
ENDBRANCH  30  32
ENDBRANCH  25  30
ENDBRANCH  22  24
ENDBRANCH  14  22
ENDBRANCH   8  13
ENDBRANCH   4   7
ENDBRANCH   2   3
ENDBRANCH   1   2
BRANCH   1  35
ATOM     35  C   UNL A   1      39.835  27.606  28.807  1.00  0.00     0.002 C 
BRANCH  35  36
ATOM     36  C   UNL A   1      39.227  26.204  28.669  1.00  0.00     0.002 C 
BRANCH  36  37
ATOM     37  C   UNL A   1      40.010  25.246  27.768  1.00  0.00     0.021 C 
BRANCH  37  38
ATOM     38  C   UNL A   1      41.514  25.225  28.028  1.00  0.00     0.116 C 
BRANCH  38  39
ATOM     39  N   UNL A   1      42.272  25.198  26.784  1.00  0.00    -0.352 N 
ATOM     40  C   UNL A   1      42.923  26.227  26.148  1.00  0.00     0.251 C 
ATOM     41  H   UNL A   1      42.325  24.322  26.338  1.00  0.00     0.163 HD
ATOM     42  O   UNL A   1      43.319  26.089  24.995  1.00  0.00    -0.269 OA
BRANCH  40  43
ATOM     43  C   UNL A   1      43.134  27.505  26.859  1.00  0.00     0.039 A 
ATOM     44  C   UNL A   1      42.567  28.673  26.346  1.00  0.00     0.014 A 
ATOM     45  C   UNL A   1      43.893  27.543  28.033  1.00  0.00     0.014 A 
ATOM     46  C   UNL A   1      42.710  29.875  27.044  1.00  0.00     0.010 A 
ATOM     47  C   UNL A   1      43.983  28.728  28.758  1.00  0.00     0.010 A 
ATOM     48  C   UNL A   1      43.393  29.905  28.271  1.00  0.00    -0.014 A 
BRANCH  48  49
ATOM     49  C   UNL A   1      43.485  31.147  29.079  1.00  0.00     0.031 A 
ATOM     50  C   UNL A   1      44.710  32.015  28.996  1.00  0.00     0.074 A 
ATOM     51  C   UNL A   1      42.514  31.431  29.968  1.00  0.00     0.049 A 
ATOM     52  N   UNL A   1      45.012  33.081  29.690  1.00  0.00    -0.248 NA
ATOM     53  C   UNL A   1      45.745  31.615  28.028  1.00  0.00     0.031 C 
ATOM     54  C   UNL A   1      41.317  30.621  30.199  1.00  0.00     0.029 A 
ATOM     55  N   UNL A   1      42.400  32.458  30.872  1.00  0.00    -0.354 N 
ATOM     56  C   UNL A   1      46.283  33.458  29.273  1.00  0.00     0.074 A 
ATOM     57  C   UNL A   1      46.708  32.491  28.284  1.00  0.00     0.031 C 
ATOM     58  C   UNL A   1      40.593  31.176  31.184  1.00  0.00     0.029 A 
ATOM     59  C   UNL A   1      41.287  32.363  31.675  1.00  0.00     0.049 A 
ATOM     60  H   UNL A   1      43.052  33.192  30.940  1.00  0.00     0.167 HD
ATOM     61  C   UNL A   1      47.019  34.528  29.657  1.00  0.00     0.034 A 
ATOM     62  C   UNL A   1      40.876  33.136  32.699  1.00  0.00     0.034 A 
ATOM     63  C   UNL A   1      46.571  35.515  30.602  1.00  0.00     0.049 A 
ATOM     64  C   UNL A   1      41.691  34.344  33.075  1.00  0.00     0.074 A 
ATOM     65  C   UNL A   1      47.195  36.692  30.977  1.00  0.00     0.029 A 
ATOM     66  N   UNL A   1      45.392  35.439  31.326  1.00  0.00    -0.354 N 
ATOM     67  N   UNL A   1      42.809  34.781  32.549  1.00  0.00    -0.248 NA
ATOM     68  C   UNL A   1      41.172  35.185  34.164  1.00  0.00     0.031 C 
ATOM     69  C   UNL A   1      46.401  37.319  31.943  1.00  0.00     0.029 A 
ATOM     70  C   UNL A   1      45.274  36.541  32.157  1.00  0.00     0.049 A 
ATOM     71  H   UNL A   1      44.734  34.710  31.260  1.00  0.00     0.167 HD
ATOM     72  C   UNL A   1      43.112  35.960  33.219  1.00  0.00     0.074 A 
ATOM     73  C   UNL A   1      42.047  36.181  34.176  1.00  0.00     0.031 C 
ATOM     74  C   UNL A   1      44.184  36.776  33.068  1.00  0.00     0.034 A 
BRANCH  61  75
ATOM     75  C   UNL A   1      48.365  34.722  29.010  1.00  0.00     0.023 A 
ATOM     76  C   UNL A   1      49.519  34.228  29.654  1.00  0.00     0.012 A 
ATOM     77  C   UNL A   1      48.486  35.333  27.748  1.00  0.00     0.148 A 
ATOM     78  C   UNL A   1      50.775  34.369  29.067  1.00  0.00     0.002 A 
ATOM     79  C   UNL A   1      49.737  35.434  27.150  1.00  0.00     0.091 A 
ATOM     80  F   UNL A   1      47.381  35.818  27.162  1.00  0.00    -0.205 F 
ATOM     81  C   UNL A   1      50.884  34.961  27.812  1.00  0.00     0.022 A 
BRANCH  79  82
ATOM     82  S   UNL A   1      49.970  36.113  25.503  1.00  0.00     0.127 S 
ATOM     83  O   UNL A   1      51.389  36.466  25.527  1.00  0.00    -0.237 OA
ATOM     84  O   UNL A   1      49.640  34.973  24.648  1.00  0.00    -0.237 OA
ATOM     85  O   UNL A   1      49.046  37.234  25.400  1.00  0.00    -0.744 OA
ENDBRANCH  79  82
ENDBRANCH  61  75
BRANCH  62  86
ATOM     86  C   UNL A   1      39.597  32.825  33.395  1.00  0.00     0.023 A 
ATOM     87  C   UNL A   1      39.619  32.016  34.547  1.00  0.00     0.012 A 
ATOM     88  C   UNL A   1      38.371  33.358  32.953  1.00  0.00     0.148 A 
ATOM     89  C   UNL A   1      38.440  31.723  35.232  1.00  0.00     0.002 A 
ATOM     90  C   UNL A   1      37.208  33.107  33.671  1.00  0.00     0.091 A 
ATOM     91  F   UNL A   1      38.369  34.115  31.846  1.00  0.00    -0.205 F 
ATOM     92  C   UNL A   1      37.237  32.276  34.802  1.00  0.00     0.022 A 
BRANCH  90  93
ATOM     93  S   UNL A   1      35.641  33.889  33.268  1.00  0.00     0.127 S 
ATOM     94  O   UNL A   1      35.331  33.288  31.974  1.00  0.00    -0.237 OA
ATOM     95  O   UNL A   1      34.788  33.450  34.372  1.00  0.00    -0.237 OA
ATOM     96  O   UNL A   1      35.913  35.320  33.255  1.00  0.00    -0.744 OA
ENDBRANCH  90  93
ENDBRANCH  62  86
BRANCH  74  97
ATOM     97  C   UNL A   1      44.259  38.001  33.940  1.00  0.00     0.023 A 
ATOM     98  C   UNL A   1      44.961  37.945  35.160  1.00  0.00     0.012 A 
ATOM     99  C   UNL A   1      43.712  39.227  33.511  1.00  0.00     0.148 A 
ATOM    100  C   UNL A   1      45.096  39.084  35.952  1.00  0.00     0.002 A 
ATOM    101  C   UNL A   1      43.890  40.368  34.284  1.00  0.00     0.091 A 
ATOM    102  F   UNL A   1      43.032  39.255  32.355  1.00  0.00    -0.205 F 
ATOM    103  C   UNL A   1      44.573  40.296  35.509  1.00  0.00     0.022 A 
BRANCH 101 104
ATOM    104  S   UNL A   1      43.333  41.991  33.749  1.00  0.00     0.127 S 
ATOM    105  O   UNL A   1      44.046  42.148  32.482  1.00  0.00    -0.237 OA
ATOM    106  O   UNL A   1      41.889  41.795  33.617  1.00  0.00    -0.237 OA
ATOM    107  O   UNL A   1      43.723  42.916  34.804  1.00  0.00    -0.744 OA
ENDBRANCH 101 104
ENDBRANCH  74  97
ENDBRANCH  48  49
ENDBRANCH  40  43
ENDBRANCH  38  39
ENDBRANCH  37  38
ENDBRANCH  36  37
ENDBRANCH  35  36
ENDBRANCH   1  35
TORSDOF 22
ENDMDL
MODEL 2
REMARK VINA RESULT:      -9.9      5.214     11.987
REMARK SMILES CCOC(=O)c1cccc(Nc2c(-c3ccc(C(=O)NCCCCCCNC(=O)c4ccc(-c5c6nc(c(-c7cccc(S(=O)(=O)[O-])c7F)c7ccc([nH]7)c(-c7cccc(S(=O)(=O)[O-])c7F)c7nc(c(-c8cccc(S(=O)(=O)[O-])c8F)c8ccc5[nH]8)C=C7)C=C6)cc4)cc3)nc3cnccn23)c1
REMARK SMILES IDX 22 1 21 2 20 3 18 4 19 5 17 7 14 8 15 9 94 10 16 11 93 12
REMARK SMILES IDX 13 13 12 14 101 15 95 16 96 17 100 18 97 19 99 20 98 21
REMARK SMILES IDX 11 22 10 24 6 25 7 26 102 27 8 28 9 29 4 30 5 31 3 32 2 33
REMARK SMILES IDX 1 34 23 35 24 36 25 37 26 38 27 39 28 40 29 42 30 43 31 44
REMARK SMILES IDX 92 45 32 46 91 47 33 48 34 49 35 50 85 51 36 52 90 53 84 54
REMARK SMILES IDX 86 55 37 56 89 57 83 58 82 59 38 61 70 62 50 63 69 64 51 65
REMARK SMILES IDX 54 66 68 67 87 68 52 69 53 70 67 72 88 73 55 74 39 75 40 76
REMARK SMILES IDX 48 77 41 78 43 79 49 80 42 81 44 82 45 83 46 84 47 85 71 86
REMARK SMILES IDX 72 87 80 88 73 89 75 90 81 91 74 92 76 93 77 94 78 95 79 96
REMARK SMILES IDX 56 97 57 98 65 99 58 100 60 101 66 102 59 103 61 104 62 105
REMARK SMILES IDX 63 106 64 107
REMARK H PARENT 20 6 11 23 27 41 86 60 54 71
REMARK Flexibility Score: inf
ROOT
ATOM      1  C   UNL A   1      39.266  28.515  31.244  1.00  0.00     0.021 C 
ENDROOT
BRANCH   1   2
ATOM      2  C   UNL A   1      38.772  27.540  30.173  1.00  0.00     0.116 C 
BRANCH   2   3
ATOM      3  N   UNL A   1      39.363  27.874  28.890  1.00  0.00    -0.352 N 
ATOM      4  C   UNL A   1      39.110  28.879  27.996  1.00  0.00     0.251 C 
ATOM      5  O   UNL A   1      39.784  28.916  26.965  1.00  0.00    -0.269 OA
ATOM      6  H   UNL A   1      40.083  27.264  28.611  1.00  0.00     0.163 HD
BRANCH   4   7
ATOM      7  C   UNL A   1      38.099  29.947  28.233  1.00  0.00     0.039 A 
ATOM      8  C   UNL A   1      36.335  32.073  28.753  1.00  0.00     0.004 A 
ATOM      9  C   UNL A   1      37.674  32.165  29.142  1.00  0.00     0.011 A 
ATOM     10  C   UNL A   1      35.882  30.929  28.092  1.00  0.00     0.011 A 
ATOM     11  C   UNL A   1      38.547  31.104  28.889  1.00  0.00     0.014 A 
ATOM     12  C   UNL A   1      36.770  29.889  27.802  1.00  0.00     0.014 A 
BRANCH   8  13
ATOM     13  C   UNL A   1      35.441  33.192  28.931  1.00  0.00     0.114 A 
ATOM     14  C   UNL A   1      34.587  33.327  30.015  1.00  0.00     0.143 A 
ATOM     15  N   UNL A   1      33.996  34.558  29.826  1.00  0.00    -0.283 N 
ATOM     16  N   UNL A   1      35.352  34.252  28.063  1.00  0.00    -0.225 NA
ATOM     17  C   UNL A   1      34.478  35.049  28.637  1.00  0.00     0.157 A 
ATOM     18  C   UNL A   1      33.121  35.320  30.582  1.00  0.00     0.115 A 
ATOM     19  C   UNL A   1      34.020  36.337  28.194  1.00  0.00     0.158 A 
ATOM     20  C   UNL A   1      32.743  36.518  30.103  1.00  0.00     0.129 A 
ATOM     21  N   UNL A   1      33.170  37.044  28.894  1.00  0.00    -0.259 NA
BRANCH  14  22
ATOM     22  N   UNL A   1      34.420  32.542  31.114  1.00  0.00    -0.339 N 
ATOM     23  H   UNL A   1      33.506  32.231  31.306  1.00  0.00     0.168 HD
BRANCH  22  24
ATOM     24  C   UNL A   1      35.439  32.132  32.007  1.00  0.00     0.040 A 
ATOM     25  C   UNL A   1      37.001  32.741  33.774  1.00  0.00     0.062 A 
ATOM     26  C   UNL A   1      37.505  31.439  33.796  1.00  0.00     0.016 A 
ATOM     27  C   UNL A   1      35.962  33.081  32.900  1.00  0.00     0.041 A 
ATOM     28  C   UNL A   1      36.961  30.477  32.951  1.00  0.00     0.003 A 
ATOM     29  C   UNL A   1      35.938  30.823  32.063  1.00  0.00     0.026 A 
BRANCH  25  30
ATOM     30  C   UNL A   1      37.643  33.759  34.633  1.00  0.00     0.338 C 
ATOM     31  O   UNL A   1      37.562  34.957  34.424  1.00  0.00    -0.246 OA
BRANCH  30  32
ATOM     32  O   UNL A   1      38.348  33.148  35.615  1.00  0.00    -0.462 OA
BRANCH  32  33
ATOM     33  C   UNL A   1      38.300  33.784  36.901  1.00  0.00     0.230 C 
ATOM     34  C   UNL A   1      37.281  33.127  37.819  1.00  0.00     0.049 C 
ENDBRANCH  32  33
ENDBRANCH  30  32
ENDBRANCH  25  30
ENDBRANCH  22  24
ENDBRANCH  14  22
ENDBRANCH   8  13
ENDBRANCH   4   7
ENDBRANCH   2   3
ENDBRANCH   1   2
BRANCH   1  35
ATOM     35  C   UNL A   1      40.795  28.651  31.279  1.00  0.00     0.002 C 
BRANCH  35  36
ATOM     36  C   UNL A   1      41.393  28.815  32.682  1.00  0.00     0.002 C 
BRANCH  36  37
ATOM     37  C   UNL A   1      40.470  29.486  33.703  1.00  0.00     0.021 C 
BRANCH  37  38
ATOM     38  C   UNL A   1      41.157  30.531  34.580  1.00  0.00     0.116 C 
BRANCH  38  39
ATOM     39  N   UNL A   1      40.708  31.878  34.258  1.00  0.00    -0.352 N 
ATOM     40  C   UNL A   1      41.266  32.790  33.396  1.00  0.00     0.251 C 
ATOM     41  H   UNL A   1      39.893  32.177  34.722  1.00  0.00     0.163 HD
ATOM     42  O   UNL A   1      40.899  33.961  33.411  1.00  0.00    -0.269 OA
BRANCH  40  43
ATOM     43  C   UNL A   1      42.321  32.354  32.457  1.00  0.00     0.039 A 
ATOM     44  C   UNL A   1      43.575  31.998  32.957  1.00  0.00     0.014 A 
ATOM     45  C   UNL A   1      42.065  32.299  31.084  1.00  0.00     0.014 A 
ATOM     46  C   UNL A   1      44.558  31.526  32.083  1.00  0.00     0.010 A 
ATOM     47  C   UNL A   1      43.023  31.773  30.224  1.00  0.00     0.010 A 
ATOM     48  C   UNL A   1      44.279  31.382  30.714  1.00  0.00    -0.014 A 
BRANCH  48  49
ATOM     49  C   UNL A   1      45.272  30.800  29.776  1.00  0.00     0.031 A 
ATOM     50  C   UNL A   1      45.167  29.359  29.361  1.00  0.00     0.074 A 
ATOM     51  C   UNL A   1      46.329  31.540  29.389  1.00  0.00     0.049 A 
ATOM     52  N   UNL A   1      45.988  28.651  28.629  1.00  0.00    -0.248 NA
ATOM     53  C   UNL A   1      44.004  28.605  29.859  1.00  0.00     0.031 C 
ATOM     54  C   UNL A   1      46.584  32.924  29.792  1.00  0.00     0.029 A 
ATOM     55  N   UNL A   1      47.407  31.219  28.602  1.00  0.00    -0.354 N 
ATOM     56  C   UNL A   1      45.464  27.364  28.609  1.00  0.00     0.074 A 
ATOM     57  C   UNL A   1      44.269  27.380  29.424  1.00  0.00     0.031 C 
ATOM     58  C   UNL A   1      47.747  33.331  29.257  1.00  0.00     0.029 A 
ATOM     59  C   UNL A   1      48.334  32.231  28.499  1.00  0.00     0.049 A 
ATOM     60  H   UNL A   1      47.509  30.348  28.155  1.00  0.00     0.167 HD
ATOM     61  C   UNL A   1      45.921  26.274  27.949  1.00  0.00     0.034 A 
ATOM     62  C   UNL A   1      49.527  32.266  27.874  1.00  0.00     0.034 A 
ATOM     63  C   UNL A   1      47.080  26.274  27.098  1.00  0.00     0.049 A 
ATOM     64  C   UNL A   1      49.989  31.054  27.111  1.00  0.00     0.074 A 
ATOM     65  C   UNL A   1      47.563  25.251  26.301  1.00  0.00     0.029 A 
ATOM     66  N   UNL A   1      47.943  27.348  26.938  1.00  0.00    -0.354 N 
ATOM     67  N   UNL A   1      49.391  29.897  26.962  1.00  0.00    -0.248 NA
ATOM     68  C   UNL A   1      51.273  31.162  26.403  1.00  0.00     0.031 C 
ATOM     69  C   UNL A   1      48.730  25.700  25.673  1.00  0.00     0.029 A 
ATOM     70  C   UNL A   1      48.963  27.009  26.065  1.00  0.00     0.049 A 
ATOM     71  H   UNL A   1      47.845  28.222  27.379  1.00  0.00     0.167 HD
ATOM     72  C   UNL A   1      50.208  29.151  26.121  1.00  0.00     0.074 A 
ATOM     73  C   UNL A   1      51.333  29.995  25.775  1.00  0.00     0.031 C 
ATOM     74  C   UNL A   1      50.050  27.876  25.689  1.00  0.00     0.034 A 
BRANCH  61  75
ATOM     75  C   UNL A   1      45.130  24.997  28.072  1.00  0.00     0.023 A 
ATOM     76  C   UNL A   1      45.317  24.174  29.201  1.00  0.00     0.012 A 
ATOM     77  C   UNL A   1      44.166  24.642  27.109  1.00  0.00     0.148 A 
ATOM     78  C   UNL A   1      44.580  23.001  29.355  1.00  0.00     0.002 A 
ATOM     79  C   UNL A   1      43.406  23.492  27.290  1.00  0.00     0.091 A 
ATOM     80  F   UNL A   1      44.019  25.425  26.030  1.00  0.00    -0.205 F 
ATOM     81  C   UNL A   1      43.618  22.665  28.407  1.00  0.00     0.022 A 
BRANCH  79  82
ATOM     82  S   UNL A   1      42.091  23.014  26.162  1.00  0.00     0.127 S 
ATOM     83  O   UNL A   1      41.426  21.953  26.917  1.00  0.00    -0.237 OA
ATOM     84  O   UNL A   1      41.321  24.252  26.042  1.00  0.00    -0.237 OA
ATOM     85  O   UNL A   1      42.752  22.592  24.935  1.00  0.00    -0.744 OA
ENDBRANCH  79  82
ENDBRANCH  61  75
BRANCH  62  86
ATOM     86  C   UNL A   1      50.335  33.517  27.892  1.00  0.00     0.023 A 
ATOM     87  C   UNL A   1      51.293  33.704  28.907  1.00  0.00     0.012 A 
ATOM     88  C   UNL A   1      50.194  34.498  26.891  1.00  0.00     0.148 A 
ATOM     89  C   UNL A   1      52.079  34.856  28.939  1.00  0.00     0.002 A 
ATOM     90  C   UNL A   1      51.018  35.617  26.898  1.00  0.00     0.091 A 
ATOM     91  F   UNL A   1      49.267  34.308  25.941  1.00  0.00    -0.205 F 
ATOM     92  C   UNL A   1      51.950  35.807  27.930  1.00  0.00     0.022 A 
BRANCH  90  93
ATOM     93  S   UNL A   1      51.014  36.822  25.565  1.00  0.00     0.127 S 
ATOM     94  O   UNL A   1      52.044  37.758  26.004  1.00  0.00    -0.237 OA
ATOM     95  O   UNL A   1      51.377  36.000  24.411  1.00  0.00    -0.237 OA
ATOM     96  O   UNL A   1      49.655  37.347  25.519  1.00  0.00    -0.744 OA
ENDBRANCH  90  93
ENDBRANCH  62  86
BRANCH  74  97
ATOM     97  C   UNL A   1      51.105  27.311  24.775  1.00  0.00     0.023 A 
ATOM     98  C   UNL A   1      50.950  27.423  23.380  1.00  0.00     0.012 A 
ATOM     99  C   UNL A   1      52.288  26.752  25.297  1.00  0.00     0.148 A 
ATOM    100  C   UNL A   1      51.944  26.964  22.517  1.00  0.00     0.002 A 
ATOM    101  C   UNL A   1      53.294  26.339  24.433  1.00  0.00     0.091 A 
ATOM    102  F   UNL A   1      52.409  26.638  26.629  1.00  0.00    -0.205 F 
ATOM    103  C   UNL A   1      53.120  26.435  23.043  1.00  0.00     0.022 A 
BRANCH 101 104
ATOM    104  S   UNL A   1      54.881  25.731  25.021  1.00  0.00     0.127 S 
ATOM    105  O   UNL A   1      55.765  26.090  23.914  1.00  0.00    -0.237 OA
ATOM    106  O   UNL A   1      55.081  26.513  26.240  1.00  0.00    -0.237 OA
ATOM    107  O   UNL A   1      54.705  24.302  25.242  1.00  0.00    -0.744 OA
ENDBRANCH 101 104
ENDBRANCH  74  97
ENDBRANCH  48  49
ENDBRANCH  40  43
ENDBRANCH  38  39
ENDBRANCH  37  38
ENDBRANCH  36  37
ENDBRANCH  35  36
ENDBRANCH   1  35
TORSDOF 22
ENDMDL
MODEL 3
REMARK VINA RESULT:      -9.9      1.731      2.250
REMARK SMILES CCOC(=O)c1cccc(Nc2c(-c3ccc(C(=O)NCCCCCCNC(=O)c4ccc(-c5c6nc(c(-c7cccc(S(=O)(=O)[O-])c7F)c7ccc([nH]7)c(-c7cccc(S(=O)(=O)[O-])c7F)c7nc(c(-c8cccc(S(=O)(=O)[O-])c8F)c8ccc5[nH]8)C=C7)C=C6)cc4)cc3)nc3cnccn23)c1
REMARK SMILES IDX 22 1 21 2 20 3 18 4 19 5 17 7 14 8 15 9 94 10 16 11 93 12
REMARK SMILES IDX 13 13 12 14 101 15 95 16 96 17 100 18 97 19 99 20 98 21
REMARK SMILES IDX 11 22 10 24 6 25 7 26 102 27 8 28 9 29 4 30 5 31 3 32 2 33
REMARK SMILES IDX 1 34 23 35 24 36 25 37 26 38 27 39 28 40 29 42 30 43 31 44
REMARK SMILES IDX 92 45 32 46 91 47 33 48 34 49 35 50 85 51 36 52 90 53 84 54
REMARK SMILES IDX 86 55 37 56 89 57 83 58 82 59 38 61 70 62 50 63 69 64 51 65
REMARK SMILES IDX 54 66 68 67 87 68 52 69 53 70 67 72 88 73 55 74 39 75 40 76
REMARK SMILES IDX 48 77 41 78 43 79 49 80 42 81 44 82 45 83 46 84 47 85 71 86
REMARK SMILES IDX 72 87 80 88 73 89 75 90 81 91 74 92 76 93 77 94 78 95 79 96
REMARK SMILES IDX 56 97 57 98 65 99 58 100 60 101 66 102 59 103 61 104 62 105
REMARK SMILES IDX 63 106 64 107
REMARK H PARENT 20 6 11 23 27 41 86 60 54 71
REMARK Flexibility Score: inf
ROOT
ATOM      1  C   UNL A   1      38.791  28.580  28.846  1.00  0.00     0.021 C 
ENDROOT
BRANCH   1   2
ATOM      2  C   UNL A   1      37.718  29.069  29.822  1.00  0.00     0.116 C 
BRANCH   2   3
ATOM      3  N   UNL A   1      37.515  30.497  29.657  1.00  0.00    -0.352 N 
ATOM      4  C   UNL A   1      36.619  31.218  28.916  1.00  0.00     0.251 C 
ATOM      5  O   UNL A   1      36.683  32.447  28.971  1.00  0.00    -0.269 OA
ATOM      6  H   UNL A   1      38.140  31.051  30.178  1.00  0.00     0.163 HD
BRANCH   4   7
ATOM      7  C   UNL A   1      35.550  30.590  28.090  1.00  0.00     0.039 A 
ATOM      8  C   UNL A   1      33.423  29.564  26.565  1.00  0.00     0.004 A 
ATOM      9  C   UNL A   1      33.278  30.780  27.238  1.00  0.00     0.011 A 
ATOM     10  C   UNL A   1      34.633  28.870  26.642  1.00  0.00     0.011 A 
ATOM     11  C   UNL A   1      34.333  31.284  28.001  1.00  0.00     0.014 A 
ATOM     12  C   UNL A   1      35.701  29.400  27.371  1.00  0.00     0.014 A 
BRANCH   8  13
ATOM     13  C   UNL A   1      32.374  29.071  25.707  1.00  0.00     0.114 A 
ATOM     14  C   UNL A   1      31.985  27.739  25.656  1.00  0.00     0.143 A 
ATOM     15  N   UNL A   1      30.916  27.734  24.785  1.00  0.00    -0.283 N 
ATOM     16  N   UNL A   1      31.632  29.861  24.864  1.00  0.00    -0.225 NA
ATOM     17  C   UNL A   1      30.769  29.024  24.333  1.00  0.00     0.157 A 
ATOM     18  C   UNL A   1      30.031  26.754  24.370  1.00  0.00     0.115 A 
ATOM     19  C   UNL A   1      29.712  29.304  23.401  1.00  0.00     0.158 A 
ATOM     20  C   UNL A   1      29.064  27.095  23.500  1.00  0.00     0.129 A 
ATOM     21  N   UNL A   1      28.894  28.371  22.986  1.00  0.00    -0.259 NA
BRANCH  14  22
ATOM     22  N   UNL A   1      32.414  26.664  26.370  1.00  0.00    -0.339 N 
ATOM     23  H   UNL A   1      32.217  26.660  27.334  1.00  0.00     0.168 HD
BRANCH  22  24
ATOM     24  C   UNL A   1      33.117  25.549  25.853  1.00  0.00     0.040 A 
ATOM     25  C   UNL A   1      33.475  23.139  25.890  1.00  0.00     0.062 A 
ATOM     26  C   UNL A   1      34.484  23.261  24.932  1.00  0.00     0.016 A 
ATOM     27  C   UNL A   1      32.782  24.272  26.333  1.00  0.00     0.041 A 
ATOM     28  C   UNL A   1      34.790  24.515  24.411  1.00  0.00     0.003 A 
ATOM     29  C   UNL A   1      34.113  25.648  24.872  1.00  0.00     0.026 A 
BRANCH  25  30
ATOM     30  C   UNL A   1      33.217  21.806  26.474  1.00  0.00     0.338 C 
ATOM     31  O   UNL A   1      33.664  21.449  27.551  1.00  0.00    -0.246 OA
BRANCH  30  32
ATOM     32  O   UNL A   1      32.475  21.067  25.614  1.00  0.00    -0.462 OA
BRANCH  32  33
ATOM     33  C   UNL A   1      32.948  19.733  25.376  1.00  0.00     0.230 C 
ATOM     34  C   UNL A   1      32.527  19.219  24.009  1.00  0.00     0.049 C 
ENDBRANCH  32  33
ENDBRANCH  30  32
ENDBRANCH  25  30
ENDBRANCH  22  24
ENDBRANCH  14  22
ENDBRANCH   8  13
ENDBRANCH   4   7
ENDBRANCH   2   3
ENDBRANCH   1   2
BRANCH   1  35
ATOM     35  C   UNL A   1      39.635  27.426  29.404  1.00  0.00     0.002 C 
BRANCH  35  36
ATOM     36  C   UNL A   1      39.100  26.025  29.080  1.00  0.00     0.002 C 
BRANCH  36  37
ATOM     37  C   UNL A   1      39.781  25.331  27.896  1.00  0.00     0.021 C 
BRANCH  37  38
ATOM     38  C   UNL A   1      41.227  24.918  28.156  1.00  0.00     0.116 C 
BRANCH  38  39
ATOM     39  N   UNL A   1      41.959  24.721  26.912  1.00  0.00    -0.352 N 
ATOM     40  C   UNL A   1      42.615  25.649  26.141  1.00  0.00     0.251 C 
ATOM     41  H   UNL A   1      41.988  23.795  26.578  1.00  0.00     0.163 HD
ATOM     42  O   UNL A   1      42.986  25.360  25.007  1.00  0.00    -0.269 OA
BRANCH  40  43
ATOM     43  C   UNL A   1      42.864  27.001  26.682  1.00  0.00     0.039 A 
ATOM     44  C   UNL A   1      42.070  28.066  26.250  1.00  0.00     0.014 A 
ATOM     45  C   UNL A   1      43.881  27.211  27.618  1.00  0.00     0.014 A 
ATOM     46  C   UNL A   1      42.258  29.336  26.802  1.00  0.00     0.010 A 
ATOM     47  C   UNL A   1      44.026  28.462  28.211  1.00  0.00     0.010 A 
ATOM     48  C   UNL A   1      43.217  29.536  27.808  1.00  0.00    -0.014 A 
BRANCH  48  49
ATOM     49  C   UNL A   1      43.378  30.852  28.477  1.00  0.00     0.031 A 
ATOM     50  C   UNL A   1      44.485  31.781  28.062  1.00  0.00     0.074 A 
ATOM     51  C   UNL A   1      42.597  31.159  29.531  1.00  0.00     0.049 A 
ATOM     52  N   UNL A   1      44.841  32.924  28.587  1.00  0.00    -0.248 NA
ATOM     53  C   UNL A   1      45.321  31.356  26.926  1.00  0.00     0.031 C 
ATOM     54  C   UNL A   1      41.543  30.303  30.079  1.00  0.00     0.029 A 
ATOM     55  N   UNL A   1      42.594  32.257  30.354  1.00  0.00    -0.354 N 
ATOM     56  C   UNL A   1      45.961  33.337  27.876  1.00  0.00     0.074 A 
ATOM     57  C   UNL A   1      46.243  32.308  26.898  1.00  0.00     0.031 C 
ATOM     58  C   UNL A   1      41.002  30.903  31.151  1.00  0.00     0.029 A 
ATOM     59  C   UNL A   1      41.688  32.170  31.385  1.00  0.00     0.049 A 
ATOM     60  H   UNL A   1      43.186  33.033  30.220  1.00  0.00     0.167 HD
ATOM     61  C   UNL A   1      46.673  34.481  28.005  1.00  0.00     0.034 A 
ATOM     62  C   UNL A   1      41.442  33.011  32.409  1.00  0.00     0.034 A 
ATOM     63  C   UNL A   1      46.358  35.524  28.944  1.00  0.00     0.049 A 
ATOM     64  C   UNL A   1      42.218  34.296  32.503  1.00  0.00     0.074 A 
ATOM     65  C   UNL A   1      46.951  36.766  29.080  1.00  0.00     0.029 A 
ATOM     66  N   UNL A   1      45.368  35.445  29.911  1.00  0.00    -0.354 N 
ATOM     67  N   UNL A   1      43.163  34.748  31.713  1.00  0.00    -0.248 NA
ATOM     68  C   UNL A   1      41.876  35.202  33.609  1.00  0.00     0.031 C 
ATOM     69  C   UNL A   1      46.332  37.432  30.144  1.00  0.00     0.029 A 
ATOM     70  C   UNL A   1      45.341  36.610  30.657  1.00  0.00     0.049 A 
ATOM     71  H   UNL A   1      44.771  34.674  30.047  1.00  0.00     0.167 HD
ATOM     72  C   UNL A   1      43.505  36.002  32.207  1.00  0.00     0.074 A 
ATOM     73  C   UNL A   1      42.652  36.247  33.351  1.00  0.00     0.031 C 
ATOM     74  C   UNL A   1      44.452  36.863  31.762  1.00  0.00     0.034 A 
BRANCH  61  75
ATOM     75  C   UNL A   1      47.833  34.695  27.068  1.00  0.00     0.023 A 
ATOM     76  C   UNL A   1      47.608  35.307  25.818  1.00  0.00     0.012 A 
ATOM     77  C   UNL A   1      49.145  34.348  27.443  1.00  0.00     0.148 A 
ATOM     78  C   UNL A   1      48.667  35.542  24.942  1.00  0.00     0.002 A 
ATOM     79  C   UNL A   1      50.201  34.623  26.580  1.00  0.00     0.091 A 
ATOM     80  F   UNL A   1      49.336  33.746  28.625  1.00  0.00    -0.205 F 
ATOM     81  C   UNL A   1      49.963  35.210  25.326  1.00  0.00     0.022 A 
BRANCH  79  82
ATOM     82  S   UNL A   1      51.914  34.302  27.017  1.00  0.00     0.127 S 
ATOM     83  O   UNL A   1      52.608  34.685  25.788  1.00  0.00    -0.237 OA
ATOM     84  O   UNL A   1      52.123  35.211  28.143  1.00  0.00    -0.237 OA
ATOM     85  O   UNL A   1      51.980  32.888  27.359  1.00  0.00    -0.744 OA
ENDBRANCH  79  82
ENDBRANCH  61  75
BRANCH  62  86
ATOM     86  C   UNL A   1      40.367  32.689  33.389  1.00  0.00     0.023 A 
ATOM     87  C   UNL A   1      40.686  31.944  34.541  1.00  0.00     0.012 A 
ATOM     88  C   UNL A   1      39.049  33.151  33.212  1.00  0.00     0.148 A 
ATOM     89  C   UNL A   1      39.705  31.644  35.486  1.00  0.00     0.002 A 
ATOM     90  C   UNL A   1      38.089  32.894  34.184  1.00  0.00     0.091 A 
ATOM     91  F   UNL A   1      38.762  33.846  32.102  1.00  0.00    -0.205 F 
ATOM     92  C   UNL A   1      38.411  32.127  35.315  1.00  0.00     0.022 A 
BRANCH  90  93
ATOM     93  S   UNL A   1      36.436  33.594  34.111  1.00  0.00     0.127 S 
ATOM     94  O   UNL A   1      36.708  34.960  33.671  1.00  0.00    -0.237 OA
ATOM     95  O   UNL A   1      35.789  32.742  33.113  1.00  0.00    -0.237 OA
ATOM     96  O   UNL A   1      35.894  33.455  35.456  1.00  0.00    -0.744 OA
ENDBRANCH  90  93
ENDBRANCH  62  86
BRANCH  74  97
ATOM     97  C   UNL A   1      44.612  38.167  32.498  1.00  0.00     0.023 A 
ATOM     98  C   UNL A   1      43.853  39.286  32.104  1.00  0.00     0.012 A 
ATOM     99  C   UNL A   1      45.443  38.259  33.632  1.00  0.00     0.148 A 
ATOM    100  C   UNL A   1      43.939  40.485  32.811  1.00  0.00     0.002 A 
ATOM    101  C   UNL A   1      45.488  39.442  34.359  1.00  0.00     0.091 A 
ATOM    102  F   UNL A   1      46.171  37.187  33.981  1.00  0.00    -0.205 F 
ATOM    103  C   UNL A   1      44.744  40.559  33.944  1.00  0.00     0.022 A 
BRANCH 101 104
ATOM    104  S   UNL A   1      46.425  39.601  35.884  1.00  0.00     0.127 S 
ATOM    105  O   UNL A   1      45.825  38.557  36.713  1.00  0.00    -0.237 OA
ATOM    106  O   UNL A   1      47.790  39.320  35.441  1.00  0.00    -0.237 OA
ATOM    107  O   UNL A   1      46.209  40.966  36.347  1.00  0.00    -0.744 OA
ENDBRANCH 101 104
ENDBRANCH  74  97
ENDBRANCH  48  49
ENDBRANCH  40  43
ENDBRANCH  38  39
ENDBRANCH  37  38
ENDBRANCH  36  37
ENDBRANCH  35  36
ENDBRANCH   1  35
TORSDOF 22
ENDMDL
