MODEL 1
REMARK VINA RESULT:     -12.8      0.000      0.000
REMARK SMILES O=C(C[C@@H]1C(=O)N[NH+]=C2c3ccc(F)cc3N=CN21)NCCCCCCNC(=O)c1ccc(-c2c3nc(c(-c4cccc(S(=O)(=O)[O-])c4F)c4ccc([nH]4)c(-c4cccc(S(=O)(=O)[O-])c4F)c4nc(c(-c5cccc(S(=O)(=O)[O-])c5F)c5ccc2[nH]5)C=C4)C=C3)cc1
REMARK SMILES IDX 24 1 23 2 22 3 21 4 20 5 1 6 2 7 3 9 4 10 5 11 19 12 6 13
REMARK SMILES IDX 7 14 9 15 18 16 8 17 10 19 17 20 11 22 16 23 12 24 15 25
REMARK SMILES IDX 13 26 14 27 25 28 26 29 27 30 28 31 29 33 30 34 31 35 92 36
REMARK SMILES IDX 32 37 91 38 33 39 34 40 35 41 85 42 36 43 90 44 84 45 86 46
REMARK SMILES IDX 37 47 89 48 83 49 82 50 38 52 70 53 50 54 69 55 51 56 54 57
REMARK SMILES IDX 68 58 87 59 52 60 53 61 67 63 88 64 55 65 39 66 40 67 48 68
REMARK SMILES IDX 41 69 43 70 49 71 42 72 44 73 45 74 46 75 47 76 71 77 72 78
REMARK SMILES IDX 80 79 73 80 75 81 81 82 74 83 76 84 77 85 78 86 79 87 56 88
REMARK SMILES IDX 57 89 65 90 58 91 60 92 66 93 59 94 61 95 62 96 63 97 64 98
REMARK H PARENT 20 8 7 18 8 21 27 32 86 51 54 62
REMARK Flexibility Score: inf
ROOT
ATOM      1  C   UNL A   1      31.019  28.889  24.502  1.00  0.00     0.002 C 
ENDROOT
BRANCH   1   2
ATOM      2  C   UNL A   1      30.884  27.462  23.962  1.00  0.00     0.002 C 
BRANCH   2   3
ATOM      3  C   UNL A   1      30.205  26.466  24.920  1.00  0.00     0.021 C 
BRANCH   3   4
ATOM      4  C   UNL A   1      31.143  25.801  25.946  1.00  0.00     0.116 C 
BRANCH   4   5
ATOM      5  N   UNL A   1      31.985  24.831  25.276  1.00  0.00    -0.356 N 
ATOM      6  O   UNL A   1      34.124  25.400  25.958  1.00  0.00    -0.275 OA
ATOM      7  C   UNL A   1      33.355  24.958  25.135  1.00  0.00     0.224 C 
ATOM      8  H   UNL A   1      31.555  24.029  24.899  1.00  0.00     0.163 HD
BRANCH   7   9
ATOM      9  C   UNL A   1      33.703  24.733  23.692  1.00  0.00     0.160 C 
BRANCH   9  10
ATOM     10  C   UNL A   1      34.224  23.396  23.206  1.00  0.00     0.284 C 
ATOM     11  C   UNL A   1      33.272  23.163  22.019  1.00  0.00     0.300 C 
ATOM     12  N   UNL A   1      34.082  22.263  24.143  1.00  0.00    -0.203 N 
ATOM     13  O   UNL A   1      33.523  23.476  20.861  1.00  0.00    -0.267 OA
ATOM     14  N   UNL A   1      32.004  22.761  22.423  1.00  0.00    -0.193 N 
ATOM     15  C   UNL A   1      32.950  21.465  23.991  1.00  0.00     0.309 C 
ATOM     16  C   UNL A   1      35.183  21.797  24.829  1.00  0.00     0.317 C 
ATOM     17  N   UNL A   1      31.858  21.790  23.365  1.00  0.00    -0.169 N 
ATOM     18  H   UNL A   1      31.208  23.181  22.024  1.00  0.00     0.216 HD
ATOM     19  C   UNL A   1      33.138  20.014  24.283  1.00  0.00     0.092 A 
ATOM     20  N   UNL A   1      35.394  20.556  25.147  1.00  0.00    -0.216 NA
ATOM     21  H   UNL A   1      30.989  21.367  23.558  1.00  0.00     0.340 HD
ATOM     22  C   UNL A   1      32.247  19.104  23.688  1.00  0.00     0.022 A 
ATOM     23  C   UNL A   1      34.434  19.629  24.671  1.00  0.00     0.085 A 
ATOM     24  C   UNL A   1      32.684  17.822  23.381  1.00  0.00     0.040 A 
ATOM     25  C   UNL A   1      34.835  18.318  24.399  1.00  0.00     0.068 A 
ATOM     26  C   UNL A   1      33.978  17.447  23.725  1.00  0.00     0.125 A 
ATOM     27  F   UNL A   1      34.426  16.245  23.340  1.00  0.00    -0.207 F 
ENDBRANCH   9  10
ENDBRANCH   7   9
ENDBRANCH   4   5
ENDBRANCH   3   4
ENDBRANCH   2   3
ENDBRANCH   1   2
BRANCH   1  28
ATOM     28  C   UNL A   1      32.368  29.193  25.148  1.00  0.00     0.021 C 
BRANCH  28  29
ATOM     29  C   UNL A   1      32.287  29.644  26.601  1.00  0.00     0.116 C 
BRANCH  29  30
ATOM     30  N   UNL A   1      32.122  31.086  26.738  1.00  0.00    -0.352 N 
ATOM     31  C   UNL A   1      32.982  32.008  27.292  1.00  0.00     0.251 C 
ATOM     32  H   UNL A   1      31.279  31.450  26.387  1.00  0.00     0.163 HD
ATOM     33  O   UNL A   1      32.616  33.167  27.461  1.00  0.00    -0.269 OA
BRANCH  31  34
ATOM     34  C   UNL A   1      34.330  31.573  27.717  1.00  0.00     0.039 A 
ATOM     35  C   UNL A   1      34.600  30.218  27.914  1.00  0.00     0.014 A 
ATOM     36  C   UNL A   1      35.310  32.532  27.986  1.00  0.00     0.014 A 
ATOM     37  C   UNL A   1      35.766  29.840  28.569  1.00  0.00     0.010 A 
ATOM     38  C   UNL A   1      36.525  32.137  28.554  1.00  0.00     0.010 A 
ATOM     39  C   UNL A   1      36.738  30.795  28.909  1.00  0.00    -0.014 A 
BRANCH  39  40
ATOM     40  C   UNL A   1      37.958  30.365  29.643  1.00  0.00     0.031 A 
ATOM     41  C   UNL A   1      38.217  30.825  31.056  1.00  0.00     0.074 A 
ATOM     42  C   UNL A   1      38.818  29.514  29.049  1.00  0.00     0.049 A 
ATOM     43  N   UNL A   1      39.219  30.528  31.843  1.00  0.00    -0.248 NA
ATOM     44  C   UNL A   1      37.230  31.731  31.668  1.00  0.00     0.031 C 
ATOM     45  C   UNL A   1      38.686  29.003  27.682  1.00  0.00     0.029 A 
ATOM     46  N   UNL A   1      39.962  28.919  29.516  1.00  0.00    -0.354 N 
ATOM     47  C   UNL A   1      39.008  31.238  33.019  1.00  0.00     0.074 A 
ATOM     48  C   UNL A   1      37.784  31.986  32.848  1.00  0.00     0.031 C 
ATOM     49  C   UNL A   1      39.686  28.144  27.435  1.00  0.00     0.029 A 
ATOM     50  C   UNL A   1      40.561  28.088  28.600  1.00  0.00     0.049 A 
ATOM     51  H   UNL A   1      40.319  29.073  30.420  1.00  0.00     0.167 HD
ATOM     52  C   UNL A   1      39.757  31.249  34.147  1.00  0.00     0.034 A 
ATOM     53  C   UNL A   1      41.699  27.370  28.675  1.00  0.00     0.034 A 
ATOM     54  C   UNL A   1      40.947  30.466  34.341  1.00  0.00     0.049 A 
ATOM     55  C   UNL A   1      42.510  27.404  29.936  1.00  0.00     0.074 A 
ATOM     56  C   UNL A   1      41.738  30.379  35.473  1.00  0.00     0.029 A 
ATOM     57  N   UNL A   1      41.516  29.638  33.388  1.00  0.00    -0.354 N 
ATOM     58  N   UNL A   1      42.253  28.027  31.059  1.00  0.00    -0.248 NA
ATOM     59  C   UNL A   1      43.759  26.629  29.948  1.00  0.00     0.031 C 
ATOM     60  C   UNL A   1      42.797  29.510  35.199  1.00  0.00     0.029 A 
ATOM     61  C   UNL A   1      42.652  29.040  33.903  1.00  0.00     0.049 A 
ATOM     62  H   UNL A   1      41.164  29.495  32.479  1.00  0.00     0.167 HD
ATOM     63  C   UNL A   1      43.297  27.709  31.917  1.00  0.00     0.074 A 
ATOM     64  C   UNL A   1      44.184  26.824  31.191  1.00  0.00     0.031 C 
ATOM     65  C   UNL A   1      43.505  28.127  33.188  1.00  0.00     0.034 A 
BRANCH  52  66
ATOM     66  C   UNL A   1      39.297  32.099  35.301  1.00  0.00     0.023 A 
ATOM     67  C   UNL A   1      38.476  31.529  36.293  1.00  0.00     0.012 A 
ATOM     68  C   UNL A   1      39.778  33.413  35.465  1.00  0.00     0.148 A 
ATOM     69  C   UNL A   1      38.135  32.258  37.433  1.00  0.00     0.002 A 
ATOM     70  C   UNL A   1      39.458  34.122  36.617  1.00  0.00     0.091 A 
ATOM     71  F   UNL A   1      40.552  33.933  34.502  1.00  0.00    -0.205 F 
ATOM     72  C   UNL A   1      38.635  33.547  37.600  1.00  0.00     0.022 A 
BRANCH  70  73
ATOM     73  S   UNL A   1      40.092  35.767  36.957  1.00  0.00     0.127 S 
ATOM     74  O   UNL A   1      39.645  36.505  35.775  1.00  0.00    -0.237 OA
ATOM     75  O   UNL A   1      39.393  36.115  38.193  1.00  0.00    -0.237 OA
ATOM     76  O   UNL A   1      41.536  35.627  37.087  1.00  0.00    -0.744 OA
ENDBRANCH  70  73
ENDBRANCH  52  66
BRANCH  53  77
ATOM     77  C   UNL A   1      42.102  26.532  27.515  1.00  0.00     0.023 A 
ATOM     78  C   UNL A   1      42.901  27.093  26.502  1.00  0.00     0.012 A 
ATOM     79  C   UNL A   1      41.771  25.165  27.460  1.00  0.00     0.148 A 
ATOM     80  C   UNL A   1      43.363  26.304  25.448  1.00  0.00     0.002 A 
ATOM     81  C   UNL A   1      42.268  24.375  26.432  1.00  0.00     0.091 A 
ATOM     82  F   UNL A   1      41.009  24.659  28.441  1.00  0.00    -0.205 F 
ATOM     83  C   UNL A   1      43.056  24.945  25.419  1.00  0.00     0.022 A 
BRANCH  81  84
ATOM     84  S   UNL A   1      42.018  22.598  26.367  1.00  0.00     0.127 S 
ATOM     85  O   UNL A   1      40.560  22.502  26.364  1.00  0.00    -0.237 OA
ATOM     86  O   UNL A   1      42.661  22.255  25.097  1.00  0.00    -0.237 OA
ATOM     87  O   UNL A   1      42.677  22.060  27.547  1.00  0.00    -0.744 OA
ENDBRANCH  81  84
ENDBRANCH  53  77
BRANCH  65  88
ATOM     88  C   UNL A   1      44.728  27.633  33.906  1.00  0.00     0.023 A 
ATOM     89  C   UNL A   1      45.890  28.428  33.921  1.00  0.00     0.012 A 
ATOM     90  C   UNL A   1      44.679  26.455  34.677  1.00  0.00     0.148 A 
ATOM     91  C   UNL A   1      46.991  28.054  34.690  1.00  0.00     0.002 A 
ATOM     92  C   UNL A   1      45.766  26.106  35.467  1.00  0.00     0.091 A 
ATOM     93  F   UNL A   1      43.561  25.716  34.639  1.00  0.00    -0.205 F 
ATOM     94  C   UNL A   1      46.924  26.902  35.472  1.00  0.00     0.022 A 
BRANCH  92  95
ATOM     95  S   UNL A   1      45.752  24.683  36.563  1.00  0.00     0.127 S 
ATOM     96  O   UNL A   1      44.567  24.948  37.378  1.00  0.00    -0.237 OA
ATOM     97  O   UNL A   1      45.611  23.571  35.622  1.00  0.00    -0.237 OA
ATOM     98  O   UNL A   1      47.017  24.714  37.285  1.00  0.00    -0.744 OA
ENDBRANCH  92  95
ENDBRANCH  65  88
ENDBRANCH  39  40
ENDBRANCH  31  34
ENDBRANCH  29  30
ENDBRANCH  28  29
ENDBRANCH   1  28
TORSDOF 17
ENDMDL
MODEL 2
REMARK VINA RESULT:     -12.6      4.977      9.563
REMARK SMILES O=C(C[C@@H]1C(=O)N[NH+]=C2c3ccc(F)cc3N=CN21)NCCCCCCNC(=O)c1ccc(-c2c3nc(c(-c4cccc(S(=O)(=O)[O-])c4F)c4ccc([nH]4)c(-c4cccc(S(=O)(=O)[O-])c4F)c4nc(c(-c5cccc(S(=O)(=O)[O-])c5F)c5ccc2[nH]5)C=C4)C=C3)cc1
REMARK SMILES IDX 24 1 23 2 22 3 21 4 20 5 1 6 2 7 3 9 4 10 5 11 19 12 6 13
REMARK SMILES IDX 7 14 9 15 18 16 8 17 10 19 17 20 11 22 16 23 12 24 15 25
REMARK SMILES IDX 13 26 14 27 25 28 26 29 27 30 28 31 29 33 30 34 31 35 92 36
REMARK SMILES IDX 32 37 91 38 33 39 34 40 35 41 85 42 36 43 90 44 84 45 86 46
REMARK SMILES IDX 37 47 89 48 83 49 82 50 38 52 70 53 50 54 69 55 51 56 54 57
REMARK SMILES IDX 68 58 87 59 52 60 53 61 67 63 88 64 55 65 39 66 40 67 48 68
REMARK SMILES IDX 41 69 43 70 49 71 42 72 44 73 45 74 46 75 47 76 71 77 72 78
REMARK SMILES IDX 80 79 73 80 75 81 81 82 74 83 76 84 77 85 78 86 79 87 56 88
REMARK SMILES IDX 57 89 65 90 58 91 60 92 66 93 59 94 61 95 62 96 63 97 64 98
REMARK H PARENT 20 8 7 18 8 21 27 32 86 51 54 62
REMARK Flexibility Score: inf
ROOT
ATOM      1  C   UNL A   1      35.234  23.309  24.868  1.00  0.00     0.002 C 
ENDROOT
BRANCH   1   2
ATOM      2  C   UNL A   1      35.107  24.523  25.792  1.00  0.00     0.002 C 
BRANCH   2   3
ATOM      3  C   UNL A   1      33.679  25.079  25.943  1.00  0.00     0.021 C 
BRANCH   3   4
ATOM      4  C   UNL A   1      33.294  26.175  24.931  1.00  0.00     0.116 C 
BRANCH   4   5
ATOM      5  N   UNL A   1      32.623  25.576  23.796  1.00  0.00    -0.356 N 
ATOM      6  O   UNL A   1      30.381  25.684  24.365  1.00  0.00    -0.275 OA
ATOM      7  C   UNL A   1      31.310  25.143  23.810  1.00  0.00     0.224 C 
ATOM      8  H   UNL A   1      33.134  25.470  22.960  1.00  0.00     0.163 HD
BRANCH   7   9
ATOM      9  C   UNL A   1      31.269  23.741  23.274  1.00  0.00     0.160 C 
BRANCH   9  10
ATOM     10  C   UNL A   1      32.396  22.763  23.536  1.00  0.00     0.284 C 
ATOM     11  C   UNL A   1      32.991  22.668  22.120  1.00  0.00     0.300 C 
ATOM     12  N   UNL A   1      31.994  21.406  23.962  1.00  0.00    -0.203 N 
ATOM     13  O   UNL A   1      33.924  23.352  21.716  1.00  0.00    -0.267 OA
ATOM     14  N   UNL A   1      32.223  21.880  21.270  1.00  0.00    -0.193 N 
ATOM     15  C   UNL A   1      31.883  20.445  22.960  1.00  0.00     0.309 C 
ATOM     16  C   UNL A   1      32.128  21.033  25.282  1.00  0.00     0.317 C 
ATOM     17  N   UNL A   1      31.756  20.672  21.686  1.00  0.00    -0.169 N 
ATOM     18  H   UNL A   1      32.018  22.199  20.362  1.00  0.00     0.216 HD
ATOM     19  C   UNL A   1      32.271  19.058  23.349  1.00  0.00     0.092 A 
ATOM     20  N   UNL A   1      32.429  19.839  25.694  1.00  0.00    -0.216 NA
ATOM     21  H   UNL A   1      31.352  20.020  21.068  1.00  0.00     0.340 HD
ATOM     22  C   UNL A   1      32.669  18.177  22.328  1.00  0.00     0.022 A 
ATOM     23  C   UNL A   1      32.706  18.892  24.676  1.00  0.00     0.085 A 
ATOM     24  C   UNL A   1      33.593  17.179  22.610  1.00  0.00     0.040 A 
ATOM     25  C   UNL A   1      33.595  17.848  24.948  1.00  0.00     0.068 A 
ATOM     26  C   UNL A   1      34.058  17.034  23.912  1.00  0.00     0.125 A 
ATOM     27  F   UNL A   1      35.020  16.135  24.158  1.00  0.00    -0.207 F 
ENDBRANCH   9  10
ENDBRANCH   7   9
ENDBRANCH   4   5
ENDBRANCH   3   4
ENDBRANCH   2   3
ENDBRANCH   1   2
BRANCH   1  28
ATOM     28  C   UNL A   1      36.115  22.190  25.416  1.00  0.00     0.021 C 
BRANCH  28  29
ATOM     29  C   UNL A   1      37.424  21.987  24.663  1.00  0.00     0.116 C 
BRANCH  29  30
ATOM     30  N   UNL A   1      38.210  20.875  25.183  1.00  0.00    -0.352 N 
ATOM     31  C   UNL A   1      39.295  20.901  26.032  1.00  0.00     0.251 C 
ATOM     32  H   UNL A   1      37.927  19.981  24.885  1.00  0.00     0.163 HD
ATOM     33  O   UNL A   1      39.932  19.875  26.249  1.00  0.00    -0.269 OA
BRANCH  31  34
ATOM     34  C   UNL A   1      39.703  22.186  26.640  1.00  0.00     0.039 A 
ATOM     35  C   UNL A   1      39.116  23.380  26.219  1.00  0.00     0.014 A 
ATOM     36  C   UNL A   1      40.728  22.202  27.590  1.00  0.00     0.014 A 
ATOM     37  C   UNL A   1      39.687  24.591  26.588  1.00  0.00     0.010 A 
ATOM     38  C   UNL A   1      41.235  23.426  28.036  1.00  0.00     0.010 A 
ATOM     39  C   UNL A   1      40.762  24.631  27.491  1.00  0.00    -0.014 A 
BRANCH  39  40
ATOM     40  C   UNL A   1      41.377  25.940  27.838  1.00  0.00     0.031 A 
ATOM     41  C   UNL A   1      42.773  26.287  27.385  1.00  0.00     0.074 A 
ATOM     42  C   UNL A   1      40.653  26.845  28.526  1.00  0.00     0.049 A 
ATOM     43  N   UNL A   1      43.448  27.390  27.585  1.00  0.00    -0.248 NA
ATOM     44  C   UNL A   1      43.508  25.273  26.610  1.00  0.00     0.031 C 
ATOM     45  C   UNL A   1      39.294  26.628  29.030  1.00  0.00     0.029 A 
ATOM     46  N   UNL A   1      40.948  28.128  28.912  1.00  0.00    -0.354 N 
ATOM     47  C   UNL A   1      44.693  27.190  27.001  1.00  0.00     0.074 A 
ATOM     48  C   UNL A   1      44.688  25.858  26.441  1.00  0.00     0.031 C 
ATOM     49  C   UNL A   1      38.860  27.749  29.623  1.00  0.00     0.029 A 
ATOM     50  C   UNL A   1      39.928  28.744  29.595  1.00  0.00     0.049 A 
ATOM     51  H   UNL A   1      41.808  28.565  28.717  1.00  0.00     0.167 HD
ATOM     52  C   UNL A   1      45.739  28.046  26.922  1.00  0.00     0.034 A 
ATOM     53  C   UNL A   1      39.856  29.966  30.156  1.00  0.00     0.034 A 
ATOM     54  C   UNL A   1      45.730  29.389  27.433  1.00  0.00     0.049 A 
ATOM     55  C   UNL A   1      41.031  30.893  30.057  1.00  0.00     0.074 A 
ATOM     56  C   UNL A   1      46.730  30.343  27.350  1.00  0.00     0.029 A 
ATOM     57  N   UNL A   1      44.675  29.972  28.116  1.00  0.00    -0.354 N 
ATOM     58  N   UNL A   1      42.171  30.707  29.439  1.00  0.00    -0.248 NA
ATOM     59  C   UNL A   1      40.909  32.200  30.718  1.00  0.00     0.031 C 
ATOM     60  C   UNL A   1      46.287  31.497  28.000  1.00  0.00     0.029 A 
ATOM     61  C   UNL A   1      45.002  31.269  28.467  1.00  0.00     0.049 A 
ATOM     62  H   UNL A   1      43.820  29.529  28.321  1.00  0.00     0.167 HD
ATOM     63  C   UNL A   1      42.897  31.876  29.622  1.00  0.00     0.074 A 
ATOM     64  C   UNL A   1      42.063  32.773  30.395  1.00  0.00     0.031 C 
ATOM     65  C   UNL A   1      44.149  32.169  29.198  1.00  0.00     0.034 A 
BRANCH  52  66
ATOM     66  C   UNL A   1      46.985  27.588  26.214  1.00  0.00     0.023 A 
ATOM     67  C   UNL A   1      47.902  26.762  26.894  1.00  0.00     0.012 A 
ATOM     68  C   UNL A   1      47.183  27.870  24.847  1.00  0.00     0.148 A 
ATOM     69  C   UNL A   1      49.002  26.226  26.224  1.00  0.00     0.002 A 
ATOM     70  C   UNL A   1      48.265  27.308  24.180  1.00  0.00     0.091 A 
ATOM     71  F   UNL A   1      46.299  28.664  24.227  1.00  0.00    -0.205 F 
ATOM     72  C   UNL A   1      49.177  26.489  24.868  1.00  0.00     0.022 A 
BRANCH  70  73
ATOM     73  S   UNL A   1      48.553  27.537  22.423  1.00  0.00     0.127 S 
ATOM     74  O   UNL A   1      47.372  28.306  22.029  1.00  0.00    -0.237 OA
ATOM     75  O   UNL A   1      49.804  28.294  22.413  1.00  0.00    -0.237 OA
ATOM     76  O   UNL A   1      48.639  26.202  21.848  1.00  0.00    -0.744 OA
ENDBRANCH  70  73
ENDBRANCH  52  66
BRANCH  53  77
ATOM     77  C   UNL A   1      38.596  30.380  30.831  1.00  0.00     0.023 A 
ATOM     78  C   UNL A   1      38.452  30.169  32.214  1.00  0.00     0.012 A 
ATOM     79  C   UNL A   1      37.586  31.057  30.122  1.00  0.00     0.148 A 
ATOM     80  C   UNL A   1      37.316  30.625  32.883  1.00  0.00     0.002 A 
ATOM     81  C   UNL A   1      36.478  31.547  30.801  1.00  0.00     0.091 A 
ATOM     82  F   UNL A   1      37.753  31.244  28.805  1.00  0.00    -0.205 F 
ATOM     83  C   UNL A   1      36.336  31.323  32.180  1.00  0.00     0.022 A 
BRANCH  81  84
ATOM     84  S   UNL A   1      35.217  32.548  30.005  1.00  0.00     0.127 S 
ATOM     85  O   UNL A   1      34.285  32.782  31.105  1.00  0.00    -0.237 OA
ATOM     86  O   UNL A   1      35.988  33.720  29.590  1.00  0.00    -0.237 OA
ATOM     87  O   UNL A   1      34.700  31.740  28.910  1.00  0.00    -0.744 OA
ENDBRANCH  81  84
ENDBRANCH  53  77
BRANCH  65  88
ATOM     88  C   UNL A   1      44.713  33.521  29.533  1.00  0.00     0.023 A 
ATOM     89  C   UNL A   1      45.501  33.673  30.690  1.00  0.00     0.012 A 
ATOM     90  C   UNL A   1      44.577  34.597  28.635  1.00  0.00     0.148 A 
ATOM     91  C   UNL A   1      46.144  34.882  30.951  1.00  0.00     0.002 A 
ATOM     92  C   UNL A   1      45.248  35.788  28.883  1.00  0.00     0.091 A 
ATOM     93  F   UNL A   1      43.816  34.424  27.544  1.00  0.00    -0.205 F 
ATOM     94  C   UNL A   1      46.029  35.933  30.042  1.00  0.00     0.022 A 
BRANCH  92  95
ATOM     95  S   UNL A   1      45.220  37.172  27.741  1.00  0.00     0.127 S 
ATOM     96  O   UNL A   1      46.026  38.163  28.455  1.00  0.00    -0.237 OA
ATOM     97  O   UNL A   1      45.859  36.605  26.553  1.00  0.00    -0.237 OA
ATOM     98  O   UNL A   1      43.818  37.528  27.568  1.00  0.00    -0.744 OA
ENDBRANCH  92  95
ENDBRANCH  65  88
ENDBRANCH  39  40
ENDBRANCH  31  34
ENDBRANCH  29  30
ENDBRANCH  28  29
ENDBRANCH   1  28
TORSDOF 17
ENDMDL
MODEL 3
REMARK VINA RESULT:     -12.5      2.029      2.672
REMARK SMILES O=C(C[C@@H]1C(=O)N[NH+]=C2c3ccc(F)cc3N=CN21)NCCCCCCNC(=O)c1ccc(-c2c3nc(c(-c4cccc(S(=O)(=O)[O-])c4F)c4ccc([nH]4)c(-c4cccc(S(=O)(=O)[O-])c4F)c4nc(c(-c5cccc(S(=O)(=O)[O-])c5F)c5ccc2[nH]5)C=C4)C=C3)cc1
REMARK SMILES IDX 24 1 23 2 22 3 21 4 20 5 1 6 2 7 3 9 4 10 5 11 19 12 6 13
REMARK SMILES IDX 7 14 9 15 18 16 8 17 10 19 17 20 11 22 16 23 12 24 15 25
REMARK SMILES IDX 13 26 14 27 25 28 26 29 27 30 28 31 29 33 30 34 31 35 92 36
REMARK SMILES IDX 32 37 91 38 33 39 34 40 35 41 85 42 36 43 90 44 84 45 86 46
REMARK SMILES IDX 37 47 89 48 83 49 82 50 38 52 70 53 50 54 69 55 51 56 54 57
REMARK SMILES IDX 68 58 87 59 52 60 53 61 67 63 88 64 55 65 39 66 40 67 48 68
REMARK SMILES IDX 41 69 43 70 49 71 42 72 44 73 45 74 46 75 47 76 71 77 72 78
REMARK SMILES IDX 80 79 73 80 75 81 81 82 74 83 76 84 77 85 78 86 79 87 56 88
REMARK SMILES IDX 57 89 65 90 58 91 60 92 66 93 59 94 61 95 62 96 63 97 64 98
REMARK H PARENT 20 8 7 18 8 21 27 32 86 51 54 62
REMARK Flexibility Score: inf
ROOT
ATOM      1  C   UNL A   1      31.852  30.442  26.179  1.00  0.00     0.002 C 
ENDROOT
BRANCH   1   2
ATOM      2  C   UNL A   1      31.774  29.279  27.171  1.00  0.00     0.002 C 
BRANCH   2   3
ATOM      3  C   UNL A   1      32.967  28.306  27.128  1.00  0.00     0.021 C 
BRANCH   3   4
ATOM      4  C   UNL A   1      34.138  28.748  26.229  1.00  0.00     0.116 C 
BRANCH   4   5
ATOM      5  N   UNL A   1      34.230  27.868  25.083  1.00  0.00    -0.356 N 
ATOM      6  O   UNL A   1      33.312  29.116  23.361  1.00  0.00    -0.275 OA
ATOM      7  C   UNL A   1      33.535  28.057  23.902  1.00  0.00     0.224 C 
ATOM      8  H   UNL A   1      34.826  27.087  25.147  1.00  0.00     0.163 HD
BRANCH   7   9
ATOM      9  C   UNL A   1      32.849  26.770  23.547  1.00  0.00     0.160 C 
BRANCH   9  10
ATOM     10  C   UNL A   1      33.634  25.493  23.325  1.00  0.00     0.284 C 
ATOM     11  C   UNL A   1      32.918  24.964  22.070  1.00  0.00     0.300 C 
ATOM     12  N   UNL A   1      33.526  24.470  24.386  1.00  0.00    -0.203 N 
ATOM     13  O   UNL A   1      33.291  25.176  20.922  1.00  0.00    -0.267 OA
ATOM     14  N   UNL A   1      31.680  24.402  22.358  1.00  0.00    -0.193 N 
ATOM     15  C   UNL A   1      32.566  23.478  24.201  1.00  0.00     0.309 C 
ATOM     16  C   UNL A   1      34.569  24.282  25.267  1.00  0.00     0.317 C 
ATOM     17  N   UNL A   1      31.543  23.537  23.399  1.00  0.00    -0.169 N 
ATOM     18  H   UNL A   1      30.899  24.630  21.804  1.00  0.00     0.216 HD
ATOM     19  C   UNL A   1      32.925  22.126  24.716  1.00  0.00     0.092 A 
ATOM     20  N   UNL A   1      34.917  23.141  25.781  1.00  0.00    -0.216 NA
ATOM     21  H   UNL A   1      30.730  22.998  23.536  1.00  0.00     0.340 HD
ATOM     22  C   UNL A   1      32.282  21.014  24.144  1.00  0.00     0.022 A 
ATOM     23  C   UNL A   1      34.191  22.015  25.319  1.00  0.00     0.085 A 
ATOM     24  C   UNL A   1      32.951  19.798  24.079  1.00  0.00     0.040 A 
ATOM     25  C   UNL A   1      34.824  20.769  25.288  1.00  0.00     0.068 A 
ATOM     26  C   UNL A   1      34.220  19.692  24.638  1.00  0.00     0.125 A 
ATOM     27  F   UNL A   1      34.899  18.546  24.486  1.00  0.00    -0.207 F 
ENDBRANCH   9  10
ENDBRANCH   7   9
ENDBRANCH   4   5
ENDBRANCH   3   4
ENDBRANCH   2   3
ENDBRANCH   1   2
BRANCH   1  28
ATOM     28  C   UNL A   1      31.567  31.812  26.791  1.00  0.00     0.021 C 
BRANCH  28  29
ATOM     29  C   UNL A   1      32.796  32.532  27.332  1.00  0.00     0.116 C 
BRANCH  29  30
ATOM     30  N   UNL A   1      32.555  33.946  27.591  1.00  0.00    -0.352 N 
ATOM     31  C   UNL A   1      33.158  34.774  28.513  1.00  0.00     0.251 C 
ATOM     32  H   UNL A   1      31.866  34.368  27.031  1.00  0.00     0.163 HD
ATOM     33  O   UNL A   1      32.725  35.907  28.699  1.00  0.00    -0.269 OA
BRANCH  31  34
ATOM     34  C   UNL A   1      34.301  34.263  29.302  1.00  0.00     0.039 A 
ATOM     35  C   UNL A   1      35.601  34.666  28.993  1.00  0.00     0.014 A 
ATOM     36  C   UNL A   1      34.075  33.325  30.312  1.00  0.00     0.014 A 
ATOM     37  C   UNL A   1      36.678  33.984  29.546  1.00  0.00     0.010 A 
ATOM     38  C   UNL A   1      35.164  32.711  30.938  1.00  0.00     0.010 A 
ATOM     39  C   UNL A   1      36.474  32.989  30.516  1.00  0.00    -0.014 A 
BRANCH  39  40
ATOM     40  C   UNL A   1      37.644  32.251  31.062  1.00  0.00     0.031 A 
ATOM     41  C   UNL A   1      38.148  32.515  32.458  1.00  0.00     0.074 A 
ATOM     42  C   UNL A   1      38.229  31.298  30.309  1.00  0.00     0.049 A 
ATOM     43  N   UNL A   1      39.142  31.947  33.092  1.00  0.00    -0.248 NA
ATOM     44  C   UNL A   1      37.453  33.546  33.248  1.00  0.00     0.031 C 
ATOM     45  C   UNL A   1      37.842  30.952  28.939  1.00  0.00     0.029 A 
ATOM     46  N   UNL A   1      39.261  30.438  30.589  1.00  0.00    -0.354 N 
ATOM     47  C   UNL A   1      39.218  32.574  34.330  1.00  0.00     0.074 A 
ATOM     48  C   UNL A   1      38.175  33.572  34.363  1.00  0.00     0.031 C 
ATOM     49  C   UNL A   1      38.599  29.931  28.512  1.00  0.00     0.029 A 
ATOM     50  C   UNL A   1      39.563  29.588  29.552  1.00  0.00     0.049 A 
ATOM     51  H   UNL A   1      39.739  30.432  31.449  1.00  0.00     0.167 HD
ATOM     52  C   UNL A   1      40.069  32.327  35.353  1.00  0.00     0.034 A 
ATOM     53  C   UNL A   1      40.519  28.646  29.436  1.00  0.00     0.034 A 
ATOM     54  C   UNL A   1      41.075  31.300  35.344  1.00  0.00     0.049 A 
ATOM     55  C   UNL A   1      41.451  28.396  30.584  1.00  0.00     0.074 A 
ATOM     56  C   UNL A   1      41.947  30.948  36.359  1.00  0.00     0.029 A 
ATOM     57  N   UNL A   1      41.344  30.462  34.274  1.00  0.00    -0.354 N 
ATOM     58  N   UNL A   1      41.457  28.954  31.770  1.00  0.00    -0.248 NA
ATOM     59  C   UNL A   1      42.496  27.381  30.388  1.00  0.00     0.031 C 
ATOM     60  C   UNL A   1      42.757  29.907  35.897  1.00  0.00     0.029 A 
ATOM     61  C   UNL A   1      42.374  29.598  34.602  1.00  0.00     0.049 A 
ATOM     62  H   UNL A   1      40.874  30.479  33.409  1.00  0.00     0.167 HD
ATOM     63  C   UNL A   1      42.495  28.349  32.467  1.00  0.00     0.074 A 
ATOM     64  C   UNL A   1      43.085  27.369  31.578  1.00  0.00     0.031 C 
ATOM     65  C   UNL A   1      42.925  28.597  33.727  1.00  0.00     0.034 A 
BRANCH  52  66
ATOM     66  C   UNL A   1      39.933  33.144  36.609  1.00  0.00     0.023 A 
ATOM     67  C   UNL A   1      40.547  34.410  36.679  1.00  0.00     0.012 A 
ATOM     68  C   UNL A   1      39.098  32.716  37.661  1.00  0.00     0.148 A 
ATOM     69  C   UNL A   1      40.337  35.238  37.782  1.00  0.00     0.002 A 
ATOM     70  C   UNL A   1      38.871  33.559  38.742  1.00  0.00     0.091 A 
ATOM     71  F   UNL A   1      38.532  31.504  37.572  1.00  0.00    -0.205 F 
ATOM     72  C   UNL A   1      39.491  34.818  38.806  1.00  0.00     0.022 A 
BRANCH  70  73
ATOM     73  S   UNL A   1      37.758  33.140  40.088  1.00  0.00     0.127 S 
ATOM     74  O   UNL A   1      36.518  32.853  39.365  1.00  0.00    -0.237 OA
ATOM     75  O   UNL A   1      38.408  31.967  40.670  1.00  0.00    -0.237 OA
ATOM     76  O   UNL A   1      37.710  34.309  40.954  1.00  0.00    -0.744 OA
ENDBRANCH  70  73
ENDBRANCH  52  66
BRANCH  53  77
ATOM     77  C   UNL A   1      40.603  27.852  28.181  1.00  0.00     0.023 A 
ATOM     78  C   UNL A   1      41.296  28.378  27.076  1.00  0.00     0.012 A 
ATOM     79  C   UNL A   1      40.076  26.549  28.114  1.00  0.00     0.148 A 
ATOM     80  C   UNL A   1      41.462  27.617  25.918  1.00  0.00     0.002 A 
ATOM     81  C   UNL A   1      40.280  25.781  26.976  1.00  0.00     0.091 A 
ATOM     82  F   UNL A   1      39.421  26.075  29.184  1.00  0.00    -0.205 F 
ATOM     83  C   UNL A   1      40.964  26.316  25.873  1.00  0.00     0.022 A 
BRANCH  81  84
ATOM     84  S   UNL A   1      39.773  24.062  26.862  1.00  0.00     0.127 S 
ATOM     85  O   UNL A   1      38.358  24.191  26.519  1.00  0.00    -0.237 OA
ATOM     86  O   UNL A   1      40.627  23.571  25.780  1.00  0.00    -0.237 OA
ATOM     87  O   UNL A   1      40.048  23.478  28.166  1.00  0.00    -0.744 OA
ENDBRANCH  81  84
ENDBRANCH  53  77
BRANCH  65  88
ATOM     88  C   UNL A   1      44.083  27.796  34.252  1.00  0.00     0.023 A 
ATOM     89  C   UNL A   1      45.390  28.298  34.113  1.00  0.00     0.012 A 
ATOM     90  C   UNL A   1      43.862  26.623  34.999  1.00  0.00     0.148 A 
ATOM     91  C   UNL A   1      46.465  27.640  34.707  1.00  0.00     0.002 A 
ATOM     92  C   UNL A   1      44.933  25.991  35.618  1.00  0.00     0.091 A 
ATOM     93  F   UNL A   1      42.606  26.166  35.110  1.00  0.00    -0.205 F 
ATOM     94  C   UNL A   1      46.235  26.496  35.470  1.00  0.00     0.022 A 
BRANCH  92  95
ATOM     95  S   UNL A   1      44.731  24.555  36.677  1.00  0.00     0.127 S 
ATOM     96  O   UNL A   1      46.084  24.384  37.207  1.00  0.00    -0.237 OA
ATOM     97  O   UNL A   1      43.748  25.027  37.652  1.00  0.00    -0.237 OA
ATOM     98  O   UNL A   1      44.266  23.477  35.815  1.00  0.00    -0.744 OA
ENDBRANCH  92  95
ENDBRANCH  65  88
ENDBRANCH  39  40
ENDBRANCH  31  34
ENDBRANCH  29  30
ENDBRANCH  28  29
ENDBRANCH   1  28
TORSDOF 17
ENDMDL
