MODEL 1
REMARK VINA RESULT:      -9.0      0.000      0.000
REMARK SMILES CC[C@@H](C(=O)NCCCCCCNC(=O)c1ccc(-c2c3nc(c(-c4cccc(S(=O)(=O)[O-])c4F)c4ccc([nH]4)c(-c4cccc(S(=O)(=O)[O-])c4F)c4nc(c(-c5cccc(S(=O)(=O)[O-])c5F)c5ccc2[nH]5)C=C4)C=C3)cc1)N1C(=O)/C(=C/c2ccccc2[N+](=O)[O-])SC1=S
REMARK SMILES IDX 9 1 8 2 7 3 6 4 4 5 5 6 3 8 2 9 1 10 79 11 80 12 94 13 81 14
REMARK SMILES IDX 82 15 93 16 95 17 83 18 84 19 85 20 89 21 86 22 88 23 87 24
REMARK SMILES IDX 90 25 91 26 92 27 10 28 11 29 12 30 13 31 14 32 15 34 16 35
REMARK SMILES IDX 17 36 78 37 18 38 77 39 19 40 20 41 21 42 71 43 22 44 76 45
REMARK SMILES IDX 70 46 72 47 23 48 75 49 69 50 68 51 24 53 56 54 36 55 55 56
REMARK SMILES IDX 37 57 40 58 54 59 73 60 38 61 39 62 53 64 74 65 41 66 25 67
REMARK SMILES IDX 26 68 34 69 27 70 29 71 35 72 28 73 30 74 31 75 32 76 33 77
REMARK SMILES IDX 57 78 58 79 66 80 59 81 61 82 67 83 60 84 62 85 63 86 64 87
REMARK SMILES IDX 65 88 42 89 43 90 51 91 44 92 46 93 52 94 45 95 47 96 48 97
REMARK SMILES IDX 49 98 50 99
REMARK H PARENT 6 7 13 33 72 52 40 63
REMARK Flexibility Score: inf
ROOT
ATOM      1  C   UNL A   1      45.327  23.498  27.034  1.00  0.00     0.002 C 
ENDROOT
BRANCH   1   2
ATOM      2  C   UNL A   1      45.443  24.957  26.587  1.00  0.00     0.021 C 
BRANCH   2   3
ATOM      3  C   UNL A   1      45.812  25.138  25.110  1.00  0.00     0.116 C 
BRANCH   3   4
ATOM      4  N   UNL A   1      46.216  26.514  24.879  1.00  0.00    -0.354 N 
ATOM      5  C   UNL A   1      47.366  27.157  25.238  1.00  0.00     0.243 C 
ATOM      6  O   UNL A   1      47.329  28.390  25.327  1.00  0.00    -0.273 OA
ATOM      7  H   UNL A   1      45.563  27.065  24.391  1.00  0.00     0.163 HD
BRANCH   5   8
ATOM      8  C   UNL A   1      48.661  26.360  25.548  1.00  0.00     0.181 C 
BRANCH   8   9
ATOM      9  C   UNL A   1      49.103  26.841  26.962  1.00  0.00     0.032 C 
ATOM     10  C   UNL A   1      48.604  25.977  28.109  1.00  0.00     0.006 C 
ENDBRANCH   8   9
BRANCH   8  11
ATOM     11  N   UNL A   1      49.706  26.674  24.521  1.00  0.00    -0.280 N 
ATOM     12  C   UNL A   1      49.369  26.811  23.183  1.00  0.00     0.266 C 
ATOM     13  C   UNL A   1      51.060  26.463  24.681  1.00  0.00     0.149 C 
ATOM     14  O   UNL A   1      48.316  26.470  22.645  1.00  0.00    -0.268 OA
ATOM     15  C   UNL A   1      50.534  27.312  22.404  1.00  0.00     0.081 C 
ATOM     16  S   UNL A   1      51.930  27.294  23.400  1.00  0.00    -0.054 SA
ATOM     17  S   UNL A   1      51.870  25.515  25.793  1.00  0.00    -0.052 S 
ATOM     18  C   UNL A   1      50.464  27.678  21.115  1.00  0.00     0.036 C 
BRANCH  18  19
ATOM     19  C   UNL A   1      51.612  28.158  20.324  1.00  0.00     0.054 A 
ATOM     20  C   UNL A   1      52.366  27.188  19.643  1.00  0.00     0.015 A 
ATOM     21  C   UNL A   1      51.964  29.509  20.144  1.00  0.00     0.276 A 
ATOM     22  C   UNL A   1      53.412  27.560  18.790  1.00  0.00     0.001 A 
ATOM     23  C   UNL A   1      53.004  29.885  19.278  1.00  0.00     0.086 A 
ATOM     24  C   UNL A   1      53.723  28.905  18.599  1.00  0.00     0.007 A 
BRANCH  21  25
ATOM     25  N   UNL A   1      51.269  30.578  20.858  1.00  0.00     0.063 N 
ATOM     26  O   UNL A   1      51.532  30.720  22.061  1.00  0.00    -0.258 OA
ATOM     27  O   UNL A   1      50.434  31.244  20.232  1.00  0.00    -0.258 OA
ENDBRANCH  21  25
ENDBRANCH  18  19
ENDBRANCH   8  11
ENDBRANCH   5   8
ENDBRANCH   3   4
ENDBRANCH   2   3
ENDBRANCH   1   2
BRANCH   1  28
ATOM     28  C   UNL A   1      45.571  22.462  25.935  1.00  0.00     0.002 C 
BRANCH  28  29
ATOM     29  C   UNL A   1      44.320  21.763  25.394  1.00  0.00     0.021 C 
BRANCH  29  30
ATOM     30  C   UNL A   1      43.165  22.687  25.013  1.00  0.00     0.116 C 
BRANCH  30  31
ATOM     31  N   UNL A   1      41.884  22.192  25.487  1.00  0.00    -0.352 N 
ATOM     32  C   UNL A   1      41.029  22.734  26.414  1.00  0.00     0.251 C 
ATOM     33  H   UNL A   1      41.585  21.344  25.084  1.00  0.00     0.163 HD
ATOM     34  O   UNL A   1      40.074  22.077  26.820  1.00  0.00    -0.269 OA
BRANCH  32  35
ATOM     35  C   UNL A   1      41.261  24.101  26.933  1.00  0.00     0.039 A 
ATOM     36  C   UNL A   1      40.964  25.193  26.111  1.00  0.00     0.014 A 
ATOM     37  C   UNL A   1      41.804  24.309  28.204  1.00  0.00     0.014 A 
ATOM     38  C   UNL A   1      41.184  26.493  26.576  1.00  0.00     0.010 A 
ATOM     39  C   UNL A   1      41.961  25.606  28.689  1.00  0.00     0.010 A 
ATOM     40  C   UNL A   1      41.674  26.711  27.873  1.00  0.00    -0.014 A 
BRANCH  40  41
ATOM     41  C   UNL A   1      41.932  28.084  28.379  1.00  0.00     0.031 A 
ATOM     42  C   UNL A   1      43.339  28.618  28.418  1.00  0.00     0.074 A 
ATOM     43  C   UNL A   1      40.916  28.823  28.865  1.00  0.00     0.049 A 
ATOM     44  N   UNL A   1      43.773  29.769  28.862  1.00  0.00    -0.248 NA
ATOM     45  C   UNL A   1      44.403  27.729  27.922  1.00  0.00     0.031 C 
ATOM     46  C   UNL A   1      39.520  28.390  28.954  1.00  0.00     0.029 A 
ATOM     47  N   UNL A   1      40.907  30.088  29.399  1.00  0.00    -0.354 N 
ATOM     48  C   UNL A   1      45.157  29.727  28.737  1.00  0.00     0.074 A 
ATOM     49  C   UNL A   1      45.494  28.424  28.207  1.00  0.00     0.031 C 
ATOM     50  C   UNL A   1      38.790  29.373  29.507  1.00  0.00     0.029 A 
ATOM     51  C   UNL A   1      39.665  30.499  29.825  1.00  0.00     0.049 A 
ATOM     52  H   UNL A   1      41.713  30.647  29.471  1.00  0.00     0.167 HD
ATOM     53  C   UNL A   1      46.065  30.697  29.003  1.00  0.00     0.034 A 
ATOM     54  C   UNL A   1      39.275  31.655  30.397  1.00  0.00     0.034 A 
ATOM     55  C   UNL A   1      45.724  32.012  29.470  1.00  0.00     0.049 A 
ATOM     56  C   UNL A   1      40.291  32.747  30.604  1.00  0.00     0.074 A 
ATOM     57  C   UNL A   1      46.559  33.091  29.699  1.00  0.00     0.029 A 
ATOM     58  N   UNL A   1      44.437  32.432  29.771  1.00  0.00    -0.354 N 
ATOM     59  N   UNL A   1      41.575  32.741  30.336  1.00  0.00    -0.248 NA
ATOM     60  C   UNL A   1      39.797  34.022  31.144  1.00  0.00     0.031 C 
ATOM     61  C   UNL A   1      45.777  34.164  30.139  1.00  0.00     0.029 A 
ATOM     62  C   UNL A   1      44.453  33.757  30.172  1.00  0.00     0.049 A 
ATOM     63  H   UNL A   1      43.631  31.872  29.709  1.00  0.00     0.167 HD
ATOM     64  C   UNL A   1      42.031  34.021  30.630  1.00  0.00     0.074 A 
ATOM     65  C   UNL A   1      40.884  34.780  31.083  1.00  0.00     0.031 C 
ATOM     66  C   UNL A   1      43.291  34.519  30.549  1.00  0.00     0.034 A 
BRANCH  53  67
ATOM     67  C   UNL A   1      47.514  30.388  28.727  1.00  0.00     0.023 A 
ATOM     68  C   UNL A   1      48.098  30.835  27.525  1.00  0.00     0.012 A 
ATOM     69  C   UNL A   1      48.307  29.698  29.664  1.00  0.00     0.148 A 
ATOM     70  C   UNL A   1      49.437  30.569  27.241  1.00  0.00     0.002 A 
ATOM     71  C   UNL A   1      49.654  29.474  29.394  1.00  0.00     0.091 A 
ATOM     72  F   UNL A   1      47.731  29.259  30.792  1.00  0.00    -0.205 F 
ATOM     73  C   UNL A   1      50.217  29.899  28.179  1.00  0.00     0.022 A 
BRANCH  71  74
ATOM     74  S   UNL A   1      50.756  28.686  30.573  1.00  0.00     0.127 S 
ATOM     75  O   UNL A   1      51.959  28.486  29.765  1.00  0.00    -0.237 OA
ATOM     76  O   UNL A   1      50.884  29.709  31.612  1.00  0.00    -0.237 OA
ATOM     77  O   UNL A   1      50.077  27.472  31.003  1.00  0.00    -0.744 OA
ENDBRANCH  71  74
ENDBRANCH  53  67
BRANCH  54  78
ATOM     78  C   UNL A   1      37.837  31.877  30.716  1.00  0.00     0.023 A 
ATOM     79  C   UNL A   1      37.348  31.494  31.981  1.00  0.00     0.012 A 
ATOM     80  C   UNL A   1      36.962  32.488  29.798  1.00  0.00     0.148 A 
ATOM     81  C   UNL A   1      36.007  31.688  32.315  1.00  0.00     0.002 A 
ATOM     82  C   UNL A   1      35.639  32.725  30.157  1.00  0.00     0.091 A 
ATOM     83  F   UNL A   1      37.442  32.833  28.595  1.00  0.00    -0.205 F 
ATOM     84  C   UNL A   1      35.156  32.311  31.408  1.00  0.00     0.022 A 
BRANCH  82  85
ATOM     85  S   UNL A   1      34.508  33.637  29.101  1.00  0.00     0.127 S 
ATOM     86  O   UNL A   1      34.034  32.593  28.197  1.00  0.00    -0.237 OA
ATOM     87  O   UNL A   1      33.514  34.118  30.062  1.00  0.00    -0.237 OA
ATOM     88  O   UNL A   1      35.308  34.691  28.493  1.00  0.00    -0.744 OA
ENDBRANCH  82  85
ENDBRANCH  54  78
BRANCH  66  89
ATOM     89  C   UNL A   1      43.493  35.967  30.905  1.00  0.00     0.023 A 
ATOM     90  C   UNL A   1      43.744  36.331  32.243  1.00  0.00     0.012 A 
ATOM     91  C   UNL A   1      43.507  36.958  29.904  1.00  0.00     0.148 A 
ATOM     92  C   UNL A   1      43.973  37.664  32.582  1.00  0.00     0.002 A 
ATOM     93  C   UNL A   1      43.780  38.278  30.244  1.00  0.00     0.091 A 
ATOM     94  F   UNL A   1      43.243  36.597  28.639  1.00  0.00    -0.205 F 
ATOM     95  C   UNL A   1      44.003  38.635  31.583  1.00  0.00     0.022 A 
BRANCH  93  96
ATOM     96  S   UNL A   1      43.929  39.567  29.000  1.00  0.00     0.127 S 
ATOM     97  O   UNL A   1      44.986  39.035  28.143  1.00  0.00    -0.237 OA
ATOM     98  O   UNL A   1      42.598  39.576  28.393  1.00  0.00    -0.237 OA
ATOM     99  O   UNL A   1      44.260  40.783  29.734  1.00  0.00    -0.744 OA
ENDBRANCH  93  96
ENDBRANCH  66  89
ENDBRANCH  40  41
ENDBRANCH  32  35
ENDBRANCH  30  31
ENDBRANCH  29  30
ENDBRANCH  28  29
ENDBRANCH   1  28
TORSDOF 20
ENDMDL
MODEL 2
REMARK VINA RESULT:      -8.6      4.227      9.555
REMARK SMILES CC[C@@H](C(=O)NCCCCCCNC(=O)c1ccc(-c2c3nc(c(-c4cccc(S(=O)(=O)[O-])c4F)c4ccc([nH]4)c(-c4cccc(S(=O)(=O)[O-])c4F)c4nc(c(-c5cccc(S(=O)(=O)[O-])c5F)c5ccc2[nH]5)C=C4)C=C3)cc1)N1C(=O)/C(=C/c2ccccc2[N+](=O)[O-])SC1=S
REMARK SMILES IDX 9 1 8 2 7 3 6 4 4 5 5 6 3 8 2 9 1 10 79 11 80 12 94 13 81 14
REMARK SMILES IDX 82 15 93 16 95 17 83 18 84 19 85 20 89 21 86 22 88 23 87 24
REMARK SMILES IDX 90 25 91 26 92 27 10 28 11 29 12 30 13 31 14 32 15 34 16 35
REMARK SMILES IDX 17 36 78 37 18 38 77 39 19 40 20 41 21 42 71 43 22 44 76 45
REMARK SMILES IDX 70 46 72 47 23 48 75 49 69 50 68 51 24 53 56 54 36 55 55 56
REMARK SMILES IDX 37 57 40 58 54 59 73 60 38 61 39 62 53 64 74 65 41 66 25 67
REMARK SMILES IDX 26 68 34 69 27 70 29 71 35 72 28 73 30 74 31 75 32 76 33 77
REMARK SMILES IDX 57 78 58 79 66 80 59 81 61 82 67 83 60 84 62 85 63 86 64 87
REMARK SMILES IDX 65 88 42 89 43 90 51 91 44 92 46 93 52 94 45 95 47 96 48 97
REMARK SMILES IDX 49 98 50 99
REMARK H PARENT 6 7 13 33 72 52 40 63
REMARK Flexibility Score: inf
ROOT
ATOM      1  C   UNL A   1      47.391  27.934  24.815  1.00  0.00     0.002 C 
ENDROOT
BRANCH   1   2
ATOM      2  C   UNL A   1      45.903  27.880  25.171  1.00  0.00     0.021 C 
BRANCH   2   3
ATOM      3  C   UNL A   1      45.280  26.483  25.074  1.00  0.00     0.116 C 
BRANCH   3   4
ATOM      4  N   UNL A   1      43.851  26.609  24.848  1.00  0.00    -0.354 N 
ATOM      5  C   UNL A   1      42.813  25.954  25.446  1.00  0.00     0.243 C 
ATOM      6  O   UNL A   1      41.743  25.891  24.830  1.00  0.00    -0.273 OA
ATOM      7  H   UNL A   1      43.592  27.264  24.161  1.00  0.00     0.163 HD
BRANCH   5   8
ATOM      8  C   UNL A   1      42.986  25.290  26.839  1.00  0.00     0.181 C 
BRANCH   8   9
ATOM      9  C   UNL A   1      42.964  23.757  26.562  1.00  0.00     0.032 C 
ATOM     10  C   UNL A   1      44.326  23.146  26.276  1.00  0.00     0.006 C 
ENDBRANCH   8   9
BRANCH   8  11
ATOM     11  N   UNL A   1      41.856  25.692  27.736  1.00  0.00    -0.280 N 
ATOM     12  C   UNL A   1      42.038  26.648  28.724  1.00  0.00     0.266 C 
ATOM     13  C   UNL A   1      40.723  24.940  27.965  1.00  0.00     0.149 C 
ATOM     14  O   UNL A   1      43.109  27.079  29.150  1.00  0.00    -0.268 OA
ATOM     15  C   UNL A   1      40.733  27.012  29.340  1.00  0.00     0.081 C 
ATOM     16  S   UNL A   1      39.523  25.935  28.777  1.00  0.00    -0.054 SA
ATOM     17  S   UNL A   1      40.437  23.321  27.671  1.00  0.00    -0.052 S 
ATOM     18  C   UNL A   1      40.580  28.013  30.220  1.00  0.00     0.036 C 
BRANCH  18  19
ATOM     19  C   UNL A   1      39.299  28.374  30.854  1.00  0.00     0.054 A 
ATOM     20  C   UNL A   1      39.124  27.998  32.196  1.00  0.00     0.015 A 
ATOM     21  C   UNL A   1      38.274  29.121  30.243  1.00  0.00     0.276 A 
ATOM     22  C   UNL A   1      37.981  28.383  32.907  1.00  0.00     0.001 A 
ATOM     23  C   UNL A   1      37.133  29.521  30.959  1.00  0.00     0.086 A 
ATOM     24  C   UNL A   1      36.994  29.153  32.294  1.00  0.00     0.007 A 
BRANCH  21  25
ATOM     25  N   UNL A   1      38.349  29.506  28.835  1.00  0.00     0.063 N 
ATOM     26  O   UNL A   1      38.925  30.571  28.569  1.00  0.00    -0.258 OA
ATOM     27  O   UNL A   1      37.799  28.772  28.004  1.00  0.00    -0.258 OA
ENDBRANCH  21  25
ENDBRANCH  18  19
ENDBRANCH   8  11
ENDBRANCH   5   8
ENDBRANCH   3   4
ENDBRANCH   2   3
ENDBRANCH   1   2
BRANCH   1  28
ATOM     28  C   UNL A   1      47.990  26.609  24.338  1.00  0.00     0.002 C 
BRANCH  28  29
ATOM     29  C   UNL A   1      49.507  26.608  24.120  1.00  0.00     0.021 C 
BRANCH  29  30
ATOM     30  C   UNL A   1      50.350  26.797  25.379  1.00  0.00     0.116 C 
BRANCH  30  31
ATOM     31  N   UNL A   1      50.533  25.556  26.112  1.00  0.00    -0.352 N 
ATOM     32  C   UNL A   1      50.018  25.179  27.327  1.00  0.00     0.251 C 
ATOM     33  H   UNL A   1      51.110  24.889  25.674  1.00  0.00     0.163 HD
ATOM     34  O   UNL A   1      50.431  24.159  27.874  1.00  0.00    -0.269 OA
BRANCH  32  35
ATOM     35  C   UNL A   1      48.976  25.999  27.984  1.00  0.00     0.039 A 
ATOM     36  C   UNL A   1      47.635  25.633  27.835  1.00  0.00     0.014 A 
ATOM     37  C   UNL A   1      49.311  27.147  28.708  1.00  0.00     0.014 A 
ATOM     38  C   UNL A   1      46.633  26.398  28.437  1.00  0.00     0.010 A 
ATOM     39  C   UNL A   1      48.316  27.871  29.362  1.00  0.00     0.010 A 
ATOM     40  C   UNL A   1      46.966  27.518  29.216  1.00  0.00    -0.014 A 
BRANCH  40  41
ATOM     41  C   UNL A   1      45.914  28.356  29.849  1.00  0.00     0.031 A 
ATOM     42  C   UNL A   1      45.550  29.687  29.246  1.00  0.00     0.074 A 
ATOM     43  C   UNL A   1      45.338  27.956  30.999  1.00  0.00     0.049 A 
ATOM     44  N   UNL A   1      44.694  30.579  29.672  1.00  0.00    -0.248 NA
ATOM     45  C   UNL A   1      46.265  30.081  28.020  1.00  0.00     0.031 C 
ATOM     46  C   UNL A   1      45.659  26.725  31.724  1.00  0.00     0.029 A 
ATOM     47  N   UNL A   1      44.376  28.557  31.773  1.00  0.00    -0.354 N 
ATOM     48  C   UNL A   1      44.795  31.652  28.794  1.00  0.00     0.074 A 
ATOM     49  C   UNL A   1      45.821  31.314  27.831  1.00  0.00     0.031 C 
ATOM     50  C   UNL A   1      44.906  26.661  32.835  1.00  0.00     0.029 A 
ATOM     51  C   UNL A   1      44.060  27.849  32.910  1.00  0.00     0.049 A 
ATOM     52  H   UNL A   1      43.952  29.413  31.536  1.00  0.00     0.167 HD
ATOM     53  C   UNL A   1      44.077  32.801  28.767  1.00  0.00     0.034 A 
ATOM     54  C   UNL A   1      43.183  28.124  33.894  1.00  0.00     0.034 A 
ATOM     55  C   UNL A   1      43.016  33.107  29.686  1.00  0.00     0.049 A 
ATOM     56  C   UNL A   1      42.337  29.366  33.795  1.00  0.00     0.074 A 
ATOM     57  C   UNL A   1      42.177  34.207  29.700  1.00  0.00     0.029 A 
ATOM     58  N   UNL A   1      42.641  32.304  30.753  1.00  0.00    -0.354 N 
ATOM     59  N   UNL A   1      42.343  30.296  32.870  1.00  0.00    -0.248 NA
ATOM     60  C   UNL A   1      41.329  29.571  34.846  1.00  0.00     0.031 C 
ATOM     61  C   UNL A   1      41.293  34.069  30.777  1.00  0.00     0.029 A 
ATOM     62  C   UNL A   1      41.575  32.877  31.426  1.00  0.00     0.049 A 
ATOM     63  H   UNL A   1      43.069  31.453  30.997  1.00  0.00     0.167 HD
ATOM     64  C   UNL A   1      41.313  31.169  33.202  1.00  0.00     0.074 A 
ATOM     65  C   UNL A   1      40.696  30.649  34.404  1.00  0.00     0.031 C 
ATOM     66  C   UNL A   1      40.924  32.308  32.577  1.00  0.00     0.034 A 
BRANCH  53  67
ATOM     67  C   UNL A   1      44.372  33.780  27.660  1.00  0.00     0.023 A 
ATOM     68  C   UNL A   1      43.792  33.582  26.390  1.00  0.00     0.012 A 
ATOM     69  C   UNL A   1      45.180  34.912  27.881  1.00  0.00     0.148 A 
ATOM     70  C   UNL A   1      44.042  34.472  25.346  1.00  0.00     0.002 A 
ATOM     71  C   UNL A   1      45.390  35.819  26.847  1.00  0.00     0.091 A 
ATOM     72  F   UNL A   1      45.743  35.073  29.087  1.00  0.00    -0.205 F 
ATOM     73  C   UNL A   1      44.832  35.595  25.577  1.00  0.00     0.022 A 
BRANCH  71  74
ATOM     74  S   UNL A   1      46.330  37.334  27.069  1.00  0.00     0.127 S 
ATOM     75  O   UNL A   1      46.825  37.576  25.714  1.00  0.00    -0.237 OA
ATOM     76  O   UNL A   1      45.303  38.275  27.518  1.00  0.00    -0.237 OA
ATOM     77  O   UNL A   1      47.346  37.030  28.066  1.00  0.00    -0.744 OA
ENDBRANCH  71  74
ENDBRANCH  53  67
BRANCH  54  78
ATOM     78  C   UNL A   1      42.985  27.150  35.005  1.00  0.00     0.023 A 
ATOM     79  C   UNL A   1      41.949  26.200  34.908  1.00  0.00     0.012 A 
ATOM     80  C   UNL A   1      43.827  27.137  36.134  1.00  0.00     0.148 A 
ATOM     81  C   UNL A   1      41.736  25.273  35.929  1.00  0.00     0.002 A 
ATOM     82  C   UNL A   1      43.641  26.176  37.123  1.00  0.00     0.091 A 
ATOM     83  F   UNL A   1      44.798  28.057  36.214  1.00  0.00    -0.205 F 
ATOM     84  C   UNL A   1      42.586  25.255  37.030  1.00  0.00     0.022 A 
BRANCH  82  85
ATOM     85  S   UNL A   1      44.767  25.998  38.510  1.00  0.00     0.127 S 
ATOM     86  O   UNL A   1      46.068  26.052  37.849  1.00  0.00    -0.237 OA
ATOM     87  O   UNL A   1      44.440  27.172  39.322  1.00  0.00    -0.237 OA
ATOM     88  O   UNL A   1      44.421  24.728  39.132  1.00  0.00    -0.744 OA
ENDBRANCH  82  85
ENDBRANCH  54  78
BRANCH  66  89
ATOM     89  C   UNL A   1      39.742  33.048  33.144  1.00  0.00     0.023 A 
ATOM     90  C   UNL A   1      39.916  33.904  34.249  1.00  0.00     0.012 A 
ATOM     91  C   UNL A   1      38.475  32.951  32.538  1.00  0.00     0.148 A 
ATOM     92  C   UNL A   1      38.839  34.626  34.762  1.00  0.00     0.002 A 
ATOM     93  C   UNL A   1      37.416  33.708  33.026  1.00  0.00     0.091 A 
ATOM     94  F   UNL A   1      38.322  32.113  31.501  1.00  0.00    -0.205 F 
ATOM     95  C   UNL A   1      37.593  34.537  34.144  1.00  0.00     0.022 A 
BRANCH  93  96
ATOM     96  S   UNL A   1      35.808  33.718  32.224  1.00  0.00     0.127 S 
ATOM     97  O   UNL A   1      35.103  34.751  32.979  1.00  0.00    -0.237 OA
ATOM     98  O   UNL A   1      36.142  34.088  30.849  1.00  0.00    -0.237 OA
ATOM     99  O   UNL A   1      35.290  32.363  32.369  1.00  0.00    -0.744 OA
ENDBRANCH  93  96
ENDBRANCH  66  89
ENDBRANCH  40  41
ENDBRANCH  32  35
ENDBRANCH  30  31
ENDBRANCH  29  30
ENDBRANCH  28  29
ENDBRANCH   1  28
TORSDOF 20
ENDMDL
MODEL 3
REMARK VINA RESULT:      -8.5      1.160      7.635
REMARK SMILES CC[C@@H](C(=O)NCCCCCCNC(=O)c1ccc(-c2c3nc(c(-c4cccc(S(=O)(=O)[O-])c4F)c4ccc([nH]4)c(-c4cccc(S(=O)(=O)[O-])c4F)c4nc(c(-c5cccc(S(=O)(=O)[O-])c5F)c5ccc2[nH]5)C=C4)C=C3)cc1)N1C(=O)/C(=C/c2ccccc2[N+](=O)[O-])SC1=S
REMARK SMILES IDX 9 1 8 2 7 3 6 4 4 5 5 6 3 8 2 9 1 10 79 11 80 12 94 13 81 14
REMARK SMILES IDX 82 15 93 16 95 17 83 18 84 19 85 20 89 21 86 22 88 23 87 24
REMARK SMILES IDX 90 25 91 26 92 27 10 28 11 29 12 30 13 31 14 32 15 34 16 35
REMARK SMILES IDX 17 36 78 37 18 38 77 39 19 40 20 41 21 42 71 43 22 44 76 45
REMARK SMILES IDX 70 46 72 47 23 48 75 49 69 50 68 51 24 53 56 54 36 55 55 56
REMARK SMILES IDX 37 57 40 58 54 59 73 60 38 61 39 62 53 64 74 65 41 66 25 67
REMARK SMILES IDX 26 68 34 69 27 70 29 71 35 72 28 73 30 74 31 75 32 76 33 77
REMARK SMILES IDX 57 78 58 79 66 80 59 81 61 82 67 83 60 84 62 85 63 86 64 87
REMARK SMILES IDX 65 88 42 89 43 90 51 91 44 92 46 93 52 94 45 95 47 96 48 97
REMARK SMILES IDX 49 98 50 99
REMARK H PARENT 6 7 13 33 72 52 40 63
REMARK Flexibility Score: inf
ROOT
ATOM      1  C   UNL A   1      45.438  23.570  27.253  1.00  0.00     0.002 C 
ENDROOT
BRANCH   1   2
ATOM      2  C   UNL A   1      46.033  24.928  26.873  1.00  0.00     0.021 C 
BRANCH   2   3
ATOM      3  C   UNL A   1      46.342  25.088  25.381  1.00  0.00     0.116 C 
BRANCH   3   4
ATOM      4  N   UNL A   1      46.518  26.496  25.073  1.00  0.00    -0.354 N 
ATOM      5  C   UNL A   1      47.607  27.299  25.255  1.00  0.00     0.243 C 
ATOM      6  O   UNL A   1      47.416  28.518  25.329  1.00  0.00    -0.273 OA
ATOM      7  H   UNL A   1      45.734  26.938  24.673  1.00  0.00     0.163 HD
BRANCH   5   8
ATOM      8  C   UNL A   1      49.030  26.693  25.391  1.00  0.00     0.181 C 
BRANCH   8   9
ATOM      9  C   UNL A   1      49.559  27.207  26.763  1.00  0.00     0.032 C 
ATOM     10  C   UNL A   1      48.876  26.593  27.975  1.00  0.00     0.006 C 
ENDBRANCH   8   9
BRANCH   8  11
ATOM     11  N   UNL A   1      49.895  27.174  24.266  1.00  0.00    -0.280 N 
ATOM     12  C   UNL A   1      49.376  27.338  22.991  1.00  0.00     0.266 C 
ATOM     13  C   UNL A   1      51.272  27.110  24.245  1.00  0.00     0.149 C 
ATOM     14  O   UNL A   1      48.304  26.907  22.565  1.00  0.00    -0.268 OA
ATOM     15  C   UNL A   1      50.370  28.006  22.107  1.00  0.00     0.081 C 
ATOM     16  S   UNL A   1      51.877  28.097  22.922  1.00  0.00    -0.054 SA
ATOM     17  S   UNL A   1      52.315  26.207  25.187  1.00  0.00    -0.052 S 
ATOM     18  C   UNL A   1      50.096  28.425  20.863  1.00  0.00     0.036 C 
BRANCH  18  19
ATOM     19  C   UNL A   1      51.075  29.070  19.969  1.00  0.00     0.054 A 
ATOM     20  C   UNL A   1      51.192  30.468  20.055  1.00  0.00     0.015 A 
ATOM     21  C   UNL A   1      51.943  28.391  19.093  1.00  0.00     0.276 A 
ATOM     22  C   UNL A   1      52.163  31.154  19.316  1.00  0.00     0.001 A 
ATOM     23  C   UNL A   1      52.927  29.077  18.361  1.00  0.00     0.086 A 
ATOM     24  C   UNL A   1      53.036  30.460  18.480  1.00  0.00     0.007 A 
BRANCH  21  25
ATOM     25  N   UNL A   1      51.852  26.945  18.901  1.00  0.00     0.063 N 
ATOM     26  O   UNL A   1      50.919  26.525  18.201  1.00  0.00    -0.258 OA
ATOM     27  O   UNL A   1      52.682  26.231  19.479  1.00  0.00    -0.258 OA
ENDBRANCH  21  25
ENDBRANCH  18  19
ENDBRANCH   8  11
ENDBRANCH   5   8
ENDBRANCH   3   4
ENDBRANCH   2   3
ENDBRANCH   1   2
BRANCH   1  28
ATOM     28  C   UNL A   1      45.384  22.547  26.116  1.00  0.00     0.002 C 
BRANCH  28  29
ATOM     29  C   UNL A   1      44.025  21.874  25.896  1.00  0.00     0.021 C 
BRANCH  29  30
ATOM     30  C   UNL A   1      42.988  22.717  25.156  1.00  0.00     0.116 C 
BRANCH  30  31
ATOM     31  N   UNL A   1      41.627  22.343  25.501  1.00  0.00    -0.352 N 
ATOM     32  C   UNL A   1      40.751  22.949  26.367  1.00  0.00     0.251 C 
ATOM     33  H   UNL A   1      41.283  21.539  25.048  1.00  0.00     0.163 HD
ATOM     34  O   UNL A   1      39.703  22.383  26.668  1.00  0.00    -0.269 OA
BRANCH  32  35
ATOM     35  C   UNL A   1      41.068  24.274  26.945  1.00  0.00     0.039 A 
ATOM     36  C   UNL A   1      40.817  25.420  26.184  1.00  0.00     0.014 A 
ATOM     37  C   UNL A   1      41.648  24.389  28.212  1.00  0.00     0.014 A 
ATOM     38  C   UNL A   1      41.119  26.681  26.705  1.00  0.00     0.010 A 
ATOM     39  C   UNL A   1      41.887  25.650  28.755  1.00  0.00     0.010 A 
ATOM     40  C   UNL A   1      41.646  26.807  28.000  1.00  0.00    -0.014 A 
BRANCH  40  41
ATOM     41  C   UNL A   1      41.990  28.138  28.565  1.00  0.00     0.031 A 
ATOM     42  C   UNL A   1      40.902  29.030  29.102  1.00  0.00     0.074 A 
ATOM     43  C   UNL A   1      43.264  28.574  28.532  1.00  0.00     0.049 A 
ATOM     44  N   UNL A   1      40.993  30.238  29.594  1.00  0.00    -0.248 NA
ATOM     45  C   UNL A   1      39.526  28.507  29.052  1.00  0.00     0.031 C 
ATOM     46  C   UNL A   1      44.396  27.837  27.967  1.00  0.00     0.029 A 
ATOM     47  N   UNL A   1      43.817  29.754  28.963  1.00  0.00    -0.354 N 
ATOM     48  C   UNL A   1      39.690  30.634  29.874  1.00  0.00     0.074 A 
ATOM     49  C   UNL A   1      38.823  29.551  29.464  1.00  0.00     0.031 C 
ATOM     50  C   UNL A   1      45.509  28.581  28.089  1.00  0.00     0.029 A 
ATOM     51  C   UNL A   1      45.168  29.851  28.726  1.00  0.00     0.049 A 
ATOM     52  H   UNL A   1      43.295  30.464  29.401  1.00  0.00     0.167 HD
ATOM     53  C   UNL A   1      39.253  31.779  30.451  1.00  0.00     0.034 A 
ATOM     54  C   UNL A   1      46.035  30.846  28.999  1.00  0.00     0.034 A 
ATOM     55  C   UNL A   1      40.121  32.827  30.914  1.00  0.00     0.049 A 
ATOM     56  C   UNL A   1      45.537  32.072  29.718  1.00  0.00     0.074 A 
ATOM     57  C   UNL A   1      39.786  33.993  31.580  1.00  0.00     0.029 A 
ATOM     58  N   UNL A   1      41.500  32.832  30.768  1.00  0.00    -0.354 N 
ATOM     59  N   UNL A   1      44.320  32.360  30.111  1.00  0.00    -0.248 NA
ATOM     60  C   UNL A   1      46.539  33.086  30.077  1.00  0.00     0.031 C 
ATOM     61  C   UNL A   1      40.964  34.703  31.837  1.00  0.00     0.029 A 
ATOM     62  C   UNL A   1      42.033  33.973  31.341  1.00  0.00     0.049 A 
ATOM     63  H   UNL A   1      42.023  32.127  30.323  1.00  0.00     0.167 HD
ATOM     64  C   UNL A   1      44.417  33.564  30.801  1.00  0.00     0.074 A 
ATOM     65  C   UNL A   1      45.815  33.941  30.786  1.00  0.00     0.031 C 
ATOM     66  C   UNL A   1      43.435  34.297  31.382  1.00  0.00     0.034 A 
BRANCH  53  67
ATOM     67  C   UNL A   1      37.770  31.923  30.677  1.00  0.00     0.023 A 
ATOM     68  C   UNL A   1      37.202  31.431  31.869  1.00  0.00     0.012 A 
ATOM     69  C   UNL A   1      36.948  32.578  29.740  1.00  0.00     0.148 A 
ATOM     70  C   UNL A   1      35.835  31.552  32.111  1.00  0.00     0.002 A 
ATOM     71  C   UNL A   1      35.591  32.734  30.007  1.00  0.00     0.091 A 
ATOM     72  F   UNL A   1      37.498  33.020  28.601  1.00  0.00    -0.205 F 
ATOM     73  C   UNL A   1      35.031  32.212  31.185  1.00  0.00     0.022 A 
BRANCH  71  74
ATOM     74  S   UNL A   1      34.490  33.636  28.911  1.00  0.00     0.127 S 
ATOM     75  O   UNL A   1      33.416  34.024  29.825  1.00  0.00    -0.237 OA
ATOM     76  O   UNL A   1      35.336  34.743  28.462  1.00  0.00    -0.237 OA
ATOM     77  O   UNL A   1      34.117  32.699  27.861  1.00  0.00    -0.744 OA
ENDBRANCH  71  74
ENDBRANCH  53  67
BRANCH  54  78
ATOM     78  C   UNL A   1      47.482  30.677  28.686  1.00  0.00     0.023 A 
ATOM     79  C   UNL A   1      47.990  31.207  27.484  1.00  0.00     0.012 A 
ATOM     80  C   UNL A   1      48.359  30.028  29.576  1.00  0.00     0.148 A 
ATOM     81  C   UNL A   1      49.340  31.069  27.159  1.00  0.00     0.002 A 
ATOM     82  C   UNL A   1      49.713  29.939  29.269  1.00  0.00     0.091 A 
ATOM     83  F   UNL A   1      47.854  29.517  30.708  1.00  0.00    -0.205 F 
ATOM     84  C   UNL A   1      50.202  30.444  28.054  1.00  0.00     0.022 A 
BRANCH  82  85
ATOM     85  S   UNL A   1      50.915  29.266  30.422  1.00  0.00     0.127 S 
ATOM     86  O   UNL A   1      51.059  30.360  31.377  1.00  0.00    -0.237 OA
ATOM     87  O   UNL A   1      50.217  28.087  30.936  1.00  0.00    -0.237 OA
ATOM     88  O   UNL A   1      52.093  28.960  29.622  1.00  0.00    -0.744 OA
ENDBRANCH  82  85
ENDBRANCH  54  78
BRANCH  66  89
ATOM     89  C   UNL A   1      43.837  35.559  32.098  1.00  0.00     0.023 A 
ATOM     90  C   UNL A   1      44.194  35.509  33.460  1.00  0.00     0.012 A 
ATOM     91  C   UNL A   1      43.929  36.781  31.403  1.00  0.00     0.148 A 
ATOM     92  C   UNL A   1      44.606  36.663  34.126  1.00  0.00     0.002 A 
ATOM     93  C   UNL A   1      44.383  37.917  32.063  1.00  0.00     0.091 A 
ATOM     94  F   UNL A   1      43.562  36.816  30.113  1.00  0.00    -0.205 F 
ATOM     95  C   UNL A   1      44.711  37.863  33.426  1.00  0.00     0.022 A 
BRANCH  93  96
ATOM     96  S   UNL A   1      44.635  39.476  31.205  1.00  0.00     0.127 S 
ATOM     97  O   UNL A   1      43.281  39.795  30.759  1.00  0.00    -0.237 OA
ATOM     98  O   UNL A   1      45.148  40.343  32.266  1.00  0.00    -0.237 OA
ATOM     99  O   UNL A   1      45.599  39.190  30.149  1.00  0.00    -0.744 OA
ENDBRANCH  93  96
ENDBRANCH  66  89
ENDBRANCH  40  41
ENDBRANCH  32  35
ENDBRANCH  30  31
ENDBRANCH  29  30
ENDBRANCH  28  29
ENDBRANCH   1  28
TORSDOF 20
ENDMDL
