MODEL 1
REMARK VINA RESULT:     -10.5      0.000      0.000
REMARK SMILES C=C(c1ccccc1)[C@@H](C(=O)NCCCCCCNC(=O)c1ccc(-c2c3nc(c(-c4cccc(S(=O)(=O)[O-])c4F)c4ccc([nH]4)c(-c4cccc(S(=O)(=O)[O-])c4F)c4nc(c(-c5cccc(S(=O)(=O)[O-])c5F)c5ccc2[nH]5)C=C4)C=C3)cc1)S(C)(=O)=O
REMARK SMILES IDX 16 1 15 2 14 3 13 4 12 5 10 6 11 7 9 9 2 10 1 11 3 12 4 13
REMARK SMILES IDX 8 14 5 15 7 16 6 17 85 18 86 19 87 20 88 21 17 22 18 23
REMARK SMILES IDX 19 24 20 25 21 27 22 28 23 29 84 30 24 31 83 32 25 33 26 34
REMARK SMILES IDX 27 35 77 36 28 37 82 38 76 39 78 40 29 41 81 42 75 43 74 44
REMARK SMILES IDX 30 46 62 47 42 48 61 49 43 50 46 51 60 52 79 53 44 54 45 55
REMARK SMILES IDX 59 57 80 58 47 59 31 60 32 61 40 62 33 63 35 64 41 65 34 66
REMARK SMILES IDX 36 67 37 68 38 69 39 70 63 71 64 72 72 73 65 74 67 75 73 76
REMARK SMILES IDX 66 77 68 78 69 79 70 80 71 81 48 82 49 83 57 84 50 85 52 86
REMARK SMILES IDX 58 87 51 88 53 89 54 90 55 91 56 92
REMARK H PARENT 12 8 19 26 78 45 46 56
REMARK Flexibility Score: inf
ROOT
ATOM      1  C   UNL A   1      36.586  20.520  24.770  1.00  0.00     0.002 C 
ENDROOT
BRANCH   1   2
ATOM      2  C   UNL A   1      36.871  21.789  23.960  1.00  0.00     0.002 C 
BRANCH   2   3
ATOM      3  C   UNL A   1      37.021  23.065  24.798  1.00  0.00     0.021 C 
BRANCH   3   4
ATOM      4  C   UNL A   1      36.002  23.179  25.934  1.00  0.00     0.116 C 
BRANCH   4   5
ATOM      5  N   UNL A   1      35.251  24.413  25.813  1.00  0.00    -0.355 N 
ATOM      6  C   UNL A   1      33.953  24.607  25.414  1.00  0.00     0.242 C 
ATOM      7  O   UNL A   1      33.642  25.763  25.129  1.00  0.00    -0.273 OA
ATOM      8  H   UNL A   1      35.745  25.231  26.051  1.00  0.00     0.163 HD
BRANCH   6   9
ATOM      9  C   UNL A   1      32.990  23.420  25.381  1.00  0.00     0.227 C 
BRANCH   9  10
ATOM     10  C   UNL A   1      33.036  22.634  24.070  1.00  0.00    -0.020 C 
ATOM     11  C   UNL A   1      33.244  23.216  22.874  1.00  0.00     0.015 C 
BRANCH  10  12
ATOM     12  C   UNL A   1      32.918  21.145  24.148  1.00  0.00    -0.021 A 
ATOM     13  C   UNL A   1      32.454  20.377  23.067  1.00  0.00     0.008 A 
ATOM     14  C   UNL A   1      33.156  20.474  25.362  1.00  0.00     0.008 A 
ATOM     15  C   UNL A   1      32.221  19.003  23.198  1.00  0.00     0.001 A 
ATOM     16  C   UNL A   1      32.916  19.102  25.496  1.00  0.00     0.001 A 
ATOM     17  C   UNL A   1      32.444  18.368  24.415  1.00  0.00     0.000 A 
ENDBRANCH  10  12
ENDBRANCH   9  10
BRANCH   9  18
ATOM     18  S   UNL A   1      31.317  24.025  25.733  1.00  0.00     0.163 S 
ATOM     19  C   UNL A   1      30.403  22.578  26.202  1.00  0.00     0.159 C 
ATOM     20  O   UNL A   1      31.368  24.840  26.939  1.00  0.00    -0.228 OA
ATOM     21  O   UNL A   1      30.668  24.528  24.538  1.00  0.00    -0.228 OA
ENDBRANCH   9  18
ENDBRANCH   6   9
ENDBRANCH   4   5
ENDBRANCH   3   4
ENDBRANCH   2   3
ENDBRANCH   1   2
BRANCH   1  22
ATOM     22  C   UNL A   1      37.788  19.588  24.949  1.00  0.00     0.021 C 
BRANCH  22  23
ATOM     23  C   UNL A   1      38.778  20.035  26.020  1.00  0.00     0.116 C 
BRANCH  23  24
ATOM     24  N   UNL A   1      39.973  19.205  26.033  1.00  0.00    -0.352 N 
ATOM     25  C   UNL A   1      41.290  19.581  26.117  1.00  0.00     0.251 C 
ATOM     26  H   UNL A   1      39.814  18.235  25.973  1.00  0.00     0.163 HD
ATOM     27  O   UNL A   1      42.178  18.761  25.895  1.00  0.00    -0.269 OA
BRANCH  25  28
ATOM     28  C   UNL A   1      41.637  20.976  26.464  1.00  0.00     0.039 A 
ATOM     29  C   UNL A   1      42.262  21.235  27.686  1.00  0.00     0.014 A 
ATOM     30  C   UNL A   1      41.341  22.024  25.589  1.00  0.00     0.014 A 
ATOM     31  C   UNL A   1      42.642  22.541  28.004  1.00  0.00     0.010 A 
ATOM     32  C   UNL A   1      41.789  23.311  25.874  1.00  0.00     0.010 A 
ATOM     33  C   UNL A   1      42.438  23.585  27.086  1.00  0.00    -0.014 A 
BRANCH  33  34
ATOM     34  C   UNL A   1      42.909  24.964  27.373  1.00  0.00     0.031 A 
ATOM     35  C   UNL A   1      41.990  25.963  28.024  1.00  0.00     0.074 A 
ATOM     36  C   UNL A   1      44.140  25.342  26.973  1.00  0.00     0.049 A 
ATOM     37  N   UNL A   1      42.209  27.222  28.304  1.00  0.00    -0.248 NA
ATOM     38  C   UNL A   1      40.641  25.496  28.386  1.00  0.00     0.031 C 
ATOM     39  C   UNL A   1      45.101  24.488  26.272  1.00  0.00     0.029 A 
ATOM     40  N   UNL A   1      44.788  26.548  27.082  1.00  0.00    -0.354 N 
ATOM     41  C   UNL A   1      41.021  27.705  28.840  1.00  0.00     0.074 A 
ATOM     42  C   UNL A   1      40.073  26.613  28.818  1.00  0.00     0.031 C 
ATOM     43  C   UNL A   1      46.217  25.191  26.025  1.00  0.00     0.029 A 
ATOM     44  C   UNL A   1      46.041  26.555  26.515  1.00  0.00     0.049 A 
ATOM     45  H   UNL A   1      44.391  27.335  27.523  1.00  0.00     0.167 HD
ATOM     46  C   UNL A   1      40.751  28.938  29.330  1.00  0.00     0.034 A 
ATOM     47  C   UNL A   1      46.945  27.547  26.398  1.00  0.00     0.034 A 
ATOM     48  C   UNL A   1      41.707  30.011  29.386  1.00  0.00     0.049 A 
ATOM     49  C   UNL A   1      46.625  28.900  26.973  1.00  0.00     0.074 A 
ATOM     50  C   UNL A   1      41.553  31.268  29.943  1.00  0.00     0.029 A 
ATOM     51  N   UNL A   1      42.989  29.959  28.862  1.00  0.00    -0.354 N 
ATOM     52  N   UNL A   1      45.548  29.294  27.606  1.00  0.00    -0.248 NA
ATOM     53  C   UNL A   1      47.660  29.937  26.846  1.00  0.00     0.031 C 
ATOM     54  C   UNL A   1      42.731  31.990  29.723  1.00  0.00     0.029 A 
ATOM     55  C   UNL A   1      43.632  31.168  29.068  1.00  0.00     0.049 A 
ATOM     56  H   UNL A   1      43.383  29.178  28.410  1.00  0.00     0.167 HD
ATOM     57  C   UNL A   1      45.790  30.609  27.990  1.00  0.00     0.074 A 
ATOM     58  C   UNL A   1      47.125  30.937  27.533  1.00  0.00     0.031 C 
ATOM     59  C   UNL A   1      44.978  31.467  28.653  1.00  0.00     0.034 A 
BRANCH  46  60
ATOM     60  C   UNL A   1      39.373  29.190  29.884  1.00  0.00     0.023 A 
ATOM     61  C   UNL A   1      39.090  28.873  31.229  1.00  0.00     0.012 A 
ATOM     62  C   UNL A   1      38.382  29.814  29.100  1.00  0.00     0.148 A 
ATOM     63  C   UNL A   1      37.837  29.144  31.775  1.00  0.00     0.002 A 
ATOM     64  C   UNL A   1      37.151  30.124  29.666  1.00  0.00     0.091 A 
ATOM     65  F   UNL A   1      38.663  30.091  27.819  1.00  0.00    -0.205 F 
ATOM     66  C   UNL A   1      36.872  29.780  30.999  1.00  0.00     0.022 A 
BRANCH  64  67
ATOM     67  S   UNL A   1      35.871  31.016  28.775  1.00  0.00     0.127 S 
ATOM     68  O   UNL A   1      35.399  29.997  27.839  1.00  0.00    -0.237 OA
ATOM     69  O   UNL A   1      34.928  31.346  29.844  1.00  0.00    -0.237 OA
ATOM     70  O   UNL A   1      36.528  32.164  28.165  1.00  0.00    -0.744 OA
ENDBRANCH  64  67
ENDBRANCH  46  60
BRANCH  47  71
ATOM     71  C   UNL A   1      48.268  27.283  25.762  1.00  0.00     0.023 A 
ATOM     72  C   UNL A   1      49.330  26.801  26.551  1.00  0.00     0.012 A 
ATOM     73  C   UNL A   1      48.474  27.490  24.385  1.00  0.00     0.148 A 
ATOM     74  C   UNL A   1      50.585  26.565  25.989  1.00  0.00     0.002 A 
ATOM     75  C   UNL A   1      49.710  27.199  23.819  1.00  0.00     0.091 A 
ATOM     76  F   UNL A   1      47.452  27.957  23.652  1.00  0.00    -0.205 F 
ATOM     77  C   UNL A   1      50.772  26.755  24.623  1.00  0.00     0.022 A 
BRANCH  75  78
ATOM     78  S   UNL A   1      50.006  27.292  22.050  1.00  0.00     0.127 S 
ATOM     79  O   UNL A   1      51.389  26.828  21.954  1.00  0.00    -0.237 OA
ATOM     80  O   UNL A   1      49.006  26.359  21.529  1.00  0.00    -0.237 OA
ATOM     81  O   UNL A   1      49.781  28.683  21.683  1.00  0.00    -0.744 OA
ENDBRANCH  75  78
ENDBRANCH  47  71
BRANCH  59  82
ATOM     82  C   UNL A   1      45.517  32.838  28.972  1.00  0.00     0.023 A 
ATOM     83  C   UNL A   1      46.265  33.047  30.148  1.00  0.00     0.012 A 
ATOM     84  C   UNL A   1      45.345  33.902  28.063  1.00  0.00     0.148 A 
ATOM     85  C   UNL A   1      46.801  34.302  30.432  1.00  0.00     0.002 A 
ATOM     86  C   UNL A   1      45.927  35.135  28.327  1.00  0.00     0.091 A 
ATOM     87  F   UNL A   1      44.617  33.687  26.958  1.00  0.00    -0.205 F 
ATOM     88  C   UNL A   1      46.643  35.342  29.518  1.00  0.00     0.022 A 
BRANCH  86  89
ATOM     89  S   UNL A   1      45.863  36.500  27.162  1.00  0.00     0.127 S 
ATOM     90  O   UNL A   1      46.457  35.900  25.968  1.00  0.00    -0.237 OA
ATOM     91  O   UNL A   1      44.427  36.758  27.065  1.00  0.00    -0.237 OA
ATOM     92  O   UNL A   1      46.634  37.580  27.765  1.00  0.00    -0.744 OA
ENDBRANCH  86  89
ENDBRANCH  59  82
ENDBRANCH  33  34
ENDBRANCH  25  28
ENDBRANCH  23  24
ENDBRANCH  22  23
ENDBRANCH   1  22
TORSDOF 19
ENDMDL
MODEL 2
REMARK VINA RESULT:     -10.4      6.401     11.519
REMARK SMILES C=C(c1ccccc1)[C@@H](C(=O)NCCCCCCNC(=O)c1ccc(-c2c3nc(c(-c4cccc(S(=O)(=O)[O-])c4F)c4ccc([nH]4)c(-c4cccc(S(=O)(=O)[O-])c4F)c4nc(c(-c5cccc(S(=O)(=O)[O-])c5F)c5ccc2[nH]5)C=C4)C=C3)cc1)S(C)(=O)=O
REMARK SMILES IDX 16 1 15 2 14 3 13 4 12 5 10 6 11 7 9 9 2 10 1 11 3 12 4 13
REMARK SMILES IDX 8 14 5 15 7 16 6 17 85 18 86 19 87 20 88 21 17 22 18 23
REMARK SMILES IDX 19 24 20 25 21 27 22 28 23 29 84 30 24 31 83 32 25 33 26 34
REMARK SMILES IDX 27 35 77 36 28 37 82 38 76 39 78 40 29 41 81 42 75 43 74 44
REMARK SMILES IDX 30 46 62 47 42 48 61 49 43 50 46 51 60 52 79 53 44 54 45 55
REMARK SMILES IDX 59 57 80 58 47 59 31 60 32 61 40 62 33 63 35 64 41 65 34 66
REMARK SMILES IDX 36 67 37 68 38 69 39 70 63 71 64 72 72 73 65 74 67 75 73 76
REMARK SMILES IDX 66 77 68 78 69 79 70 80 71 81 48 82 49 83 57 84 50 85 52 86
REMARK SMILES IDX 58 87 51 88 53 89 54 90 55 91 56 92
REMARK H PARENT 12 8 19 26 78 45 46 56
REMARK Flexibility Score: inf
ROOT
ATOM      1  C   UNL A   1      31.615  30.740  26.169  1.00  0.00     0.002 C 
ENDROOT
BRANCH   1   2
ATOM      2  C   UNL A   1      32.763  29.973  26.835  1.00  0.00     0.002 C 
BRANCH   2   3
ATOM      3  C   UNL A   1      32.575  28.452  26.882  1.00  0.00     0.021 C 
BRANCH   3   4
ATOM      4  C   UNL A   1      33.652  27.673  26.122  1.00  0.00     0.116 C 
BRANCH   4   5
ATOM      5  N   UNL A   1      33.373  27.689  24.700  1.00  0.00    -0.355 N 
ATOM      6  C   UNL A   1      33.250  26.640  23.824  1.00  0.00     0.242 C 
ATOM      7  O   UNL A   1      33.290  26.927  22.628  1.00  0.00    -0.273 OA
ATOM      8  H   UNL A   1      33.254  28.583  24.304  1.00  0.00     0.163 HD
BRANCH   6   9
ATOM      9  C   UNL A   1      33.042  25.226  24.368  1.00  0.00     0.227 C 
BRANCH   9  10
ATOM     10  C   UNL A   1      33.819  24.157  23.597  1.00  0.00    -0.020 C 
ATOM     11  C   UNL A   1      33.402  23.655  22.420  1.00  0.00     0.015 C 
BRANCH  10  12
ATOM     12  C   UNL A   1      35.135  23.717  24.155  1.00  0.00    -0.021 A 
ATOM     13  C   UNL A   1      35.910  22.722  23.538  1.00  0.00     0.008 A 
ATOM     14  C   UNL A   1      35.582  24.207  25.396  1.00  0.00     0.008 A 
ATOM     15  C   UNL A   1      37.071  22.225  24.142  1.00  0.00     0.001 A 
ATOM     16  C   UNL A   1      36.738  23.706  26.005  1.00  0.00     0.001 A 
ATOM     17  C   UNL A   1      37.480  22.711  25.379  1.00  0.00     0.000 A 
ENDBRANCH  10  12
ENDBRANCH   9  10
BRANCH   9  18
ATOM     18  S   UNL A   1      31.264  24.870  24.384  1.00  0.00     0.163 S 
ATOM     19  C   UNL A   1      31.102  23.431  25.411  1.00  0.00     0.159 C 
ATOM     20  O   UNL A   1      30.591  25.931  25.121  1.00  0.00    -0.228 OA
ATOM     21  O   UNL A   1      30.786  24.473  23.074  1.00  0.00    -0.228 OA
ENDBRANCH   9  18
ENDBRANCH   6   9
ENDBRANCH   4   5
ENDBRANCH   3   4
ENDBRANCH   2   3
ENDBRANCH   1   2
BRANCH   1  22
ATOM     22  C   UNL A   1      31.411  32.167  26.686  1.00  0.00     0.021 C 
BRANCH  22  23
ATOM     23  C   UNL A   1      32.634  32.771  27.368  1.00  0.00     0.116 C 
BRANCH  23  24
ATOM     24  N   UNL A   1      32.444  34.182  27.671  1.00  0.00    -0.352 N 
ATOM     25  C   UNL A   1      33.038  34.950  28.641  1.00  0.00     0.251 C 
ATOM     26  H   UNL A   1      31.795  34.653  27.099  1.00  0.00     0.163 HD
ATOM     27  O   UNL A   1      32.597  36.068  28.894  1.00  0.00    -0.269 OA
BRANCH  25  28
ATOM     28  C   UNL A   1      34.201  34.423  29.387  1.00  0.00     0.039 A 
ATOM     29  C   UNL A   1      33.998  33.863  30.651  1.00  0.00     0.014 A 
ATOM     30  C   UNL A   1      35.486  34.487  28.843  1.00  0.00     0.014 A 
ATOM     31  C   UNL A   1      35.080  33.315  31.344  1.00  0.00     0.010 A 
ATOM     32  C   UNL A   1      36.548  33.872  29.502  1.00  0.00     0.010 A 
ATOM     33  C   UNL A   1      36.358  33.285  30.762  1.00  0.00    -0.014 A 
BRANCH  33  34
ATOM     34  C   UNL A   1      37.502  32.633  31.449  1.00  0.00     0.031 A 
ATOM     35  C   UNL A   1      38.224  31.482  30.801  1.00  0.00     0.074 A 
ATOM     36  C   UNL A   1      37.842  33.028  32.692  1.00  0.00     0.049 A 
ATOM     37  N   UNL A   1      39.208  30.759  31.270  1.00  0.00    -0.248 NA
ATOM     38  C   UNL A   1      37.765  31.070  29.464  1.00  0.00     0.031 C 
ATOM     39  C   UNL A   1      37.178  34.087  33.455  1.00  0.00     0.029 A 
ATOM     40  N   UNL A   1      38.819  32.571  33.543  1.00  0.00    -0.354 N 
ATOM     41  C   UNL A   1      39.462  29.790  30.307  1.00  0.00     0.074 A 
ATOM     42  C   UNL A   1      38.508  29.996  29.239  1.00  0.00     0.031 C 
ATOM     43  C   UNL A   1      37.773  34.207  34.652  1.00  0.00     0.029 A 
ATOM     44  C   UNL A   1      38.835  33.212  34.760  1.00  0.00     0.049 A 
ATOM     45  H   UNL A   1      39.447  31.851  33.304  1.00  0.00     0.167 HD
ATOM     46  C   UNL A   1      40.419  28.832  30.299  1.00  0.00     0.034 A 
ATOM     47  C   UNL A   1      39.613  33.017  35.843  1.00  0.00     0.034 A 
ATOM     48  C   UNL A   1      41.391  28.654  31.343  1.00  0.00     0.049 A 
ATOM     49  C   UNL A   1      40.683  31.961  35.795  1.00  0.00     0.074 A 
ATOM     50  C   UNL A   1      42.453  27.768  31.386  1.00  0.00     0.029 A 
ATOM     51  N   UNL A   1      41.417  29.366  32.532  1.00  0.00    -0.354 N 
ATOM     52  N   UNL A   1      41.001  31.151  34.815  1.00  0.00    -0.248 NA
ATOM     53  C   UNL A   1      41.524  31.813  36.992  1.00  0.00     0.031 C 
ATOM     54  C   UNL A   1      43.100  27.919  32.616  1.00  0.00     0.029 A 
ATOM     55  C   UNL A   1      42.467  28.929  33.321  1.00  0.00     0.049 A 
ATOM     56  H   UNL A   1      40.783  30.078  32.778  1.00  0.00     0.167 HD
ATOM     57  C   UNL A   1      42.103  30.428  35.258  1.00  0.00     0.074 A 
ATOM     58  C   UNL A   1      42.408  30.909  36.590  1.00  0.00     0.031 C 
ATOM     59  C   UNL A   1      42.792  29.449  34.624  1.00  0.00     0.034 A 
BRANCH  46  60
ATOM     60  C   UNL A   1      40.493  27.919  29.102  1.00  0.00     0.023 A 
ATOM     61  C   UNL A   1      39.572  26.859  28.972  1.00  0.00     0.012 A 
ATOM     62  C   UNL A   1      41.421  28.157  28.069  1.00  0.00     0.148 A 
ATOM     63  C   UNL A   1      39.592  26.033  27.850  1.00  0.00     0.002 A 
ATOM     64  C   UNL A   1      41.404  27.359  26.932  1.00  0.00     0.091 A 
ATOM     65  F   UNL A   1      42.301  29.157  28.219  1.00  0.00    -0.205 F 
ATOM     66  C   UNL A   1      40.499  26.290  26.825  1.00  0.00     0.022 A 
BRANCH  64  67
ATOM     67  S   UNL A   1      42.474  27.657  25.521  1.00  0.00     0.127 S 
ATOM     68  O   UNL A   1      42.231  26.465  24.709  1.00  0.00    -0.237 OA
ATOM     69  O   UNL A   1      41.918  28.893  24.970  1.00  0.00    -0.237 OA
ATOM     70  O   UNL A   1      43.824  27.781  26.056  1.00  0.00    -0.744 OA
ENDBRANCH  64  67
ENDBRANCH  46  60
BRANCH  47  71
ATOM     71  C   UNL A   1      39.452  33.884  37.045  1.00  0.00     0.023 A 
ATOM     72  C   UNL A   1      39.914  35.214  37.006  1.00  0.00     0.012 A 
ATOM     73  C   UNL A   1      38.831  33.407  38.215  1.00  0.00     0.148 A 
ATOM     74  C   UNL A   1      39.797  36.042  38.122  1.00  0.00     0.002 A 
ATOM     75  C   UNL A   1      38.666  34.254  39.305  1.00  0.00     0.091 A 
ATOM     76  F   UNL A   1      38.405  32.136  38.236  1.00  0.00    -0.205 F 
ATOM     77  C   UNL A   1      39.165  35.566  39.267  1.00  0.00     0.022 A 
BRANCH  75  78
ATOM     78  S   UNL A   1      37.753  33.769  40.774  1.00  0.00     0.127 S 
ATOM     79  O   UNL A   1      36.550  33.173  40.195  1.00  0.00    -0.237 OA
ATOM     80  O   UNL A   1      38.673  32.818  41.399  1.00  0.00    -0.237 OA
ATOM     81  O   UNL A   1      37.545  34.994  41.534  1.00  0.00    -0.744 OA
ENDBRANCH  75  78
ENDBRANCH  47  71
BRANCH  59  82
ATOM     82  C   UNL A   1      43.981  28.855  35.336  1.00  0.00     0.023 A 
ATOM     83  C   UNL A   1      45.265  29.401  35.143  1.00  0.00     0.012 A 
ATOM     84  C   UNL A   1      43.808  27.801  36.255  1.00  0.00     0.148 A 
ATOM     85  C   UNL A   1      46.365  28.884  35.827  1.00  0.00     0.002 A 
ATOM     86  C   UNL A   1      44.899  27.326  36.972  1.00  0.00     0.091 A 
ATOM     87  F   UNL A   1      42.581  27.284  36.412  1.00  0.00    -0.205 F 
ATOM     88  C   UNL A   1      46.180  27.856  36.749  1.00  0.00     0.022 A 
BRANCH  86  89
ATOM     89  S   UNL A   1      44.741  26.076  38.252  1.00  0.00     0.127 S 
ATOM     90  O   UNL A   1      43.484  26.463  38.892  1.00  0.00    -0.237 OA
ATOM     91  O   UNL A   1      44.673  24.840  37.473  1.00  0.00    -0.237 OA
ATOM     92  O   UNL A   1      45.929  26.202  39.087  1.00  0.00    -0.744 OA
ENDBRANCH  86  89
ENDBRANCH  59  82
ENDBRANCH  33  34
ENDBRANCH  25  28
ENDBRANCH  23  24
ENDBRANCH  22  23
ENDBRANCH   1  22
TORSDOF 19
ENDMDL
MODEL 3
REMARK VINA RESULT:     -10.3      6.040     11.377
REMARK SMILES C=C(c1ccccc1)[C@@H](C(=O)NCCCCCCNC(=O)c1ccc(-c2c3nc(c(-c4cccc(S(=O)(=O)[O-])c4F)c4ccc([nH]4)c(-c4cccc(S(=O)(=O)[O-])c4F)c4nc(c(-c5cccc(S(=O)(=O)[O-])c5F)c5ccc2[nH]5)C=C4)C=C3)cc1)S(C)(=O)=O
REMARK SMILES IDX 16 1 15 2 14 3 13 4 12 5 10 6 11 7 9 9 2 10 1 11 3 12 4 13
REMARK SMILES IDX 8 14 5 15 7 16 6 17 85 18 86 19 87 20 88 21 17 22 18 23
REMARK SMILES IDX 19 24 20 25 21 27 22 28 23 29 84 30 24 31 83 32 25 33 26 34
REMARK SMILES IDX 27 35 77 36 28 37 82 38 76 39 78 40 29 41 81 42 75 43 74 44
REMARK SMILES IDX 30 46 62 47 42 48 61 49 43 50 46 51 60 52 79 53 44 54 45 55
REMARK SMILES IDX 59 57 80 58 47 59 31 60 32 61 40 62 33 63 35 64 41 65 34 66
REMARK SMILES IDX 36 67 37 68 38 69 39 70 63 71 64 72 72 73 65 74 67 75 73 76
REMARK SMILES IDX 66 77 68 78 69 79 70 80 71 81 48 82 49 83 57 84 50 85 52 86
REMARK SMILES IDX 58 87 51 88 53 89 54 90 55 91 56 92
REMARK H PARENT 12 8 19 26 78 45 46 56
REMARK Flexibility Score: inf
ROOT
ATOM      1  C   UNL A   1      31.024  30.609  25.606  1.00  0.00     0.002 C 
ENDROOT
BRANCH   1   2
ATOM      2  C   UNL A   1      32.295  29.782  25.827  1.00  0.00     0.002 C 
BRANCH   2   3
ATOM      3  C   UNL A   1      32.186  28.721  26.929  1.00  0.00     0.021 C 
BRANCH   3   4
ATOM      4  C   UNL A   1      32.628  27.324  26.486  1.00  0.00     0.116 C 
BRANCH   4   5
ATOM      5  N   UNL A   1      31.711  26.323  26.995  1.00  0.00    -0.355 N 
ATOM      6  C   UNL A   1      31.201  25.212  26.372  1.00  0.00     0.242 C 
ATOM      7  O   UNL A   1      30.233  24.683  26.918  1.00  0.00    -0.273 OA
ATOM      8  H   UNL A   1      31.410  26.461  27.922  1.00  0.00     0.163 HD
BRANCH   6   9
ATOM      9  C   UNL A   1      31.864  24.693  25.096  1.00  0.00     0.227 C 
BRANCH   9  10
ATOM     10  C   UNL A   1      31.000  24.866  23.846  1.00  0.00    -0.020 C 
ATOM     11  C   UNL A   1      30.664  23.842  23.040  1.00  0.00     0.015 C 
BRANCH  10  12
ATOM     12  C   UNL A   1      30.452  26.229  23.563  1.00  0.00    -0.021 A 
ATOM     13  C   UNL A   1      29.117  26.566  23.837  1.00  0.00     0.008 A 
ATOM     14  C   UNL A   1      31.237  27.187  22.895  1.00  0.00     0.008 A 
ATOM     15  C   UNL A   1      28.583  27.799  23.443  1.00  0.00     0.001 A 
ATOM     16  C   UNL A   1      30.702  28.417  22.494  1.00  0.00     0.001 A 
ATOM     17  C   UNL A   1      29.374  28.720  22.764  1.00  0.00     0.000 A 
ENDBRANCH  10  12
ENDBRANCH   9  10
BRANCH   9  18
ATOM     18  S   UNL A   1      32.320  22.956  25.350  1.00  0.00     0.163 S 
ATOM     19  C   UNL A   1      33.319  22.962  26.817  1.00  0.00     0.159 C 
ATOM     20  O   UNL A   1      31.121  22.216  25.719  1.00  0.00    -0.228 OA
ATOM     21  O   UNL A   1      33.183  22.469  24.291  1.00  0.00    -0.228 OA
ENDBRANCH   9  18
ENDBRANCH   6   9
ENDBRANCH   4   5
ENDBRANCH   3   4
ENDBRANCH   2   3
ENDBRANCH   1   2
BRANCH   1  22
ATOM     22  C   UNL A   1      31.031  31.988  26.270  1.00  0.00     0.021 C 
BRANCH  22  23
ATOM     23  C   UNL A   1      32.388  32.416  26.821  1.00  0.00     0.116 C 
BRANCH  23  24
ATOM     24  N   UNL A   1      32.371  33.793  27.291  1.00  0.00    -0.352 N 
ATOM     25  C   UNL A   1      33.125  34.384  28.274  1.00  0.00     0.251 C 
ATOM     26  H   UNL A   1      31.726  34.386  26.841  1.00  0.00     0.163 HD
ATOM     27  O   UNL A   1      32.826  35.501  28.689  1.00  0.00    -0.269 OA
BRANCH  25  28
ATOM     28  C   UNL A   1      34.289  33.668  28.839  1.00  0.00     0.039 A 
ATOM     29  C   UNL A   1      35.568  34.197  28.647  1.00  0.00     0.014 A 
ATOM     30  C   UNL A   1      34.119  32.477  29.550  1.00  0.00     0.014 A 
ATOM     31  C   UNL A   1      36.671  33.559  29.219  1.00  0.00     0.010 A 
ATOM     32  C   UNL A   1      35.210  31.887  30.182  1.00  0.00     0.010 A 
ATOM     33  C   UNL A   1      36.498  32.417  30.019  1.00  0.00    -0.014 A 
BRANCH  33  34
ATOM     34  C   UNL A   1      37.649  31.774  30.702  1.00  0.00     0.031 A 
ATOM     35  C   UNL A   1      38.469  30.729  29.992  1.00  0.00     0.074 A 
ATOM     36  C   UNL A   1      37.909  32.073  31.990  1.00  0.00     0.049 A 
ATOM     37  N   UNL A   1      39.474  30.025  30.444  1.00  0.00    -0.248 NA
ATOM     38  C   UNL A   1      38.096  30.414  28.603  1.00  0.00     0.031 C 
ATOM     39  C   UNL A   1      37.148  33.018  32.809  1.00  0.00     0.029 A 
ATOM     40  N   UNL A   1      38.874  31.599  32.845  1.00  0.00    -0.354 N 
ATOM     41  C   UNL A   1      39.831  29.164  29.413  1.00  0.00     0.074 A 
ATOM     42  C   UNL A   1      38.914  29.410  28.322  1.00  0.00     0.031 C 
ATOM     43  C   UNL A   1      37.681  33.064  34.040  1.00  0.00     0.029 A 
ATOM     44  C   UNL A   1      38.797  32.127  34.113  1.00  0.00     0.049 A 
ATOM     45  H   UNL A   1      39.556  30.941  32.575  1.00  0.00     0.167 HD
ATOM     46  C   UNL A   1      40.845  28.268  29.368  1.00  0.00     0.034 A 
ATOM     47  C   UNL A   1      39.537  31.880  35.211  1.00  0.00     0.034 A 
ATOM     48  C   UNL A   1      41.779  28.053  30.440  1.00  0.00     0.049 A 
ATOM     49  C   UNL A   1      40.672  30.896  35.124  1.00  0.00     0.074 A 
ATOM     50  C   UNL A   1      42.891  27.229  30.457  1.00  0.00     0.029 A 
ATOM     51  N   UNL A   1      41.709  28.655  31.686  1.00  0.00    -0.354 N 
ATOM     52  N   UNL A   1      41.082  30.199  34.094  1.00  0.00    -0.248 NA
ATOM     53  C   UNL A   1      41.468  30.690  36.343  1.00  0.00     0.031 C 
ATOM     54  C   UNL A   1      43.473  27.306  31.726  1.00  0.00     0.029 A 
ATOM     55  C   UNL A   1      42.748  28.209  32.485  1.00  0.00     0.049 A 
ATOM     56  H   UNL A   1      41.021  29.303  31.962  1.00  0.00     0.167 HD
ATOM     57  C   UNL A   1      42.206  29.504  34.526  1.00  0.00     0.074 A 
ATOM     58  C   UNL A   1      42.422  29.879  35.908  1.00  0.00     0.031 C 
ATOM     59  C   UNL A   1      42.983  28.628  33.843  1.00  0.00     0.034 A 
BRANCH  46  60
ATOM     60  C   UNL A   1      41.028  27.472  28.102  1.00  0.00     0.023 A 
ATOM     61  C   UNL A   1      41.608  28.082  26.970  1.00  0.00     0.012 A 
ATOM     62  C   UNL A   1      40.701  26.102  28.056  1.00  0.00     0.148 A 
ATOM     63  C   UNL A   1      41.831  27.350  25.805  1.00  0.00     0.002 A 
ATOM     64  C   UNL A   1      40.971  25.369  26.907  1.00  0.00     0.091 A 
ATOM     65  F   UNL A   1      40.134  25.545  29.135  1.00  0.00    -0.205 F 
ATOM     66  C   UNL A   1      41.524  25.992  25.777  1.00  0.00     0.022 A 
BRANCH  64  67
ATOM     67  S   UNL A   1      40.690  23.598  26.798  1.00  0.00     0.127 S 
ATOM     68  O   UNL A   1      41.600  23.221  25.718  1.00  0.00    -0.237 OA
ATOM     69  O   UNL A   1      41.098  23.141  28.127  1.00  0.00    -0.237 OA
ATOM     70  O   UNL A   1      39.273  23.431  26.504  1.00  0.00    -0.744 OA
ENDBRANCH  64  67
ENDBRANCH  46  60
BRANCH  47  71
ATOM     71  C   UNL A   1      39.269  32.624  36.476  1.00  0.00     0.023 A 
ATOM     72  C   UNL A   1      39.910  33.858  36.700  1.00  0.00     0.012 A 
ATOM     73  C   UNL A   1      38.377  32.127  37.444  1.00  0.00     0.148 A 
ATOM     74  C   UNL A   1      39.697  34.566  37.883  1.00  0.00     0.002 A 
ATOM     75  C   UNL A   1      38.124  32.864  38.595  1.00  0.00     0.091 A 
ATOM     76  F   UNL A   1      37.783  30.947  37.215  1.00  0.00    -0.205 F 
ATOM     77  C   UNL A   1      38.797  34.075  38.825  1.00  0.00     0.022 A 
BRANCH  75  78
ATOM     78  S   UNL A   1      36.888  32.374  39.803  1.00  0.00     0.127 S 
ATOM     79  O   UNL A   1      37.397  31.076  40.241  1.00  0.00    -0.237 OA
ATOM     80  O   UNL A   1      36.995  33.445  40.794  1.00  0.00    -0.237 OA
ATOM     81  O   UNL A   1      35.622  32.344  39.083  1.00  0.00    -0.744 OA
ENDBRANCH  75  78
ENDBRANCH  47  71
BRANCH  59  82
ATOM     82  C   UNL A   1      44.174  28.042  34.558  1.00  0.00     0.023 A 
ATOM     83  C   UNL A   1      45.410  28.718  34.543  1.00  0.00     0.012 A 
ATOM     84  C   UNL A   1      44.043  26.856  35.307  1.00  0.00     0.148 A 
ATOM     85  C   UNL A   1      46.507  28.204  35.233  1.00  0.00     0.002 A 
ATOM     86  C   UNL A   1      45.125  26.378  36.036  1.00  0.00     0.091 A 
ATOM     87  F   UNL A   1      42.864  26.219  35.296  1.00  0.00    -0.205 F 
ATOM     88  C   UNL A   1      46.361  27.042  35.989  1.00  0.00     0.022 A 
BRANCH  86  89
ATOM     89  S   UNL A   1      45.004  24.949  37.117  1.00  0.00     0.127 S 
ATOM     90  O   UNL A   1      43.956  25.367  38.046  1.00  0.00    -0.237 OA
ATOM     91  O   UNL A   1      44.608  23.890  36.188  1.00  0.00    -0.237 OA
ATOM     92  O   UNL A   1      46.326  24.776  37.705  1.00  0.00    -0.744 OA
ENDBRANCH  86  89
ENDBRANCH  59  82
ENDBRANCH  33  34
ENDBRANCH  25  28
ENDBRANCH  23  24
ENDBRANCH  22  23
ENDBRANCH   1  22
TORSDOF 19
ENDMDL
