MODEL 1
REMARK VINA RESULT:     -12.0      0.000      0.000
REMARK SMILES Cn1cc(/C=C/C(=O)Nc2ccc(C(=O)NCCCCCCNC(=O)c3ccc(-c4c5nc(c(-c6cccc(S(=O)(=O)[O-])c6F)c6ccc([nH]6)c(-c6cccc(S(=O)(=O)[O-])c6F)c6nc(c(-c7cccc(S(=O)(=O)[O-])c7F)c7ccc4[nH]7)C=C6)C=C5)cc3)c(O)c2)cn1
REMARK SMILES IDX 19 1 18 2 17 3 16 4 14 5 15 6 13 8 10 9 11 10 91 11 12 12
REMARK SMILES IDX 89 13 9 14 7 15 8 16 6 18 5 19 4 20 1 21 2 22 3 23 93 24
REMARK SMILES IDX 92 25 90 26 20 28 21 29 22 30 23 31 24 32 25 34 26 35 27 36
REMARK SMILES IDX 88 37 28 38 87 39 29 40 30 41 31 42 81 43 32 44 86 45 80 46
REMARK SMILES IDX 82 47 33 48 85 49 79 50 78 51 34 53 66 54 46 55 65 56 47 57
REMARK SMILES IDX 50 58 64 59 83 60 48 61 49 62 63 64 84 65 51 66 35 67 36 68
REMARK SMILES IDX 44 69 37 70 39 71 45 72 38 73 40 74 41 75 42 76 43 77 67 78
REMARK SMILES IDX 68 79 76 80 69 81 71 82 77 83 70 84 72 85 73 86 74 87 75 88
REMARK SMILES IDX 52 89 53 90 61 91 54 92 56 93 62 94 55 95 57 96 58 97 59 98
REMARK SMILES IDX 60 99
REMARK H PARENT 16 7 9 17 90 27 23 33 82 52 50 63
REMARK Flexibility Score: inf
ROOT
ATOM      1  C   UNL A   1      30.939  28.698  23.313  1.00  0.00     0.002 C 
ENDROOT
BRANCH   1   2
ATOM      2  C   UNL A   1      30.223  27.453  22.776  1.00  0.00     0.021 C 
BRANCH   2   3
ATOM      3  C   UNL A   1      30.034  26.295  23.753  1.00  0.00     0.116 C 
BRANCH   3   4
ATOM      4  N   UNL A   1      30.116  26.671  25.155  1.00  0.00    -0.352 N 
ATOM      5  C   UNL A   1      31.062  26.384  26.111  1.00  0.00     0.255 C 
ATOM      6  O   UNL A   1      30.883  26.823  27.248  1.00  0.00    -0.269 OA
ATOM      7  H   UNL A   1      29.367  27.226  25.474  1.00  0.00     0.163 HD
BRANCH   5   8
ATOM      8  C   UNL A   1      32.227  25.490  25.860  1.00  0.00     0.081 A 
ATOM      9  C   UNL A   1      34.730  24.255  25.481  1.00  0.00     0.045 A 
ATOM     10  C   UNL A   1      34.279  25.214  24.579  1.00  0.00     0.027 A 
ATOM     11  C   UNL A   1      33.835  23.758  26.428  1.00  0.00     0.073 A 
ATOM     12  C   UNL A   1      33.056  25.856  24.789  1.00  0.00     0.020 A 
ATOM     13  C   UNL A   1      32.577  24.351  26.587  1.00  0.00     0.130 A 
BRANCH   9  14
ATOM     14  N   UNL A   1      36.051  23.772  25.506  1.00  0.00    -0.322 N 
ATOM     15  C   UNL A   1      36.552  22.520  25.745  1.00  0.00     0.248 C 
ATOM     16  O   UNL A   1      37.763  22.360  25.903  1.00  0.00    -0.270 OA
ATOM     17  H   UNL A   1      36.736  24.455  25.321  1.00  0.00     0.170 HD
BRANCH  15  18
ATOM     18  C   UNL A   1      35.674  21.325  25.801  1.00  0.00     0.072 C 
ATOM     19  C   UNL A   1      35.132  20.745  24.717  1.00  0.00     0.017 C 
BRANCH  19  20
ATOM     20  C   UNL A   1      34.179  19.691  24.762  1.00  0.00     0.013 A 
ATOM     21  C   UNL A   1      33.057  16.292  24.404  1.00  0.00     0.173 C 
ATOM     22  N   UNL A   1      33.280  17.703  24.611  1.00  0.00    -0.275 N 
ATOM     23  C   UNL A   1      34.473  18.364  24.547  1.00  0.00     0.116 A 
ATOM     24  N   UNL A   1      32.233  18.509  24.876  1.00  0.00    -0.181 NA
ATOM     25  C   UNL A   1      32.788  19.723  24.967  1.00  0.00     0.143 A 
ENDBRANCH  19  20
ENDBRANCH  15  18
ENDBRANCH   9  14
BRANCH  13  26
ATOM     26  O   UNL A   1      31.745  23.720  27.466  1.00  0.00    -0.507 OA
ATOM     27  H   UNL A   1      31.564  24.108  28.300  1.00  0.00     0.293 HD
ENDBRANCH  13  26
ENDBRANCH   5   8
ENDBRANCH   3   4
ENDBRANCH   2   3
ENDBRANCH   1   2
BRANCH   1  28
ATOM     28  C   UNL A   1      32.459  28.759  23.135  1.00  0.00     0.002 C 
BRANCH  28  29
ATOM     29  C   UNL A   1      33.255  29.447  24.245  1.00  0.00     0.021 C 
BRANCH  29  30
ATOM     30  C   UNL A   1      32.588  29.501  25.614  1.00  0.00     0.116 C 
BRANCH  30  31
ATOM     31  N   UNL A   1      32.294  30.856  26.053  1.00  0.00    -0.352 N 
ATOM     32  C   UNL A   1      32.950  31.636  26.973  1.00  0.00     0.251 C 
ATOM     33  H   UNL A   1      31.512  31.275  25.628  1.00  0.00     0.163 HD
ATOM     34  O   UNL A   1      32.469  32.720  27.304  1.00  0.00    -0.269 OA
BRANCH  32  35
ATOM     35  C   UNL A   1      34.213  31.170  27.588  1.00  0.00     0.039 A 
ATOM     36  C   UNL A   1      35.240  32.094  27.798  1.00  0.00     0.014 A 
ATOM     37  C   UNL A   1      34.392  29.832  27.952  1.00  0.00     0.014 A 
ATOM     38  C   UNL A   1      36.420  31.690  28.429  1.00  0.00     0.010 A 
ATOM     39  C   UNL A   1      35.534  29.450  28.652  1.00  0.00     0.010 A 
ATOM     40  C   UNL A   1      36.564  30.372  28.892  1.00  0.00    -0.014 A 
BRANCH  40  41
ATOM     41  C   UNL A   1      37.776  29.948  29.640  1.00  0.00     0.031 A 
ATOM     42  C   UNL A   1      38.035  30.460  31.031  1.00  0.00     0.074 A 
ATOM     43  C   UNL A   1      38.688  29.160  29.035  1.00  0.00     0.049 A 
ATOM     44  N   UNL A   1      39.047  30.220  31.824  1.00  0.00    -0.248 NA
ATOM     45  C   UNL A   1      37.039  31.385  31.595  1.00  0.00     0.031 C 
ATOM     46  C   UNL A   1      38.592  28.656  27.664  1.00  0.00     0.029 A 
ATOM     47  N   UNL A   1      39.883  28.662  29.489  1.00  0.00    -0.354 N 
ATOM     48  C   UNL A   1      38.829  30.986  32.962  1.00  0.00     0.074 A 
ATOM     49  C   UNL A   1      37.610  31.732  32.738  1.00  0.00     0.031 C 
ATOM     50  C   UNL A   1      39.670  27.904  27.396  1.00  0.00     0.029 A 
ATOM     51  C   UNL A   1      40.552  27.902  28.559  1.00  0.00     0.049 A 
ATOM     52  H   UNL A   1      40.230  28.832  30.395  1.00  0.00     0.167 HD
ATOM     53  C   UNL A   1      39.560  31.046  34.103  1.00  0.00     0.034 A 
ATOM     54  C   UNL A   1      41.742  27.273  28.631  1.00  0.00     0.034 A 
ATOM     55  C   UNL A   1      40.760  30.284  34.330  1.00  0.00     0.049 A 
ATOM     56  C   UNL A   1      42.529  27.340  29.911  1.00  0.00     0.074 A 
ATOM     57  C   UNL A   1      41.527  30.207  35.479  1.00  0.00     0.029 A 
ATOM     58  N   UNL A   1      41.380  29.483  33.383  1.00  0.00    -0.354 N 
ATOM     59  N   UNL A   1      42.229  27.946  31.035  1.00  0.00    -0.248 NA
ATOM     60  C   UNL A   1      43.804  26.609  29.944  1.00  0.00     0.031 C 
ATOM     61  C   UNL A   1      42.630  29.389  35.214  1.00  0.00     0.029 A 
ATOM     62  C   UNL A   1      42.530  28.922  33.913  1.00  0.00     0.049 A 
ATOM     63  H   UNL A   1      41.051  29.333  32.467  1.00  0.00     0.167 HD
ATOM     64  C   UNL A   1      43.256  27.639  31.920  1.00  0.00     0.074 A 
ATOM     65  C   UNL A   1      44.178  26.779  31.205  1.00  0.00     0.031 C 
ATOM     66  C   UNL A   1      43.424  28.038  33.206  1.00  0.00     0.034 A 
BRANCH  53  67
ATOM     67  C   UNL A   1      39.056  31.947  35.202  1.00  0.00     0.023 A 
ATOM     68  C   UNL A   1      39.199  33.347  35.082  1.00  0.00     0.012 A 
ATOM     69  C   UNL A   1      38.426  31.417  36.345  1.00  0.00     0.148 A 
ATOM     70  C   UNL A   1      38.777  34.198  36.103  1.00  0.00     0.002 A 
ATOM     71  C   UNL A   1      37.961  32.275  37.337  1.00  0.00     0.091 A 
ATOM     72  F   UNL A   1      38.315  30.086  36.456  1.00  0.00    -0.205 F 
ATOM     73  C   UNL A   1      38.151  33.662  37.226  1.00  0.00     0.022 A 
BRANCH  71  74
ATOM     74  S   UNL A   1      37.069  31.688  38.780  1.00  0.00     0.127 S 
ATOM     75  O   UNL A   1      38.058  31.884  39.838  1.00  0.00    -0.237 OA
ATOM     76  O   UNL A   1      35.930  32.605  38.834  1.00  0.00    -0.237 OA
ATOM     77  O   UNL A   1      36.716  30.304  38.496  1.00  0.00    -0.744 OA
ENDBRANCH  71  74
ENDBRANCH  53  67
BRANCH  54  78
ATOM     78  C   UNL A   1      42.217  26.458  27.478  1.00  0.00     0.023 A 
ATOM     79  C   UNL A   1      42.899  27.092  26.422  1.00  0.00     0.012 A 
ATOM     80  C   UNL A   1      42.044  25.060  27.445  1.00  0.00     0.148 A 
ATOM     81  C   UNL A   1      43.381  26.353  25.342  1.00  0.00     0.002 A 
ATOM     82  C   UNL A   1      42.574  24.324  26.392  1.00  0.00     0.091 A 
ATOM     83  F   UNL A   1      41.388  24.479  28.459  1.00  0.00    -0.205 F 
ATOM     84  C   UNL A   1      43.228  24.970  25.331  1.00  0.00     0.022 A 
BRANCH  82  85
ATOM     85  S   UNL A   1      42.540  22.528  26.353  1.00  0.00     0.127 S 
ATOM     86  O   UNL A   1      41.167  22.263  25.932  1.00  0.00    -0.237 OA
ATOM     87  O   UNL A   1      43.562  22.233  25.348  1.00  0.00    -0.237 OA
ATOM     88  O   UNL A   1      42.877  22.094  27.701  1.00  0.00    -0.744 OA
ENDBRANCH  82  85
ENDBRANCH  54  78
BRANCH  66  89
ATOM     89  C   UNL A   1      44.633  27.525  33.945  1.00  0.00     0.023 A 
ATOM     90  C   UNL A   1      45.829  28.270  33.946  1.00  0.00     0.012 A 
ATOM     91  C   UNL A   1      44.562  26.333  34.694  1.00  0.00     0.148 A 
ATOM     92  C   UNL A   1      46.945  27.818  34.651  1.00  0.00     0.002 A 
ATOM     93  C   UNL A   1      45.660  25.917  35.435  1.00  0.00     0.091 A 
ATOM     94  F   UNL A   1      43.422  25.627  34.665  1.00  0.00    -0.205 F 
ATOM     95  C   UNL A   1      46.857  26.650  35.405  1.00  0.00     0.022 A 
BRANCH  93  96
ATOM     96  S   UNL A   1      45.609  24.481  36.513  1.00  0.00     0.127 S 
ATOM     97  O   UNL A   1      46.936  24.520  37.126  1.00  0.00    -0.237 OA
ATOM     98  O   UNL A   1      44.509  24.812  37.418  1.00  0.00    -0.237 OA
ATOM     99  O   UNL A   1      45.355  23.337  35.647  1.00  0.00    -0.744 OA
ENDBRANCH  93  96
ENDBRANCH  66  89
ENDBRANCH  40  41
ENDBRANCH  32  35
ENDBRANCH  30  31
ENDBRANCH  29  30
ENDBRANCH  28  29
ENDBRANCH   1  28
TORSDOF 20
ENDMDL
MODEL 2
REMARK VINA RESULT:     -11.4      3.179      4.628
REMARK SMILES Cn1cc(/C=C/C(=O)Nc2ccc(C(=O)NCCCCCCNC(=O)c3ccc(-c4c5nc(c(-c6cccc(S(=O)(=O)[O-])c6F)c6ccc([nH]6)c(-c6cccc(S(=O)(=O)[O-])c6F)c6nc(c(-c7cccc(S(=O)(=O)[O-])c7F)c7ccc4[nH]7)C=C6)C=C5)cc3)c(O)c2)cn1
REMARK SMILES IDX 19 1 18 2 17 3 16 4 14 5 15 6 13 8 10 9 11 10 91 11 12 12
REMARK SMILES IDX 89 13 9 14 7 15 8 16 6 18 5 19 4 20 1 21 2 22 3 23 93 24
REMARK SMILES IDX 92 25 90 26 20 28 21 29 22 30 23 31 24 32 25 34 26 35 27 36
REMARK SMILES IDX 88 37 28 38 87 39 29 40 30 41 31 42 81 43 32 44 86 45 80 46
REMARK SMILES IDX 82 47 33 48 85 49 79 50 78 51 34 53 66 54 46 55 65 56 47 57
REMARK SMILES IDX 50 58 64 59 83 60 48 61 49 62 63 64 84 65 51 66 35 67 36 68
REMARK SMILES IDX 44 69 37 70 39 71 45 72 38 73 40 74 41 75 42 76 43 77 67 78
REMARK SMILES IDX 68 79 76 80 69 81 71 82 77 83 70 84 72 85 73 86 74 87 75 88
REMARK SMILES IDX 52 89 53 90 61 91 54 92 56 93 62 94 55 95 57 96 58 97 59 98
REMARK SMILES IDX 60 99
REMARK H PARENT 16 7 9 17 90 27 23 33 82 52 50 63
REMARK Flexibility Score: inf
ROOT
ATOM      1  C   UNL A   1      35.683  32.017  28.597  1.00  0.00     0.002 C 
ENDROOT
BRANCH   1   2
ATOM      2  C   UNL A   1      35.844  30.832  27.637  1.00  0.00     0.021 C 
BRANCH   2   3
ATOM      3  C   UNL A   1      34.697  29.825  27.594  1.00  0.00     0.116 C 
BRANCH   3   4
ATOM      4  N   UNL A   1      33.472  30.331  26.998  1.00  0.00    -0.352 N 
ATOM      5  C   UNL A   1      32.662  29.804  26.019  1.00  0.00     0.255 C 
ATOM      6  O   UNL A   1      31.671  30.453  25.681  1.00  0.00    -0.269 OA
ATOM      7  H   UNL A   1      33.172  31.198  27.355  1.00  0.00     0.163 HD
BRANCH   5   8
ATOM      8  C   UNL A   1      32.982  28.546  25.289  1.00  0.00     0.081 A 
ATOM      9  C   UNL A   1      33.052  26.050  23.984  1.00  0.00     0.045 A 
ATOM     10  C   UNL A   1      32.839  26.117  25.358  1.00  0.00     0.027 A 
ATOM     11  C   UNL A   1      33.455  27.206  23.316  1.00  0.00     0.073 A 
ATOM     12  C   UNL A   1      32.764  27.356  25.998  1.00  0.00     0.020 A 
ATOM     13  C   UNL A   1      33.454  28.439  23.979  1.00  0.00     0.130 A 
BRANCH   9  14
ATOM     14  N   UNL A   1      32.862  24.882  23.224  1.00  0.00    -0.322 N 
ATOM     15  C   UNL A   1      33.733  23.891  22.855  1.00  0.00     0.248 C 
ATOM     16  O   UNL A   1      33.392  23.049  22.023  1.00  0.00    -0.270 OA
ATOM     17  H   UNL A   1      31.941  24.756  22.898  1.00  0.00     0.170 HD
BRANCH  15  18
ATOM     18  C   UNL A   1      35.089  23.782  23.448  1.00  0.00     0.072 C 
ATOM     19  C   UNL A   1      35.441  22.840  24.338  1.00  0.00     0.017 C 
BRANCH  19  20
ATOM     20  C   UNL A   1      36.687  22.805  25.021  1.00  0.00     0.013 A 
ATOM     21  C   UNL A   1      39.755  21.292  26.135  1.00  0.00     0.173 C 
ATOM     22  N   UNL A   1      38.598  22.092  25.811  1.00  0.00    -0.275 N 
ATOM     23  C   UNL A   1      37.576  21.755  24.971  1.00  0.00     0.116 A 
ATOM     24  N   UNL A   1      38.445  23.301  26.385  1.00  0.00    -0.181 NA
ATOM     25  C   UNL A   1      37.276  23.733  25.900  1.00  0.00     0.143 A 
ENDBRANCH  19  20
ENDBRANCH  15  18
ENDBRANCH   9  14
BRANCH  13  26
ATOM     26  O   UNL A   1      33.966  29.483  23.264  1.00  0.00    -0.507 OA
ATOM     27  H   UNL A   1      34.644  30.014  23.631  1.00  0.00     0.293 HD
ENDBRANCH  13  26
ENDBRANCH   5   8
ENDBRANCH   3   4
ENDBRANCH   2   3
ENDBRANCH   1   2
BRANCH   1  28
ATOM     28  C   UNL A   1      35.941  33.415  28.026  1.00  0.00     0.002 C 
BRANCH  28  29
ATOM     29  C   UNL A   1      34.768  34.396  28.056  1.00  0.00     0.021 C 
BRANCH  29  30
ATOM     30  C   UNL A   1      33.504  33.911  28.755  1.00  0.00     0.116 C 
BRANCH  30  31
ATOM     31  N   UNL A   1      33.009  34.845  29.752  1.00  0.00    -0.352 N 
ATOM     32  C   UNL A   1      33.433  35.050  31.042  1.00  0.00     0.251 C 
ATOM     33  H   UNL A   1      32.261  35.414  29.461  1.00  0.00     0.163 HD
ATOM     34  O   UNL A   1      32.798  35.805  31.778  1.00  0.00    -0.269 OA
BRANCH  32  35
ATOM     35  C   UNL A   1      34.630  34.349  31.559  1.00  0.00     0.039 A 
ATOM     36  C   UNL A   1      34.469  33.097  32.158  1.00  0.00     0.014 A 
ATOM     37  C   UNL A   1      35.902  34.918  31.459  1.00  0.00     0.014 A 
ATOM     38  C   UNL A   1      35.591  32.390  32.601  1.00  0.00     0.010 A 
ATOM     39  C   UNL A   1      37.024  34.179  31.827  1.00  0.00     0.010 A 
ATOM     40  C   UNL A   1      36.882  32.910  32.409  1.00  0.00    -0.014 A 
BRANCH  40  41
ATOM     41  C   UNL A   1      38.089  32.135  32.796  1.00  0.00     0.031 A 
ATOM     42  C   UNL A   1      38.814  32.440  34.080  1.00  0.00     0.074 A 
ATOM     43  C   UNL A   1      38.582  31.206  31.953  1.00  0.00     0.049 A 
ATOM     44  N   UNL A   1      39.894  31.888  34.569  1.00  0.00    -0.248 NA
ATOM     45  C   UNL A   1      38.269  33.527  34.910  1.00  0.00     0.031 C 
ATOM     46  C   UNL A   1      38.015  30.867  30.646  1.00  0.00     0.029 A 
ATOM     47  N   UNL A   1      39.680  30.390  32.061  1.00  0.00    -0.354 N 
ATOM     48  C   UNL A   1      40.177  32.578  35.741  1.00  0.00     0.074 A 
ATOM     49  C   UNL A   1      39.179  33.618  35.867  1.00  0.00     0.031 C 
ATOM     50  C   UNL A   1      38.757  29.901  30.084  1.00  0.00     0.029 A 
ATOM     51  C   UNL A   1      39.870  29.576  30.970  1.00  0.00     0.049 A 
ATOM     52  H   UNL A   1      40.275  30.388  32.845  1.00  0.00     0.167 HD
ATOM     53  C   UNL A   1      41.161  32.353  36.647  1.00  0.00     0.034 A 
ATOM     54  C   UNL A   1      40.834  28.671  30.708  1.00  0.00     0.034 A 
ATOM     55  C   UNL A   1      42.138  31.303  36.529  1.00  0.00     0.049 A 
ATOM     56  C   UNL A   1      41.907  28.426  31.733  1.00  0.00     0.074 A 
ATOM     57  C   UNL A   1      43.121  30.935  37.430  1.00  0.00     0.029 A 
ATOM     58  N   UNL A   1      42.268  30.463  35.433  1.00  0.00    -0.354 N 
ATOM     59  N   UNL A   1      42.068  28.983  32.909  1.00  0.00    -0.248 NA
ATOM     60  C   UNL A   1      42.912  27.405  31.408  1.00  0.00     0.031 C 
ATOM     61  C   UNL A   1      43.870  29.899  36.862  1.00  0.00     0.029 A 
ATOM     62  C   UNL A   1      43.328  29.591  35.624  1.00  0.00     0.049 A 
ATOM     63  H   UNL A   1      41.692  30.482  34.635  1.00  0.00     0.167 HD
ATOM     64  C   UNL A   1      43.168  28.354  33.481  1.00  0.00     0.074 A 
ATOM     65  C   UNL A   1      43.623  27.363  32.527  1.00  0.00     0.031 C 
ATOM     66  C   UNL A   1      43.752  28.583  34.685  1.00  0.00     0.034 A 
BRANCH  53  67
ATOM     67  C   UNL A   1      41.203  33.248  37.860  1.00  0.00     0.023 A 
ATOM     68  C   UNL A   1      40.387  32.956  38.975  1.00  0.00     0.012 A 
ATOM     69  C   UNL A   1      42.057  34.366  37.909  1.00  0.00     0.148 A 
ATOM     70  C   UNL A   1      40.379  33.791  40.092  1.00  0.00     0.002 A 
ATOM     71  C   UNL A   1      42.082  35.166  39.047  1.00  0.00     0.091 A 
ATOM     72  F   UNL A   1      42.812  34.644  36.837  1.00  0.00    -0.205 F 
ATOM     73  C   UNL A   1      41.232  34.890  40.131  1.00  0.00     0.022 A 
BRANCH  71  74
ATOM     74  S   UNL A   1      43.206  36.555  39.226  1.00  0.00     0.127 S 
ATOM     75  O   UNL A   1      42.744  37.447  38.165  1.00  0.00    -0.237 OA
ATOM     76  O   UNL A   1      42.911  37.019  40.583  1.00  0.00    -0.237 OA
ATOM     77  O   UNL A   1      44.545  36.011  39.053  1.00  0.00    -0.744 OA
ENDBRANCH  71  74
ENDBRANCH  53  67
BRANCH  54  78
ATOM     78  C   UNL A   1      40.774  27.872  29.452  1.00  0.00     0.023 A 
ATOM     79  C   UNL A   1      39.795  26.867  29.323  1.00  0.00     0.012 A 
ATOM     80  C   UNL A   1      41.640  28.132  28.372  1.00  0.00     0.148 A 
ATOM     81  C   UNL A   1      39.695  26.119  28.150  1.00  0.00     0.002 A 
ATOM     82  C   UNL A   1      41.498  27.420  27.187  1.00  0.00     0.091 A 
ATOM     83  F   UNL A   1      42.566  29.090  28.519  1.00  0.00    -0.205 F 
ATOM     84  C   UNL A   1      40.538  26.402  27.079  1.00  0.00     0.022 A 
BRANCH  82  85
ATOM     85  S   UNL A   1      42.450  27.798  25.711  1.00  0.00     0.127 S 
ATOM     86  O   UNL A   1      41.952  29.127  25.365  1.00  0.00    -0.237 OA
ATOM     87  O   UNL A   1      43.820  27.768  26.225  1.00  0.00    -0.237 OA
ATOM     88  O   UNL A   1      42.141  26.744  24.757  1.00  0.00    -0.744 OA
ENDBRANCH  82  85
ENDBRANCH  54  78
BRANCH  66  89
ATOM     89  C   UNL A   1      44.931  27.723  35.063  1.00  0.00     0.023 A 
ATOM     90  C   UNL A   1      46.243  28.201  34.874  1.00  0.00     0.012 A 
ATOM     91  C   UNL A   1      44.735  26.465  35.668  1.00  0.00     0.148 A 
ATOM     92  C   UNL A   1      47.341  27.426  35.248  1.00  0.00     0.002 A 
ATOM     93  C   UNL A   1      45.832  25.722  36.086  1.00  0.00     0.091 A 
ATOM     94  F   UNL A   1      43.481  26.018  35.823  1.00  0.00    -0.205 F 
ATOM     95  C   UNL A   1      47.136  26.193  35.864  1.00  0.00     0.022 A 
BRANCH  93  96
ATOM     96  S   UNL A   1      45.664  24.171  36.977  1.00  0.00     0.127 S 
ATOM     97  O   UNL A   1      47.061  23.814  37.220  1.00  0.00    -0.237 OA
ATOM     98  O   UNL A   1      44.921  24.578  38.169  1.00  0.00    -0.237 OA
ATOM     99  O   UNL A   1      44.937  23.274  36.088  1.00  0.00    -0.744 OA
ENDBRANCH  93  96
ENDBRANCH  66  89
ENDBRANCH  40  41
ENDBRANCH  32  35
ENDBRANCH  30  31
ENDBRANCH  29  30
ENDBRANCH  28  29
ENDBRANCH   1  28
TORSDOF 20
ENDMDL
MODEL 3
REMARK VINA RESULT:     -11.4      3.127      4.640
REMARK SMILES Cn1cc(/C=C/C(=O)Nc2ccc(C(=O)NCCCCCCNC(=O)c3ccc(-c4c5nc(c(-c6cccc(S(=O)(=O)[O-])c6F)c6ccc([nH]6)c(-c6cccc(S(=O)(=O)[O-])c6F)c6nc(c(-c7cccc(S(=O)(=O)[O-])c7F)c7ccc4[nH]7)C=C6)C=C5)cc3)c(O)c2)cn1
REMARK SMILES IDX 19 1 18 2 17 3 16 4 14 5 15 6 13 8 10 9 11 10 91 11 12 12
REMARK SMILES IDX 89 13 9 14 7 15 8 16 6 18 5 19 4 20 1 21 2 22 3 23 93 24
REMARK SMILES IDX 92 25 90 26 20 28 21 29 22 30 23 31 24 32 25 34 26 35 27 36
REMARK SMILES IDX 88 37 28 38 87 39 29 40 30 41 31 42 81 43 32 44 86 45 80 46
REMARK SMILES IDX 82 47 33 48 85 49 79 50 78 51 34 53 66 54 46 55 65 56 47 57
REMARK SMILES IDX 50 58 64 59 83 60 48 61 49 62 63 64 84 65 51 66 35 67 36 68
REMARK SMILES IDX 44 69 37 70 39 71 45 72 38 73 40 74 41 75 42 76 43 77 67 78
REMARK SMILES IDX 68 79 76 80 69 81 71 82 77 83 70 84 72 85 73 86 74 87 75 88
REMARK SMILES IDX 52 89 53 90 61 91 54 92 56 93 62 94 55 95 57 96 58 97 59 98
REMARK SMILES IDX 60 99
REMARK H PARENT 16 7 9 17 90 27 23 33 82 52 50 63
REMARK Flexibility Score: inf
ROOT
ATOM      1  C   UNL A   1      35.427  31.833  28.425  1.00  0.00     0.002 C 
ENDROOT
BRANCH   1   2
ATOM      2  C   UNL A   1      35.766  30.676  27.476  1.00  0.00     0.021 C 
BRANCH   2   3
ATOM      3  C   UNL A   1      35.046  29.353  27.725  1.00  0.00     0.116 C 
BRANCH   3   4
ATOM      4  N   UNL A   1      33.608  29.473  27.901  1.00  0.00    -0.352 N 
ATOM      5  C   UNL A   1      32.573  29.291  27.014  1.00  0.00     0.255 C 
ATOM      6  O   UNL A   1      31.425  29.470  27.423  1.00  0.00    -0.269 OA
ATOM      7  H   UNL A   1      33.327  29.727  28.810  1.00  0.00     0.163 HD
BRANCH   5   8
ATOM      8  C   UNL A   1      32.783  28.989  25.570  1.00  0.00     0.081 A 
ATOM      9  C   UNL A   1      33.154  27.890  23.003  1.00  0.00     0.045 A 
ATOM     10  C   UNL A   1      34.136  27.738  23.978  1.00  0.00     0.027 A 
ATOM     11  C   UNL A   1      32.108  28.778  23.245  1.00  0.00     0.073 A 
ATOM     12  C   UNL A   1      33.935  28.249  25.263  1.00  0.00     0.020 A 
ATOM     13  C   UNL A   1      31.948  29.351  24.512  1.00  0.00     0.130 A 
BRANCH   9  14
ATOM     14  N   UNL A   1      33.147  27.177  21.790  1.00  0.00    -0.322 N 
ATOM     15  C   UNL A   1      32.761  25.896  21.496  1.00  0.00     0.248 C 
ATOM     16  O   UNL A   1      33.018  25.413  20.392  1.00  0.00    -0.270 OA
ATOM     17  H   UNL A   1      33.480  27.689  21.017  1.00  0.00     0.170 HD
BRANCH  15  18
ATOM     18  C   UNL A   1      32.014  25.062  22.469  1.00  0.00     0.072 C 
ATOM     19  C   UNL A   1      32.584  24.453  23.523  1.00  0.00     0.017 C 
BRANCH  19  20
ATOM     20  C   UNL A   1      31.914  23.539  24.381  1.00  0.00     0.013 A 
ATOM     21  C   UNL A   1      29.664  22.601  27.026  1.00  0.00     0.173 C 
ATOM     22  N   UNL A   1      30.612  22.742  25.947  1.00  0.00    -0.275 N 
ATOM     23  C   UNL A   1      30.936  23.890  25.283  1.00  0.00     0.116 A 
ATOM     24  N   UNL A   1      31.298  21.664  25.520  1.00  0.00    -0.181 NA
ATOM     25  C   UNL A   1      32.093  22.156  24.564  1.00  0.00     0.143 A 
ENDBRANCH  19  20
ENDBRANCH  15  18
ENDBRANCH   9  14
BRANCH  13  26
ATOM     26  O   UNL A   1      30.956  30.284  24.607  1.00  0.00    -0.507 OA
ATOM     27  H   UNL A   1      30.517  30.581  23.834  1.00  0.00     0.293 HD
ENDBRANCH  13  26
ENDBRANCH   5   8
ENDBRANCH   3   4
ENDBRANCH   2   3
ENDBRANCH   1   2
BRANCH   1  28
ATOM     28  C   UNL A   1      35.869  33.236  27.998  1.00  0.00     0.002 C 
BRANCH  28  29
ATOM     29  C   UNL A   1      34.793  34.323  27.989  1.00  0.00     0.021 C 
BRANCH  29  30
ATOM     30  C   UNL A   1      33.438  33.931  28.566  1.00  0.00     0.116 C 
BRANCH  30  31
ATOM     31  N   UNL A   1      32.946  34.874  29.556  1.00  0.00    -0.352 N 
ATOM     32  C   UNL A   1      33.365  35.081  30.848  1.00  0.00     0.251 C 
ATOM     33  H   UNL A   1      32.205  35.449  29.258  1.00  0.00     0.163 HD
ATOM     34  O   UNL A   1      32.732  35.846  31.577  1.00  0.00    -0.269 OA
BRANCH  32  35
ATOM     35  C   UNL A   1      34.552  34.372  31.374  1.00  0.00     0.039 A 
ATOM     36  C   UNL A   1      34.387  33.094  31.915  1.00  0.00     0.014 A 
ATOM     37  C   UNL A   1      35.820  34.959  31.341  1.00  0.00     0.014 A 
ATOM     38  C   UNL A   1      35.502  32.382  32.365  1.00  0.00     0.010 A 
ATOM     39  C   UNL A   1      36.938  34.217  31.715  1.00  0.00     0.010 A 
ATOM     40  C   UNL A   1      36.792  32.923  32.238  1.00  0.00    -0.014 A 
BRANCH  40  41
ATOM     41  C   UNL A   1      37.995  32.146  32.633  1.00  0.00     0.031 A 
ATOM     42  C   UNL A   1      38.713  32.449  33.922  1.00  0.00     0.074 A 
ATOM     43  C   UNL A   1      38.491  31.215  31.793  1.00  0.00     0.049 A 
ATOM     44  N   UNL A   1      39.788  31.894  34.417  1.00  0.00    -0.248 NA
ATOM     45  C   UNL A   1      38.165  33.536  34.748  1.00  0.00     0.031 C 
ATOM     46  C   UNL A   1      37.932  30.878  30.483  1.00  0.00     0.029 A 
ATOM     47  N   UNL A   1      39.587  30.398  31.907  1.00  0.00    -0.354 N 
ATOM     48  C   UNL A   1      40.066  32.583  35.591  1.00  0.00     0.074 A 
ATOM     49  C   UNL A   1      39.069  33.625  35.711  1.00  0.00     0.031 C 
ATOM     50  C   UNL A   1      38.676  29.910  29.925  1.00  0.00     0.029 A 
ATOM     51  C   UNL A   1      39.783  29.583  30.818  1.00  0.00     0.049 A 
ATOM     52  H   UNL A   1      40.178  30.394  32.696  1.00  0.00     0.167 HD
ATOM     53  C   UNL A   1      41.043  32.356  36.503  1.00  0.00     0.034 A 
ATOM     54  C   UNL A   1      40.746  28.676  30.562  1.00  0.00     0.034 A 
ATOM     55  C   UNL A   1      42.019  31.304  36.391  1.00  0.00     0.049 A 
ATOM     56  C   UNL A   1      41.812  28.429  31.594  1.00  0.00     0.074 A 
ATOM     57  C   UNL A   1      42.995  30.934  37.298  1.00  0.00     0.029 A 
ATOM     58  N   UNL A   1      42.154  30.464  35.296  1.00  0.00    -0.354 N 
ATOM     59  N   UNL A   1      41.967  28.985  32.771  1.00  0.00    -0.248 NA
ATOM     60  C   UNL A   1      42.817  27.406  31.275  1.00  0.00     0.031 C 
ATOM     61  C   UNL A   1      43.746  29.897  36.735  1.00  0.00     0.029 A 
ATOM     62  C   UNL A   1      43.211  29.590  35.494  1.00  0.00     0.049 A 
ATOM     63  H   UNL A   1      41.583  30.484  34.494  1.00  0.00     0.167 HD
ATOM     64  C   UNL A   1      43.062  28.354  33.350  1.00  0.00     0.074 A 
ATOM     65  C   UNL A   1      43.521  27.362  32.399  1.00  0.00     0.031 C 
ATOM     66  C   UNL A   1      43.638  28.581  34.557  1.00  0.00     0.034 A 
BRANCH  53  67
ATOM     67  C   UNL A   1      41.079  33.251  37.717  1.00  0.00     0.023 A 
ATOM     68  C   UNL A   1      40.351  32.894  38.873  1.00  0.00     0.012 A 
ATOM     69  C   UNL A   1      41.844  34.434  37.726  1.00  0.00     0.148 A 
ATOM     70  C   UNL A   1      40.337  33.725  39.992  1.00  0.00     0.002 A 
ATOM     71  C   UNL A   1      41.867  35.232  38.865  1.00  0.00     0.091 A 
ATOM     72  F   UNL A   1      42.515  34.771  36.616  1.00  0.00    -0.205 F 
ATOM     73  C   UNL A   1      41.100  34.889  39.991  1.00  0.00     0.022 A 
BRANCH  71  74
ATOM     74  S   UNL A   1      42.885  36.706  38.990  1.00  0.00     0.127 S 
ATOM     75  O   UNL A   1      44.198  36.134  39.280  1.00  0.00    -0.237 OA
ATOM     76  O   UNL A   1      42.755  37.286  37.652  1.00  0.00    -0.237 OA
ATOM     77  O   UNL A   1      42.298  37.507  40.055  1.00  0.00    -0.744 OA
ENDBRANCH  71  74
ENDBRANCH  53  67
BRANCH  54  78
ATOM     78  C   UNL A   1      40.692  27.877  29.305  1.00  0.00     0.023 A 
ATOM     79  C   UNL A   1      39.699  26.889  29.161  1.00  0.00     0.012 A 
ATOM     80  C   UNL A   1      41.580  28.122  28.239  1.00  0.00     0.148 A 
ATOM     81  C   UNL A   1      39.604  26.143  27.986  1.00  0.00     0.002 A 
ATOM     82  C   UNL A   1      41.445  27.412  27.052  1.00  0.00     0.091 A 
ATOM     83  F   UNL A   1      42.520  29.063  28.401  1.00  0.00    -0.205 F 
ATOM     84  C   UNL A   1      40.469  26.410  26.929  1.00  0.00     0.022 A 
BRANCH  82  85
ATOM     85  S   UNL A   1      42.427  27.772  25.592  1.00  0.00     0.127 S 
ATOM     86  O   UNL A   1      41.843  29.032  25.141  1.00  0.00    -0.237 OA
ATOM     87  O   UNL A   1      43.772  27.884  26.158  1.00  0.00    -0.237 OA
ATOM     88  O   UNL A   1      42.241  26.639  24.697  1.00  0.00    -0.744 OA
ENDBRANCH  82  85
ENDBRANCH  54  78
BRANCH  66  89
ATOM     89  C   UNL A   1      44.813  27.719  34.943  1.00  0.00     0.023 A 
ATOM     90  C   UNL A   1      46.127  28.162  34.692  1.00  0.00     0.012 A 
ATOM     91  C   UNL A   1      44.614  26.496  35.615  1.00  0.00     0.148 A 
ATOM     92  C   UNL A   1      47.223  27.385  35.071  1.00  0.00     0.002 A 
ATOM     93  C   UNL A   1      45.710  25.754  36.036  1.00  0.00     0.091 A 
ATOM     94  F   UNL A   1      43.357  26.081  35.828  1.00  0.00    -0.205 F 
ATOM     95  C   UNL A   1      47.015  26.189  35.753  1.00  0.00     0.022 A 
BRANCH  93  96
ATOM     96  S   UNL A   1      45.542  24.252  37.008  1.00  0.00     0.127 S 
ATOM     97  O   UNL A   1      44.857  23.364  36.069  1.00  0.00    -0.237 OA
ATOM     98  O   UNL A   1      46.936  23.899  37.276  1.00  0.00    -0.237 OA
ATOM     99  O   UNL A   1      44.774  24.621  38.190  1.00  0.00    -0.744 OA
ENDBRANCH  93  96
ENDBRANCH  66  89
ENDBRANCH  40  41
ENDBRANCH  32  35
ENDBRANCH  30  31
ENDBRANCH  29  30
ENDBRANCH  28  29
ENDBRANCH   1  28
TORSDOF 20
ENDMDL
