MODEL 1
REMARK VINA RESULT:     -11.8      0.000      0.000
REMARK SMILES CCC(=O)N1CCC[C@](C[C@H]2CC(c3ccc(C)cc3)=NO2)(C(=O)NCCCCCCNC(=O)c2ccc(-c3c4nc(c(-c5cccc(S(=O)(=O)[O-])c5F)c5ccc([nH]5)c(-c5cccc(S(=O)(=O)[O-])c5F)c5nc(c(-c6cccc(S(=O)(=O)[O-])c6F)c6ccc3[nH]6)C=C5)C=C4)cc2)C1
REMARK SMILES IDX 28 1 27 2 26 3 25 4 23 5 24 6 9 8 5 9 6 10 98 11 7 12 8 13
REMARK SMILES IDX 3 14 4 15 2 16 1 17 10 18 11 19 12 20 22 21 13 22 21 23
REMARK SMILES IDX 14 24 15 25 20 26 16 27 19 28 17 29 18 30 29 31 30 32 31 33
REMARK SMILES IDX 32 34 33 35 34 37 35 38 36 39 97 40 37 41 96 42 38 43 39 44
REMARK SMILES IDX 40 45 90 46 41 47 95 48 89 49 91 50 42 51 94 52 88 53 87 54
REMARK SMILES IDX 43 56 75 57 55 58 74 59 56 60 59 61 73 62 92 63 57 64 58 65
REMARK SMILES IDX 72 67 93 68 60 69 44 70 45 71 53 72 46 73 48 74 54 75 47 76
REMARK SMILES IDX 49 77 50 78 51 79 52 80 76 81 77 82 85 83 78 84 80 85 86 86
REMARK SMILES IDX 79 87 81 88 82 89 83 90 84 91 61 92 62 93 70 94 63 95 65 96
REMARK SMILES IDX 71 97 64 98 66 99 67 100 68 101 69 102
REMARK H PARENT 25 7 32 36 91 55 59 66
REMARK Flexibility Score: inf
ROOT
ATOM      1  C   UNL A   1      38.824  22.819  26.476  1.00  0.00     0.002 C 
ENDROOT
BRANCH   1   2
ATOM      2  C   UNL A   1      37.875  23.964  26.134  1.00  0.00     0.021 C 
BRANCH   2   3
ATOM      3  C   UNL A   1      36.568  23.572  25.470  1.00  0.00     0.116 C 
BRANCH   3   4
ATOM      4  N   UNL A   1      36.332  22.142  25.445  1.00  0.00    -0.356 N 
ATOM      5  C   UNL A   1      35.184  21.426  25.295  1.00  0.00     0.228 C 
ATOM      6  O   UNL A   1      35.332  20.250  24.945  1.00  0.00    -0.274 OA
ATOM      7  H   UNL A   1      37.143  21.594  25.555  1.00  0.00     0.163 HD
BRANCH   5   8
ATOM      8  C   UNL A   1      33.773  22.053  25.478  1.00  0.00     0.070 C 
ATOM      9  N   UNL A   1      32.533  20.471  23.939  1.00  0.00    -0.342 N 
ATOM     10  C   UNL A   1      32.291  21.504  22.949  1.00  0.00     0.119 C 
ATOM     11  C   UNL A   1      32.692  20.933  25.326  1.00  0.00     0.136 C 
ATOM     12  C   UNL A   1      33.400  22.533  22.952  1.00  0.00     0.023 C 
ATOM     13  C   UNL A   1      33.574  23.111  24.354  1.00  0.00     0.021 C 
BRANCH   9  14
ATOM     14  C   UNL A   1      32.552  19.158  23.492  1.00  0.00     0.222 C 
ATOM     15  O   UNL A   1      32.108  18.862  22.378  1.00  0.00    -0.275 OA
BRANCH  14  16
ATOM     16  C   UNL A   1      32.892  18.048  24.476  1.00  0.00     0.097 C 
ATOM     17  C   UNL A   1      33.452  16.759  23.925  1.00  0.00     0.014 C 
ENDBRANCH  14  16
ENDBRANCH   9  14
BRANCH   8  18
ATOM     18  C   UNL A   1      33.818  22.827  26.847  1.00  0.00     0.067 C 
BRANCH  18  19
ATOM     19  C   UNL A   1      32.657  23.672  27.391  1.00  0.00     0.211 C 
ATOM     20  C   UNL A   1      32.504  25.068  26.837  1.00  0.00     0.108 C 
ATOM     21  O   UNL A   1      31.396  23.020  27.240  1.00  0.00    -0.392 OA
ATOM     22  C   UNL A   1      31.225  24.882  26.113  1.00  0.00     0.091 C 
ATOM     23  N   UNL A   1      30.588  23.788  26.368  1.00  0.00    -0.090 NA
BRANCH  22  24
ATOM     24  C   UNL A   1      30.703  25.938  25.244  1.00  0.00    -0.001 A 
ATOM     25  C   UNL A   1      29.596  25.703  24.430  1.00  0.00     0.010 A 
ATOM     26  C   UNL A   1      31.355  27.170  25.226  1.00  0.00     0.010 A 
ATOM     27  C   UNL A   1      29.141  26.708  23.577  1.00  0.00     0.004 A 
ATOM     28  C   UNL A   1      30.912  28.164  24.354  1.00  0.00     0.004 A 
ATOM     29  C   UNL A   1      29.805  27.939  23.524  1.00  0.00    -0.051 A 
ATOM     30  C   UNL A   1      29.357  29.006  22.571  1.00  0.00     0.044 C 
ENDBRANCH  22  24
ENDBRANCH  18  19
ENDBRANCH   8  18
ENDBRANCH   5   8
ENDBRANCH   3   4
ENDBRANCH   2   3
ENDBRANCH   1   2
BRANCH   1  31
ATOM     31  C   UNL A   1      40.043  23.138  27.352  1.00  0.00     0.002 C 
BRANCH  31  32
ATOM     32  C   UNL A   1      41.332  22.320  27.170  1.00  0.00     0.021 C 
BRANCH  32  33
ATOM     33  C   UNL A   1      41.759  22.077  25.738  1.00  0.00     0.116 C 
BRANCH  33  34
ATOM     34  N   UNL A   1      42.947  21.241  25.671  1.00  0.00    -0.352 N 
ATOM     35  C   UNL A   1      44.253  21.628  25.490  1.00  0.00     0.251 C 
ATOM     36  H   UNL A   1      42.795  20.273  25.769  1.00  0.00     0.163 HD
ATOM     37  O   UNL A   1      44.978  20.897  24.804  1.00  0.00    -0.269 OA
BRANCH  35  38
ATOM     38  C   UNL A   1      44.789  22.810  26.189  1.00  0.00     0.039 A 
ATOM     39  C   UNL A   1      44.937  22.828  27.581  1.00  0.00     0.014 A 
ATOM     40  C   UNL A   1      44.910  23.998  25.475  1.00  0.00     0.014 A 
ATOM     41  C   UNL A   1      44.990  24.059  28.232  1.00  0.00     0.010 A 
ATOM     42  C   UNL A   1      45.263  25.154  26.081  1.00  0.00     0.010 A 
ATOM     43  C   UNL A   1      45.050  25.202  27.448  1.00  0.00    -0.014 A 
BRANCH  43  44
ATOM     44  C   UNL A   1      44.751  26.554  27.854  1.00  0.00     0.031 A 
ATOM     45  C   UNL A   1      43.377  27.016  27.735  1.00  0.00     0.074 A 
ATOM     46  C   UNL A   1      45.676  27.118  28.668  1.00  0.00     0.049 A 
ATOM     47  N   UNL A   1      43.024  28.237  27.878  1.00  0.00    -0.248 NA
ATOM     48  C   UNL A   1      42.277  26.107  27.437  1.00  0.00     0.031 C 
ATOM     49  C   UNL A   1      45.504  28.086  29.742  1.00  0.00     0.029 A 
ATOM     50  N   UNL A   1      47.041  26.871  28.705  1.00  0.00    -0.354 N 
ATOM     51  C   UNL A   1      41.655  28.233  28.014  1.00  0.00     0.074 A 
ATOM     52  C   UNL A   1      41.229  26.917  27.600  1.00  0.00     0.031 C 
ATOM     53  C   UNL A   1      46.716  28.522  30.141  1.00  0.00     0.029 A 
ATOM     54  C   UNL A   1      47.701  27.984  29.212  1.00  0.00     0.049 A 
ATOM     55  H   UNL A   1      47.474  26.036  28.416  1.00  0.00     0.167 HD
ATOM     56  C   UNL A   1      41.074  29.277  28.662  1.00  0.00     0.034 A 
ATOM     57  C   UNL A   1      48.465  28.737  28.356  1.00  0.00     0.034 A 
ATOM     58  C   UNL A   1      42.111  30.224  29.113  1.00  0.00     0.049 A 
ATOM     59  C   UNL A   1      47.821  30.082  28.048  1.00  0.00     0.074 A 
ATOM     60  C   UNL A   1      42.772  30.375  30.324  1.00  0.00     0.029 A 
ATOM     61  N   UNL A   1      42.875  30.904  28.169  1.00  0.00    -0.354 N 
ATOM     62  N   UNL A   1      46.593  30.400  28.358  1.00  0.00    -0.248 NA
ATOM     63  C   UNL A   1      48.521  31.184  27.398  1.00  0.00     0.031 C 
ATOM     64  C   UNL A   1      43.978  31.092  30.082  1.00  0.00     0.029 A 
ATOM     65  C   UNL A   1      44.044  31.401  28.734  1.00  0.00     0.049 A 
ATOM     66  H   UNL A   1      42.621  31.018  27.225  1.00  0.00     0.167 HD
ATOM     67  C   UNL A   1      46.284  31.643  27.877  1.00  0.00     0.074 A 
ATOM     68  C   UNL A   1      47.556  32.120  27.354  1.00  0.00     0.031 C 
ATOM     69  C   UNL A   1      45.004  32.141  27.913  1.00  0.00     0.034 A 
BRANCH  56  70
ATOM     70  C   UNL A   1      39.654  29.272  29.194  1.00  0.00     0.023 A 
ATOM     71  C   UNL A   1      38.614  29.283  28.237  1.00  0.00     0.012 A 
ATOM     72  C   UNL A   1      39.250  29.279  30.550  1.00  0.00     0.148 A 
ATOM     73  C   UNL A   1      37.266  29.382  28.590  1.00  0.00     0.002 A 
ATOM     74  C   UNL A   1      37.906  29.438  30.906  1.00  0.00     0.091 A 
ATOM     75  F   UNL A   1      40.149  29.051  31.514  1.00  0.00    -0.205 F 
ATOM     76  C   UNL A   1      36.912  29.489  29.925  1.00  0.00     0.022 A 
BRANCH  74  77
ATOM     77  S   UNL A   1      37.363  29.650  32.612  1.00  0.00     0.127 S 
ATOM     78  O   UNL A   1      38.369  30.571  33.144  1.00  0.00    -0.237 OA
ATOM     79  O   UNL A   1      36.033  30.234  32.450  1.00  0.00    -0.237 OA
ATOM     80  O   UNL A   1      37.398  28.323  33.216  1.00  0.00    -0.744 OA
ENDBRANCH  74  77
ENDBRANCH  56  70
BRANCH  57  81
ATOM     81  C   UNL A   1      49.192  27.867  27.361  1.00  0.00     0.023 A 
ATOM     82  C   UNL A   1      50.009  26.840  27.902  1.00  0.00     0.012 A 
ATOM     83  C   UNL A   1      48.723  27.722  26.042  1.00  0.00     0.148 A 
ATOM     84  C   UNL A   1      50.150  25.616  27.243  1.00  0.00     0.002 A 
ATOM     85  C   UNL A   1      48.889  26.503  25.381  1.00  0.00     0.091 A 
ATOM     86  F   UNL A   1      48.070  28.744  25.473  1.00  0.00    -0.205 F 
ATOM     87  C   UNL A   1      49.544  25.429  26.005  1.00  0.00     0.022 A 
BRANCH  85  88
ATOM     88  S   UNL A   1      48.181  26.246  23.748  1.00  0.00     0.127 S 
ATOM     89  O   UNL A   1      47.889  24.816  23.775  1.00  0.00    -0.237 OA
ATOM     90  O   UNL A   1      46.996  27.104  23.754  1.00  0.00    -0.237 OA
ATOM     91  O   UNL A   1      49.219  26.677  22.823  1.00  0.00    -0.744 OA
ENDBRANCH  85  88
ENDBRANCH  57  81
BRANCH  69  92
ATOM     92  C   UNL A   1      44.522  33.386  27.180  1.00  0.00     0.023 A 
ATOM     93  C   UNL A   1      44.121  33.361  25.832  1.00  0.00     0.012 A 
ATOM     94  C   UNL A   1      44.325  34.614  27.869  1.00  0.00     0.148 A 
ATOM     95  C   UNL A   1      43.634  34.499  25.179  1.00  0.00     0.002 A 
ATOM     96  C   UNL A   1      43.707  35.698  27.254  1.00  0.00     0.091 A 
ATOM     97  F   UNL A   1      44.765  34.762  29.126  1.00  0.00    -0.205 F 
ATOM     98  C   UNL A   1      43.401  35.660  25.896  1.00  0.00     0.022 A 
BRANCH  96  99
ATOM     99  S   UNL A   1      43.135  37.114  28.205  1.00  0.00     0.127 S 
ATOM    100  O   UNL A   1      42.777  36.496  29.479  1.00  0.00    -0.237 OA
ATOM    101  O   UNL A   1      44.332  37.957  28.251  1.00  0.00    -0.237 OA
ATOM    102  O   UNL A   1      42.037  37.681  27.435  1.00  0.00    -0.744 OA
ENDBRANCH  96  99
ENDBRANCH  69  92
ENDBRANCH  43  44
ENDBRANCH  35  38
ENDBRANCH  33  34
ENDBRANCH  32  33
ENDBRANCH  31  32
ENDBRANCH   1  31
TORSDOF 21
ENDMDL
MODEL 2
REMARK VINA RESULT:     -11.8      2.982      5.362
REMARK SMILES CCC(=O)N1CCC[C@](C[C@H]2CC(c3ccc(C)cc3)=NO2)(C(=O)NCCCCCCNC(=O)c2ccc(-c3c4nc(c(-c5cccc(S(=O)(=O)[O-])c5F)c5ccc([nH]5)c(-c5cccc(S(=O)(=O)[O-])c5F)c5nc(c(-c6cccc(S(=O)(=O)[O-])c6F)c6ccc3[nH]6)C=C5)C=C4)cc2)C1
REMARK SMILES IDX 28 1 27 2 26 3 25 4 23 5 24 6 9 8 5 9 6 10 98 11 7 12 8 13
REMARK SMILES IDX 3 14 4 15 2 16 1 17 10 18 11 19 12 20 22 21 13 22 21 23
REMARK SMILES IDX 14 24 15 25 20 26 16 27 19 28 17 29 18 30 29 31 30 32 31 33
REMARK SMILES IDX 32 34 33 35 34 37 35 38 36 39 97 40 37 41 96 42 38 43 39 44
REMARK SMILES IDX 40 45 90 46 41 47 95 48 89 49 91 50 42 51 94 52 88 53 87 54
REMARK SMILES IDX 43 56 75 57 55 58 74 59 56 60 59 61 73 62 92 63 57 64 58 65
REMARK SMILES IDX 72 67 93 68 60 69 44 70 45 71 53 72 46 73 48 74 54 75 47 76
REMARK SMILES IDX 49 77 50 78 51 79 52 80 76 81 77 82 85 83 78 84 80 85 86 86
REMARK SMILES IDX 79 87 81 88 82 89 83 90 84 91 61 92 62 93 70 94 63 95 65 96
REMARK SMILES IDX 71 97 64 98 66 99 67 100 68 101 69 102
REMARK H PARENT 25 7 32 36 91 55 59 66
REMARK Flexibility Score: inf
ROOT
ATOM      1  C   UNL A   1      36.882  23.883  25.472  1.00  0.00     0.002 C 
ENDROOT
BRANCH   1   2
ATOM      2  C   UNL A   1      35.577  23.980  24.687  1.00  0.00     0.021 C 
BRANCH   2   3
ATOM      3  C   UNL A   1      34.683  25.159  25.021  1.00  0.00     0.116 C 
BRANCH   3   4
ATOM      4  N   UNL A   1      33.836  25.578  23.922  1.00  0.00    -0.356 N 
ATOM      5  C   UNL A   1      32.778  26.434  23.882  1.00  0.00     0.228 C 
ATOM      6  O   UNL A   1      32.493  26.878  22.764  1.00  0.00    -0.274 OA
ATOM      7  H   UNL A   1      34.066  25.175  23.054  1.00  0.00     0.163 HD
BRANCH   5   8
ATOM      8  C   UNL A   1      32.015  26.887  25.160  1.00  0.00     0.070 C 
ATOM      9  N   UNL A   1      30.663  28.730  24.071  1.00  0.00    -0.342 N 
ATOM     10  C   UNL A   1      31.391  29.777  24.767  1.00  0.00     0.119 C 
ATOM     11  C   UNL A   1      30.606  27.427  24.750  1.00  0.00     0.136 C 
ATOM     12  C   UNL A   1      32.817  29.356  25.047  1.00  0.00     0.023 C 
ATOM     13  C   UNL A   1      32.832  28.038  25.816  1.00  0.00     0.021 C 
BRANCH   9  14
ATOM     14  C   UNL A   1      30.067  29.068  22.866  1.00  0.00     0.222 C 
ATOM     15  O   UNL A   1      30.380  28.492  21.820  1.00  0.00    -0.275 OA
BRANCH  14  16
ATOM     16  C   UNL A   1      29.206  30.322  22.796  1.00  0.00     0.097 C 
ATOM     17  C   UNL A   1      27.765  30.219  23.233  1.00  0.00     0.014 C 
ENDBRANCH  14  16
ENDBRANCH   9  14
BRANCH   8  18
ATOM     18  C   UNL A   1      32.057  25.662  26.145  1.00  0.00     0.067 C 
BRANCH  18  19
ATOM     19  C   UNL A   1      31.135  24.440  26.030  1.00  0.00     0.211 C 
ATOM     20  C   UNL A   1      31.434  23.453  24.928  1.00  0.00     0.108 C 
ATOM     21  O   UNL A   1      31.063  23.699  27.249  1.00  0.00    -0.392 OA
ATOM     22  C   UNL A   1      31.843  22.301  25.765  1.00  0.00     0.091 C 
ATOM     23  N   UNL A   1      31.596  22.406  27.028  1.00  0.00    -0.090 NA
BRANCH  22  24
ATOM     24  C   UNL A   1      32.403  21.097  25.149  1.00  0.00    -0.001 A 
ATOM     25  C   UNL A   1      31.906  20.626  23.934  1.00  0.00     0.010 A 
ATOM     26  C   UNL A   1      33.421  20.417  25.816  1.00  0.00     0.010 A 
ATOM     27  C   UNL A   1      32.423  19.454  23.385  1.00  0.00     0.004 A 
ATOM     28  C   UNL A   1      33.918  19.231  25.276  1.00  0.00     0.004 A 
ATOM     29  C   UNL A   1      33.422  18.742  24.059  1.00  0.00    -0.051 A 
ATOM     30  C   UNL A   1      33.946  17.451  23.504  1.00  0.00     0.044 C 
ENDBRANCH  22  24
ENDBRANCH  18  19
ENDBRANCH   8  18
ENDBRANCH   5   8
ENDBRANCH   3   4
ENDBRANCH   2   3
ENDBRANCH   1   2
BRANCH   1  31
ATOM     31  C   UNL A   1      37.492  22.490  25.677  1.00  0.00     0.002 C 
BRANCH  31  32
ATOM     32  C   UNL A   1      38.790  22.352  26.490  1.00  0.00     0.021 C 
BRANCH  32  33
ATOM     33  C   UNL A   1      39.933  21.649  25.790  1.00  0.00     0.116 C 
BRANCH  33  34
ATOM     34  N   UNL A   1      41.169  21.758  26.548  1.00  0.00    -0.352 N 
ATOM     35  C   UNL A   1      41.948  22.871  26.754  1.00  0.00     0.251 C 
ATOM     36  H   UNL A   1      41.488  20.927  26.969  1.00  0.00     0.163 HD
ATOM     37  O   UNL A   1      43.176  22.716  26.779  1.00  0.00    -0.269 OA
BRANCH  35  38
ATOM     38  C   UNL A   1      41.329  24.175  27.052  1.00  0.00     0.039 A 
ATOM     39  C   UNL A   1      41.377  25.232  26.134  1.00  0.00     0.014 A 
ATOM     40  C   UNL A   1      40.914  24.425  28.356  1.00  0.00     0.014 A 
ATOM     41  C   UNL A   1      41.214  26.533  26.602  1.00  0.00     0.010 A 
ATOM     42  C   UNL A   1      40.465  25.643  28.735  1.00  0.00     0.010 A 
ATOM     43  C   UNL A   1      40.857  26.701  27.933  1.00  0.00    -0.014 A 
BRANCH  43  44
ATOM     44  C   UNL A   1      40.985  27.901  28.724  1.00  0.00     0.031 A 
ATOM     45  C   UNL A   1      39.969  28.931  28.573  1.00  0.00     0.074 A 
ATOM     46  C   UNL A   1      41.797  27.783  29.802  1.00  0.00     0.049 A 
ATOM     47  N   UNL A   1      40.073  30.106  29.069  1.00  0.00    -0.248 NA
ATOM     48  C   UNL A   1      38.734  28.700  27.834  1.00  0.00     0.031 C 
ATOM     49  C   UNL A   1      41.715  28.431  31.104  1.00  0.00     0.029 A 
ATOM     50  N   UNL A   1      42.907  26.963  29.947  1.00  0.00    -0.354 N 
ATOM     51  C   UNL A   1      38.819  30.668  29.000  1.00  0.00     0.074 A 
ATOM     52  C   UNL A   1      38.062  29.819  28.111  1.00  0.00     0.031 C 
ATOM     53  C   UNL A   1      42.846  28.179  31.794  1.00  0.00     0.029 A 
ATOM     54  C   UNL A   1      43.771  27.512  30.888  1.00  0.00     0.049 A 
ATOM     55  H   UNL A   1      43.059  26.123  29.459  1.00  0.00     0.167 HD
ATOM     56  C   UNL A   1      38.517  31.666  29.872  1.00  0.00     0.034 A 
ATOM     57  C   UNL A   1      44.961  28.040  30.452  1.00  0.00     0.034 A 
ATOM     58  C   UNL A   1      39.669  31.920  30.758  1.00  0.00     0.049 A 
ATOM     59  C   UNL A   1      44.973  29.560  30.528  1.00  0.00     0.074 A 
ATOM     60  C   UNL A   1      39.985  31.463  32.029  1.00  0.00     0.029 A 
ATOM     61  N   UNL A   1      40.855  32.406  30.217  1.00  0.00    -0.354 N 
ATOM     62  N   UNL A   1      43.918  30.297  30.749  1.00  0.00    -0.248 NA
ATOM     63  C   UNL A   1      46.180  30.367  30.393  1.00  0.00     0.031 C 
ATOM     64  C   UNL A   1      41.388  31.615  32.217  1.00  0.00     0.029 A 
ATOM     65  C   UNL A   1      41.925  32.185  31.075  1.00  0.00     0.049 A 
ATOM     66  H   UNL A   1      40.927  32.849  29.340  1.00  0.00     0.167 HD
ATOM     67  C   UNL A   1      44.236  31.625  30.676  1.00  0.00     0.074 A 
ATOM     68  C   UNL A   1      45.684  31.610  30.531  1.00  0.00     0.031 C 
ATOM     69  C   UNL A   1      43.276  32.607  30.697  1.00  0.00     0.034 A 
BRANCH  56  70
ATOM     70  C   UNL A   1      37.111  32.152  30.164  1.00  0.00     0.023 A 
ATOM     71  C   UNL A   1      36.542  31.757  31.396  1.00  0.00     0.012 A 
ATOM     72  C   UNL A   1      36.290  32.945  29.327  1.00  0.00     0.148 A 
ATOM     73  C   UNL A   1      35.221  32.050  31.744  1.00  0.00     0.002 A 
ATOM     74  C   UNL A   1      34.949  33.188  29.645  1.00  0.00     0.091 A 
ATOM     75  F   UNL A   1      36.815  33.541  28.252  1.00  0.00    -0.205 F 
ATOM     76  C   UNL A   1      34.413  32.741  30.856  1.00  0.00     0.022 A 
BRANCH  74  77
ATOM     77  S   UNL A   1      33.812  34.023  28.523  1.00  0.00     0.127 S 
ATOM     78  O   UNL A   1      33.266  32.905  27.749  1.00  0.00    -0.237 OA
ATOM     79  O   UNL A   1      32.860  34.644  29.442  1.00  0.00    -0.237 OA
ATOM     80  O   UNL A   1      34.621  34.945  27.737  1.00  0.00    -0.744 OA
ENDBRANCH  74  77
ENDBRANCH  56  70
BRANCH  57  81
ATOM     81  C   UNL A   1      45.551  27.214  29.336  1.00  0.00     0.023 A 
ATOM     82  C   UNL A   1      45.788  25.844  29.624  1.00  0.00     0.012 A 
ATOM     83  C   UNL A   1      45.401  27.597  27.991  1.00  0.00     0.148 A 
ATOM     84  C   UNL A   1      45.641  24.869  28.634  1.00  0.00     0.002 A 
ATOM     85  C   UNL A   1      45.278  26.616  27.004  1.00  0.00     0.091 A 
ATOM     86  F   UNL A   1      45.316  28.901  27.696  1.00  0.00    -0.205 F 
ATOM     87  C   UNL A   1      45.333  25.252  27.333  1.00  0.00     0.022 A 
BRANCH  85  88
ATOM     88  S   UNL A   1      44.951  27.076  25.296  1.00  0.00     0.127 S 
ATOM     89  O   UNL A   1      46.193  27.753  24.930  1.00  0.00    -0.237 OA
ATOM     90  O   UNL A   1      44.749  25.788  24.631  1.00  0.00    -0.237 OA
ATOM     91  O   UNL A   1      43.757  27.905  25.358  1.00  0.00    -0.744 OA
ENDBRANCH  85  88
ENDBRANCH  57  81
BRANCH  69  92
ATOM     92  C   UNL A   1      43.509  34.074  30.365  1.00  0.00     0.023 A 
ATOM     93  C   UNL A   1      43.882  35.019  31.338  1.00  0.00     0.012 A 
ATOM     94  C   UNL A   1      43.492  34.536  29.020  1.00  0.00     0.148 A 
ATOM     95  C   UNL A   1      44.142  36.357  31.018  1.00  0.00     0.002 A 
ATOM     96  C   UNL A   1      43.890  35.828  28.692  1.00  0.00     0.091 A 
ATOM     97  F   UNL A   1      43.056  33.736  28.037  1.00  0.00    -0.205 F 
ATOM     98  C   UNL A   1      44.173  36.756  29.692  1.00  0.00     0.022 A 
BRANCH  96  99
ATOM     99  S   UNL A   1      44.213  36.305  26.988  1.00  0.00     0.127 S 
ATOM    100  O   UNL A   1      43.002  35.846  26.312  1.00  0.00    -0.237 OA
ATOM    101  O   UNL A   1      44.337  37.760  27.094  1.00  0.00    -0.237 OA
ATOM    102  O   UNL A   1      45.448  35.626  26.622  1.00  0.00    -0.744 OA
ENDBRANCH  96  99
ENDBRANCH  69  92
ENDBRANCH  43  44
ENDBRANCH  35  38
ENDBRANCH  33  34
ENDBRANCH  32  33
ENDBRANCH  31  32
ENDBRANCH   1  31
TORSDOF 21
ENDMDL
MODEL 3
REMARK VINA RESULT:     -11.5      4.490      9.708
REMARK SMILES CCC(=O)N1CCC[C@](C[C@H]2CC(c3ccc(C)cc3)=NO2)(C(=O)NCCCCCCNC(=O)c2ccc(-c3c4nc(c(-c5cccc(S(=O)(=O)[O-])c5F)c5ccc([nH]5)c(-c5cccc(S(=O)(=O)[O-])c5F)c5nc(c(-c6cccc(S(=O)(=O)[O-])c6F)c6ccc3[nH]6)C=C5)C=C4)cc2)C1
REMARK SMILES IDX 28 1 27 2 26 3 25 4 23 5 24 6 9 8 5 9 6 10 98 11 7 12 8 13
REMARK SMILES IDX 3 14 4 15 2 16 1 17 10 18 11 19 12 20 22 21 13 22 21 23
REMARK SMILES IDX 14 24 15 25 20 26 16 27 19 28 17 29 18 30 29 31 30 32 31 33
REMARK SMILES IDX 32 34 33 35 34 37 35 38 36 39 97 40 37 41 96 42 38 43 39 44
REMARK SMILES IDX 40 45 90 46 41 47 95 48 89 49 91 50 42 51 94 52 88 53 87 54
REMARK SMILES IDX 43 56 75 57 55 58 74 59 56 60 59 61 73 62 92 63 57 64 58 65
REMARK SMILES IDX 72 67 93 68 60 69 44 70 45 71 53 72 46 73 48 74 54 75 47 76
REMARK SMILES IDX 49 77 50 78 51 79 52 80 76 81 77 82 85 83 78 84 80 85 86 86
REMARK SMILES IDX 79 87 81 88 82 89 83 90 84 91 61 92 62 93 70 94 63 95 65 96
REMARK SMILES IDX 71 97 64 98 66 99 67 100 68 101 69 102
REMARK H PARENT 25 7 32 36 91 55 59 66
REMARK Flexibility Score: inf
ROOT
ATOM      1  C   UNL A   1      36.234  23.626  26.084  1.00  0.00     0.002 C 
ENDROOT
BRANCH   1   2
ATOM      2  C   UNL A   1      35.567  23.929  24.745  1.00  0.00     0.021 C 
BRANCH   2   3
ATOM      3  C   UNL A   1      34.936  22.748  24.030  1.00  0.00     0.116 C 
BRANCH   3   4
ATOM      4  N   UNL A   1      35.429  21.462  24.483  1.00  0.00    -0.356 N 
ATOM      5  C   UNL A   1      34.774  20.307  24.782  1.00  0.00     0.228 C 
ATOM      6  O   UNL A   1      35.468  19.284  24.780  1.00  0.00    -0.274 OA
ATOM      7  H   UNL A   1      36.407  21.416  24.592  1.00  0.00     0.163 HD
BRANCH   5   8
ATOM      8  C   UNL A   1      33.241  20.253  25.041  1.00  0.00     0.070 C 
ATOM      9  N   UNL A   1      32.884  17.870  24.264  1.00  0.00    -0.342 N 
ATOM     10  C   UNL A   1      32.143  18.286  23.086  1.00  0.00     0.119 C 
ATOM     11  C   UNL A   1      32.836  18.789  25.411  1.00  0.00     0.136 C 
ATOM     12  C   UNL A   1      32.613  19.638  22.596  1.00  0.00     0.023 C 
ATOM     13  C   UNL A   1      32.523  20.663  23.723  1.00  0.00     0.021 C 
BRANCH   9  14
ATOM     14  C   UNL A   1      33.525  16.642  24.206  1.00  0.00     0.222 C 
ATOM     15  O   UNL A   1      34.015  16.232  23.150  1.00  0.00    -0.275 OA
BRANCH  14  16
ATOM     16  C   UNL A   1      33.404  15.691  25.389  1.00  0.00     0.097 C 
ATOM     17  C   UNL A   1      32.025  15.223  25.785  1.00  0.00     0.014 C 
ENDBRANCH  14  16
ENDBRANCH   9  14
BRANCH   8  18
ATOM     18  C   UNL A   1      32.943  21.372  26.105  1.00  0.00     0.067 C 
BRANCH  18  19
ATOM     19  C   UNL A   1      31.786  22.375  25.990  1.00  0.00     0.211 C 
ATOM     20  C   UNL A   1      31.830  23.582  26.895  1.00  0.00     0.108 C 
ATOM     21  O   UNL A   1      31.617  22.856  24.657  1.00  0.00    -0.392 OA
ATOM     22  C   UNL A   1      32.030  24.627  25.864  1.00  0.00     0.091 C 
ATOM     23  N   UNL A   1      31.864  24.250  24.640  1.00  0.00    -0.090 NA
BRANCH  22  24
ATOM     24  C   UNL A   1      32.305  26.012  26.253  1.00  0.00    -0.001 A 
ATOM     25  C   UNL A   1      31.342  26.764  26.925  1.00  0.00     0.010 A 
ATOM     26  C   UNL A   1      33.536  26.569  25.911  1.00  0.00     0.010 A 
ATOM     27  C   UNL A   1      31.607  28.093  27.247  1.00  0.00     0.004 A 
ATOM     28  C   UNL A   1      33.788  27.906  26.215  1.00  0.00     0.004 A 
ATOM     29  C   UNL A   1      32.826  28.677  26.883  1.00  0.00    -0.051 A 
ATOM     30  C   UNL A   1      33.099  30.121  27.177  1.00  0.00     0.044 C 
ENDBRANCH  22  24
ENDBRANCH  18  19
ENDBRANCH   8  18
ENDBRANCH   5   8
ENDBRANCH   3   4
ENDBRANCH   2   3
ENDBRANCH   1   2
BRANCH   1  31
ATOM     31  C   UNL A   1      37.714  23.223  26.071  1.00  0.00     0.002 C 
BRANCH  31  32
ATOM     32  C   UNL A   1      38.786  24.302  26.295  1.00  0.00     0.021 C 
BRANCH  32  33
ATOM     33  C   UNL A   1      39.273  24.458  27.720  1.00  0.00     0.116 C 
BRANCH  33  34
ATOM     34  N   UNL A   1      39.505  25.854  28.053  1.00  0.00    -0.352 N 
ATOM     35  C   UNL A   1      40.560  26.403  28.741  1.00  0.00     0.251 C 
ATOM     36  H   UNL A   1      38.817  26.488  27.745  1.00  0.00     0.163 HD
ATOM     37  O   UNL A   1      40.320  27.349  29.502  1.00  0.00    -0.269 OA
BRANCH  35  38
ATOM     38  C   UNL A   1      41.939  25.949  28.486  1.00  0.00     0.039 A 
ATOM     39  C   UNL A   1      42.352  24.651  28.813  1.00  0.00     0.014 A 
ATOM     40  C   UNL A   1      42.894  26.902  28.147  1.00  0.00     0.014 A 
ATOM     41  C   UNL A   1      43.711  24.408  28.996  1.00  0.00     0.010 A 
ATOM     42  C   UNL A   1      44.203  26.583  28.033  1.00  0.00     0.010 A 
ATOM     43  C   UNL A   1      44.598  25.432  28.691  1.00  0.00    -0.014 A 
BRANCH  43  44
ATOM     44  C   UNL A   1      45.968  25.556  29.127  1.00  0.00     0.031 A 
ATOM     45  C   UNL A   1      47.019  25.192  28.191  1.00  0.00     0.074 A 
ATOM     46  C   UNL A   1      46.149  26.364  30.200  1.00  0.00     0.049 A 
ATOM     47  N   UNL A   1      48.250  25.075  28.518  1.00  0.00    -0.248 NA
ATOM     48  C   UNL A   1      46.747  24.926  26.784  1.00  0.00     0.031 C 
ATOM     49  C   UNL A   1      47.275  27.224  30.537  1.00  0.00     0.029 A 
ATOM     50  N   UNL A   1      45.264  26.610  31.240  1.00  0.00    -0.354 N 
ATOM     51  C   UNL A   1      48.963  25.043  27.342  1.00  0.00     0.074 A 
ATOM     52  C   UNL A   1      47.987  24.817  26.303  1.00  0.00     0.031 C 
ATOM     53  C   UNL A   1      47.116  27.685  31.795  1.00  0.00     0.029 A 
ATOM     54  C   UNL A   1      45.974  26.991  32.373  1.00  0.00     0.049 A 
ATOM     55  H   UNL A   1      44.285  26.526  31.184  1.00  0.00     0.167 HD
ATOM     56  C   UNL A   1      50.269  25.423  27.374  1.00  0.00     0.034 A 
ATOM     57  C   UNL A   1      46.039  26.115  33.428  1.00  0.00     0.034 A 
ATOM     58  C   UNL A   1      50.638  25.824  28.745  1.00  0.00     0.049 A 
ATOM     59  C   UNL A   1      47.425  25.501  33.576  1.00  0.00     0.074 A 
ATOM     60  C   UNL A   1      50.689  27.060  29.372  1.00  0.00     0.029 A 
ATOM     61  N   UNL A   1      50.623  24.875  29.764  1.00  0.00    -0.354 N 
ATOM     62  N   UNL A   1      48.374  25.599  32.684  1.00  0.00    -0.248 NA
ATOM     63  C   UNL A   1      47.859  24.758  34.753  1.00  0.00     0.031 C 
ATOM     64  C   UNL A   1      50.634  26.845  30.778  1.00  0.00     0.029 A 
ATOM     65  C   UNL A   1      50.572  25.482  31.013  1.00  0.00     0.049 A 
ATOM     66  H   UNL A   1      50.646  23.902  29.618  1.00  0.00     0.167 HD
ATOM     67  C   UNL A   1      49.468  24.874  33.068  1.00  0.00     0.074 A 
ATOM     68  C   UNL A   1      49.119  24.434  34.411  1.00  0.00     0.031 C 
ATOM     69  C   UNL A   1      50.537  24.667  32.229  1.00  0.00     0.034 A 
BRANCH  56  70
ATOM     70  C   UNL A   1      51.090  25.771  26.148  1.00  0.00     0.023 A 
ATOM     71  C   UNL A   1      52.228  24.972  25.895  1.00  0.00     0.012 A 
ATOM     72  C   UNL A   1      50.856  26.826  25.235  1.00  0.00     0.148 A 
ATOM     73  C   UNL A   1      53.125  25.246  24.860  1.00  0.00     0.002 A 
ATOM     74  C   UNL A   1      51.784  27.140  24.235  1.00  0.00     0.091 A 
ATOM     75  F   UNL A   1      49.696  27.491  25.269  1.00  0.00    -0.205 F 
ATOM     76  C   UNL A   1      52.920  26.349  24.047  1.00  0.00     0.022 A 
BRANCH  74  77
ATOM     77  S   UNL A   1      51.630  28.590  23.175  1.00  0.00     0.127 S 
ATOM     78  O   UNL A   1      51.619  29.684  24.149  1.00  0.00    -0.237 OA
ATOM     79  O   UNL A   1      52.840  28.516  22.361  1.00  0.00    -0.237 OA
ATOM     80  O   UNL A   1      50.374  28.431  22.452  1.00  0.00    -0.744 OA
ENDBRANCH  74  77
ENDBRANCH  56  70
BRANCH  57  81
ATOM     81  C   UNL A   1      44.733  25.383  33.615  1.00  0.00     0.023 A 
ATOM     82  C   UNL A   1      44.747  23.991  33.340  1.00  0.00     0.012 A 
ATOM     83  C   UNL A   1      43.735  25.886  34.469  1.00  0.00     0.148 A 
ATOM     84  C   UNL A   1      43.950  23.108  34.075  1.00  0.00     0.002 A 
ATOM     85  C   UNL A   1      42.926  24.998  35.183  1.00  0.00     0.091 A 
ATOM     86  F   UNL A   1      43.626  27.212  34.626  1.00  0.00    -0.205 F 
ATOM     87  C   UNL A   1      43.078  23.609  35.035  1.00  0.00     0.022 A 
BRANCH  85  88
ATOM     88  S   UNL A   1      41.734  25.610  36.382  1.00  0.00     0.127 S 
ATOM     89  O   UNL A   1      42.600  26.313  37.326  1.00  0.00    -0.237 OA
ATOM     90  O   UNL A   1      40.873  26.486  35.587  1.00  0.00    -0.237 OA
ATOM     91  O   UNL A   1      41.065  24.418  36.881  1.00  0.00    -0.744 OA
ENDBRANCH  85  88
ENDBRANCH  57  81
BRANCH  69  92
ATOM     92  C   UNL A   1      51.666  23.675  32.469  1.00  0.00     0.023 A 
ATOM     93  C   UNL A   1      51.467  22.283  32.448  1.00  0.00     0.012 A 
ATOM     94  C   UNL A   1      53.014  24.111  32.594  1.00  0.00     0.148 A 
ATOM     95  C   UNL A   1      52.518  21.376  32.621  1.00  0.00     0.002 A 
ATOM     96  C   UNL A   1      54.069  23.205  32.621  1.00  0.00     0.091 A 
ATOM     97  F   UNL A   1      53.293  25.416  32.721  1.00  0.00    -0.205 F 
ATOM     98  C   UNL A   1      53.823  21.835  32.681  1.00  0.00     0.022 A 
BRANCH  96  99
ATOM     99  S   UNL A   1      55.773  23.745  32.419  1.00  0.00     0.127 S 
ATOM    100  O   UNL A   1      55.641  25.197  32.504  1.00  0.00    -0.237 OA
ATOM    101  O   UNL A   1      56.431  23.124  33.571  1.00  0.00    -0.237 OA
ATOM    102  O   UNL A   1      56.199  23.213  31.132  1.00  0.00    -0.744 OA
ENDBRANCH  96  99
ENDBRANCH  69  92
ENDBRANCH  43  44
ENDBRANCH  35  38
ENDBRANCH  33  34
ENDBRANCH  32  33
ENDBRANCH  31  32
ENDBRANCH   1  31
TORSDOF 21
ENDMDL
