MODEL 1
REMARK VINA RESULT:     -11.9      0.000      0.000
REMARK SMILES CC(=O)NC(C)(C)C(=O)N1C[C@@H](C(=O)NCCCCCCNC(=O)c2ccc(-c3c4nc(c(-c5cccc(S(=O)(=O)[O-])c5F)c5ccc([nH]5)c(-c5cccc(S(=O)(=O)[O-])c5F)c5nc(c(-c6cccc(S(=O)(=O)[O-])c6F)c6ccc3[nH]6)C=C5)C=C4)cc2)[C@H](c2ccccc2C)C1
REMARK SMILES IDX 18 1 17 2 16 3 15 4 13 5 14 6 12 8 10 9 11 10 96 11 88 12
REMARK SMILES IDX 8 13 9 14 5 15 6 16 7 17 4 18 1 19 2 20 3 21 89 23 90 24
REMARK SMILES IDX 94 25 91 26 93 27 95 28 92 29 19 30 20 31 21 32 22 33 23 34
REMARK SMILES IDX 24 36 25 37 26 38 87 39 27 40 86 41 28 42 29 43 30 44 80 45
REMARK SMILES IDX 31 46 85 47 79 48 81 49 32 50 84 51 78 52 77 53 33 55 65 56
REMARK SMILES IDX 45 57 64 58 46 59 49 60 63 61 82 62 47 63 48 64 62 66 83 67
REMARK SMILES IDX 50 68 34 69 35 70 43 71 36 72 38 73 44 74 37 75 39 76 40 77
REMARK SMILES IDX 41 78 42 79 66 80 67 81 75 82 68 83 70 84 76 85 69 86 71 87
REMARK SMILES IDX 72 88 73 89 74 90 51 91 52 92 60 93 53 94 55 95 61 96 54 97
REMARK SMILES IDX 56 98 57 99 58 100 59 101
REMARK H PARENT 15 7 4 22 22 35 81 54 49 65
REMARK Flexibility Score: inf
ROOT
ATOM      1  C   UNL A   1      34.060  20.288  25.027  1.00  0.00     0.002 C 
ENDROOT
BRANCH   1   2
ATOM      2  C   UNL A   1      32.808  20.792  25.750  1.00  0.00     0.021 C 
BRANCH   2   3
ATOM      3  C   UNL A   1      33.066  21.913  26.747  1.00  0.00     0.116 C 
BRANCH   3   4
ATOM      4  N   UNL A   1      31.853  22.564  27.221  1.00  0.00    -0.356 N 
ATOM      5  C   UNL A   1      31.016  23.515  26.744  1.00  0.00     0.225 C 
ATOM      6  O   UNL A   1      29.887  23.504  27.254  1.00  0.00    -0.275 OA
ATOM      7  H   UNL A   1      31.573  22.230  28.104  1.00  0.00     0.163 HD
BRANCH   5   8
ATOM      8  C   UNL A   1      31.339  24.600  25.722  1.00  0.00     0.107 C 
ATOM      9  N   UNL A   1      30.505  26.244  24.259  1.00  0.00    -0.339 N 
ATOM     10  C   UNL A   1      30.284  25.671  25.561  1.00  0.00     0.133 C 
ATOM     11  C   UNL A   1      31.015  25.198  23.377  1.00  0.00     0.128 C 
ATOM     12  C   UNL A   1      31.710  24.137  24.287  1.00  0.00     0.053 C 
BRANCH   9  13
ATOM     13  C   UNL A   1      30.020  27.443  23.749  1.00  0.00     0.247 C 
ATOM     14  O   UNL A   1      28.815  27.527  23.490  1.00  0.00    -0.272 OA
BRANCH  13  15
ATOM     15  C   UNL A   1      31.002  28.656  23.464  1.00  0.00     0.113 C 
ATOM     16  C   UNL A   1      30.406  29.441  22.271  1.00  0.00     0.045 C 
ATOM     17  C   UNL A   1      32.444  28.214  23.168  1.00  0.00     0.045 C 
BRANCH  15  18
ATOM     18  N   UNL A   1      31.062  29.688  24.547  1.00  0.00    -0.342 N 
ATOM     19  C   UNL A   1      32.216  28.599  26.468  1.00  0.00     0.114 C 
ATOM     20  C   UNL A   1      31.718  29.798  25.725  1.00  0.00     0.217 C 
ATOM     21  O   UNL A   1      31.816  30.930  26.208  1.00  0.00    -0.275 OA
ATOM     22  H   UNL A   1      30.490  30.466  24.358  1.00  0.00     0.164 HD
ENDBRANCH  15  18
ENDBRANCH  13  15
ENDBRANCH   9  13
BRANCH  12  23
ATOM     23  C   UNL A   1      33.234  23.962  24.085  1.00  0.00    -0.039 A 
ATOM     24  C   UNL A   1      34.159  24.554  24.974  1.00  0.00     0.004 A 
ATOM     25  C   UNL A   1      33.777  23.208  23.011  1.00  0.00    -0.048 A 
ATOM     26  C   UNL A   1      35.545  24.434  24.804  1.00  0.00     0.000 A 
ATOM     27  C   UNL A   1      35.178  23.056  22.887  1.00  0.00     0.004 A 
ATOM     28  C   UNL A   1      32.963  22.490  21.969  1.00  0.00     0.044 C 
ATOM     29  C   UNL A   1      36.057  23.675  23.766  1.00  0.00     0.000 A 
ENDBRANCH  12  23
ENDBRANCH   5   8
ENDBRANCH   3   4
ENDBRANCH   2   3
ENDBRANCH   1   2
BRANCH   1  30
ATOM     30  C   UNL A   1      35.401  20.782  25.588  1.00  0.00     0.002 C 
BRANCH  30  31
ATOM     31  C   UNL A   1      36.658  20.179  24.949  1.00  0.00     0.021 C 
BRANCH  31  32
ATOM     32  C   UNL A   1      37.967  20.876  25.315  1.00  0.00     0.116 C 
BRANCH  32  33
ATOM     33  N   UNL A   1      39.003  19.926  25.694  1.00  0.00    -0.352 N 
ATOM     34  C   UNL A   1      40.258  20.156  26.200  1.00  0.00     0.251 C 
ATOM     35  H   UNL A   1      38.769  18.977  25.569  1.00  0.00     0.163 HD
ATOM     36  O   UNL A   1      41.070  19.237  26.269  1.00  0.00    -0.269 OA
BRANCH  34  37
ATOM     37  C   UNL A   1      40.638  21.513  26.650  1.00  0.00     0.039 A 
ATOM     38  C   UNL A   1      41.145  21.683  27.942  1.00  0.00     0.014 A 
ATOM     39  C   UNL A   1      40.487  22.613  25.801  1.00  0.00     0.014 A 
ATOM     40  C   UNL A   1      41.572  22.947  28.357  1.00  0.00     0.010 A 
ATOM     41  C   UNL A   1      40.960  23.862  26.198  1.00  0.00     0.010 A 
ATOM     42  C   UNL A   1      41.517  24.039  27.475  1.00  0.00    -0.014 A 
BRANCH  42  43
ATOM     43  C   UNL A   1      42.090  25.359  27.837  1.00  0.00     0.031 A 
ATOM     44  C   UNL A   1      41.228  26.421  28.459  1.00  0.00     0.074 A 
ATOM     45  C   UNL A   1      43.360  25.640  27.486  1.00  0.00     0.049 A 
ATOM     46  N   UNL A   1      41.529  27.660  28.746  1.00  0.00    -0.248 NA
ATOM     47  C   UNL A   1      39.841  26.048  28.782  1.00  0.00     0.031 C 
ATOM     48  C   UNL A   1      44.272  24.715  26.809  1.00  0.00     0.029 A 
ATOM     49  N   UNL A   1      44.092  26.794  27.612  1.00  0.00    -0.354 N 
ATOM     50  C   UNL A   1      40.366  28.226  29.252  1.00  0.00     0.074 A 
ATOM     51  C   UNL A   1      39.346  27.200  29.213  1.00  0.00     0.031 C 
ATOM     52  C   UNL A   1      45.434  25.341  26.567  1.00  0.00     0.029 A 
ATOM     53  C   UNL A   1      45.343  26.718  27.043  1.00  0.00     0.049 A 
ATOM     54  H   UNL A   1      43.754  27.600  28.066  1.00  0.00     0.167 HD
ATOM     55  C   UNL A   1      40.173  29.478  29.733  1.00  0.00     0.034 A 
ATOM     56  C   UNL A   1      46.301  27.655  26.902  1.00  0.00     0.034 A 
ATOM     57  C   UNL A   1      41.202  30.480  29.813  1.00  0.00     0.049 A 
ATOM     58  C   UNL A   1      46.064  29.034  27.452  1.00  0.00     0.074 A 
ATOM     59  C   UNL A   1      41.138  31.734  30.392  1.00  0.00     0.029 A 
ATOM     60  N   UNL A   1      42.478  30.346  29.288  1.00  0.00    -0.354 N 
ATOM     61  N   UNL A   1      45.018  29.495  28.094  1.00  0.00    -0.248 NA
ATOM     62  C   UNL A   1      47.147  30.015  27.284  1.00  0.00     0.031 C 
ATOM     63  C   UNL A   1      42.370  32.369  30.200  1.00  0.00     0.029 A 
ATOM     64  C   UNL A   1      43.204  31.505  29.508  1.00  0.00     0.049 A 
ATOM     65  H   UNL A   1      42.818  29.546  28.828  1.00  0.00     0.167 HD
ATOM     66  C   UNL A   1      45.321  30.811  28.421  1.00  0.00     0.074 A 
ATOM     67  C   UNL A   1      46.661  31.066  27.933  1.00  0.00     0.031 C 
ATOM     68  C   UNL A   1      44.552  31.732  29.052  1.00  0.00     0.034 A 
BRANCH  55  69
ATOM     69  C   UNL A   1      38.810  29.816  30.274  1.00  0.00     0.023 A 
ATOM     70  C   UNL A   1      38.495  29.478  31.606  1.00  0.00     0.012 A 
ATOM     71  C   UNL A   1      37.869  30.520  29.497  1.00  0.00     0.148 A 
ATOM     72  C   UNL A   1      37.255  29.809  32.149  1.00  0.00     0.002 A 
ATOM     73  C   UNL A   1      36.647  30.878  30.057  1.00  0.00     0.091 A 
ATOM     74  F   UNL A   1      38.177  30.810  28.225  1.00  0.00    -0.205 F 
ATOM     75  C   UNL A   1      36.336  30.518  31.378  1.00  0.00     0.022 A 
BRANCH  73  76
ATOM     76  S   UNL A   1      35.424  31.847  29.166  1.00  0.00     0.127 S 
ATOM     77  O   UNL A   1      34.875  30.854  28.246  1.00  0.00    -0.237 OA
ATOM     78  O   UNL A   1      34.514  32.258  30.234  1.00  0.00    -0.237 OA
ATOM     79  O   UNL A   1      36.160  32.940  28.545  1.00  0.00    -0.744 OA
ENDBRANCH  73  76
ENDBRANCH  55  69
BRANCH  56  80
ATOM     80  C   UNL A   1      47.595  27.294  26.258  1.00  0.00     0.023 A 
ATOM     81  C   UNL A   1      48.587  26.652  27.023  1.00  0.00     0.012 A 
ATOM     82  C   UNL A   1      47.828  27.528  24.889  1.00  0.00     0.148 A 
ATOM     83  C   UNL A   1      49.796  26.266  26.441  1.00  0.00     0.002 A 
ATOM     84  C   UNL A   1      49.010  27.092  24.302  1.00  0.00     0.091 A 
ATOM     85  F   UNL A   1      46.880  28.159  24.180  1.00  0.00    -0.205 F 
ATOM     86  C   UNL A   1      50.002  26.475  25.079  1.00  0.00     0.022 A 
BRANCH  84  87
ATOM     87  S   UNL A   1      49.288  27.186  22.529  1.00  0.00     0.127 S 
ATOM     88  O   UNL A   1      50.721  26.923  22.435  1.00  0.00    -0.237 OA
ATOM     89  O   UNL A   1      48.429  26.114  22.025  1.00  0.00    -0.237 OA
ATOM     90  O   UNL A   1      48.855  28.522  22.140  1.00  0.00    -0.744 OA
ENDBRANCH  84  87
ENDBRANCH  56  80
BRANCH  68  91
ATOM     91  C   UNL A   1      45.130  33.107  29.249  1.00  0.00     0.023 A 
ATOM     92  C   UNL A   1      45.826  33.397  30.438  1.00  0.00     0.012 A 
ATOM     93  C   UNL A   1      45.062  34.080  28.231  1.00  0.00     0.148 A 
ATOM     94  C   UNL A   1      46.429  34.640  30.622  1.00  0.00     0.002 A 
ATOM     95  C   UNL A   1      45.701  35.302  28.405  1.00  0.00     0.091 A 
ATOM     96  F   UNL A   1      44.381  33.789  27.114  1.00  0.00    -0.205 F 
ATOM     97  C   UNL A   1      46.377  35.587  29.602  1.00  0.00     0.022 A 
BRANCH  95  98
ATOM     98  S   UNL A   1      45.761  36.552  27.115  1.00  0.00     0.127 S 
ATOM     99  O   UNL A   1      46.155  35.760  25.951  1.00  0.00    -0.237 OA
ATOM    100  O   UNL A   1      44.381  37.036  27.085  1.00  0.00    -0.237 OA
ATOM    101  O   UNL A   1      46.738  37.538  27.558  1.00  0.00    -0.744 OA
ENDBRANCH  95  98
ENDBRANCH  68  91
ENDBRANCH  42  43
ENDBRANCH  34  37
ENDBRANCH  32  33
ENDBRANCH  31  32
ENDBRANCH  30  31
ENDBRANCH   1  30
TORSDOF 20
ENDMDL
MODEL 2
REMARK VINA RESULT:     -11.5      1.394      2.270
REMARK SMILES CC(=O)NC(C)(C)C(=O)N1C[C@@H](C(=O)NCCCCCCNC(=O)c2ccc(-c3c4nc(c(-c5cccc(S(=O)(=O)[O-])c5F)c5ccc([nH]5)c(-c5cccc(S(=O)(=O)[O-])c5F)c5nc(c(-c6cccc(S(=O)(=O)[O-])c6F)c6ccc3[nH]6)C=C5)C=C4)cc2)[C@H](c2ccccc2C)C1
REMARK SMILES IDX 18 1 17 2 16 3 15 4 13 5 14 6 12 8 10 9 11 10 96 11 88 12
REMARK SMILES IDX 8 13 9 14 5 15 6 16 7 17 4 18 1 19 2 20 3 21 89 23 90 24
REMARK SMILES IDX 94 25 91 26 93 27 95 28 92 29 19 30 20 31 21 32 22 33 23 34
REMARK SMILES IDX 24 36 25 37 26 38 87 39 27 40 86 41 28 42 29 43 30 44 80 45
REMARK SMILES IDX 31 46 85 47 79 48 81 49 32 50 84 51 78 52 77 53 33 55 65 56
REMARK SMILES IDX 45 57 64 58 46 59 49 60 63 61 82 62 47 63 48 64 62 66 83 67
REMARK SMILES IDX 50 68 34 69 35 70 43 71 36 72 38 73 44 74 37 75 39 76 40 77
REMARK SMILES IDX 41 78 42 79 66 80 67 81 75 82 68 83 70 84 76 85 69 86 71 87
REMARK SMILES IDX 72 88 73 89 74 90 51 91 52 92 60 93 53 94 55 95 61 96 54 97
REMARK SMILES IDX 56 98 57 99 58 100 59 101
REMARK H PARENT 15 7 4 22 22 35 81 54 49 65
REMARK Flexibility Score: inf
ROOT
ATOM      1  C   UNL A   1      34.705  21.157  24.248  1.00  0.00     0.002 C 
ENDROOT
BRANCH   1   2
ATOM      2  C   UNL A   1      33.446  20.341  23.946  1.00  0.00     0.021 C 
BRANCH   2   3
ATOM      3  C   UNL A   1      32.253  21.170  23.491  1.00  0.00     0.116 C 
BRANCH   3   4
ATOM      4  N   UNL A   1      32.540  22.027  22.349  1.00  0.00    -0.356 N 
ATOM      5  C   UNL A   1      32.933  23.311  22.178  1.00  0.00     0.225 C 
ATOM      6  O   UNL A   1      33.453  23.543  21.077  1.00  0.00    -0.275 OA
ATOM      7  H   UNL A   1      32.417  21.557  21.493  1.00  0.00     0.163 HD
BRANCH   5   8
ATOM      8  C   UNL A   1      32.745  24.471  23.149  1.00  0.00     0.107 C 
ATOM      9  N   UNL A   1      32.838  26.798  23.485  1.00  0.00    -0.339 N 
ATOM     10  C   UNL A   1      32.459  25.810  22.510  1.00  0.00     0.133 C 
ATOM     11  C   UNL A   1      33.962  26.274  24.257  1.00  0.00     0.128 C 
ATOM     12  C   UNL A   1      33.873  24.717  24.187  1.00  0.00     0.053 C 
BRANCH   9  13
ATOM     13  C   UNL A   1      32.505  28.147  23.524  1.00  0.00     0.247 C 
ATOM     14  O   UNL A   1      33.091  28.920  22.760  1.00  0.00    -0.272 OA
BRANCH  13  15
ATOM     15  C   UNL A   1      31.429  28.684  24.560  1.00  0.00     0.113 C 
ATOM     16  C   UNL A   1      32.216  29.244  25.770  1.00  0.00     0.045 C 
ATOM     17  C   UNL A   1      30.424  27.610  25.004  1.00  0.00     0.045 C 
BRANCH  15  18
ATOM     18  N   UNL A   1      30.643  29.870  24.095  1.00  0.00    -0.342 N 
ATOM     19  C   UNL A   1      28.842  28.967  22.629  1.00  0.00     0.114 C 
ATOM     20  C   UNL A   1      29.456  30.043  23.467  1.00  0.00     0.217 C 
ATOM     21  O   UNL A   1      28.938  31.160  23.546  1.00  0.00    -0.275 OA
ATOM     22  H   UNL A   1      31.094  30.723  24.292  1.00  0.00     0.164 HD
ENDBRANCH  15  18
ENDBRANCH  13  15
ENDBRANCH   9  13
BRANCH  12  23
ATOM     23  C   UNL A   1      33.626  23.991  25.531  1.00  0.00    -0.039 A 
ATOM     24  C   UNL A   1      32.318  23.650  25.944  1.00  0.00     0.004 A 
ATOM     25  C   UNL A   1      34.684  23.634  26.408  1.00  0.00    -0.048 A 
ATOM     26  C   UNL A   1      32.060  23.013  27.166  1.00  0.00     0.000 A 
ATOM     27  C   UNL A   1      34.406  22.945  27.612  1.00  0.00     0.004 A 
ATOM     28  C   UNL A   1      36.142  23.895  26.145  1.00  0.00     0.044 C 
ATOM     29  C   UNL A   1      33.105  22.650  27.998  1.00  0.00     0.000 A 
ENDBRANCH  12  23
ENDBRANCH   5   8
ENDBRANCH   3   4
ENDBRANCH   2   3
ENDBRANCH   1   2
BRANCH   1  30
ATOM     30  C   UNL A   1      35.821  20.414  24.996  1.00  0.00     0.002 C 
BRANCH  30  31
ATOM     31  C   UNL A   1      37.255  20.738  24.557  1.00  0.00     0.021 C 
BRANCH  31  32
ATOM     32  C   UNL A   1      38.245  20.968  25.697  1.00  0.00     0.116 C 
BRANCH  32  33
ATOM     33  N   UNL A   1      39.182  19.864  25.836  1.00  0.00    -0.352 N 
ATOM     34  C   UNL A   1      40.533  19.888  26.079  1.00  0.00     0.251 C 
ATOM     35  H   UNL A   1      38.791  18.965  25.741  1.00  0.00     0.163 HD
ATOM     36  O   UNL A   1      41.197  18.862  25.961  1.00  0.00    -0.269 OA
BRANCH  34  37
ATOM     37  C   UNL A   1      41.192  21.153  26.472  1.00  0.00     0.039 A 
ATOM     38  C   UNL A   1      41.744  21.969  25.480  1.00  0.00     0.014 A 
ATOM     39  C   UNL A   1      41.268  21.529  27.816  1.00  0.00     0.014 A 
ATOM     40  C   UNL A   1      42.308  23.199  25.829  1.00  0.00     0.010 A 
ATOM     41  C   UNL A   1      41.784  22.777  28.156  1.00  0.00     0.010 A 
ATOM     42  C   UNL A   1      42.299  23.629  27.166  1.00  0.00    -0.014 A 
BRANCH  42  43
ATOM     43  C   UNL A   1      42.762  24.985  27.549  1.00  0.00     0.031 A 
ATOM     44  C   UNL A   1      41.806  25.978  28.146  1.00  0.00     0.074 A 
ATOM     45  C   UNL A   1      44.019  25.360  27.239  1.00  0.00     0.049 A 
ATOM     46  N   UNL A   1      42.007  27.235  28.446  1.00  0.00    -0.248 NA
ATOM     47  C   UNL A   1      40.440  25.504  28.424  1.00  0.00     0.031 C 
ATOM     48  C   UNL A   1      45.017  24.506  26.589  1.00  0.00     0.029 A 
ATOM     49  N   UNL A   1      44.661  26.563  27.392  1.00  0.00    -0.354 N 
ATOM     50  C   UNL A   1      40.791  27.713  28.916  1.00  0.00     0.074 A 
ATOM     51  C   UNL A   1      39.849  26.615  28.841  1.00  0.00     0.031 C 
ATOM     52  C   UNL A   1      46.137  25.216  26.386  1.00  0.00     0.029 A 
ATOM     53  C   UNL A   1      45.931  26.581  26.862  1.00  0.00     0.049 A 
ATOM     54  H   UNL A   1      44.251  27.340  27.836  1.00  0.00     0.167 HD
ATOM     55  C   UNL A   1      40.492  28.945  29.393  1.00  0.00     0.034 A 
ATOM     56  C   UNL A   1      46.822  27.585  26.755  1.00  0.00     0.034 A 
ATOM     57  C   UNL A   1      41.442  30.018  29.508  1.00  0.00     0.049 A 
ATOM     58  C   UNL A   1      46.468  28.941  27.300  1.00  0.00     0.074 A 
ATOM     59  C   UNL A   1      41.268  31.262  30.088  1.00  0.00     0.029 A 
ATOM     60  N   UNL A   1      42.740  29.980  29.024  1.00  0.00    -0.354 N 
ATOM     61  N   UNL A   1      45.371  29.322  27.909  1.00  0.00    -0.248 NA
ATOM     62  C   UNL A   1      47.481  29.998  27.169  1.00  0.00     0.031 C 
ATOM     63  C   UNL A   1      42.456  31.985  29.936  1.00  0.00     0.029 A 
ATOM     64  C   UNL A   1      43.372  31.187  29.270  1.00  0.00     0.049 A 
ATOM     65  H   UNL A   1      43.152  29.209  28.573  1.00  0.00     0.167 HD
ATOM     66  C   UNL A   1      45.568  30.655  28.249  1.00  0.00     0.074 A 
ATOM     67  C   UNL A   1      46.900  31.008  27.804  1.00  0.00     0.031 C 
ATOM     68  C   UNL A   1      44.714  31.514  28.857  1.00  0.00     0.034 A 
BRANCH  55  69
ATOM     69  C   UNL A   1      39.091  29.181  29.891  1.00  0.00     0.023 A 
ATOM     70  C   UNL A   1      38.746  28.769  31.195  1.00  0.00     0.012 A 
ATOM     71  C   UNL A   1      38.140  29.860  29.105  1.00  0.00     0.148 A 
ATOM     72  C   UNL A   1      37.469  29.005  31.700  1.00  0.00     0.002 A 
ATOM     73  C   UNL A   1      36.879  30.123  29.629  1.00  0.00     0.091 A 
ATOM     74  F   UNL A   1      38.479  30.221  27.859  1.00  0.00    -0.205 F 
ATOM     75  C   UNL A   1      36.540  29.691  30.921  1.00  0.00     0.022 A 
BRANCH  73  76
ATOM     76  S   UNL A   1      35.636  31.056  28.728  1.00  0.00     0.127 S 
ATOM     77  O   UNL A   1      34.820  31.588  29.818  1.00  0.00    -0.237 OA
ATOM     78  O   UNL A   1      36.443  32.055  28.027  1.00  0.00    -0.237 OA
ATOM     79  O   UNL A   1      34.972  30.096  27.856  1.00  0.00    -0.744 OA
ENDBRANCH  73  76
ENDBRANCH  55  69
BRANCH  56  80
ATOM     80  C   UNL A   1      48.159  27.322  26.151  1.00  0.00     0.023 A 
ATOM     81  C   UNL A   1      49.185  26.797  26.958  1.00  0.00     0.012 A 
ATOM     82  C   UNL A   1      48.404  27.533  24.780  1.00  0.00     0.148 A 
ATOM     83  C   UNL A   1      50.438  26.504  26.416  1.00  0.00     0.002 A 
ATOM     84  C   UNL A   1      49.634  27.187  24.234  1.00  0.00     0.091 A 
ATOM     85  F   UNL A   1      47.420  28.053  24.030  1.00  0.00    -0.205 F 
ATOM     86  C   UNL A   1      50.657  26.687  25.053  1.00  0.00     0.022 A 
BRANCH  84  87
ATOM     87  S   UNL A   1      49.946  27.250  22.465  1.00  0.00     0.127 S 
ATOM     88  O   UNL A   1      49.832  28.679  22.190  1.00  0.00    -0.237 OA
ATOM     89  O   UNL A   1      51.303  26.710  22.372  1.00  0.00    -0.237 OA
ATOM     90  O   UNL A   1      48.928  26.398  21.862  1.00  0.00    -0.744 OA
ENDBRANCH  84  87
ENDBRANCH  56  80
BRANCH  68  91
ATOM     91  C   UNL A   1      45.185  32.927  29.076  1.00  0.00     0.023 A 
ATOM     92  C   UNL A   1      45.930  33.233  30.231  1.00  0.00     0.012 A 
ATOM     93  C   UNL A   1      44.966  33.926  28.106  1.00  0.00     0.148 A 
ATOM     94  C   UNL A   1      46.435  34.517  30.429  1.00  0.00     0.002 A 
ATOM     95  C   UNL A   1      45.508  35.193  28.292  1.00  0.00     0.091 A 
ATOM     96  F   UNL A   1      44.240  33.618  27.023  1.00  0.00    -0.205 F 
ATOM     97  C   UNL A   1      46.235  35.492  29.456  1.00  0.00     0.022 A 
BRANCH  95  98
ATOM     98  S   UNL A   1      45.376  36.491  27.055  1.00  0.00     0.127 S 
ATOM     99  O   UNL A   1      46.025  37.612  27.731  1.00  0.00    -0.237 OA
ATOM    100  O   UNL A   1      46.134  35.932  25.935  1.00  0.00    -0.237 OA
ATOM    101  O   UNL A   1      43.951  36.656  26.798  1.00  0.00    -0.744 OA
ENDBRANCH  95  98
ENDBRANCH  68  91
ENDBRANCH  42  43
ENDBRANCH  34  37
ENDBRANCH  32  33
ENDBRANCH  31  32
ENDBRANCH  30  31
ENDBRANCH   1  30
TORSDOF 20
ENDMDL
MODEL 3
REMARK VINA RESULT:     -10.8      2.186      3.370
REMARK SMILES CC(=O)NC(C)(C)C(=O)N1C[C@@H](C(=O)NCCCCCCNC(=O)c2ccc(-c3c4nc(c(-c5cccc(S(=O)(=O)[O-])c5F)c5ccc([nH]5)c(-c5cccc(S(=O)(=O)[O-])c5F)c5nc(c(-c6cccc(S(=O)(=O)[O-])c6F)c6ccc3[nH]6)C=C5)C=C4)cc2)[C@H](c2ccccc2C)C1
REMARK SMILES IDX 18 1 17 2 16 3 15 4 13 5 14 6 12 8 10 9 11 10 96 11 88 12
REMARK SMILES IDX 8 13 9 14 5 15 6 16 7 17 4 18 1 19 2 20 3 21 89 23 90 24
REMARK SMILES IDX 94 25 91 26 93 27 95 28 92 29 19 30 20 31 21 32 22 33 23 34
REMARK SMILES IDX 24 36 25 37 26 38 87 39 27 40 86 41 28 42 29 43 30 44 80 45
REMARK SMILES IDX 31 46 85 47 79 48 81 49 32 50 84 51 78 52 77 53 33 55 65 56
REMARK SMILES IDX 45 57 64 58 46 59 49 60 63 61 82 62 47 63 48 64 62 66 83 67
REMARK SMILES IDX 50 68 34 69 35 70 43 71 36 72 38 73 44 74 37 75 39 76 40 77
REMARK SMILES IDX 41 78 42 79 66 80 67 81 75 82 68 83 70 84 76 85 69 86 71 87
REMARK SMILES IDX 72 88 73 89 74 90 51 91 52 92 60 93 53 94 55 95 61 96 54 97
REMARK SMILES IDX 56 98 57 99 58 100 59 101
REMARK H PARENT 15 7 4 22 22 35 81 54 49 65
REMARK Flexibility Score: inf
ROOT
ATOM      1  C   UNL A   1      39.894  23.532  26.502  1.00  0.00     0.002 C 
ENDROOT
BRANCH   1   2
ATOM      2  C   UNL A   1      38.644  24.414  26.435  1.00  0.00     0.021 C 
BRANCH   2   3
ATOM      3  C   UNL A   1      37.349  23.652  26.189  1.00  0.00     0.116 C 
BRANCH   3   4
ATOM      4  N   UNL A   1      37.189  23.204  24.813  1.00  0.00    -0.356 N 
ATOM      5  C   UNL A   1      36.258  23.368  23.844  1.00  0.00     0.225 C 
ATOM      6  O   UNL A   1      36.677  23.167  22.695  1.00  0.00    -0.275 OA
ATOM      7  H   UNL A   1      37.942  22.644  24.515  1.00  0.00     0.163 HD
BRANCH   5   8
ATOM      8  C   UNL A   1      34.782  23.703  24.029  1.00  0.00     0.107 C 
ATOM      9  N   UNL A   1      33.180  24.995  25.170  1.00  0.00    -0.339 N 
ATOM     10  C   UNL A   1      34.496  25.075  24.593  1.00  0.00     0.133 C 
ATOM     11  C   UNL A   1      32.984  23.640  25.679  1.00  0.00     0.128 C 
ATOM     12  C   UNL A   1      33.927  22.706  24.858  1.00  0.00     0.053 C 
BRANCH   9  13
ATOM     13  C   UNL A   1      32.334  26.033  25.542  1.00  0.00     0.247 C 
ATOM     14  O   UNL A   1      32.635  26.712  26.528  1.00  0.00    -0.272 OA
BRANCH  13  15
ATOM     15  C   UNL A   1      30.990  26.306  24.742  1.00  0.00     0.113 C 
ATOM     16  C   UNL A   1      29.833  25.773  25.621  1.00  0.00     0.045 C 
ATOM     17  C   UNL A   1      30.970  25.658  23.349  1.00  0.00     0.045 C 
BRANCH  15  18
ATOM     18  N   UNL A   1      30.641  27.751  24.570  1.00  0.00    -0.342 N 
ATOM     19  C   UNL A   1      32.430  28.723  23.133  1.00  0.00     0.114 C 
ATOM     20  C   UNL A   1      31.075  28.749  23.765  1.00  0.00     0.217 C 
ATOM     21  O   UNL A   1      30.334  29.728  23.639  1.00  0.00    -0.275 OA
ATOM     22  H   UNL A   1      29.931  28.044  25.187  1.00  0.00     0.164 HD
ENDBRANCH  15  18
ENDBRANCH  13  15
ENDBRANCH   9  13
BRANCH  12  23
ATOM     23  C   UNL A   1      33.231  21.637  23.983  1.00  0.00    -0.039 A 
ATOM     24  C   UNL A   1      32.688  21.969  22.721  1.00  0.00     0.004 A 
ATOM     25  C   UNL A   1      33.100  20.284  24.395  1.00  0.00    -0.048 A 
ATOM     26  C   UNL A   1      32.030  21.029  21.916  1.00  0.00     0.000 A 
ATOM     27  C   UNL A   1      32.479  19.339  23.544  1.00  0.00     0.004 A 
ATOM     28  C   UNL A   1      33.621  19.728  25.692  1.00  0.00     0.044 C 
ATOM     29  C   UNL A   1      31.933  19.709  22.322  1.00  0.00     0.000 A 
ENDBRANCH  12  23
ENDBRANCH   5   8
ENDBRANCH   3   4
ENDBRANCH   2   3
ENDBRANCH   1   2
BRANCH   1  30
ATOM     30  C   UNL A   1      39.682  22.111  27.042  1.00  0.00     0.002 C 
BRANCH  30  31
ATOM     31  C   UNL A   1      39.954  20.970  26.054  1.00  0.00     0.021 C 
BRANCH  31  32
ATOM     32  C   UNL A   1      40.488  19.684  26.681  1.00  0.00     0.116 C 
BRANCH  32  33
ATOM     33  N   UNL A   1      41.650  19.173  25.971  1.00  0.00    -0.352 N 
ATOM     34  C   UNL A   1      42.776  19.834  25.546  1.00  0.00     0.251 C 
ATOM     35  H   UNL A   1      41.627  18.210  25.764  1.00  0.00     0.163 HD
ATOM     36  O   UNL A   1      43.562  19.279  24.782  1.00  0.00    -0.269 OA
BRANCH  34  37
ATOM     37  C   UNL A   1      43.037  21.217  25.998  1.00  0.00     0.039 A 
ATOM     38  C   UNL A   1      43.225  21.463  27.362  1.00  0.00     0.014 A 
ATOM     39  C   UNL A   1      43.090  22.269  25.079  1.00  0.00     0.014 A 
ATOM     40  C   UNL A   1      43.541  22.753  27.796  1.00  0.00     0.010 A 
ATOM     41  C   UNL A   1      43.456  23.543  25.507  1.00  0.00     0.010 A 
ATOM     42  C   UNL A   1      43.695  23.795  26.867  1.00  0.00    -0.014 A 
BRANCH  42  43
ATOM     43  C   UNL A   1      44.165  25.141  27.281  1.00  0.00     0.031 A 
ATOM     44  C   UNL A   1      43.200  26.149  27.836  1.00  0.00     0.074 A 
ATOM     45  C   UNL A   1      45.443  25.492  27.037  1.00  0.00     0.049 A 
ATOM     46  N   UNL A   1      43.409  27.400  28.153  1.00  0.00    -0.248 NA
ATOM     47  C   UNL A   1      41.813  25.701  28.043  1.00  0.00     0.031 C 
ATOM     48  C   UNL A   1      46.455  24.622  26.432  1.00  0.00     0.029 A 
ATOM     49  N   UNL A   1      46.099  26.682  27.228  1.00  0.00    -0.354 N 
ATOM     50  C   UNL A   1      42.181  27.899  28.565  1.00  0.00     0.074 A 
ATOM     51  C   UNL A   1      41.223  26.821  28.437  1.00  0.00     0.031 C 
ATOM     52  C   UNL A   1      47.597  25.311  26.290  1.00  0.00     0.029 A 
ATOM     53  C   UNL A   1      47.394  26.677  26.762  1.00  0.00     0.049 A 
ATOM     54  H   UNL A   1      45.683  27.464  27.657  1.00  0.00     0.167 HD
ATOM     55  C   UNL A   1      41.882  29.135  29.034  1.00  0.00     0.034 A 
ATOM     56  C   UNL A   1      48.309  27.664  26.706  1.00  0.00     0.034 A 
ATOM     57  C   UNL A   1      42.846  30.188  29.203  1.00  0.00     0.049 A 
ATOM     58  C   UNL A   1      47.954  29.024  27.241  1.00  0.00     0.074 A 
ATOM     59  C   UNL A   1      42.668  31.433  29.780  1.00  0.00     0.029 A 
ATOM     60  N   UNL A   1      44.166  30.128  28.784  1.00  0.00    -0.354 N 
ATOM     61  N   UNL A   1      46.836  29.423  27.797  1.00  0.00    -0.248 NA
ATOM     62  C   UNL A   1      48.993  30.062  27.167  1.00  0.00     0.031 C 
ATOM     63  C   UNL A   1      43.876  32.133  29.693  1.00  0.00     0.029 A 
ATOM     64  C   UNL A   1      44.808  31.321  29.068  1.00  0.00     0.049 A 
ATOM     65  H   UNL A   1      44.585  29.350  28.349  1.00  0.00     0.167 HD
ATOM     66  C   UNL A   1      47.041  30.750  28.155  1.00  0.00     0.074 A 
ATOM     67  C   UNL A   1      48.401  31.080  27.779  1.00  0.00     0.031 C 
ATOM     68  C   UNL A   1      46.175  31.623  28.725  1.00  0.00     0.034 A 
BRANCH  55  69
ATOM     69  C   UNL A   1      40.464  29.395  29.463  1.00  0.00     0.023 A 
ATOM     70  C   UNL A   1      39.534  29.873  28.516  1.00  0.00     0.012 A 
ATOM     71  C   UNL A   1      40.032  29.112  30.774  1.00  0.00     0.148 A 
ATOM     72  C   UNL A   1      38.205  30.090  28.872  1.00  0.00     0.002 A 
ATOM     73  C   UNL A   1      38.696  29.298  31.112  1.00  0.00     0.091 A 
ATOM     74  F   UNL A   1      40.935  28.683  31.667  1.00  0.00    -0.205 F 
ATOM     75  C   UNL A   1      37.784  29.792  30.166  1.00  0.00     0.022 A 
BRANCH  73  76
ATOM     76  S   UNL A   1      38.044  28.882  32.734  1.00  0.00     0.127 S 
ATOM     77  O   UNL A   1      36.676  29.386  32.640  1.00  0.00    -0.237 OA
ATOM     78  O   UNL A   1      38.156  27.423  32.750  1.00  0.00    -0.237 OA
ATOM     79  O   UNL A   1      38.902  29.564  33.693  1.00  0.00    -0.744 OA
ENDBRANCH  73  76
ENDBRANCH  55  69
BRANCH  56  80
ATOM     80  C   UNL A   1      49.669  27.378  26.168  1.00  0.00     0.023 A 
ATOM     81  C   UNL A   1      50.641  26.821  27.020  1.00  0.00     0.012 A 
ATOM     82  C   UNL A   1      49.988  27.599  24.814  1.00  0.00     0.148 A 
ATOM     83  C   UNL A   1      51.912  26.506  26.538  1.00  0.00     0.002 A 
ATOM     84  C   UNL A   1      51.237  27.232  24.327  1.00  0.00     0.091 A 
ATOM     85  F   UNL A   1      49.056  28.149  24.021  1.00  0.00    -0.205 F 
ATOM     86  C   UNL A   1      52.206  26.699  25.191  1.00  0.00     0.022 A 
BRANCH  84  87
ATOM     87  S   UNL A   1      51.640  27.307  22.577  1.00  0.00     0.127 S 
ATOM     88  O   UNL A   1      50.433  26.760  21.967  1.00  0.00    -0.237 OA
ATOM     89  O   UNL A   1      51.841  28.742  22.369  1.00  0.00    -0.237 OA
ATOM     90  O   UNL A   1      52.852  26.512  22.424  1.00  0.00    -0.744 OA
ENDBRANCH  84  87
ENDBRANCH  56  80
BRANCH  68  91
ATOM     91  C   UNL A   1      46.661  33.025  28.975  1.00  0.00     0.023 A 
ATOM     92  C   UNL A   1      47.259  33.336  30.211  1.00  0.00     0.012 A 
ATOM     93  C   UNL A   1      46.606  34.007  27.965  1.00  0.00     0.148 A 
ATOM     94  C   UNL A   1      47.778  34.608  30.449  1.00  0.00     0.002 A 
ATOM     95  C   UNL A   1      47.162  35.260  28.195  1.00  0.00     0.091 A 
ATOM     96  F   UNL A   1      46.018  33.696  26.802  1.00  0.00    -0.205 F 
ATOM     97  C   UNL A   1      47.741  35.565  29.438  1.00  0.00     0.022 A 
BRANCH  95  98
ATOM     98  S   UNL A   1      47.238  36.531  26.926  1.00  0.00     0.127 S 
ATOM     99  O   UNL A   1      47.982  37.588  27.608  1.00  0.00    -0.237 OA
ATOM    100  O   UNL A   1      47.975  35.859  25.856  1.00  0.00    -0.237 OA
ATOM    101  O   UNL A   1      45.855  36.853  26.598  1.00  0.00    -0.744 OA
ENDBRANCH  95  98
ENDBRANCH  68  91
ENDBRANCH  42  43
ENDBRANCH  34  37
ENDBRANCH  32  33
ENDBRANCH  31  32
ENDBRANCH  30  31
ENDBRANCH   1  30
TORSDOF 20
ENDMDL
