MODEL 1
REMARK VINA RESULT:     -11.9      0.000      0.000
REMARK SMILES C[C@@](NC(=O)[C@H]1COc2ccccc21)(C(=O)NCCCCCCNC(=O)c1ccc(-c2c3nc(c(-c4cccc(S(=O)(=O)[O-])c4F)c4ccc([nH]4)c(-c4cccc(S(=O)(=O)[O-])c4F)c4nc(c(-c5cccc(S(=O)(=O)[O-])c5F)c5ccc2[nH]5)C=C4)C=C3)cc1)C(F)(F)F
REMARK SMILES IDX 21 1 20 2 19 3 18 4 17 5 15 6 16 7 2 9 1 10 3 11 4 12 5 14
REMARK SMILES IDX 6 15 7 16 14 17 8 18 9 19 13 20 10 21 12 22 11 23 90 24
REMARK SMILES IDX 91 25 92 26 93 27 22 28 23 29 24 30 25 31 26 33 27 34 28 35
REMARK SMILES IDX 89 36 29 37 88 38 30 39 31 40 32 41 82 42 33 43 87 44 81 45
REMARK SMILES IDX 83 46 34 47 86 48 80 49 79 50 35 52 67 53 47 54 66 55 48 56
REMARK SMILES IDX 51 57 65 58 84 59 49 60 50 61 64 63 85 64 52 65 36 66 37 67
REMARK SMILES IDX 45 68 38 69 40 70 46 71 39 72 41 73 42 74 43 75 44 76 68 77
REMARK SMILES IDX 69 78 77 79 70 80 72 81 78 82 71 83 73 84 74 85 75 86 76 87
REMARK SMILES IDX 53 88 54 89 62 90 55 91 57 92 63 93 56 94 58 95 59 96 60 97
REMARK SMILES IDX 61 98
REMARK H PARENT 17 8 3 13 24 32 83 51 51 62
REMARK Flexibility Score: inf
ROOT
ATOM      1  C   UNL A   1      31.511  28.824  25.597  1.00  0.00     0.002 C 
ENDROOT
BRANCH   1   2
ATOM      2  C   UNL A   1      32.332  27.987  26.582  1.00  0.00     0.002 C 
BRANCH   2   3
ATOM      3  C   UNL A   1      33.655  27.444  26.030  1.00  0.00     0.021 C 
BRANCH   3   4
ATOM      4  C   UNL A   1      33.680  25.930  25.885  1.00  0.00     0.116 C 
BRANCH   4   5
ATOM      5  N   UNL A   1      34.159  25.537  24.573  1.00  0.00    -0.354 N 
ATOM      6  C   UNL A   1      33.572  24.761  23.617  1.00  0.00     0.254 C 
ATOM      7  O   UNL A   1      34.133  24.731  22.519  1.00  0.00    -0.272 OA
ATOM      8  H   UNL A   1      35.048  25.886  24.335  1.00  0.00     0.163 HD
BRANCH   6   9
ATOM      9  C   UNL A   1      32.313  23.938  23.922  1.00  0.00     0.212 C 
ATOM     10  C   UNL A   1      32.052  23.015  22.706  1.00  0.00     0.056 C 
BRANCH   9  11
ATOM     11  N   UNL A   1      32.427  23.090  25.161  1.00  0.00    -0.334 N 
ATOM     12  C   UNL A   1      33.482  22.333  25.612  1.00  0.00     0.232 C 
ATOM     13  H   UNL A   1      31.626  23.076  25.733  1.00  0.00     0.164 HD
ATOM     14  O   UNL A   1      33.674  22.331  26.828  1.00  0.00    -0.274 OA
BRANCH  12  15
ATOM     15  C   UNL A   1      34.292  21.468  24.661  1.00  0.00     0.150 C 
ATOM     16  C   UNL A   1      35.710  21.187  25.160  1.00  0.00     0.248 C 
ATOM     17  C   UNL A   1      33.796  20.070  24.485  1.00  0.00     0.010 A 
ATOM     18  O   UNL A   1      36.024  19.779  25.024  1.00  0.00    -0.492 OA
ATOM     19  C   UNL A   1      34.850  19.189  24.643  1.00  0.00     0.123 A 
ATOM     20  C   UNL A   1      32.551  19.606  24.084  1.00  0.00     0.008 A 
ATOM     21  C   UNL A   1      34.720  17.837  24.386  1.00  0.00     0.047 A 
ATOM     22  C   UNL A   1      32.401  18.244  23.800  1.00  0.00     0.001 A 
ATOM     23  C   UNL A   1      33.484  17.365  23.942  1.00  0.00     0.004 A 
ENDBRANCH  12  15
ENDBRANCH   9  11
BRANCH   9  24
ATOM     24  C   UNL A   1      31.118  24.918  23.987  1.00  0.00     0.420 C 
ATOM     25  F   UNL A   1      31.385  26.117  23.425  1.00  0.00    -0.168 F 
ATOM     26  F   UNL A   1      30.063  24.405  23.296  1.00  0.00    -0.168 F 
ATOM     27  F   UNL A   1      30.686  25.122  25.251  1.00  0.00    -0.168 F 
ENDBRANCH   9  24
ENDBRANCH   6   9
ENDBRANCH   4   5
ENDBRANCH   3   4
ENDBRANCH   2   3
ENDBRANCH   1   2
BRANCH   1  28
ATOM     28  C   UNL A   1      31.734  30.336  25.689  1.00  0.00     0.021 C 
BRANCH  28  29
ATOM     29  C   UNL A   1      32.520  30.783  26.915  1.00  0.00     0.116 C 
BRANCH  29  30
ATOM     30  N   UNL A   1      32.632  32.229  26.993  1.00  0.00    -0.352 N 
ATOM     31  C   UNL A   1      33.573  32.984  27.649  1.00  0.00     0.251 C 
ATOM     32  H   UNL A   1      31.940  32.736  26.511  1.00  0.00     0.163 HD
ATOM     33  O   UNL A   1      33.419  34.192  27.766  1.00  0.00    -0.269 OA
BRANCH  31  34
ATOM     34  C   UNL A   1      34.759  32.318  28.227  1.00  0.00     0.039 A 
ATOM     35  C   UNL A   1      35.984  32.987  28.207  1.00  0.00     0.014 A 
ATOM     36  C   UNL A   1      34.659  31.044  28.792  1.00  0.00     0.014 A 
ATOM     37  C   UNL A   1      37.102  32.393  28.794  1.00  0.00     0.010 A 
ATOM     38  C   UNL A   1      35.754  30.489  29.445  1.00  0.00     0.010 A 
ATOM     39  C   UNL A   1      36.991  31.151  29.442  1.00  0.00    -0.014 A 
BRANCH  39  40
ATOM     40  C   UNL A   1      38.159  30.529  30.114  1.00  0.00     0.031 A 
ATOM     41  C   UNL A   1      38.538  30.951  31.509  1.00  0.00     0.074 A 
ATOM     42  C   UNL A   1      38.918  29.640  29.444  1.00  0.00     0.049 A 
ATOM     43  N   UNL A   1      39.556  30.568  32.236  1.00  0.00    -0.248 NA
ATOM     44  C   UNL A   1      37.677  31.949  32.166  1.00  0.00     0.031 C 
ATOM     45  C   UNL A   1      38.695  29.207  28.062  1.00  0.00     0.029 A 
ATOM     46  N   UNL A   1      40.046  28.958  29.825  1.00  0.00    -0.354 N 
ATOM     47  C   UNL A   1      39.474  31.296  33.418  1.00  0.00     0.074 A 
ATOM     48  C   UNL A   1      38.331  32.173  33.297  1.00  0.00     0.031 C 
ATOM     49  C   UNL A   1      39.654  28.334  27.713  1.00  0.00     0.029 A 
ATOM     50  C   UNL A   1      40.579  28.171  28.830  1.00  0.00     0.049 A 
ATOM     51  H   UNL A   1      40.439  29.027  30.725  1.00  0.00     0.167 HD
ATOM     52  C   UNL A   1      40.259  31.218  34.518  1.00  0.00     0.034 A 
ATOM     53  C   UNL A   1      41.694  27.416  28.815  1.00  0.00     0.034 A 
ATOM     54  C   UNL A   1      41.373  30.319  34.649  1.00  0.00     0.049 A 
ATOM     55  C   UNL A   1      42.536  27.334  30.060  1.00  0.00     0.074 A 
ATOM     56  C   UNL A   1      42.189  30.116  35.747  1.00  0.00     0.029 A 
ATOM     57  N   UNL A   1      41.832  29.477  33.648  1.00  0.00    -0.354 N 
ATOM     58  N   UNL A   1      42.359  27.924  31.217  1.00  0.00    -0.248 NA
ATOM     59  C   UNL A   1      43.712  26.453  30.011  1.00  0.00     0.031 C 
ATOM     60  C   UNL A   1      43.159  29.171  35.403  1.00  0.00     0.029 A 
ATOM     61  C   UNL A   1      42.923  28.756  34.101  1.00  0.00     0.049 A 
ATOM     62  H   UNL A   1      41.439  29.402  32.749  1.00  0.00     0.167 HD
ATOM     63  C   UNL A   1      43.372  27.454  32.044  1.00  0.00     0.074 A 
ATOM     64  C   UNL A   1      44.148  26.514  31.261  1.00  0.00     0.031 C 
ATOM     65  C   UNL A   1      43.647  27.780  33.330  1.00  0.00     0.034 A 
BRANCH  52  66
ATOM     66  C   UNL A   1      39.910  32.090  35.696  1.00  0.00     0.023 A 
ATOM     67  C   UNL A   1      40.557  33.332  35.855  1.00  0.00     0.012 A 
ATOM     68  C   UNL A   1      38.892  31.721  36.596  1.00  0.00     0.148 A 
ATOM     69  C   UNL A   1      40.215  34.183  36.906  1.00  0.00     0.002 A 
ATOM     70  C   UNL A   1      38.524  32.594  37.612  1.00  0.00     0.091 A 
ATOM     71  F   UNL A   1      38.302  30.528  36.438  1.00  0.00    -0.205 F 
ATOM     72  C   UNL A   1      39.191  33.819  37.776  1.00  0.00     0.022 A 
BRANCH  70  73
ATOM     73  S   UNL A   1      37.165  32.258  38.739  1.00  0.00     0.127 S 
ATOM     74  O   UNL A   1      37.152  30.796  38.756  1.00  0.00    -0.237 OA
ATOM     75  O   UNL A   1      37.635  32.878  39.978  1.00  0.00    -0.237 OA
ATOM     76  O   UNL A   1      35.988  32.882  38.151  1.00  0.00    -0.744 OA
ENDBRANCH  70  73
ENDBRANCH  52  66
BRANCH  53  77
ATOM     77  C   UNL A   1      42.066  26.645  27.594  1.00  0.00     0.023 A 
ATOM     78  C   UNL A   1      42.660  27.309  26.503  1.00  0.00     0.012 A 
ATOM     79  C   UNL A   1      41.826  25.261  27.505  1.00  0.00     0.148 A 
ATOM     80  C   UNL A   1      42.962  26.620  25.328  1.00  0.00     0.002 A 
ATOM     81  C   UNL A   1      42.184  24.568  26.355  1.00  0.00     0.091 A 
ATOM     82  F   UNL A   1      41.251  24.647  28.549  1.00  0.00    -0.205 F 
ATOM     83  C   UNL A   1      42.732  25.248  25.257  1.00  0.00     0.022 A 
BRANCH  81  84
ATOM     84  S   UNL A   1      42.044  22.782  26.230  1.00  0.00     0.127 S 
ATOM     85  O   UNL A   1      40.597  22.593  26.269  1.00  0.00    -0.237 OA
ATOM     86  O   UNL A   1      42.667  22.521  24.932  1.00  0.00    -0.237 OA
ATOM     87  O   UNL A   1      42.786  22.252  27.367  1.00  0.00    -0.744 OA
ENDBRANCH  81  84
ENDBRANCH  53  77
BRANCH  65  88
ATOM     88  C   UNL A   1      44.799  27.078  34.000  1.00  0.00     0.023 A 
ATOM     89  C   UNL A   1      46.103  27.601  33.895  1.00  0.00     0.012 A 
ATOM     90  C   UNL A   1      44.573  25.937  34.794  1.00  0.00     0.148 A 
ATOM     91  C   UNL A   1      47.170  26.976  34.541  1.00  0.00     0.002 A 
ATOM     92  C   UNL A   1      45.630  25.352  35.478  1.00  0.00     0.091 A 
ATOM     93  F   UNL A   1      43.327  25.446  34.868  1.00  0.00    -0.205 F 
ATOM     94  C   UNL A   1      46.932  25.861  35.341  1.00  0.00     0.022 A 
BRANCH  92  95
ATOM     95  S   UNL A   1      45.404  23.977  36.610  1.00  0.00     0.127 S 
ATOM     96  O   UNL A   1      44.481  24.546  37.590  1.00  0.00    -0.237 OA
ATOM     97  O   UNL A   1      44.818  22.955  35.741  1.00  0.00    -0.237 OA
ATOM     98  O   UNL A   1      46.729  23.651  37.119  1.00  0.00    -0.744 OA
ENDBRANCH  92  95
ENDBRANCH  65  88
ENDBRANCH  39  40
ENDBRANCH  31  34
ENDBRANCH  29  30
ENDBRANCH  28  29
ENDBRANCH   1  28
TORSDOF 19
ENDMDL
MODEL 2
REMARK VINA RESULT:     -11.9      2.624      4.203
REMARK SMILES C[C@@](NC(=O)[C@H]1COc2ccccc21)(C(=O)NCCCCCCNC(=O)c1ccc(-c2c3nc(c(-c4cccc(S(=O)(=O)[O-])c4F)c4ccc([nH]4)c(-c4cccc(S(=O)(=O)[O-])c4F)c4nc(c(-c5cccc(S(=O)(=O)[O-])c5F)c5ccc2[nH]5)C=C4)C=C3)cc1)C(F)(F)F
REMARK SMILES IDX 21 1 20 2 19 3 18 4 17 5 15 6 16 7 2 9 1 10 3 11 4 12 5 14
REMARK SMILES IDX 6 15 7 16 14 17 8 18 9 19 13 20 10 21 12 22 11 23 90 24
REMARK SMILES IDX 91 25 92 26 93 27 22 28 23 29 24 30 25 31 26 33 27 34 28 35
REMARK SMILES IDX 89 36 29 37 88 38 30 39 31 40 32 41 82 42 33 43 87 44 81 45
REMARK SMILES IDX 83 46 34 47 86 48 80 49 79 50 35 52 67 53 47 54 66 55 48 56
REMARK SMILES IDX 51 57 65 58 84 59 49 60 50 61 64 63 85 64 52 65 36 66 37 67
REMARK SMILES IDX 45 68 38 69 40 70 46 71 39 72 41 73 42 74 43 75 44 76 68 77
REMARK SMILES IDX 69 78 77 79 70 80 72 81 78 82 71 83 73 84 74 85 75 86 76 87
REMARK SMILES IDX 53 88 54 89 62 90 55 91 57 92 63 93 56 94 58 95 59 96 60 97
REMARK SMILES IDX 61 98
REMARK H PARENT 17 8 3 13 24 32 83 51 51 62
REMARK Flexibility Score: inf
ROOT
ATOM      1  C   UNL A   1      35.768  33.503  28.053  1.00  0.00     0.002 C 
ENDROOT
BRANCH   1   2
ATOM      2  C   UNL A   1      35.467  32.145  28.694  1.00  0.00     0.002 C 
BRANCH   2   3
ATOM      3  C   UNL A   1      35.761  30.928  27.808  1.00  0.00     0.021 C 
BRANCH   3   4
ATOM      4  C   UNL A   1      34.545  30.051  27.556  1.00  0.00     0.116 C 
BRANCH   4   5
ATOM      5  N   UNL A   1      33.387  30.850  27.200  1.00  0.00    -0.354 N 
ATOM      6  C   UNL A   1      32.301  30.537  26.436  1.00  0.00     0.254 C 
ATOM      7  O   UNL A   1      31.378  31.355  26.441  1.00  0.00    -0.272 OA
ATOM      8  H   UNL A   1      33.385  31.763  27.569  1.00  0.00     0.163 HD
BRANCH   6   9
ATOM      9  C   UNL A   1      32.267  29.259  25.587  1.00  0.00     0.212 C 
ATOM     10  C   UNL A   1      31.112  29.408  24.566  1.00  0.00     0.056 C 
BRANCH   9  11
ATOM     11  N   UNL A   1      33.547  28.993  24.839  1.00  0.00    -0.334 N 
ATOM     12  C   UNL A   1      33.758  28.256  23.698  1.00  0.00     0.232 C 
ATOM     13  H   UNL A   1      34.351  29.407  25.225  1.00  0.00     0.164 HD
ATOM     14  O   UNL A   1      34.583  28.705  22.901  1.00  0.00    -0.274 OA
BRANCH  12  15
ATOM     15  C   UNL A   1      33.083  26.910  23.494  1.00  0.00     0.150 C 
ATOM     16  C   UNL A   1      32.884  26.553  22.020  1.00  0.00     0.248 C 
ATOM     17  C   UNL A   1      33.869  25.723  23.946  1.00  0.00     0.010 A 
ATOM     18  O   UNL A   1      33.305  25.189  21.769  1.00  0.00    -0.492 OA
ATOM     19  C   UNL A   1      33.888  24.777  22.937  1.00  0.00     0.123 A 
ATOM     20  C   UNL A   1      34.412  25.430  25.189  1.00  0.00     0.008 A 
ATOM     21  C   UNL A   1      34.413  23.512  23.127  1.00  0.00     0.047 A 
ATOM     22  C   UNL A   1      34.931  24.150  25.410  1.00  0.00     0.001 A 
ATOM     23  C   UNL A   1      34.924  23.193  24.386  1.00  0.00     0.004 A 
ENDBRANCH  12  15
ENDBRANCH   9  11
BRANCH   9  24
ATOM     24  C   UNL A   1      31.875  28.088  26.518  1.00  0.00     0.420 C 
ATOM     25  F   UNL A   1      31.219  28.491  27.629  1.00  0.00    -0.168 F 
ATOM     26  F   UNL A   1      31.028  27.245  25.867  1.00  0.00    -0.168 F 
ATOM     27  F   UNL A   1      32.941  27.348  26.894  1.00  0.00    -0.168 F 
ENDBRANCH   9  24
ENDBRANCH   6   9
ENDBRANCH   4   5
ENDBRANCH   3   4
ENDBRANCH   2   3
ENDBRANCH   1   2
BRANCH   1  28
ATOM     28  C   UNL A   1      34.632  34.526  28.138  1.00  0.00     0.021 C 
BRANCH  28  29
ATOM     29  C   UNL A   1      33.396  34.033  28.880  1.00  0.00     0.116 C 
BRANCH  29  30
ATOM     30  N   UNL A   1      32.926  35.000  29.857  1.00  0.00    -0.352 N 
ATOM     31  C   UNL A   1      33.334  35.177  31.156  1.00  0.00     0.251 C 
ATOM     32  H   UNL A   1      32.220  35.611  29.545  1.00  0.00     0.163 HD
ATOM     33  O   UNL A   1      32.707  35.918  31.901  1.00  0.00    -0.269 OA
BRANCH  31  34
ATOM     34  C   UNL A   1      34.522  34.447  31.646  1.00  0.00     0.039 A 
ATOM     35  C   UNL A   1      34.346  33.197  32.242  1.00  0.00     0.014 A 
ATOM     36  C   UNL A   1      35.802  34.991  31.510  1.00  0.00     0.014 A 
ATOM     37  C   UNL A   1      35.461  32.473  32.664  1.00  0.00     0.010 A 
ATOM     38  C   UNL A   1      36.915  34.235  31.858  1.00  0.00     0.010 A 
ATOM     39  C   UNL A   1      36.757  32.973  32.451  1.00  0.00    -0.014 A 
BRANCH  39  40
ATOM     40  C   UNL A   1      37.956  32.193  32.849  1.00  0.00     0.031 A 
ATOM     41  C   UNL A   1      38.695  32.540  34.114  1.00  0.00     0.074 A 
ATOM     42  C   UNL A   1      38.418  31.223  32.037  1.00  0.00     0.049 A 
ATOM     43  N   UNL A   1      39.792  32.016  34.595  1.00  0.00    -0.248 NA
ATOM     44  C   UNL A   1      38.146  33.632  34.934  1.00  0.00     0.031 C 
ATOM     45  C   UNL A   1      37.831  30.843  30.749  1.00  0.00     0.029 A 
ATOM     46  N   UNL A   1      39.505  30.392  32.161  1.00  0.00    -0.354 N 
ATOM     47  C   UNL A   1      40.078  32.730  35.753  1.00  0.00     0.074 A 
ATOM     48  C   UNL A   1      39.063  33.751  35.883  1.00  0.00     0.031 C 
ATOM     49  C   UNL A   1      38.562  29.858  30.204  1.00  0.00     0.029 A 
ATOM     50  C   UNL A   1      39.688  29.557  31.083  1.00  0.00     0.049 A 
ATOM     51  H   UNL A   1      40.098  30.396  32.947  1.00  0.00     0.167 HD
ATOM     52  C   UNL A   1      41.077  32.533  36.647  1.00  0.00     0.034 A 
ATOM     53  C   UNL A   1      40.660  28.662  30.825  1.00  0.00     0.034 A 
ATOM     54  C   UNL A   1      42.064  31.493  36.534  1.00  0.00     0.049 A 
ATOM     55  C   UNL A   1      41.747  28.452  31.847  1.00  0.00     0.074 A 
ATOM     56  C   UNL A   1      43.074  31.168  37.420  1.00  0.00     0.029 A 
ATOM     57  N   UNL A   1      42.167  30.613  35.468  1.00  0.00    -0.354 N 
ATOM     58  N   UNL A   1      41.917  29.042  33.005  1.00  0.00    -0.248 NA
ATOM     59  C   UNL A   1      42.754  27.425  31.544  1.00  0.00     0.031 C 
ATOM     60  C   UNL A   1      43.807  30.109  36.878  1.00  0.00     0.029 A 
ATOM     61  C   UNL A   1      43.228  29.749  35.671  1.00  0.00     0.049 A 
ATOM     62  H   UNL A   1      41.573  30.604  34.683  1.00  0.00     0.167 HD
ATOM     63  C   UNL A   1      43.021  28.430  33.585  1.00  0.00     0.074 A 
ATOM     64  C   UNL A   1      43.468  27.409  32.661  1.00  0.00     0.031 C 
ATOM     65  C   UNL A   1      43.623  28.698  34.770  1.00  0.00     0.034 A 
BRANCH  52  66
ATOM     66  C   UNL A   1      41.124  33.425  37.860  1.00  0.00     0.023 A 
ATOM     67  C   UNL A   1      42.062  34.475  37.913  1.00  0.00     0.012 A 
ATOM     68  C   UNL A   1      40.192  33.278  38.906  1.00  0.00     0.148 A 
ATOM     69  C   UNL A   1      42.092  35.349  38.999  1.00  0.00     0.002 A 
ATOM     70  C   UNL A   1      40.196  34.180  39.962  1.00  0.00     0.091 A 
ATOM     71  F   UNL A   1      39.319  32.262  38.845  1.00  0.00    -0.205 F 
ATOM     72  C   UNL A   1      41.152  35.208  40.016  1.00  0.00     0.022 A 
BRANCH  70  73
ATOM     73  S   UNL A   1      38.980  34.138  41.283  1.00  0.00     0.127 S 
ATOM     74  O   UNL A   1      39.470  33.028  42.100  1.00  0.00    -0.237 OA
ATOM     75  O   UNL A   1      39.142  35.458  41.890  1.00  0.00    -0.237 OA
ATOM     76  O   UNL A   1      37.693  33.913  40.641  1.00  0.00    -0.744 OA
ENDBRANCH  70  73
ENDBRANCH  52  66
BRANCH  53  77
ATOM     77  C   UNL A   1      40.640  27.868  29.564  1.00  0.00     0.023 A 
ATOM     78  C   UNL A   1      39.759  26.776  29.441  1.00  0.00     0.012 A 
ATOM     79  C   UNL A   1      41.495  28.183  28.491  1.00  0.00     0.148 A 
ATOM     80  C   UNL A   1      39.765  25.982  28.293  1.00  0.00     0.002 A 
ATOM     81  C   UNL A   1      41.454  27.426  27.326  1.00  0.00     0.091 A 
ATOM     82  F   UNL A   1      42.333  29.220  28.629  1.00  0.00    -0.205 F 
ATOM     83  C   UNL A   1      40.606  26.312  27.233  1.00  0.00     0.022 A 
BRANCH  81  84
ATOM     84  S   UNL A   1      42.406  27.859  25.867  1.00  0.00     0.127 S 
ATOM     85  O   UNL A   1      43.775  27.761  26.364  1.00  0.00    -0.237 OA
ATOM     86  O   UNL A   1      42.013  26.809  24.927  1.00  0.00    -0.237 OA
ATOM     87  O   UNL A   1      41.960  29.195  25.493  1.00  0.00    -0.744 OA
ENDBRANCH  81  84
ENDBRANCH  53  77
BRANCH  65  88
ATOM     88  C   UNL A   1      44.794  27.841  35.170  1.00  0.00     0.023 A 
ATOM     89  C   UNL A   1      46.108  28.260  34.883  1.00  0.00     0.012 A 
ATOM     90  C   UNL A   1      44.591  26.651  35.897  1.00  0.00     0.148 A 
ATOM     91  C   UNL A   1      47.201  27.489  35.280  1.00  0.00     0.002 A 
ATOM     92  C   UNL A   1      45.685  25.917  36.337  1.00  0.00     0.091 A 
ATOM     93  F   UNL A   1      43.333  26.262  36.146  1.00  0.00    -0.205 F 
ATOM     94  C   UNL A   1      46.989  26.325  36.016  1.00  0.00     0.022 A 
BRANCH  92  95
ATOM     95  S   UNL A   1      45.514  24.462  37.376  1.00  0.00     0.127 S 
ATOM     96  O   UNL A   1      46.902  24.197  37.747  1.00  0.00    -0.237 OA
ATOM     97  O   UNL A   1      44.674  24.959  38.467  1.00  0.00    -0.237 OA
ATOM     98  O   UNL A   1      44.887  23.444  36.544  1.00  0.00    -0.744 OA
ENDBRANCH  92  95
ENDBRANCH  65  88
ENDBRANCH  39  40
ENDBRANCH  31  34
ENDBRANCH  29  30
ENDBRANCH  28  29
ENDBRANCH   1  28
TORSDOF 19
ENDMDL
MODEL 3
REMARK VINA RESULT:     -11.8      2.206      7.980
REMARK SMILES C[C@@](NC(=O)[C@H]1COc2ccccc21)(C(=O)NCCCCCCNC(=O)c1ccc(-c2c3nc(c(-c4cccc(S(=O)(=O)[O-])c4F)c4ccc([nH]4)c(-c4cccc(S(=O)(=O)[O-])c4F)c4nc(c(-c5cccc(S(=O)(=O)[O-])c5F)c5ccc2[nH]5)C=C4)C=C3)cc1)C(F)(F)F
REMARK SMILES IDX 21 1 20 2 19 3 18 4 17 5 15 6 16 7 2 9 1 10 3 11 4 12 5 14
REMARK SMILES IDX 6 15 7 16 14 17 8 18 9 19 13 20 10 21 12 22 11 23 90 24
REMARK SMILES IDX 91 25 92 26 93 27 22 28 23 29 24 30 25 31 26 33 27 34 28 35
REMARK SMILES IDX 89 36 29 37 88 38 30 39 31 40 32 41 82 42 33 43 87 44 81 45
REMARK SMILES IDX 83 46 34 47 86 48 80 49 79 50 35 52 67 53 47 54 66 55 48 56
REMARK SMILES IDX 51 57 65 58 84 59 49 60 50 61 64 63 85 64 52 65 36 66 37 67
REMARK SMILES IDX 45 68 38 69 40 70 46 71 39 72 41 73 42 74 43 75 44 76 68 77
REMARK SMILES IDX 69 78 77 79 70 80 72 81 78 82 71 83 73 84 74 85 75 86 76 87
REMARK SMILES IDX 53 88 54 89 62 90 55 91 57 92 63 93 56 94 58 95 59 96 60 97
REMARK SMILES IDX 61 98
REMARK H PARENT 17 8 3 13 24 32 83 51 51 62
REMARK Flexibility Score: inf
ROOT
ATOM      1  C   UNL A   1      31.658  30.674  26.749  1.00  0.00     0.002 C 
ENDROOT
BRANCH   1   2
ATOM      2  C   UNL A   1      31.956  30.042  25.386  1.00  0.00     0.002 C 
BRANCH   2   3
ATOM      3  C   UNL A   1      30.750  29.915  24.449  1.00  0.00     0.021 C 
BRANCH   3   4
ATOM      4  C   UNL A   1      30.937  28.880  23.351  1.00  0.00     0.116 C 
BRANCH   4   5
ATOM      5  N   UNL A   1      32.269  28.957  22.781  1.00  0.00    -0.354 N 
ATOM      6  C   UNL A   1      33.199  27.979  22.576  1.00  0.00     0.254 C 
ATOM      7  O   UNL A   1      34.188  28.297  21.912  1.00  0.00    -0.272 OA
ATOM      8  H   UNL A   1      32.547  29.858  22.496  1.00  0.00     0.163 HD
BRANCH   6   9
ATOM      9  C   UNL A   1      33.031  26.581  23.188  1.00  0.00     0.212 C 
ATOM     10  C   UNL A   1      31.514  26.328  23.365  1.00  0.00     0.056 C 
BRANCH   9  11
ATOM     11  N   UNL A   1      33.614  25.476  22.347  1.00  0.00    -0.334 N 
ATOM     12  C   UNL A   1      33.304  24.137  22.322  1.00  0.00     0.232 C 
ATOM     13  H   UNL A   1      34.323  25.754  21.724  1.00  0.00     0.164 HD
ATOM     14  O   UNL A   1      33.309  23.595  21.216  1.00  0.00    -0.274 OA
BRANCH  12  15
ATOM     15  C   UNL A   1      33.075  23.358  23.606  1.00  0.00     0.150 C 
ATOM     16  C   UNL A   1      31.890  22.395  23.523  1.00  0.00     0.248 C 
ATOM     17  C   UNL A   1      34.160  22.403  23.981  1.00  0.00     0.010 A 
ATOM     18  O   UNL A   1      32.256  21.095  24.049  1.00  0.00    -0.492 OA
ATOM     19  C   UNL A   1      33.604  21.172  24.276  1.00  0.00     0.123 A 
ATOM     20  C   UNL A   1      35.515  22.624  24.181  1.00  0.00     0.008 A 
ATOM     21  C   UNL A   1      34.353  20.136  24.801  1.00  0.00     0.047 A 
ATOM     22  C   UNL A   1      36.290  21.595  24.729  1.00  0.00     0.001 A 
ATOM     23  C   UNL A   1      35.709  20.359  25.045  1.00  0.00     0.004 A 
ENDBRANCH  12  15
ENDBRANCH   9  11
BRANCH   9  24
ATOM     24  C   UNL A   1      33.634  26.618  24.612  1.00  0.00     0.420 C 
ATOM     25  F   UNL A   1      34.696  25.796  24.758  1.00  0.00    -0.168 F 
ATOM     26  F   UNL A   1      34.088  27.871  24.888  1.00  0.00    -0.168 F 
ATOM     27  F   UNL A   1      32.724  26.319  25.566  1.00  0.00    -0.168 F 
ENDBRANCH   9  24
ENDBRANCH   6   9
ENDBRANCH   4   5
ENDBRANCH   3   4
ENDBRANCH   2   3
ENDBRANCH   1   2
BRANCH   1  28
ATOM     28  C   UNL A   1      31.530  32.200  26.741  1.00  0.00     0.021 C 
BRANCH  28  29
ATOM     29  C   UNL A   1      32.824  32.941  27.055  1.00  0.00     0.116 C 
BRANCH  29  30
ATOM     30  N   UNL A   1      32.575  34.244  27.647  1.00  0.00    -0.352 N 
ATOM     31  C   UNL A   1      33.139  34.800  28.769  1.00  0.00     0.251 C 
ATOM     32  H   UNL A   1      31.913  34.803  27.181  1.00  0.00     0.163 HD
ATOM     33  O   UNL A   1      32.685  35.836  29.236  1.00  0.00    -0.269 OA
BRANCH  31  34
ATOM     34  C   UNL A   1      34.284  34.123  29.414  1.00  0.00     0.039 A 
ATOM     35  C   UNL A   1      35.578  34.452  29.008  1.00  0.00     0.014 A 
ATOM     36  C   UNL A   1      34.079  33.174  30.420  1.00  0.00     0.014 A 
ATOM     37  C   UNL A   1      36.670  33.860  29.642  1.00  0.00     0.010 A 
ATOM     38  C   UNL A   1      35.168  32.644  31.103  1.00  0.00     0.010 A 
ATOM     39  C   UNL A   1      36.475  32.971  30.713  1.00  0.00    -0.014 A 
BRANCH  39  40
ATOM     40  C   UNL A   1      37.627  32.370  31.430  1.00  0.00     0.031 A 
ATOM     41  C   UNL A   1      38.383  31.222  30.815  1.00  0.00     0.074 A 
ATOM     42  C   UNL A   1      37.947  32.809  32.664  1.00  0.00     0.049 A 
ATOM     43  N   UNL A   1      39.375  30.529  31.312  1.00  0.00    -0.248 NA
ATOM     44  C   UNL A   1      37.957  30.779  29.477  1.00  0.00     0.031 C 
ATOM     45  C   UNL A   1      37.243  33.865  33.396  1.00  0.00     0.029 A 
ATOM     46  N   UNL A   1      38.931  32.406  33.531  1.00  0.00    -0.354 N 
ATOM     47  C   UNL A   1      39.670  29.556  30.365  1.00  0.00     0.074 A 
ATOM     48  C   UNL A   1      38.728  29.720  29.280  1.00  0.00     0.031 C 
ATOM     49  C   UNL A   1      37.817  34.025  34.599  1.00  0.00     0.029 A 
ATOM     50  C   UNL A   1      38.905  33.064  34.740  1.00  0.00     0.049 A 
ATOM     51  H   UNL A   1      39.591  31.710  33.311  1.00  0.00     0.167 HD
ATOM     52  C   UNL A   1      40.658  28.629  30.381  1.00  0.00     0.034 A 
ATOM     53  C   UNL A   1      39.663  32.900  35.841  1.00  0.00     0.034 A 
ATOM     54  C   UNL A   1      41.615  28.492  31.444  1.00  0.00     0.049 A 
ATOM     55  C   UNL A   1      40.766  31.874  35.821  1.00  0.00     0.074 A 
ATOM     56  C   UNL A   1      42.694  27.630  31.523  1.00  0.00     0.029 A 
ATOM     57  N   UNL A   1      41.607  29.233  32.616  1.00  0.00    -0.354 N 
ATOM     58  N   UNL A   1      41.118  31.059  34.857  1.00  0.00    -0.248 NA
ATOM     59  C   UNL A   1      41.601  31.772  37.027  1.00  0.00     0.031 C 
ATOM     60  C   UNL A   1      43.324  27.829  32.754  1.00  0.00     0.029 A 
ATOM     61  C   UNL A   1      42.659  28.843  33.426  1.00  0.00     0.049 A 
ATOM     62  H   UNL A   1      40.952  29.932  32.837  1.00  0.00     0.167 HD
ATOM     63  C   UNL A   1      42.238  30.380  35.322  1.00  0.00     0.074 A 
ATOM     64  C   UNL A   1      42.518  30.894  36.646  1.00  0.00     0.031 C 
ATOM     65  C   UNL A   1      42.961  29.407  34.716  1.00  0.00     0.034 A 
BRANCH  52  66
ATOM     66  C   UNL A   1      40.792  27.721  29.186  1.00  0.00     0.023 A 
ATOM     67  C   UNL A   1      39.964  26.585  29.081  1.00  0.00     0.012 A 
ATOM     68  C   UNL A   1      41.673  28.033  28.132  1.00  0.00     0.148 A 
ATOM     69  C   UNL A   1      40.029  25.758  27.960  1.00  0.00     0.002 A 
ATOM     70  C   UNL A   1      41.700  27.231  26.998  1.00  0.00     0.091 A 
ATOM     71  F   UNL A   1      42.465  29.108  28.259  1.00  0.00    -0.205 F 
ATOM     72  C   UNL A   1      40.888  26.088  26.915  1.00  0.00     0.022 A 
BRANCH  70  73
ATOM     73  S   UNL A   1      42.710  27.610  25.562  1.00  0.00     0.127 S 
ATOM     74  O   UNL A   1      44.025  27.808  26.171  1.00  0.00    -0.237 OA
ATOM     75  O   UNL A   1      42.584  26.388  24.769  1.00  0.00    -0.237 OA
ATOM     76  O   UNL A   1      42.123  28.796  24.956  1.00  0.00    -0.744 OA
ENDBRANCH  70  73
ENDBRANCH  52  66
BRANCH  53  77
ATOM     77  C   UNL A   1      39.436  33.746  37.046  1.00  0.00     0.023 A 
ATOM     78  C   UNL A   1      39.921  35.069  37.073  1.00  0.00     0.012 A 
ATOM     79  C   UNL A   1      38.750  33.246  38.169  1.00  0.00     0.148 A 
ATOM     80  C   UNL A   1      39.771  35.860  38.213  1.00  0.00     0.002 A 
ATOM     81  C   UNL A   1      38.551  34.058  39.279  1.00  0.00     0.091 A 
ATOM     82  F   UNL A   1      38.304  31.982  38.130  1.00  0.00    -0.205 F 
ATOM     83  C   UNL A   1      39.080  35.358  39.312  1.00  0.00     0.022 A 
BRANCH  81  84
ATOM     84  S   UNL A   1      37.561  33.537  40.683  1.00  0.00     0.127 S 
ATOM     85  O   UNL A   1      36.368  33.009  40.028  1.00  0.00    -0.237 OA
ATOM     86  O   UNL A   1      38.423  32.529  41.302  1.00  0.00    -0.237 OA
ATOM     87  O   UNL A   1      37.367  34.735  41.489  1.00  0.00    -0.744 OA
ENDBRANCH  81  84
ENDBRANCH  53  77
BRANCH  65  88
ATOM     88  C   UNL A   1      44.163  28.870  35.447  1.00  0.00     0.023 A 
ATOM     89  C   UNL A   1      45.421  29.482  35.284  1.00  0.00     0.012 A 
ATOM     90  C   UNL A   1      44.026  27.800  36.353  1.00  0.00     0.148 A 
ATOM     91  C   UNL A   1      46.533  29.012  35.984  1.00  0.00     0.002 A 
ATOM     92  C   UNL A   1      45.125  27.373  37.087  1.00  0.00     0.091 A 
ATOM     93  F   UNL A   1      42.824  27.221  36.481  1.00  0.00    -0.205 F 
ATOM     94  C   UNL A   1      46.382  27.967  36.893  1.00  0.00     0.022 A 
BRANCH  92  95
ATOM     95  S   UNL A   1      45.006  26.105  38.352  1.00  0.00     0.127 S 
ATOM     96  O   UNL A   1      46.404  25.944  38.747  1.00  0.00    -0.237 OA
ATOM     97  O   UNL A   1      44.158  26.749  39.357  1.00  0.00    -0.237 OA
ATOM     98  O   UNL A   1      44.404  24.946  37.706  1.00  0.00    -0.744 OA
ENDBRANCH  92  95
ENDBRANCH  65  88
ENDBRANCH  39  40
ENDBRANCH  31  34
ENDBRANCH  29  30
ENDBRANCH  28  29
ENDBRANCH   1  28
TORSDOF 19
ENDMDL
