MODEL 1
REMARK VINA RESULT:     -10.5      0.000      0.000
REMARK SMILES COC(=O)[C@H]1Sc2nnc(CCC(=O)NCCCCCCNC(=O)c3ccc(-c4c5nc(c(-c6cccc(S(=O)(=O)[O-])c6F)c6ccc([nH]6)c(-c6cccc(S(=O)(=O)[O-])c6F)c6nc(c(-c7cccc(S(=O)(=O)[O-])c7F)c7ccc4[nH]7)C=C6)C=C5)cc3)c(=O)n2N=C1C
REMARK SMILES IDX 18 1 17 2 16 3 15 4 13 5 14 6 12 8 11 9 10 10 5 11 6 12
REMARK SMILES IDX 92 13 7 14 91 15 93 16 8 17 90 18 9 19 88 20 89 21 3 22 4 23
REMARK SMILES IDX 2 24 1 25 19 26 20 27 21 28 22 29 23 30 24 32 25 33 26 34
REMARK SMILES IDX 87 35 27 36 86 37 28 38 29 39 30 40 80 41 31 42 85 43 79 44
REMARK SMILES IDX 81 45 32 46 84 47 78 48 77 49 33 51 65 52 45 53 64 54 46 55
REMARK SMILES IDX 49 56 63 57 82 58 47 59 48 60 62 62 83 63 50 64 34 65 35 66
REMARK SMILES IDX 43 67 36 68 38 69 44 70 37 71 39 72 40 73 41 74 42 75 66 76
REMARK SMILES IDX 67 77 75 78 68 79 70 80 76 81 69 82 71 83 72 84 73 85 74 86
REMARK SMILES IDX 51 87 52 88 60 89 53 90 55 91 61 92 54 93 56 94 57 95 58 96
REMARK SMILES IDX 59 97
REMARK H PARENT 15 7 22 31 81 50 49 61
REMARK Flexibility Score: inf
ROOT
ATOM      1  C   UNL A   1      37.313  21.805  24.510  1.00  0.00     0.002 C 
ENDROOT
BRANCH   1   2
ATOM      2  C   UNL A   1      35.789  21.680  24.520  1.00  0.00     0.021 C 
BRANCH   2   3
ATOM      3  C   UNL A   1      35.103  21.318  25.836  1.00  0.00     0.116 C 
BRANCH   3   4
ATOM      4  N   UNL A   1      34.260  20.137  25.688  1.00  0.00    -0.356 N 
ATOM      5  C   UNL A   1      33.011  19.980  25.164  1.00  0.00     0.220 C 
ATOM      6  O   UNL A   1      32.493  18.862  25.220  1.00  0.00    -0.275 OA
ATOM      7  H   UNL A   1      34.665  19.305  26.025  1.00  0.00     0.163 HD
BRANCH   5   8
ATOM      8  C   UNL A   1      32.281  21.133  24.498  1.00  0.00     0.106 C 
BRANCH   8   9
ATOM      9  C   UNL A   1      31.300  21.823  25.442  1.00  0.00     0.074 C 
BRANCH   9  10
ATOM     10  C   UNL A   1      31.049  23.255  25.030  1.00  0.00     0.131 A 
ATOM     11  C   UNL A   1      31.684  28.268  25.033  1.00  0.00     0.210 C 
ATOM     12  S   UNL A   1      30.471  27.494  23.931  1.00  0.00    -0.063 SA
ATOM     13  C   UNL A   1      31.460  27.712  26.426  1.00  0.00     0.061 C 
ATOM     14  C   UNL A   1      30.811  25.837  24.374  1.00  0.00     0.214 A 
ATOM     15  N   UNL A   1      31.110  26.496  26.711  1.00  0.00    -0.171 NA
ATOM     16  C   UNL A   1      31.696  28.601  27.628  1.00  0.00     0.065 C 
ATOM     17  N   UNL A   1      30.836  24.938  23.444  1.00  0.00    -0.123 NA
ATOM     18  N   UNL A   1      30.948  25.566  25.711  1.00  0.00    -0.169 N 
ATOM     19  N   UNL A   1      31.090  23.598  23.782  1.00  0.00    -0.147 NA
ATOM     20  C   UNL A   1      30.815  24.255  26.128  1.00  0.00     0.296 A 
ATOM     21  O   UNL A   1      30.558  23.853  27.247  1.00  0.00    -0.265 OA
BRANCH  11  22
ATOM     22  C   UNL A   1      33.059  28.061  24.430  1.00  0.00     0.325 C 
ATOM     23  O   UNL A   1      33.904  27.295  24.870  1.00  0.00    -0.250 OA
BRANCH  22  24
ATOM     24  O   UNL A   1      33.196  28.811  23.303  1.00  0.00    -0.468 OA
ATOM     25  C   UNL A   1      33.846  28.205  22.174  1.00  0.00     0.282 C 
ENDBRANCH  22  24
ENDBRANCH  11  22
ENDBRANCH   9  10
ENDBRANCH   8   9
ENDBRANCH   5   8
ENDBRANCH   3   4
ENDBRANCH   2   3
ENDBRANCH   1   2
BRANCH   1  26
ATOM     26  C   UNL A   1      38.138  20.708  25.195  1.00  0.00     0.002 C 
BRANCH  26  27
ATOM     27  C   UNL A   1      39.337  21.089  26.079  1.00  0.00     0.021 C 
BRANCH  27  28
ATOM     28  C   UNL A   1      40.192  19.987  26.716  1.00  0.00     0.116 C 
BRANCH  28  29
ATOM     29  N   UNL A   1      41.372  19.589  25.970  1.00  0.00    -0.352 N 
ATOM     30  C   UNL A   1      42.530  20.305  25.748  1.00  0.00     0.251 C 
ATOM     31  H   UNL A   1      41.342  18.689  25.571  1.00  0.00     0.163 HD
ATOM     32  O   UNL A   1      43.454  19.799  25.117  1.00  0.00    -0.269 OA
BRANCH  30  33
ATOM     33  C   UNL A   1      42.676  21.694  26.249  1.00  0.00     0.039 A 
ATOM     34  C   UNL A   1      42.811  21.911  27.621  1.00  0.00     0.014 A 
ATOM     35  C   UNL A   1      42.596  22.791  25.389  1.00  0.00     0.014 A 
ATOM     36  C   UNL A   1      42.919  23.219  28.117  1.00  0.00     0.010 A 
ATOM     37  C   UNL A   1      42.737  24.097  25.881  1.00  0.00     0.010 A 
ATOM     38  C   UNL A   1      42.911  24.331  27.254  1.00  0.00    -0.014 A 
BRANCH  38  39
ATOM     39  C   UNL A   1      43.153  25.707  27.788  1.00  0.00     0.031 A 
ATOM     40  C   UNL A   1      44.534  26.311  27.863  1.00  0.00     0.074 A 
ATOM     41  C   UNL A   1      42.109  26.426  28.249  1.00  0.00     0.049 A 
ATOM     42  N   UNL A   1      44.880  27.524  28.223  1.00  0.00    -0.248 NA
ATOM     43  C   UNL A   1      45.671  25.452  27.502  1.00  0.00     0.031 C 
ATOM     44  C   UNL A   1      40.728  25.950  28.321  1.00  0.00     0.029 A 
ATOM     45  N   UNL A   1      42.043  27.706  28.750  1.00  0.00    -0.354 N 
ATOM     46  C   UNL A   1      46.267  27.574  28.138  1.00  0.00     0.074 A 
ATOM     47  C   UNL A   1      46.704  26.254  27.732  1.00  0.00     0.031 C 
ATOM     48  C   UNL A   1      39.949  26.926  28.815  1.00  0.00     0.029 A 
ATOM     49  C   UNL A   1      40.773  28.096  29.108  1.00  0.00     0.049 A 
ATOM     50  H   UNL A   1      42.832  28.288  28.843  1.00  0.00     0.167 HD
ATOM     51  C   UNL A   1      47.099  28.626  28.339  1.00  0.00     0.034 A 
ATOM     52  C   UNL A   1      40.310  29.264  29.602  1.00  0.00     0.034 A 
ATOM     53  C   UNL A   1      46.673  29.953  28.703  1.00  0.00     0.049 A 
ATOM     54  C   UNL A   1      41.249  30.425  29.788  1.00  0.00     0.074 A 
ATOM     55  C   UNL A   1      47.446  31.096  28.831  1.00  0.00     0.029 A 
ATOM     56  N   UNL A   1      45.373  30.320  29.007  1.00  0.00    -0.354 N 
ATOM     57  N   UNL A   1      42.528  30.500  29.515  1.00  0.00    -0.248 NA
ATOM     58  C   UNL A   1      40.674  31.674  30.312  1.00  0.00     0.031 C 
ATOM     59  C   UNL A   1      46.617  32.148  29.232  1.00  0.00     0.029 A 
ATOM     60  C   UNL A   1      45.324  31.666  29.336  1.00  0.00     0.049 A 
ATOM     61  H   UNL A   1      44.597  29.714  28.992  1.00  0.00     0.167 HD
ATOM     62  C   UNL A   1      42.904  31.808  29.807  1.00  0.00     0.074 A 
ATOM     63  C   UNL A   1      41.712  32.498  30.251  1.00  0.00     0.031 C 
ATOM     64  C   UNL A   1      44.133  32.374  29.730  1.00  0.00     0.034 A 
BRANCH  51  65
ATOM     65  C   UNL A   1      48.573  28.427  28.084  1.00  0.00     0.023 A 
ATOM     66  C   UNL A   1      49.390  27.966  29.135  1.00  0.00     0.012 A 
ATOM     67  C   UNL A   1      49.119  28.564  26.792  1.00  0.00     0.148 A 
ATOM     68  C   UNL A   1      50.732  27.661  28.911  1.00  0.00     0.002 A 
ATOM     69  C   UNL A   1      50.448  28.220  26.568  1.00  0.00     0.091 A 
ATOM     70  F   UNL A   1      48.328  29.013  25.808  1.00  0.00    -0.205 F 
ATOM     71  C   UNL A   1      51.257  27.776  27.628  1.00  0.00     0.022 A 
BRANCH  69  72
ATOM     72  S   UNL A   1      51.203  28.251  24.937  1.00  0.00     0.127 S 
ATOM     73  O   UNL A   1      51.340  29.687  24.704  1.00  0.00    -0.237 OA
ATOM     74  O   UNL A   1      52.464  27.546  25.167  1.00  0.00    -0.237 OA
ATOM     75  O   UNL A   1      50.273  27.562  24.052  1.00  0.00    -0.744 OA
ENDBRANCH  69  72
ENDBRANCH  51  65
BRANCH  52  76
ATOM     76  C   UNL A   1      38.851  29.418  29.869  1.00  0.00     0.023 A 
ATOM     77  C   UNL A   1      38.355  29.172  31.165  1.00  0.00     0.012 A 
ATOM     78  C   UNL A   1      37.965  29.854  28.865  1.00  0.00     0.148 A 
ATOM     79  C   UNL A   1      36.999  29.333  31.449  1.00  0.00     0.002 A 
ATOM     80  C   UNL A   1      36.627  30.072  29.172  1.00  0.00     0.091 A 
ATOM     81  F   UNL A   1      38.453  30.068  27.636  1.00  0.00    -0.205 F 
ATOM     82  C   UNL A   1      36.139  29.796  30.458  1.00  0.00     0.022 A 
BRANCH  80  83
ATOM     83  S   UNL A   1      35.488  30.816  27.999  1.00  0.00     0.127 S 
ATOM     84  O   UNL A   1      36.200  32.031  27.618  1.00  0.00    -0.237 OA
ATOM     85  O   UNL A   1      35.414  29.789  26.958  1.00  0.00    -0.237 OA
ATOM     86  O   UNL A   1      34.245  31.007  28.734  1.00  0.00    -0.744 OA
ENDBRANCH  80  83
ENDBRANCH  52  76
BRANCH  64  87
ATOM     87  C   UNL A   1      44.279  33.822  30.128  1.00  0.00     0.023 A 
ATOM     88  C   UNL A   1      44.134  34.828  29.152  1.00  0.00     0.012 A 
ATOM     89  C   UNL A   1      44.451  34.193  31.478  1.00  0.00     0.148 A 
ATOM     90  C   UNL A   1      44.177  36.176  29.507  1.00  0.00     0.002 A 
ATOM     91  C   UNL A   1      44.446  35.539  31.831  1.00  0.00     0.091 A 
ATOM     92  F   UNL A   1      44.606  33.224  32.392  1.00  0.00    -0.205 F 
ATOM     93  C   UNL A   1      44.319  36.531  30.846  1.00  0.00     0.022 A 
BRANCH  91  94
ATOM     94  S   UNL A   1      44.523  36.090  33.540  1.00  0.00     0.127 S 
ATOM     95  O   UNL A   1      45.861  35.652  33.935  1.00  0.00    -0.237 OA
ATOM     96  O   UNL A   1      44.372  37.539  33.407  1.00  0.00    -0.237 OA
ATOM     97  O   UNL A   1      43.422  35.428  34.226  1.00  0.00    -0.744 OA
ENDBRANCH  91  94
ENDBRANCH  64  87
ENDBRANCH  38  39
ENDBRANCH  30  33
ENDBRANCH  28  29
ENDBRANCH  27  28
ENDBRANCH  26  27
ENDBRANCH   1  26
TORSDOF 20
ENDMDL
MODEL 2
REMARK VINA RESULT:     -10.5      2.575      7.834
REMARK SMILES COC(=O)[C@H]1Sc2nnc(CCC(=O)NCCCCCCNC(=O)c3ccc(-c4c5nc(c(-c6cccc(S(=O)(=O)[O-])c6F)c6ccc([nH]6)c(-c6cccc(S(=O)(=O)[O-])c6F)c6nc(c(-c7cccc(S(=O)(=O)[O-])c7F)c7ccc4[nH]7)C=C6)C=C5)cc3)c(=O)n2N=C1C
REMARK SMILES IDX 18 1 17 2 16 3 15 4 13 5 14 6 12 8 11 9 10 10 5 11 6 12
REMARK SMILES IDX 92 13 7 14 91 15 93 16 8 17 90 18 9 19 88 20 89 21 3 22 4 23
REMARK SMILES IDX 2 24 1 25 19 26 20 27 21 28 22 29 23 30 24 32 25 33 26 34
REMARK SMILES IDX 87 35 27 36 86 37 28 38 29 39 30 40 80 41 31 42 85 43 79 44
REMARK SMILES IDX 81 45 32 46 84 47 78 48 77 49 33 51 65 52 45 53 64 54 46 55
REMARK SMILES IDX 49 56 63 57 82 58 47 59 48 60 62 62 83 63 50 64 34 65 35 66
REMARK SMILES IDX 43 67 36 68 38 69 44 70 37 71 39 72 40 73 41 74 42 75 66 76
REMARK SMILES IDX 67 77 75 78 68 79 70 80 76 81 69 82 71 83 72 84 73 85 74 86
REMARK SMILES IDX 51 87 52 88 60 89 53 90 55 91 61 92 54 93 56 94 57 95 58 96
REMARK SMILES IDX 59 97
REMARK H PARENT 15 7 22 31 81 50 49 61
REMARK Flexibility Score: inf
ROOT
ATOM      1  C   UNL A   1      37.521  21.955  25.510  1.00  0.00     0.002 C 
ENDROOT
BRANCH   1   2
ATOM      2  C   UNL A   1      36.794  23.020  24.688  1.00  0.00     0.021 C 
BRANCH   2   3
ATOM      3  C   UNL A   1      35.501  23.608  25.251  1.00  0.00     0.116 C 
BRANCH   3   4
ATOM      4  N   UNL A   1      35.029  22.847  26.402  1.00  0.00    -0.356 N 
ATOM      5  C   UNL A   1      34.038  21.918  26.525  1.00  0.00     0.220 C 
ATOM      6  O   UNL A   1      33.800  21.466  27.648  1.00  0.00    -0.275 OA
ATOM      7  H   UNL A   1      35.513  23.036  27.239  1.00  0.00     0.163 HD
BRANCH   5   8
ATOM      8  C   UNL A   1      33.264  21.422  25.317  1.00  0.00     0.106 C 
BRANCH   8   9
ATOM      9  C   UNL A   1      31.754  21.562  25.497  1.00  0.00     0.074 C 
BRANCH   9  10
ATOM     10  C   UNL A   1      31.276  22.940  25.102  1.00  0.00     0.131 A 
ATOM     11  C   UNL A   1      31.281  27.991  24.945  1.00  0.00     0.210 C 
ATOM     12  S   UNL A   1      30.037  27.042  24.028  1.00  0.00    -0.063 SA
ATOM     13  C   UNL A   1      31.314  27.455  26.363  1.00  0.00     0.061 C 
ATOM     14  C   UNL A   1      30.636  25.453  24.446  1.00  0.00     0.214 A 
ATOM     15  N   UNL A   1      31.158  26.216  26.711  1.00  0.00    -0.171 NA
ATOM     16  C   UNL A   1      31.596  28.403  27.509  1.00  0.00     0.065 C 
ATOM     17  N   UNL A   1      30.647  24.535  23.534  1.00  0.00    -0.123 NA
ATOM     18  N   UNL A   1      30.981  25.242  25.756  1.00  0.00    -0.169 N 
ATOM     19  N   UNL A   1      31.108  23.247  23.855  1.00  0.00    -0.147 NA
ATOM     20  C   UNL A   1      31.068  23.938  26.206  1.00  0.00     0.296 A 
ATOM     21  O   UNL A   1      31.013  23.543  27.356  1.00  0.00    -0.265 OA
BRANCH  11  22
ATOM     22  C   UNL A   1      32.579  27.932  24.164  1.00  0.00     0.325 C 
ATOM     23  O   UNL A   1      33.683  28.179  24.628  1.00  0.00    -0.250 OA
BRANCH  22  24
ATOM     24  O   UNL A   1      32.343  27.516  22.890  1.00  0.00    -0.468 OA
ATOM     25  C   UNL A   1      33.472  27.096  22.105  1.00  0.00     0.282 C 
ENDBRANCH  22  24
ENDBRANCH  11  22
ENDBRANCH   9  10
ENDBRANCH   8   9
ENDBRANCH   5   8
ENDBRANCH   3   4
ENDBRANCH   2   3
ENDBRANCH   1   2
BRANCH   1  26
ATOM     26  C   UNL A   1      38.890  22.306  26.108  1.00  0.00     0.002 C 
BRANCH  26  27
ATOM     27  C   UNL A   1      39.941  21.203  26.316  1.00  0.00     0.021 C 
BRANCH  27  28
ATOM     28  C   UNL A   1      39.657  19.779  25.821  1.00  0.00     0.116 C 
BRANCH  28  29
ATOM     29  N   UNL A   1      40.755  18.837  25.933  1.00  0.00    -0.352 N 
ATOM     30  C   UNL A   1      42.073  19.088  26.250  1.00  0.00     0.251 C 
ATOM     31  H   UNL A   1      40.528  17.895  25.760  1.00  0.00     0.163 HD
ATOM     32  O   UNL A   1      42.873  18.160  26.335  1.00  0.00    -0.269 OA
BRANCH  30  33
ATOM     33  C   UNL A   1      42.553  20.474  26.477  1.00  0.00     0.039 A 
ATOM     34  C   UNL A   1      43.071  21.199  25.404  1.00  0.00     0.014 A 
ATOM     35  C   UNL A   1      42.577  21.036  27.755  1.00  0.00     0.014 A 
ATOM     36  C   UNL A   1      43.558  22.499  25.604  1.00  0.00     0.010 A 
ATOM     37  C   UNL A   1      43.033  22.349  27.951  1.00  0.00     0.010 A 
ATOM     38  C   UNL A   1      43.523  23.104  26.874  1.00  0.00    -0.014 A 
BRANCH  38  39
ATOM     39  C   UNL A   1      43.930  24.534  27.044  1.00  0.00     0.031 A 
ATOM     40  C   UNL A   1      42.970  25.594  27.527  1.00  0.00     0.074 A 
ATOM     41  C   UNL A   1      45.189  24.900  26.727  1.00  0.00     0.049 A 
ATOM     42  N   UNL A   1      43.210  26.853  27.801  1.00  0.00    -0.248 NA
ATOM     43  C   UNL A   1      41.566  25.202  27.715  1.00  0.00     0.031 C 
ATOM     44  C   UNL A   1      46.208  24.011  26.171  1.00  0.00     0.029 A 
ATOM     45  N   UNL A   1      45.827  26.116  26.820  1.00  0.00    -0.354 N 
ATOM     46  C   UNL A   1      41.993  27.406  28.188  1.00  0.00     0.074 A 
ATOM     47  C   UNL A   1      41.006  26.352  28.073  1.00  0.00     0.031 C 
ATOM     48  C   UNL A   1      47.346  24.701  25.990  1.00  0.00     0.029 A 
ATOM     49  C   UNL A   1      47.139  26.086  26.406  1.00  0.00     0.049 A 
ATOM     50  H   UNL A   1      45.386  26.931  27.153  1.00  0.00     0.167 HD
ATOM     51  C   UNL A   1      41.726  28.658  28.635  1.00  0.00     0.034 A 
ATOM     52  C   UNL A   1      48.082  27.052  26.374  1.00  0.00     0.034 A 
ATOM     53  C   UNL A   1      42.707  29.701  28.793  1.00  0.00     0.049 A 
ATOM     54  C   UNL A   1      47.768  28.424  26.904  1.00  0.00     0.074 A 
ATOM     55  C   UNL A   1      42.533  30.966  29.333  1.00  0.00     0.029 A 
ATOM     56  N   UNL A   1      44.035  29.615  28.410  1.00  0.00    -0.354 N 
ATOM     57  N   UNL A   1      46.658  28.864  27.444  1.00  0.00    -0.248 NA
ATOM     58  C   UNL A   1      48.847  29.423  26.856  1.00  0.00     0.031 C 
ATOM     59  C   UNL A   1      43.749  31.650  29.256  1.00  0.00     0.029 A 
ATOM     60  C   UNL A   1      44.687  30.806  28.687  1.00  0.00     0.049 A 
ATOM     61  H   UNL A   1      44.454  28.823  28.002  1.00  0.00     0.167 HD
ATOM     62  C   UNL A   1      46.914  30.178  27.826  1.00  0.00     0.074 A 
ATOM     63  C   UNL A   1      48.291  30.454  27.480  1.00  0.00     0.031 C 
ATOM     64  C   UNL A   1      46.071  31.074  28.394  1.00  0.00     0.034 A 
BRANCH  51  65
ATOM     65  C   UNL A   1      40.319  28.968  29.084  1.00  0.00     0.023 A 
ATOM     66  C   UNL A   1      39.331  29.211  28.109  1.00  0.00     0.012 A 
ATOM     67  C   UNL A   1      39.947  28.889  30.441  1.00  0.00     0.148 A 
ATOM     68  C   UNL A   1      37.998  29.388  28.477  1.00  0.00     0.002 A 
ATOM     69  C   UNL A   1      38.609  29.027  30.796  1.00  0.00     0.091 A 
ATOM     70  F   UNL A   1      40.902  28.667  31.354  1.00  0.00    -0.205 F 
ATOM     71  C   UNL A   1      37.635  29.285  29.816  1.00  0.00     0.022 A 
BRANCH  69  72
ATOM     72  S   UNL A   1      38.021  28.829  32.483  1.00  0.00     0.127 S 
ATOM     73  O   UNL A   1      36.637  29.283  32.367  1.00  0.00    -0.237 OA
ATOM     74  O   UNL A   1      38.176  27.389  32.696  1.00  0.00    -0.237 OA
ATOM     75  O   UNL A   1      38.884  29.663  33.309  1.00  0.00    -0.744 OA
ENDBRANCH  69  72
ENDBRANCH  51  65
BRANCH  52  76
ATOM     76  C   UNL A   1      49.455  26.718  25.899  1.00  0.00     0.023 A 
ATOM     77  C   UNL A   1      50.296  25.930  26.710  1.00  0.00     0.012 A 
ATOM     78  C   UNL A   1      49.914  27.132  24.633  1.00  0.00     0.148 A 
ATOM     79  C   UNL A   1      51.576  25.581  26.279  1.00  0.00     0.002 A 
ATOM     80  C   UNL A   1      51.165  26.728  24.186  1.00  0.00     0.091 A 
ATOM     81  F   UNL A   1      49.105  27.894  23.884  1.00  0.00    -0.205 F 
ATOM     82  C   UNL A   1      52.005  25.968  25.013  1.00  0.00     0.022 A 
BRANCH  80  83
ATOM     83  S   UNL A   1      51.729  27.049  22.510  1.00  0.00     0.127 S 
ATOM     84  O   UNL A   1      52.886  26.164  22.408  1.00  0.00    -0.237 OA
ATOM     85  O   UNL A   1      50.567  26.643  21.718  1.00  0.00    -0.237 OA
ATOM     86  O   UNL A   1      52.011  28.478  22.463  1.00  0.00    -0.744 OA
ENDBRANCH  80  83
ENDBRANCH  52  76
BRANCH  64  87
ATOM     87  C   UNL A   1      46.595  32.457  28.693  1.00  0.00     0.023 A 
ATOM     88  C   UNL A   1      47.123  32.737  29.969  1.00  0.00     0.012 A 
ATOM     89  C   UNL A   1      46.667  33.443  27.687  1.00  0.00     0.148 A 
ATOM     90  C   UNL A   1      47.694  33.979  30.247  1.00  0.00     0.002 A 
ATOM     91  C   UNL A   1      47.280  34.663  27.957  1.00  0.00     0.091 A 
ATOM     92  F   UNL A   1      46.144  33.167  26.483  1.00  0.00    -0.205 F 
ATOM     93  C   UNL A   1      47.785  34.935  29.239  1.00  0.00     0.022 A 
BRANCH  91  94
ATOM     94  S   UNL A   1      47.533  35.919  26.696  1.00  0.00     0.127 S 
ATOM     95  O   UNL A   1      48.265  35.172  25.675  1.00  0.00    -0.237 OA
ATOM     96  O   UNL A   1      46.162  36.270  26.328  1.00  0.00    -0.237 OA
ATOM     97  O   UNL A   1      48.279  36.990  27.341  1.00  0.00    -0.744 OA
ENDBRANCH  91  94
ENDBRANCH  64  87
ENDBRANCH  38  39
ENDBRANCH  30  33
ENDBRANCH  28  29
ENDBRANCH  27  28
ENDBRANCH  26  27
ENDBRANCH   1  26
TORSDOF 20
ENDMDL
MODEL 3
REMARK VINA RESULT:     -10.3      1.770      7.631
REMARK SMILES COC(=O)[C@H]1Sc2nnc(CCC(=O)NCCCCCCNC(=O)c3ccc(-c4c5nc(c(-c6cccc(S(=O)(=O)[O-])c6F)c6ccc([nH]6)c(-c6cccc(S(=O)(=O)[O-])c6F)c6nc(c(-c7cccc(S(=O)(=O)[O-])c7F)c7ccc4[nH]7)C=C6)C=C5)cc3)c(=O)n2N=C1C
REMARK SMILES IDX 18 1 17 2 16 3 15 4 13 5 14 6 12 8 11 9 10 10 5 11 6 12
REMARK SMILES IDX 92 13 7 14 91 15 93 16 8 17 90 18 9 19 88 20 89 21 3 22 4 23
REMARK SMILES IDX 2 24 1 25 19 26 20 27 21 28 22 29 23 30 24 32 25 33 26 34
REMARK SMILES IDX 87 35 27 36 86 37 28 38 29 39 30 40 80 41 31 42 85 43 79 44
REMARK SMILES IDX 81 45 32 46 84 47 78 48 77 49 33 51 65 52 45 53 64 54 46 55
REMARK SMILES IDX 49 56 63 57 82 58 47 59 48 60 62 62 83 63 50 64 34 65 35 66
REMARK SMILES IDX 43 67 36 68 38 69 44 70 37 71 39 72 40 73 41 74 42 75 66 76
REMARK SMILES IDX 67 77 75 78 68 79 70 80 76 81 69 82 71 83 72 84 73 85 74 86
REMARK SMILES IDX 51 87 52 88 60 89 53 90 55 91 61 92 54 93 56 94 57 95 58 96
REMARK SMILES IDX 59 97
REMARK H PARENT 15 7 22 31 81 50 49 61
REMARK Flexibility Score: inf
ROOT
ATOM      1  C   UNL A   1      38.248  23.437  26.579  1.00  0.00     0.002 C 
ENDROOT
BRANCH   1   2
ATOM      2  C   UNL A   1      37.205  23.466  25.462  1.00  0.00     0.021 C 
BRANCH   2   3
ATOM      3  C   UNL A   1      36.343  22.224  25.247  1.00  0.00     0.116 C 
BRANCH   3   4
ATOM      4  N   UNL A   1      35.482  21.970  26.396  1.00  0.00    -0.356 N 
ATOM      5  C   UNL A   1      34.168  21.613  26.479  1.00  0.00     0.220 C 
ATOM      6  O   UNL A   1      33.659  21.522  27.598  1.00  0.00    -0.275 OA
ATOM      7  H   UNL A   1      35.929  22.073  27.268  1.00  0.00     0.163 HD
BRANCH   5   8
ATOM      8  C   UNL A   1      33.353  21.302  25.236  1.00  0.00     0.106 C 
BRANCH   8   9
ATOM      9  C   UNL A   1      31.857  21.515  25.454  1.00  0.00     0.074 C 
BRANCH   9  10
ATOM     10  C   UNL A   1      31.431  22.906  25.048  1.00  0.00     0.131 A 
ATOM     11  C   UNL A   1      31.482  27.959  25.027  1.00  0.00     0.210 C 
ATOM     12  S   UNL A   1      30.337  27.045  23.960  1.00  0.00    -0.063 SA
ATOM     13  C   UNL A   1      31.363  27.387  26.426  1.00  0.00     0.061 C 
ATOM     14  C   UNL A   1      30.879  25.441  24.395  1.00  0.00     0.214 A 
ATOM     15  N   UNL A   1      31.163  26.140  26.723  1.00  0.00    -0.171 NA
ATOM     16  C   UNL A   1      31.528  28.302  27.620  1.00  0.00     0.065 C 
ATOM     17  N   UNL A   1      30.981  24.547  23.466  1.00  0.00    -0.123 NA
ATOM     18  N   UNL A   1      31.082  25.193  25.728  1.00  0.00    -0.169 N 
ATOM     19  N   UNL A   1      31.397  23.247  23.799  1.00  0.00    -0.147 NA
ATOM     20  C   UNL A   1      31.114  23.877  26.150  1.00  0.00     0.296 A 
ATOM     21  O   UNL A   1      30.936  23.453  27.277  1.00  0.00    -0.265 OA
BRANCH  11  22
ATOM     22  C   UNL A   1      32.855  27.910  24.386  1.00  0.00     0.325 C 
ATOM     23  O   UNL A   1      33.881  27.580  24.963  1.00  0.00    -0.250 OA
BRANCH  22  24
ATOM     24  O   UNL A   1      32.770  28.236  23.068  1.00  0.00    -0.468 OA
ATOM     25  C   UNL A   1      33.990  28.569  22.383  1.00  0.00     0.282 C 
ENDBRANCH  22  24
ENDBRANCH  11  22
ENDBRANCH   9  10
ENDBRANCH   8   9
ENDBRANCH   5   8
ENDBRANCH   3   4
ENDBRANCH   2   3
ENDBRANCH   1   2
BRANCH   1  26
ATOM     26  C   UNL A   1      39.468  22.523  26.413  1.00  0.00     0.002 C 
BRANCH  26  27
ATOM     27  C   UNL A   1      39.286  21.088  25.892  1.00  0.00     0.021 C 
BRANCH  27  28
ATOM     28  C   UNL A   1      39.857  19.911  26.692  1.00  0.00     0.116 C 
BRANCH  28  29
ATOM     29  N   UNL A   1      41.027  19.265  26.126  1.00  0.00    -0.352 N 
ATOM     30  C   UNL A   1      42.300  19.773  25.976  1.00  0.00     0.251 C 
ATOM     31  H   UNL A   1      40.893  18.343  25.808  1.00  0.00     0.163 HD
ATOM     32  O   UNL A   1      43.190  19.072  25.502  1.00  0.00    -0.269 OA
BRANCH  30  33
ATOM     33  C   UNL A   1      42.615  21.170  26.366  1.00  0.00     0.039 A 
ATOM     34  C   UNL A   1      42.840  22.119  25.369  1.00  0.00     0.014 A 
ATOM     35  C   UNL A   1      42.777  21.534  27.704  1.00  0.00     0.014 A 
ATOM     36  C   UNL A   1      43.170  23.438  25.716  1.00  0.00     0.010 A 
ATOM     37  C   UNL A   1      43.074  22.860  28.053  1.00  0.00     0.010 A 
ATOM     38  C   UNL A   1      43.266  23.836  27.063  1.00  0.00    -0.014 A 
BRANCH  38  39
ATOM     39  C   UNL A   1      43.494  25.272  27.414  1.00  0.00     0.031 A 
ATOM     40  C   UNL A   1      42.385  26.168  27.907  1.00  0.00     0.074 A 
ATOM     41  C   UNL A   1      44.727  25.798  27.259  1.00  0.00     0.049 A 
ATOM     42  N   UNL A   1      42.458  27.407  28.329  1.00  0.00    -0.248 NA
ATOM     43  C   UNL A   1      41.022  25.616  27.919  1.00  0.00     0.031 C 
ATOM     44  C   UNL A   1      45.883  25.084  26.717  1.00  0.00     0.029 A 
ATOM     45  N   UNL A   1      45.215  27.055  27.535  1.00  0.00    -0.354 N 
ATOM     46  C   UNL A   1      41.159  27.786  28.651  1.00  0.00     0.074 A 
ATOM     47  C   UNL A   1      40.309  26.656  28.335  1.00  0.00     0.031 C 
ATOM     48  C   UNL A   1      46.948  25.903  26.717  1.00  0.00     0.029 A 
ATOM     49  C   UNL A   1      46.552  27.205  27.248  1.00  0.00     0.049 A 
ATOM     50  H   UNL A   1      44.659  27.778  27.905  1.00  0.00     0.167 HD
ATOM     51  C   UNL A   1      40.716  28.947  29.194  1.00  0.00     0.034 A 
ATOM     52  C   UNL A   1      47.381  28.260  27.405  1.00  0.00     0.034 A 
ATOM     53  C   UNL A   1      41.557  30.061  29.550  1.00  0.00     0.049 A 
ATOM     54  C   UNL A   1      46.871  29.526  28.038  1.00  0.00     0.074 A 
ATOM     55  C   UNL A   1      41.197  31.234  30.195  1.00  0.00     0.029 A 
ATOM     56  N   UNL A   1      42.914  30.154  29.290  1.00  0.00    -0.354 N 
ATOM     57  N   UNL A   1      45.677  29.787  28.511  1.00  0.00    -0.248 NA
ATOM     58  C   UNL A   1      47.832  30.629  28.196  1.00  0.00     0.031 C 
ATOM     59  C   UNL A   1      42.331  32.044  30.305  1.00  0.00     0.029 A 
ATOM     60  C   UNL A   1      43.402  31.368  29.747  1.00  0.00     0.049 A 
ATOM     61  H   UNL A   1      43.452  29.460  28.846  1.00  0.00     0.167 HD
ATOM     62  C   UNL A   1      45.751  31.070  29.046  1.00  0.00     0.074 A 
ATOM     63  C   UNL A   1      47.113  31.522  28.864  1.00  0.00     0.031 C 
ATOM     64  C   UNL A   1      44.768  31.807  29.617  1.00  0.00     0.034 A 
BRANCH  51  65
ATOM     65  C   UNL A   1      39.250  29.060  29.534  1.00  0.00     0.023 A 
ATOM     66  C   UNL A   1      38.824  28.721  30.834  1.00  0.00     0.012 A 
ATOM     67  C   UNL A   1      38.327  29.621  28.629  1.00  0.00     0.148 A 
ATOM     68  C   UNL A   1      37.500  28.920  31.223  1.00  0.00     0.002 A 
ATOM     69  C   UNL A   1      37.018  29.854  29.037  1.00  0.00     0.091 A 
ATOM     70  F   UNL A   1      38.749  29.929  27.394  1.00  0.00    -0.205 F 
ATOM     71  C   UNL A   1      36.601  29.496  30.330  1.00  0.00     0.022 A 
BRANCH  69  72
ATOM     72  S   UNL A   1      35.801  30.667  27.994  1.00  0.00     0.127 S 
ATOM     73  O   UNL A   1      36.504  31.894  27.625  1.00  0.00    -0.237 OA
ATOM     74  O   UNL A   1      35.637  29.706  26.904  1.00  0.00    -0.237 OA
ATOM     75  O   UNL A   1      34.620  30.853  28.827  1.00  0.00    -0.744 OA
ENDBRANCH  69  72
ENDBRANCH  51  65
BRANCH  52  76
ATOM     76  C   UNL A   1      48.818  28.123  27.034  1.00  0.00     0.023 A 
ATOM     77  C   UNL A   1      49.206  28.305  25.692  1.00  0.00     0.012 A 
ATOM     78  C   UNL A   1      49.804  27.863  28.005  1.00  0.00     0.148 A 
ATOM     79  C   UNL A   1      50.547  28.209  25.320  1.00  0.00     0.002 A 
ATOM     80  C   UNL A   1      51.144  27.830  27.637  1.00  0.00     0.091 A 
ATOM     81  F   UNL A   1      49.413  27.676  29.273  1.00  0.00    -0.205 F 
ATOM     82  C   UNL A   1      51.517  27.985  26.294  1.00  0.00     0.022 A 
BRANCH  80  83
ATOM     83  S   UNL A   1      52.464  27.705  28.850  1.00  0.00     0.127 S 
ATOM     84  O   UNL A   1      52.325  26.324  29.302  1.00  0.00    -0.237 OA
ATOM     85  O   UNL A   1      53.649  27.973  28.034  1.00  0.00    -0.237 OA
ATOM     86  O   UNL A   1      52.179  28.734  29.841  1.00  0.00    -0.744 OA
ENDBRANCH  80  83
ENDBRANCH  52  76
BRANCH  64  87
ATOM     87  C   UNL A   1      45.107  33.194  30.104  1.00  0.00     0.023 A 
ATOM     88  C   UNL A   1      45.674  33.361  31.383  1.00  0.00     0.012 A 
ATOM     89  C   UNL A   1      44.967  34.317  29.261  1.00  0.00     0.148 A 
ATOM     90  C   UNL A   1      46.078  34.622  31.824  1.00  0.00     0.002 A 
ATOM     91  C   UNL A   1      45.416  35.562  29.690  1.00  0.00     0.091 A 
ATOM     92  F   UNL A   1      44.410  34.144  28.054  1.00  0.00    -0.205 F 
ATOM     93  C   UNL A   1      45.962  35.718  30.974  1.00  0.00     0.022 A 
BRANCH  91  94
ATOM     94  S   UNL A   1      45.399  37.014  28.629  1.00  0.00     0.127 S 
ATOM     95  O   UNL A   1      43.970  37.174  28.366  1.00  0.00    -0.237 OA
ATOM     96  O   UNL A   1      45.979  38.039  29.495  1.00  0.00    -0.237 OA
ATOM     97  O   UNL A   1      46.212  36.672  27.469  1.00  0.00    -0.744 OA
ENDBRANCH  91  94
ENDBRANCH  64  87
ENDBRANCH  38  39
ENDBRANCH  30  33
ENDBRANCH  28  29
ENDBRANCH  27  28
ENDBRANCH  26  27
ENDBRANCH   1  26
TORSDOF 20
ENDMDL
