MODEL 1
REMARK VINA RESULT:     -11.3      0.000      0.000
REMARK SMILES COCCOc1ccccc1/C=C/c1cc(C(=O)NCCCCCCNC(=O)c2ccc(-c3c4nc(c(-c5cccc(S(=O)(=O)[O-])c5F)c5ccc([nH]5)c(-c5cccc(S(=O)(=O)[O-])c5F)c5nc(c(-c6cccc(S(=O)(=O)[O-])c6F)c6ccc3[nH]6)C=C5)C=C4)cc2)ncn1
REMARK SMILES IDX 21 1 20 2 19 3 17 4 18 5 16 7 14 8 15 9 94 10 93 11 92 12
REMARK SMILES IDX 13 13 12 14 11 15 6 16 7 17 8 18 10 19 9 20 5 21 4 22 3 23
REMARK SMILES IDX 2 24 1 25 22 26 23 27 24 28 25 29 26 30 27 31 28 33 29 34
REMARK SMILES IDX 30 35 91 36 31 37 90 38 32 39 33 40 34 41 84 42 35 43 89 44
REMARK SMILES IDX 83 45 85 46 36 47 88 48 82 49 81 50 37 52 69 53 49 54 68 55
REMARK SMILES IDX 50 56 53 57 67 58 86 59 51 60 52 61 66 63 87 64 54 65 38 66
REMARK SMILES IDX 39 67 47 68 40 69 42 70 48 71 41 72 43 73 44 74 45 75 46 76
REMARK SMILES IDX 70 77 71 78 79 79 72 80 74 81 80 82 73 83 75 84 76 85 77 86
REMARK SMILES IDX 78 87 55 88 56 89 64 90 57 91 59 92 65 93 58 94 60 95 61 96
REMARK SMILES IDX 62 97 63 98
REMARK H PARENT 19 6 26 32 85 51 53 62
REMARK Flexibility Score: inf
ROOT
ATOM      1  C   UNL A   1      32.051  28.510  27.310  1.00  0.00     0.021 C 
ENDROOT
BRANCH   1   2
ATOM      2  C   UNL A   1      32.189  27.542  26.133  1.00  0.00     0.116 C 
BRANCH   2   3
ATOM      3  N   UNL A   1      30.922  27.357  25.455  1.00  0.00    -0.351 N 
ATOM      4  C   UNL A   1      30.552  26.693  24.306  1.00  0.00     0.270 C 
ATOM      5  O   UNL A   1      29.341  26.692  24.063  1.00  0.00    -0.268 OA
ATOM      6  H   UNL A   1      30.169  27.797  25.911  1.00  0.00     0.163 HD
BRANCH   4   7
ATOM      7  C   UNL A   1      31.491  25.958  23.378  1.00  0.00     0.132 A 
ATOM      8  C   UNL A   1      32.721  24.135  22.556  1.00  0.00     0.067 A 
ATOM      9  C   UNL A   1      31.945  24.673  23.567  1.00  0.00     0.062 A 
ATOM     10  N   UNL A   1      33.133  24.836  21.488  1.00  0.00    -0.237 NA
ATOM     11  C   UNL A   1      32.712  26.104  21.439  1.00  0.00     0.223 A 
ATOM     12  N   UNL A   1      31.892  26.697  22.315  1.00  0.00    -0.231 NA
BRANCH   8  13
ATOM     13  C   UNL A   1      33.103  22.720  22.628  1.00  0.00     0.029 C 
ATOM     14  C   UNL A   1      32.488  21.866  23.471  1.00  0.00     0.014 C 
BRANCH  14  15
ATOM     15  C   UNL A   1      32.985  20.513  23.817  1.00  0.00     0.017 A 
ATOM     16  C   UNL A   1      34.123  20.221  24.606  1.00  0.00     0.126 A 
ATOM     17  C   UNL A   1      34.508  18.876  24.794  1.00  0.00     0.047 A 
ATOM     18  C   UNL A   1      33.815  17.821  24.211  1.00  0.00     0.004 A 
ATOM     19  C   UNL A   1      32.271  19.416  23.279  1.00  0.00     0.012 A 
ATOM     20  C   UNL A   1      32.689  18.092  23.454  1.00  0.00     0.001 A 
BRANCH  16  21
ATOM     21  O   UNL A   1      35.043  21.017  25.224  1.00  0.00    -0.491 OA
BRANCH  21  22
ATOM     22  C   UNL A   1      36.374  21.222  24.808  1.00  0.00     0.258 C 
BRANCH  22  23
ATOM     23  C   UNL A   1      36.552  22.404  23.852  1.00  0.00     0.201 C 
BRANCH  23  24
ATOM     24  O   UNL A   1      37.124  23.568  24.447  1.00  0.00    -0.381 OA
ATOM     25  C   UNL A   1      37.104  23.550  25.871  1.00  0.00     0.195 C 
ENDBRANCH  23  24
ENDBRANCH  22  23
ENDBRANCH  21  22
ENDBRANCH  16  21
ENDBRANCH  14  15
ENDBRANCH   8  13
ENDBRANCH   4   7
ENDBRANCH   2   3
ENDBRANCH   1   2
BRANCH   1  26
ATOM     26  C   UNL A   1      32.546  29.929  26.999  1.00  0.00     0.002 C 
BRANCH  26  27
ATOM     27  C   UNL A   1      31.587  30.789  26.164  1.00  0.00     0.002 C 
BRANCH  27  28
ATOM     28  C   UNL A   1      31.467  32.256  26.589  1.00  0.00     0.021 C 
BRANCH  28  29
ATOM     29  C   UNL A   1      32.659  32.803  27.370  1.00  0.00     0.116 C 
BRANCH  29  30
ATOM     30  N   UNL A   1      32.497  34.211  27.699  1.00  0.00    -0.352 N 
ATOM     31  C   UNL A   1      33.088  34.961  28.688  1.00  0.00     0.251 C 
ATOM     32  H   UNL A   1      31.865  34.703  27.126  1.00  0.00     0.163 HD
ATOM     33  O   UNL A   1      32.661  36.081  28.939  1.00  0.00    -0.269 OA
BRANCH  31  34
ATOM     34  C   UNL A   1      34.227  34.414  29.458  1.00  0.00     0.039 A 
ATOM     35  C   UNL A   1      33.974  33.765  30.670  1.00  0.00     0.014 A 
ATOM     36  C   UNL A   1      35.540  34.553  29.000  1.00  0.00     0.014 A 
ATOM     37  C   UNL A   1      35.029  33.193  31.384  1.00  0.00     0.010 A 
ATOM     38  C   UNL A   1      36.583  33.925  29.678  1.00  0.00     0.010 A 
ATOM     39  C   UNL A   1      36.337  33.231  30.873  1.00  0.00    -0.014 A 
BRANCH  39  40
ATOM     40  C   UNL A   1      37.446  32.502  31.542  1.00  0.00     0.031 A 
ATOM     41  C   UNL A   1      37.994  32.971  32.861  1.00  0.00     0.074 A 
ATOM     42  C   UNL A   1      38.026  31.465  30.904  1.00  0.00     0.049 A 
ATOM     43  N   UNL A   1      38.998  32.496  33.550  1.00  0.00    -0.248 NA
ATOM     44  C   UNL A   1      37.346  34.141  33.475  1.00  0.00     0.031 C 
ATOM     45  C   UNL A   1      37.638  30.962  29.584  1.00  0.00     0.029 A 
ATOM     46  N   UNL A   1      39.087  30.670  31.262  1.00  0.00    -0.354 N 
ATOM     47  C   UNL A   1      39.126  33.322  34.660  1.00  0.00     0.074 A 
ATOM     48  C   UNL A   1      38.110  34.346  34.538  1.00  0.00     0.031 C 
ATOM     49  C   UNL A   1      38.448  29.948  29.243  1.00  0.00     0.029 A 
ATOM     50  C   UNL A   1      39.435  29.753  30.299  1.00  0.00     0.049 A 
ATOM     51  H   UNL A   1      39.553  30.750  32.126  1.00  0.00     0.167 HD
ATOM     52  C   UNL A   1      39.993  33.225  35.696  1.00  0.00     0.034 A 
ATOM     53  C   UNL A   1      40.449  28.865  30.257  1.00  0.00     0.034 A 
ATOM     54  C   UNL A   1      40.983  32.189  35.826  1.00  0.00     0.049 A 
ATOM     55  C   UNL A   1      41.386  28.767  31.427  1.00  0.00     0.074 A 
ATOM     56  C   UNL A   1      41.844  31.951  36.885  1.00  0.00     0.029 A 
ATOM     57  N   UNL A   1      41.264  31.231  34.864  1.00  0.00    -0.354 N 
ATOM     58  N   UNL A   1      41.384  29.451  32.545  1.00  0.00    -0.248 NA
ATOM     59  C   UNL A   1      42.449  27.754  31.344  1.00  0.00     0.031 C 
ATOM     60  C   UNL A   1      42.669  30.873  36.545  1.00  0.00     0.029 A 
ATOM     61  C   UNL A   1      42.299  30.417  35.291  1.00  0.00     0.049 A 
ATOM     62  H   UNL A   1      40.794  31.144  34.002  1.00  0.00     0.167 HD
ATOM     63  C   UNL A   1      42.424  28.936  33.310  1.00  0.00     0.074 A 
ATOM     64  C   UNL A   1      43.017  27.862  32.538  1.00  0.00     0.031 C 
ATOM     65  C   UNL A   1      42.859  29.328  34.532  1.00  0.00     0.034 A 
BRANCH  52  66
ATOM     66  C   UNL A   1      39.889  34.248  36.798  1.00  0.00     0.023 A 
ATOM     67  C   UNL A   1      40.256  35.586  36.546  1.00  0.00     0.012 A 
ATOM     68  C   UNL A   1      39.365  33.902  38.060  1.00  0.00     0.148 A 
ATOM     69  C   UNL A   1      40.139  36.555  37.542  1.00  0.00     0.002 A 
ATOM     70  C   UNL A   1      39.207  34.884  39.032  1.00  0.00     0.091 A 
ATOM     71  F   UNL A   1      39.038  32.623  38.288  1.00  0.00    -0.205 F 
ATOM     72  C   UNL A   1      39.605  36.208  38.779  1.00  0.00     0.022 A 
BRANCH  70  73
ATOM     73  S   UNL A   1      38.455  34.554  40.629  1.00  0.00     0.127 S 
ATOM     74  O   UNL A   1      38.221  35.909  41.130  1.00  0.00    -0.237 OA
ATOM     75  O   UNL A   1      37.243  33.825  40.254  1.00  0.00    -0.237 OA
ATOM     76  O   UNL A   1      39.428  33.773  41.379  1.00  0.00    -0.744 OA
ENDBRANCH  70  73
ENDBRANCH  52  66
BRANCH  53  77
ATOM     77  C   UNL A   1      40.604  27.973  29.073  1.00  0.00     0.023 A 
ATOM     78  C   UNL A   1      39.810  26.817  28.964  1.00  0.00     0.012 A 
ATOM     79  C   UNL A   1      41.511  28.285  28.042  1.00  0.00     0.148 A 
ATOM     80  C   UNL A   1      39.937  25.969  27.862  1.00  0.00     0.002 A 
ATOM     81  C   UNL A   1      41.589  27.471  26.920  1.00  0.00     0.091 A 
ATOM     82  F   UNL A   1      42.265  29.386  28.172  1.00  0.00    -0.205 F 
ATOM     83  C   UNL A   1      40.818  26.302  26.836  1.00  0.00     0.022 A 
BRANCH  81  84
ATOM     84  S   UNL A   1      42.592  27.896  25.492  1.00  0.00     0.127 S 
ATOM     85  O   UNL A   1      42.431  26.713  24.651  1.00  0.00    -0.237 OA
ATOM     86  O   UNL A   1      41.920  29.100  25.001  1.00  0.00    -0.237 OA
ATOM     87  O   UNL A   1      43.935  28.126  26.008  1.00  0.00    -0.744 OA
ENDBRANCH  81  84
ENDBRANCH  53  77
BRANCH  65  88
ATOM     88  C   UNL A   1      44.025  28.582  35.128  1.00  0.00     0.023 A 
ATOM     89  C   UNL A   1      45.337  29.058  34.932  1.00  0.00     0.012 A 
ATOM     90  C   UNL A   1      43.817  27.445  35.936  1.00  0.00     0.148 A 
ATOM     91  C   UNL A   1      46.425  28.395  35.498  1.00  0.00     0.002 A 
ATOM     92  C   UNL A   1      44.901  26.820  36.539  1.00  0.00     0.091 A 
ATOM     93  F   UNL A   1      42.563  26.998  36.097  1.00  0.00    -0.205 F 
ATOM     94  C   UNL A   1      46.207  27.285  36.310  1.00  0.00     0.022 A 
BRANCH  92  95
ATOM     95  S   UNL A   1      44.713  25.443  37.676  1.00  0.00     0.127 S 
ATOM     96  O   UNL A   1      46.062  24.879  37.688  1.00  0.00    -0.237 OA
ATOM     97  O   UNL A   1      44.322  26.116  38.916  1.00  0.00    -0.237 OA
ATOM     98  O   UNL A   1      43.684  24.585  37.103  1.00  0.00    -0.744 OA
ENDBRANCH  92  95
ENDBRANCH  65  88
ENDBRANCH  39  40
ENDBRANCH  31  34
ENDBRANCH  29  30
ENDBRANCH  28  29
ENDBRANCH  27  28
ENDBRANCH  26  27
ENDBRANCH   1  26
TORSDOF 22
ENDMDL
MODEL 2
REMARK VINA RESULT:     -11.1      1.266      7.781
REMARK SMILES COCCOc1ccccc1/C=C/c1cc(C(=O)NCCCCCCNC(=O)c2ccc(-c3c4nc(c(-c5cccc(S(=O)(=O)[O-])c5F)c5ccc([nH]5)c(-c5cccc(S(=O)(=O)[O-])c5F)c5nc(c(-c6cccc(S(=O)(=O)[O-])c6F)c6ccc3[nH]6)C=C5)C=C4)cc2)ncn1
REMARK SMILES IDX 21 1 20 2 19 3 17 4 18 5 16 7 14 8 15 9 94 10 93 11 92 12
REMARK SMILES IDX 13 13 12 14 11 15 6 16 7 17 8 18 10 19 9 20 5 21 4 22 3 23
REMARK SMILES IDX 2 24 1 25 22 26 23 27 24 28 25 29 26 30 27 31 28 33 29 34
REMARK SMILES IDX 30 35 91 36 31 37 90 38 32 39 33 40 34 41 84 42 35 43 89 44
REMARK SMILES IDX 83 45 85 46 36 47 88 48 82 49 81 50 37 52 69 53 49 54 68 55
REMARK SMILES IDX 50 56 53 57 67 58 86 59 51 60 52 61 66 63 87 64 54 65 38 66
REMARK SMILES IDX 39 67 47 68 40 69 42 70 48 71 41 72 43 73 44 74 45 75 46 76
REMARK SMILES IDX 70 77 71 78 79 79 72 80 74 81 80 82 73 83 75 84 76 85 77 86
REMARK SMILES IDX 78 87 55 88 56 89 64 90 57 91 59 92 65 93 58 94 60 95 61 96
REMARK SMILES IDX 62 97 63 98
REMARK H PARENT 19 6 26 32 85 51 53 62
REMARK Flexibility Score: inf
ROOT
ATOM      1  C   UNL A   1      31.695  27.779  26.006  1.00  0.00     0.021 C 
ENDROOT
BRANCH   1   2
ATOM      2  C   UNL A   1      30.542  27.089  25.274  1.00  0.00     0.116 C 
BRANCH   2   3
ATOM      3  N   UNL A   1      30.149  27.834  24.096  1.00  0.00    -0.351 N 
ATOM      4  C   UNL A   1      30.507  27.762  22.767  1.00  0.00     0.270 C 
ATOM      5  O   UNL A   1      29.903  28.533  22.014  1.00  0.00    -0.268 OA
ATOM      6  H   UNL A   1      29.489  28.540  24.284  1.00  0.00     0.163 HD
BRANCH   4   7
ATOM      7  C   UNL A   1      31.523  26.807  22.184  1.00  0.00     0.132 A 
ATOM      8  C   UNL A   1      33.349  25.332  22.194  1.00  0.00     0.067 A 
ATOM      9  C   UNL A   1      32.584  26.265  22.871  1.00  0.00     0.062 A 
ATOM     10  N   UNL A   1      33.174  25.033  20.898  1.00  0.00    -0.237 NA
ATOM     11  C   UNL A   1      32.170  25.679  20.292  1.00  0.00     0.223 A 
ATOM     12  N   UNL A   1      31.319  26.533  20.872  1.00  0.00    -0.231 NA
BRANCH   8  13
ATOM     13  C   UNL A   1      34.395  24.606  22.923  1.00  0.00     0.029 C 
ATOM     14  C   UNL A   1      34.395  23.260  23.001  1.00  0.00     0.014 C 
BRANCH  14  15
ATOM     15  C   UNL A   1      35.228  22.466  23.936  1.00  0.00     0.017 A 
ATOM     16  C   UNL A   1      34.761  21.739  25.057  1.00  0.00     0.126 A 
ATOM     17  C   UNL A   1      35.690  21.083  25.892  1.00  0.00     0.047 A 
ATOM     18  C   UNL A   1      37.060  21.141  25.663  1.00  0.00     0.004 A 
ATOM     19  C   UNL A   1      36.624  22.465  23.699  1.00  0.00     0.012 A 
ATOM     20  C   UNL A   1      37.528  21.832  24.559  1.00  0.00     0.001 A 
BRANCH  16  21
ATOM     21  O   UNL A   1      33.516  21.571  25.590  1.00  0.00    -0.491 OA
BRANCH  21  22
ATOM     22  C   UNL A   1      32.836  22.489  26.415  1.00  0.00     0.258 C 
BRANCH  22  23
ATOM     23  C   UNL A   1      31.319  22.498  26.217  1.00  0.00     0.201 C 
BRANCH  23  24
ATOM     24  O   UNL A   1      30.602  23.295  27.159  1.00  0.00    -0.381 OA
ATOM     25  C   UNL A   1      29.311  22.782  27.474  1.00  0.00     0.195 C 
ENDBRANCH  23  24
ENDBRANCH  22  23
ENDBRANCH  21  22
ENDBRANCH  16  21
ENDBRANCH  14  15
ENDBRANCH   8  13
ENDBRANCH   4   7
ENDBRANCH   2   3
ENDBRANCH   1   2
BRANCH   1  26
ATOM     26  C   UNL A   1      31.771  29.290  25.747  1.00  0.00     0.002 C 
BRANCH  26  27
ATOM     27  C   UNL A   1      31.833  30.167  27.005  1.00  0.00     0.002 C 
BRANCH  27  28
ATOM     28  C   UNL A   1      31.756  31.679  26.767  1.00  0.00     0.021 C 
BRANCH  28  29
ATOM     29  C   UNL A   1      32.983  32.468  27.220  1.00  0.00     0.116 C 
BRANCH  29  30
ATOM     30  N   UNL A   1      32.650  33.835  27.585  1.00  0.00    -0.352 N 
ATOM     31  C   UNL A   1      33.128  34.618  28.609  1.00  0.00     0.251 C 
ATOM     32  H   UNL A   1      31.976  34.268  27.012  1.00  0.00     0.163 HD
ATOM     33  O   UNL A   1      32.566  35.672  28.883  1.00  0.00    -0.269 OA
BRANCH  31  34
ATOM     34  C   UNL A   1      34.308  34.184  29.390  1.00  0.00     0.039 A 
ATOM     35  C   UNL A   1      34.114  33.375  30.513  1.00  0.00     0.014 A 
ATOM     36  C   UNL A   1      35.597  34.586  29.030  1.00  0.00     0.014 A 
ATOM     37  C   UNL A   1      35.219  32.910  31.231  1.00  0.00     0.010 A 
ATOM     38  C   UNL A   1      36.700  34.067  29.706  1.00  0.00     0.010 A 
ATOM     39  C   UNL A   1      36.522  33.216  30.808  1.00  0.00    -0.014 A 
BRANCH  39  40
ATOM     40  C   UNL A   1      37.709  32.611  31.468  1.00  0.00     0.031 A 
ATOM     41  C   UNL A   1      38.437  31.457  30.837  1.00  0.00     0.074 A 
ATOM     42  C   UNL A   1      38.070  33.045  32.692  1.00  0.00     0.049 A 
ATOM     43  N   UNL A   1      39.446  30.768  31.303  1.00  0.00    -0.248 NA
ATOM     44  C   UNL A   1      37.956  31.001  29.524  1.00  0.00     0.031 C 
ATOM     45  C   UNL A   1      37.394  34.106  33.444  1.00  0.00     0.029 A 
ATOM     46  N   UNL A   1      39.070  32.628  33.535  1.00  0.00    -0.354 N 
ATOM     47  C   UNL A   1      39.702  29.779  30.362  1.00  0.00     0.074 A 
ATOM     48  C   UNL A   1      38.724  29.942  29.307  1.00  0.00     0.031 C 
ATOM     49  C   UNL A   1      37.997  34.253  34.634  1.00  0.00     0.029 A 
ATOM     50  C   UNL A   1      39.074  33.276  34.747  1.00  0.00     0.049 A 
ATOM     51  H   UNL A   1      39.722  31.930  33.293  1.00  0.00     0.167 HD
ATOM     52  C   UNL A   1      40.675  28.837  30.362  1.00  0.00     0.034 A 
ATOM     53  C   UNL A   1      39.844  33.094  35.839  1.00  0.00     0.034 A 
ATOM     54  C   UNL A   1      41.663  28.696  31.400  1.00  0.00     0.049 A 
ATOM     55  C   UNL A   1      40.926  32.052  35.806  1.00  0.00     0.074 A 
ATOM     56  C   UNL A   1      42.746  27.834  31.444  1.00  0.00     0.029 A 
ATOM     57  N   UNL A   1      41.681  29.417  32.584  1.00  0.00    -0.354 N 
ATOM     58  N   UNL A   1      41.259  31.238  34.834  1.00  0.00    -0.248 NA
ATOM     59  C   UNL A   1      41.761  31.925  37.010  1.00  0.00     0.031 C 
ATOM     60  C   UNL A   1      43.395  28.008  32.671  1.00  0.00     0.029 A 
ATOM     61  C   UNL A   1      42.739  29.004  33.376  1.00  0.00     0.049 A 
ATOM     62  H   UNL A   1      41.035  30.120  32.825  1.00  0.00     0.167 HD
ATOM     63  C   UNL A   1      42.355  30.520  35.296  1.00  0.00     0.074 A 
ATOM     64  C   UNL A   1      42.649  31.016  36.626  1.00  0.00     0.031 C 
ATOM     65  C   UNL A   1      43.045  29.528  34.682  1.00  0.00     0.034 A 
BRANCH  52  66
ATOM     66  C   UNL A   1      40.747  27.900  29.184  1.00  0.00     0.023 A 
ATOM     67  C   UNL A   1      39.879  26.790  29.120  1.00  0.00     0.012 A 
ATOM     68  C   UNL A   1      41.623  28.153  28.109  1.00  0.00     0.148 A 
ATOM     69  C   UNL A   1      39.907  25.927  28.025  1.00  0.00     0.002 A 
ATOM     70  C   UNL A   1      41.611  27.316  27.000  1.00  0.00     0.091 A 
ATOM     71  F   UNL A   1      42.454  29.201  28.195  1.00  0.00    -0.205 F 
ATOM     72  C   UNL A   1      40.764  26.196  26.961  1.00  0.00     0.022 A 
BRANCH  70  73
ATOM     73  S   UNL A   1      42.620  27.620  25.545  1.00  0.00     0.127 S 
ATOM     74  O   UNL A   1      42.263  26.483  24.696  1.00  0.00    -0.237 OA
ATOM     75  O   UNL A   1      42.108  28.910  25.081  1.00  0.00    -0.237 OA
ATOM     76  O   UNL A   1      43.999  27.643  26.008  1.00  0.00    -0.744 OA
ENDBRANCH  70  73
ENDBRANCH  52  66
BRANCH  53  77
ATOM     77  C   UNL A   1      39.635  33.947  37.043  1.00  0.00     0.023 A 
ATOM     78  C   UNL A   1      40.074  35.284  37.034  1.00  0.00     0.012 A 
ATOM     79  C   UNL A   1      38.976  33.446  38.182  1.00  0.00     0.148 A 
ATOM     80  C   UNL A   1      39.886  36.100  38.150  1.00  0.00     0.002 A 
ATOM     81  C   UNL A   1      38.738  34.281  39.266  1.00  0.00     0.091 A 
ATOM     82  F   UNL A   1      38.576  32.167  38.174  1.00  0.00    -0.205 F 
ATOM     83  C   UNL A   1      39.209  35.603  39.260  1.00  0.00     0.022 A 
BRANCH  81  84
ATOM     84  S   UNL A   1      37.754  33.767  40.678  1.00  0.00     0.127 S 
ATOM     85  O   UNL A   1      36.572  33.207  40.031  1.00  0.00    -0.237 OA
ATOM     86  O   UNL A   1      38.634  32.786  41.315  1.00  0.00    -0.237 OA
ATOM     87  O   UNL A   1      37.533  34.974  41.464  1.00  0.00    -0.744 OA
ENDBRANCH  81  84
ENDBRANCH  53  77
BRANCH  65  88
ATOM     88  C   UNL A   1      44.203  28.918  35.431  1.00  0.00     0.023 A 
ATOM     89  C   UNL A   1      45.494  29.467  35.293  1.00  0.00     0.012 A 
ATOM     90  C   UNL A   1      44.002  27.843  36.319  1.00  0.00     0.148 A 
ATOM     91  C   UNL A   1      46.572  28.932  35.998  1.00  0.00     0.002 A 
ATOM     92  C   UNL A   1      45.069  27.348  37.057  1.00  0.00     0.091 A 
ATOM     93  F   UNL A   1      42.769  27.324  36.424  1.00  0.00    -0.205 F 
ATOM     94  C   UNL A   1      46.358  27.882  36.887  1.00  0.00     0.022 A 
BRANCH  92  95
ATOM     95  S   UNL A   1      44.876  26.063  38.296  1.00  0.00     0.127 S 
ATOM     96  O   UNL A   1      43.622  26.455  38.939  1.00  0.00    -0.237 OA
ATOM     97  O   UNL A   1      44.788  24.853  37.477  1.00  0.00    -0.237 OA
ATOM     98  O   UNL A   1      46.060  26.137  39.142  1.00  0.00    -0.744 OA
ENDBRANCH  92  95
ENDBRANCH  65  88
ENDBRANCH  39  40
ENDBRANCH  31  34
ENDBRANCH  29  30
ENDBRANCH  28  29
ENDBRANCH  27  28
ENDBRANCH  26  27
ENDBRANCH   1  26
TORSDOF 22
ENDMDL
MODEL 3
REMARK VINA RESULT:     -11.0      6.279     10.214
REMARK SMILES COCCOc1ccccc1/C=C/c1cc(C(=O)NCCCCCCNC(=O)c2ccc(-c3c4nc(c(-c5cccc(S(=O)(=O)[O-])c5F)c5ccc([nH]5)c(-c5cccc(S(=O)(=O)[O-])c5F)c5nc(c(-c6cccc(S(=O)(=O)[O-])c6F)c6ccc3[nH]6)C=C5)C=C4)cc2)ncn1
REMARK SMILES IDX 21 1 20 2 19 3 17 4 18 5 16 7 14 8 15 9 94 10 93 11 92 12
REMARK SMILES IDX 13 13 12 14 11 15 6 16 7 17 8 18 10 19 9 20 5 21 4 22 3 23
REMARK SMILES IDX 2 24 1 25 22 26 23 27 24 28 25 29 26 30 27 31 28 33 29 34
REMARK SMILES IDX 30 35 91 36 31 37 90 38 32 39 33 40 34 41 84 42 35 43 89 44
REMARK SMILES IDX 83 45 85 46 36 47 88 48 82 49 81 50 37 52 69 53 49 54 68 55
REMARK SMILES IDX 50 56 53 57 67 58 86 59 51 60 52 61 66 63 87 64 54 65 38 66
REMARK SMILES IDX 39 67 47 68 40 69 42 70 48 71 41 72 43 73 44 74 45 75 46 76
REMARK SMILES IDX 70 77 71 78 79 79 72 80 74 81 80 82 73 83 75 84 76 85 77 86
REMARK SMILES IDX 78 87 55 88 56 89 64 90 57 91 59 92 65 93 58 94 60 95 61 96
REMARK SMILES IDX 62 97 63 98
REMARK H PARENT 19 6 26 32 85 51 53 62
REMARK Flexibility Score: inf
ROOT
ATOM      1  C   UNL A   1      35.241  21.807  26.682  1.00  0.00     0.021 C 
ENDROOT
BRANCH   1   2
ATOM      2  C   UNL A   1      33.977  22.657  26.836  1.00  0.00     0.116 C 
BRANCH   2   3
ATOM      3  N   UNL A   1      32.796  21.915  26.447  1.00  0.00    -0.351 N 
ATOM      4  C   UNL A   1      31.976  21.954  25.340  1.00  0.00     0.270 C 
ATOM      5  O   UNL A   1      31.077  21.107  25.317  1.00  0.00    -0.268 OA
ATOM      6  H   UNL A   1      32.521  21.243  27.112  1.00  0.00     0.163 HD
BRANCH   4   7
ATOM      7  C   UNL A   1      32.124  22.903  24.173  1.00  0.00     0.132 A 
ATOM      8  C   UNL A   1      31.839  24.895  22.965  1.00  0.00     0.067 A 
ATOM      9  C   UNL A   1      31.501  24.124  24.063  1.00  0.00     0.062 A 
ATOM     10  N   UNL A   1      32.634  24.463  21.975  1.00  0.00    -0.237 NA
ATOM     11  C   UNL A   1      33.121  23.227  22.130  1.00  0.00     0.223 A 
ATOM     12  N   UNL A   1      32.927  22.431  23.189  1.00  0.00    -0.231 NA
BRANCH   8  13
ATOM     13  C   UNL A   1      31.328  26.268  22.876  1.00  0.00     0.029 C 
ATOM     14  C   UNL A   1      30.334  26.704  23.676  1.00  0.00     0.014 C 
BRANCH  14  15
ATOM     15  C   UNL A   1      29.570  27.958  23.470  1.00  0.00     0.017 A 
ATOM     16  C   UNL A   1      30.096  29.271  23.517  1.00  0.00     0.126 A 
ATOM     17  C   UNL A   1      29.224  30.371  23.363  1.00  0.00     0.047 A 
ATOM     18  C   UNL A   1      27.855  30.209  23.184  1.00  0.00     0.004 A 
ATOM     19  C   UNL A   1      28.181  27.824  23.236  1.00  0.00     0.012 A 
ATOM     20  C   UNL A   1      27.332  28.930  23.117  1.00  0.00     0.001 A 
BRANCH  16  21
ATOM     21  O   UNL A   1      31.348  29.752  23.761  1.00  0.00    -0.491 OA
BRANCH  21  22
ATOM     22  C   UNL A   1      32.225  29.307  24.771  1.00  0.00     0.258 C 
BRANCH  22  23
ATOM     23  C   UNL A   1      31.691  29.506  26.191  1.00  0.00     0.201 C 
BRANCH  23  24
ATOM     24  O   UNL A   1      32.469  28.881  27.211  1.00  0.00    -0.381 OA
ATOM     25  C   UNL A   1      33.420  27.946  26.712  1.00  0.00     0.195 C 
ENDBRANCH  23  24
ENDBRANCH  22  23
ENDBRANCH  21  22
ENDBRANCH  16  21
ENDBRANCH  14  15
ENDBRANCH   8  13
ENDBRANCH   4   7
ENDBRANCH   2   3
ENDBRANCH   1   2
BRANCH   1  26
ATOM     26  C   UNL A   1      35.333  21.083  25.332  1.00  0.00     0.002 C 
BRANCH  26  27
ATOM     27  C   UNL A   1      36.692  21.184  24.626  1.00  0.00     0.002 C 
BRANCH  27  28
ATOM     28  C   UNL A   1      37.703  20.085  24.966  1.00  0.00     0.021 C 
BRANCH  28  29
ATOM     29  C   UNL A   1      38.898  20.541  25.801  1.00  0.00     0.116 C 
BRANCH  29  30
ATOM     30  N   UNL A   1      39.901  19.495  25.936  1.00  0.00    -0.352 N 
ATOM     31  C   UNL A   1      41.259  19.593  26.122  1.00  0.00     0.251 C 
ATOM     32  H   UNL A   1      39.553  18.575  25.886  1.00  0.00     0.163 HD
ATOM     33  O   UNL A   1      41.963  18.598  25.998  1.00  0.00    -0.269 OA
BRANCH  31  34
ATOM     34  C   UNL A   1      41.873  20.897  26.457  1.00  0.00     0.039 A 
ATOM     35  C   UNL A   1      42.150  21.798  25.425  1.00  0.00     0.014 A 
ATOM     36  C   UNL A   1      42.193  21.225  27.777  1.00  0.00     0.014 A 
ATOM     37  C   UNL A   1      42.679  23.055  25.725  1.00  0.00     0.010 A 
ATOM     38  C   UNL A   1      42.657  22.504  28.082  1.00  0.00     0.010 A 
ATOM     39  C   UNL A   1      42.897  23.435  27.059  1.00  0.00    -0.014 A 
BRANCH  39  40
ATOM     40  C   UNL A   1      43.317  24.818  27.408  1.00  0.00     0.031 A 
ATOM     41  C   UNL A   1      42.340  25.794  28.002  1.00  0.00     0.074 A 
ATOM     42  C   UNL A   1      44.565  25.221  27.096  1.00  0.00     0.049 A 
ATOM     43  N   UNL A   1      42.518  27.054  28.304  1.00  0.00    -0.248 NA
ATOM     44  C   UNL A   1      40.980  25.300  28.268  1.00  0.00     0.031 C 
ATOM     45  C   UNL A   1      45.582  24.391  26.446  1.00  0.00     0.029 A 
ATOM     46  N   UNL A   1      45.180  26.438  27.250  1.00  0.00    -0.354 N 
ATOM     47  C   UNL A   1      41.290  27.514  28.765  1.00  0.00     0.074 A 
ATOM     48  C   UNL A   1      40.367  26.402  28.678  1.00  0.00     0.031 C 
ATOM     49  C   UNL A   1      46.691  25.122  26.256  1.00  0.00     0.029 A 
ATOM     50  C   UNL A   1      46.454  26.479  26.734  1.00  0.00     0.049 A 
ATOM     51  H   UNL A   1      44.750  27.208  27.690  1.00  0.00     0.167 HD
ATOM     52  C   UNL A   1      40.966  28.741  29.238  1.00  0.00     0.034 A 
ATOM     53  C   UNL A   1      47.329  27.500  26.634  1.00  0.00     0.034 A 
ATOM     54  C   UNL A   1      41.895  29.835  29.348  1.00  0.00     0.049 A 
ATOM     55  C   UNL A   1      46.950  28.847  27.182  1.00  0.00     0.074 A 
ATOM     56  C   UNL A   1      41.686  31.087  29.903  1.00  0.00     0.029 A 
ATOM     57  N   UNL A   1      43.199  29.822  28.879  1.00  0.00    -0.354 N 
ATOM     58  N   UNL A   1      45.837  29.215  27.768  1.00  0.00    -0.248 NA
ATOM     59  C   UNL A   1      47.959  29.912  27.083  1.00  0.00     0.031 C 
ATOM     60  C   UNL A   1      42.852  31.842  29.735  1.00  0.00     0.029 A 
ATOM     61  C   UNL A   1      43.800  31.049  29.108  1.00  0.00     0.049 A 
ATOM     62  H   UNL A   1      43.635  29.052  28.447  1.00  0.00     0.167 HD
ATOM     63  C   UNL A   1      46.019  30.544  28.132  1.00  0.00     0.074 A 
ATOM     64  C   UNL A   1      47.361  30.908  27.724  1.00  0.00     0.031 C 
ATOM     65  C   UNL A   1      45.147  31.391  28.732  1.00  0.00     0.034 A 
BRANCH  52  66
ATOM     66  C   UNL A   1      39.552  28.961  29.711  1.00  0.00     0.023 A 
ATOM     67  C   UNL A   1      39.164  28.508  30.988  1.00  0.00     0.012 A 
ATOM     68  C   UNL A   1      38.628  29.673  28.920  1.00  0.00     0.148 A 
ATOM     69  C   UNL A   1      37.869  28.729  31.457  1.00  0.00     0.002 A 
ATOM     70  C   UNL A   1      37.354  29.930  29.414  1.00  0.00     0.091 A 
ATOM     71  F   UNL A   1      39.008  30.079  27.701  1.00  0.00    -0.205 F 
ATOM     72  C   UNL A   1      36.969  29.448  30.677  1.00  0.00     0.022 A 
BRANCH  70  73
ATOM     73  S   UNL A   1      36.147  30.915  28.520  1.00  0.00     0.127 S 
ATOM     74  O   UNL A   1      35.027  30.933  29.460  1.00  0.00    -0.237 OA
ATOM     75  O   UNL A   1      36.842  32.195  28.376  1.00  0.00    -0.237 OA
ATOM     76  O   UNL A   1      35.901  30.212  27.270  1.00  0.00    -0.744 OA
ENDBRANCH  70  73
ENDBRANCH  52  66
BRANCH  53  77
ATOM     77  C   UNL A   1      48.667  27.271  26.018  1.00  0.00     0.023 A 
ATOM     78  C   UNL A   1      49.725  26.788  26.811  1.00  0.00     0.012 A 
ATOM     79  C   UNL A   1      48.883  27.500  24.646  1.00  0.00     0.148 A 
ATOM     80  C   UNL A   1      50.985  26.565  26.253  1.00  0.00     0.002 A 
ATOM     81  C   UNL A   1      50.122  27.217  24.085  1.00  0.00     0.091 A 
ATOM     82  F   UNL A   1      47.865  27.970  23.912  1.00  0.00    -0.205 F 
ATOM     83  C   UNL A   1      51.180  26.768  24.890  1.00  0.00     0.022 A 
BRANCH  81  84
ATOM     84  S   UNL A   1      50.422  27.318  22.317  1.00  0.00     0.127 S 
ATOM     85  O   UNL A   1      49.371  26.453  21.786  1.00  0.00    -0.237 OA
ATOM     86  O   UNL A   1      50.235  28.747  22.062  1.00  0.00    -0.237 OA
ATOM     87  O   UNL A   1      51.787  26.846  22.122  1.00  0.00    -0.744 OA
ENDBRANCH  81  84
ENDBRANCH  53  77
BRANCH  65  88
ATOM     88  C   UNL A   1      45.619  32.796  29.006  1.00  0.00     0.023 A 
ATOM     89  C   UNL A   1      46.296  33.087  30.208  1.00  0.00     0.012 A 
ATOM     90  C   UNL A   1      45.447  33.815  28.048  1.00  0.00     0.148 A 
ATOM     91  C   UNL A   1      46.762  34.375  30.467  1.00  0.00     0.002 A 
ATOM     92  C   UNL A   1      45.959  35.083  28.289  1.00  0.00     0.091 A 
ATOM     93  F   UNL A   1      44.786  33.523  26.918  1.00  0.00    -0.205 F 
ATOM     94  C   UNL A   1      46.605  35.369  29.504  1.00  0.00     0.022 A 
BRANCH  92  95
ATOM     95  S   UNL A   1      45.890  36.402  27.072  1.00  0.00     0.127 S 
ATOM     96  O   UNL A   1      44.456  36.685  27.021  1.00  0.00    -0.237 OA
ATOM     97  O   UNL A   1      46.696  37.448  27.702  1.00  0.00    -0.237 OA
ATOM     98  O   UNL A   1      46.460  35.852  25.849  1.00  0.00    -0.744 OA
ENDBRANCH  92  95
ENDBRANCH  65  88
ENDBRANCH  39  40
ENDBRANCH  31  34
ENDBRANCH  29  30
ENDBRANCH  28  29
ENDBRANCH  27  28
ENDBRANCH  26  27
ENDBRANCH   1  26
TORSDOF 22
ENDMDL
