MODEL 1
REMARK VINA RESULT:     -16.3      0.000      0.000
REMARK SMILES Cc1ccc(C2=NN(C(=O)CCC(=O)NCCCCCCNC(=O)c3ccc(-c4c5nc(c(-c6cccc(S(=O)(=O)[O-])c6F)c6ccc([nH]6)c(-c6cccc(S(=O)(=O)[O-])c6F)c6nc(c(-c7cccc(S(=O)(=O)[O-])c7F)c7ccc4[nH]7)C=C6)C=C5)cc3)[C@H](C[C@@H]3C=c4cccc(C)c4=NC3=O)C2)cc1
REMARK SMILES IDX 17 1 16 2 15 3 13 4 14 5 12 7 11 8 9 9 10 10 8 11 6 12 7 13
REMARK SMILES IDX 102 14 88 15 5 16 1 17 2 18 3 19 104 20 4 21 103 22 89 23
REMARK SMILES IDX 90 24 91 25 100 26 92 27 99 28 101 29 93 30 98 31 94 32
REMARK SMILES IDX 96 33 95 34 97 35 18 36 19 37 20 38 21 39 22 40 23 41 24 43
REMARK SMILES IDX 25 44 26 45 87 46 27 47 86 48 28 49 29 50 30 51 80 52 31 53
REMARK SMILES IDX 85 54 79 55 81 56 32 57 84 58 78 59 77 60 33 62 65 63 45 64
REMARK SMILES IDX 64 65 46 66 49 67 63 68 82 69 47 70 48 71 62 73 83 74 50 75
REMARK SMILES IDX 34 76 35 77 43 78 36 79 38 80 44 81 37 82 39 83 40 84 41 85
REMARK SMILES IDX 42 86 66 87 67 88 75 89 68 90 70 91 76 92 69 93 71 94 72 95
REMARK SMILES IDX 73 96 74 97 51 98 52 99 60 100 53 101 55 102 61 103 54 104
REMARK SMILES IDX 56 105 57 106 58 107 59 108
REMARK H PARENT 15 6 22 42 81 61 49 72
REMARK Flexibility Score: inf
ROOT
ATOM      1  C   UNL A   1      30.967  25.475  26.366  1.00  0.00     0.021 C 
ENDROOT
BRANCH   1   2
ATOM      2  C   UNL A   1      29.652  26.135  24.704  1.00  0.00     0.116 C 
BRANCH   2   3
ATOM      3  N   UNL A   1      30.069  26.712  23.253  1.00  0.00    -0.356 N 
ATOM      4  C   UNL A   1      31.213  27.042  22.621  1.00  0.00     0.220 C 
ATOM      5  O   UNL A   1      31.097  27.528  21.492  1.00  0.00    -0.275 OA
ATOM      6  H   UNL A   1      29.281  26.861  22.681  1.00  0.00     0.163 HD
BRANCH   4   7
ATOM      7  C   UNL A   1      32.556  26.799  23.238  1.00  0.00     0.110 C 
BRANCH   7   8
ATOM      8  C   UNL A   1      33.335  25.589  22.751  1.00  0.00     0.112 C 
BRANCH   8   9
ATOM      9  C   UNL A   1      32.752  24.211  23.112  1.00  0.00     0.243 C 
ATOM     10  O   UNL A   1      31.582  23.952  22.832  1.00  0.00    -0.273 OA
BRANCH   9  11
ATOM     11  N   UNL A   1      33.605  23.349  23.908  1.00  0.00    -0.230 N 
ATOM     12  C   UNL A   1      33.009  20.957  25.285  1.00  0.00     0.070 C 
ATOM     13  N   UNL A   1      33.072  21.607  23.893  1.00  0.00    -0.174 NA
ATOM     14  C   UNL A   1      33.540  22.405  26.791  1.00  0.00     0.086 C 
ATOM     15  C   UNL A   1      34.206  23.920  25.566  1.00  0.00     0.118 C 
BRANCH  12  16
ATOM     16  C   UNL A   1      33.339  19.155  25.163  1.00  0.00    -0.002 A 
ATOM     17  C   UNL A   1      34.326  14.879  25.111  1.00  0.00     0.044 C 
ATOM     18  C   UNL A   1      33.845  16.279  24.921  1.00  0.00    -0.051 A 
ATOM     19  C   UNL A   1      32.646  16.811  25.401  1.00  0.00     0.004 A 
ATOM     20  C   UNL A   1      34.726  17.145  24.381  1.00  0.00     0.004 A 
ATOM     21  C   UNL A   1      32.373  18.224  25.522  1.00  0.00     0.010 A 
ATOM     22  C   UNL A   1      34.480  18.494  24.564  1.00  0.00     0.010 A 
ENDBRANCH  12  16
BRANCH  15  23
ATOM     23  C   UNL A   1      35.801  24.407  25.267  1.00  0.00     0.045 C 
BRANCH  23  24
ATOM     24  C   UNL A   1      36.923  23.508  25.919  1.00  0.00     0.106 C 
ATOM     25  C   UNL A   1      38.219  24.233  26.165  1.00  0.00    -0.003 C 
ATOM     26  C   UNL A   1      37.313  22.165  25.271  1.00  0.00     0.253 C 
ATOM     27  C   UNL A   1      39.238  23.616  26.761  1.00  0.00    -0.003 A 
ATOM     28  N   UNL A   1      38.431  21.497  25.783  1.00  0.00    -0.212 NA
ATOM     29  O   UNL A   1      36.579  21.649  24.431  1.00  0.00    -0.272 OA
ATOM     30  C   UNL A   1      40.200  24.285  27.602  1.00  0.00     0.010 A 
ATOM     31  C   UNL A   1      39.321  22.159  26.465  1.00  0.00     0.077 A 
ATOM     32  C   UNL A   1      41.191  23.588  28.168  1.00  0.00     0.001 A 
ATOM     33  C   UNL A   1      40.622  21.542  26.934  1.00  0.00    -0.025 A 
ATOM     34  C   UNL A   1      41.441  22.228  27.759  1.00  0.00     0.005 A 
ATOM     35  C   UNL A   1      41.056  20.262  26.298  1.00  0.00     0.047 C 
ENDBRANCH  23  24
ENDBRANCH  15  23
ENDBRANCH   9  11
ENDBRANCH   8   9
ENDBRANCH   7   8
ENDBRANCH   4   7
ENDBRANCH   2   3
ENDBRANCH   1   2
BRANCH   1  36
ATOM     36  C   UNL A   1      32.083  27.020  26.892  1.00  0.00     0.002 C 
BRANCH  36  37
ATOM     37  C   UNL A   1      31.517  28.671  26.197  1.00  0.00     0.002 C 
BRANCH  37  38
ATOM     38  C   UNL A   1      31.979  30.396  26.705  1.00  0.00     0.021 C 
BRANCH  38  39
ATOM     39  C   UNL A   1      33.467  31.113  27.300  1.00  0.00     0.116 C 
BRANCH  39  40
ATOM     40  N   UNL A   1      34.786  30.410  27.155  1.00  0.00    -0.352 N 
ATOM     41  C   UNL A   1      36.106  30.490  27.643  1.00  0.00     0.251 C 
ATOM     42  H   UNL A   1      34.704  29.661  26.521  1.00  0.00     0.163 HD
ATOM     43  O   UNL A   1      36.919  29.787  27.026  1.00  0.00    -0.269 OA
BRANCH  41  44
ATOM     44  C   UNL A   1      36.645  31.224  28.857  1.00  0.00     0.039 A 
ATOM     45  C   UNL A   1      36.905  32.625  28.751  1.00  0.00     0.014 A 
ATOM     46  C   UNL A   1      36.989  30.621  30.057  1.00  0.00     0.014 A 
ATOM     47  C   UNL A   1      37.714  33.327  29.687  1.00  0.00     0.010 A 
ATOM     48  C   UNL A   1      37.779  31.321  30.997  1.00  0.00     0.010 A 
ATOM     49  C   UNL A   1      38.242  32.636  30.772  1.00  0.00    -0.014 A 
BRANCH  49  50
ATOM     50  C   UNL A   1      39.267  33.148  31.714  1.00  0.00     0.031 A 
ATOM     51  C   UNL A   1      38.850  33.790  32.997  1.00  0.00     0.074 A 
ATOM     52  C   UNL A   1      40.589  32.845  31.592  1.00  0.00     0.049 A 
ATOM     53  N   UNL A   1      39.656  34.341  33.848  1.00  0.00    -0.248 NA
ATOM     54  C   UNL A   1      37.453  33.876  33.402  1.00  0.00     0.031 C 
ATOM     55  C   UNL A   1      41.502  32.582  32.708  1.00  0.00     0.029 A 
ATOM     56  N   UNL A   1      41.426  32.754  30.475  1.00  0.00    -0.354 N 
ATOM     57  C   UNL A   1      38.947  34.578  35.008  1.00  0.00     0.074 A 
ATOM     58  C   UNL A   1      37.567  34.354  34.646  1.00  0.00     0.031 C 
ATOM     59  C   UNL A   1      42.764  32.523  32.261  1.00  0.00     0.029 A 
ATOM     60  C   UNL A   1      42.754  32.963  30.884  1.00  0.00     0.049 A 
ATOM     61  H   UNL A   1      41.133  32.574  29.553  1.00  0.00     0.167 HD
ATOM     62  C   UNL A   1      39.614  34.773  36.185  1.00  0.00     0.034 A 
ATOM     63  C   UNL A   1      43.585  33.897  30.342  1.00  0.00     0.034 A 
ATOM     64  C   UNL A   1      41.068  34.757  35.992  1.00  0.00     0.049 A 
ATOM     65  C   UNL A   1      44.212  34.831  31.352  1.00  0.00     0.074 A 
ATOM     66  C   UNL A   1      42.012  33.749  36.115  1.00  0.00     0.029 A 
ATOM     67  N   UNL A   1      41.712  35.831  35.395  1.00  0.00    -0.354 N 
ATOM     68  N   UNL A   1      43.912  34.837  32.618  1.00  0.00    -0.248 NA
ATOM     69  C   UNL A   1      45.162  35.887  31.006  1.00  0.00     0.031 C 
ATOM     70  C   UNL A   1      43.221  34.206  35.539  1.00  0.00     0.029 A 
ATOM     71  C   UNL A   1      43.023  35.498  35.083  1.00  0.00     0.049 A 
ATOM     72  H   UNL A   1      41.298  36.707  35.218  1.00  0.00     0.167 HD
ATOM     73  C   UNL A   1      44.375  35.996  33.183  1.00  0.00     0.074 A 
ATOM     74  C   UNL A   1      45.263  36.544  32.175  1.00  0.00     0.031 C 
ATOM     75  C   UNL A   1      43.887  36.444  34.380  1.00  0.00     0.034 A 
BRANCH  62  76
ATOM     76  C   UNL A   1      38.994  34.638  37.572  1.00  0.00     0.023 A 
ATOM     77  C   UNL A   1      39.405  35.572  38.557  1.00  0.00     0.012 A 
ATOM     78  C   UNL A   1      38.093  33.642  38.010  1.00  0.00     0.148 A 
ATOM     79  C   UNL A   1      39.046  35.465  39.904  1.00  0.00     0.002 A 
ATOM     80  C   UNL A   1      37.782  33.495  39.369  1.00  0.00     0.091 A 
ATOM     81  F   UNL A   1      37.466  32.877  37.111  1.00  0.00    -0.205 F 
ATOM     82  C   UNL A   1      38.264  34.401  40.318  1.00  0.00     0.022 A 
BRANCH  80  83
ATOM     83  S   UNL A   1      36.833  32.102  40.008  1.00  0.00     0.127 S 
ATOM     84  O   UNL A   1      35.523  32.311  39.386  1.00  0.00    -0.237 OA
ATOM     85  O   UNL A   1      37.571  30.953  39.489  1.00  0.00    -0.237 OA
ATOM     86  O   UNL A   1      36.831  32.247  41.458  1.00  0.00    -0.744 OA
ENDBRANCH  80  83
ENDBRANCH  62  76
BRANCH  63  87
ATOM     87  C   UNL A   1      43.217  34.327  28.968  1.00  0.00     0.023 A 
ATOM     88  C   UNL A   1      42.517  35.540  28.793  1.00  0.00     0.012 A 
ATOM     89  C   UNL A   1      43.830  33.714  27.859  1.00  0.00     0.148 A 
ATOM     90  C   UNL A   1      42.478  36.158  27.543  1.00  0.00     0.002 A 
ATOM     91  C   UNL A   1      43.827  34.356  26.630  1.00  0.00     0.091 A 
ATOM     92  F   UNL A   1      44.445  32.539  28.043  1.00  0.00    -0.205 F 
ATOM     93  C   UNL A   1      43.142  35.570  26.467  1.00  0.00     0.022 A 
BRANCH  91  94
ATOM     94  S   UNL A   1      44.783  33.752  25.230  1.00  0.00     0.127 S 
ATOM     95  O   UNL A   1      46.035  34.487  25.396  1.00  0.00    -0.237 OA
ATOM     96  O   UNL A   1      44.883  32.321  25.509  1.00  0.00    -0.237 OA
ATOM     97  O   UNL A   1      44.010  34.085  24.046  1.00  0.00    -0.744 OA
ENDBRANCH  91  94
ENDBRANCH  63  87
BRANCH  75  98
ATOM     98  C   UNL A   1      44.155  37.811  34.974  1.00  0.00     0.023 A 
ATOM     99  C   UNL A   1      45.033  38.006  36.058  1.00  0.00     0.012 A 
ATOM    100  C   UNL A   1      43.618  38.980  34.377  1.00  0.00     0.148 A 
ATOM    101  C   UNL A   1      45.302  39.276  36.580  1.00  0.00     0.002 A 
ATOM    102  C   UNL A   1      43.977  40.248  34.828  1.00  0.00     0.091 A 
ATOM    103  F   UNL A   1      42.733  38.870  33.375  1.00  0.00    -0.205 F 
ATOM    104  C   UNL A   1      44.788  40.401  35.953  1.00  0.00     0.022 A 
BRANCH 102 105
ATOM    105  S   UNL A   1      43.529  41.719  33.895  1.00  0.00     0.127 S 
ATOM    106  O   UNL A   1      44.187  41.482  32.614  1.00  0.00    -0.237 OA
ATOM    107  O   UNL A   1      42.067  41.635  33.851  1.00  0.00    -0.237 OA
ATOM    108  O   UNL A   1      44.036  42.831  34.688  1.00  0.00    -0.744 OA
ENDBRANCH 102 105
ENDBRANCH  75  98
ENDBRANCH  49  50
ENDBRANCH  41  44
ENDBRANCH  39  40
ENDBRANCH  38  39
ENDBRANCH  37  38
ENDBRANCH  36  37
ENDBRANCH   1  36
TORSDOF 22
ENDMDL
MODEL 2
REMARK VINA RESULT:     -16.0      3.971      9.343
REMARK SMILES Cc1ccc(C2=NN(C(=O)CCC(=O)NCCCCCCNC(=O)c3ccc(-c4c5nc(c(-c6cccc(S(=O)(=O)[O-])c6F)c6ccc([nH]6)c(-c6cccc(S(=O)(=O)[O-])c6F)c6nc(c(-c7cccc(S(=O)(=O)[O-])c7F)c7ccc4[nH]7)C=C6)C=C5)cc3)[C@H](C[C@@H]3C=c4cccc(C)c4=NC3=O)C2)cc1
REMARK SMILES IDX 17 1 16 2 15 3 13 4 14 5 12 7 11 8 9 9 10 10 8 11 6 12 7 13
REMARK SMILES IDX 102 14 88 15 5 16 1 17 2 18 3 19 104 20 4 21 103 22 89 23
REMARK SMILES IDX 90 24 91 25 100 26 92 27 99 28 101 29 93 30 98 31 94 32
REMARK SMILES IDX 96 33 95 34 97 35 18 36 19 37 20 38 21 39 22 40 23 41 24 43
REMARK SMILES IDX 25 44 26 45 87 46 27 47 86 48 28 49 29 50 30 51 80 52 31 53
REMARK SMILES IDX 85 54 79 55 81 56 32 57 84 58 78 59 77 60 33 62 65 63 45 64
REMARK SMILES IDX 64 65 46 66 49 67 63 68 82 69 47 70 48 71 62 73 83 74 50 75
REMARK SMILES IDX 34 76 35 77 43 78 36 79 38 80 44 81 37 82 39 83 40 84 41 85
REMARK SMILES IDX 42 86 66 87 67 88 75 89 68 90 70 91 76 92 69 93 71 94 72 95
REMARK SMILES IDX 73 96 74 97 51 98 52 99 60 100 53 101 55 102 61 103 54 104
REMARK SMILES IDX 56 105 57 106 58 107 59 108
REMARK H PARENT 15 6 22 42 81 61 49 72
REMARK Flexibility Score: inf
ROOT
ATOM      1  C   UNL A   1      35.230  30.725  28.647  1.00  0.00     0.021 C 
ENDROOT
BRANCH   1   2
ATOM      2  C   UNL A   1      34.602  29.621  26.826  1.00  0.00     0.116 C 
BRANCH   2   3
ATOM      3  N   UNL A   1      33.275  29.826  25.927  1.00  0.00    -0.356 N 
ATOM      4  C   UNL A   1      32.198  29.089  25.588  1.00  0.00     0.220 C 
ATOM      5  O   UNL A   1      31.405  29.606  24.796  1.00  0.00    -0.275 OA
ATOM      6  H   UNL A   1      33.243  30.724  25.523  1.00  0.00     0.163 HD
BRANCH   4   7
ATOM      7  C   UNL A   1      31.955  27.728  26.166  1.00  0.00     0.110 C 
BRANCH   7   8
ATOM      8  C   UNL A   1      31.873  26.566  25.191  1.00  0.00     0.112 C 
BRANCH   8   9
ATOM      9  C   UNL A   1      31.854  25.156  25.809  1.00  0.00     0.243 C 
ATOM     10  O   UNL A   1      31.257  24.962  26.867  1.00  0.00    -0.273 OA
BRANCH   9  11
ATOM     11  N   UNL A   1      32.690  24.165  25.157  1.00  0.00    -0.230 N 
ATOM     12  C   UNL A   1      35.475  24.148  24.690  1.00  0.00     0.070 C 
ATOM     13  N   UNL A   1      34.399  24.148  25.788  1.00  0.00    -0.174 NA
ATOM     14  C   UNL A   1      34.537  24.225  22.751  1.00  0.00     0.086 C 
ATOM     15  C   UNL A   1      32.581  23.928  23.322  1.00  0.00     0.118 C 
BRANCH  12  16
ATOM     16  C   UNL A   1      36.985  23.282  25.276  1.00  0.00    -0.002 A 
ATOM     17  C   UNL A   1      40.710  21.248  26.388  1.00  0.00     0.044 C 
ATOM     18  C   UNL A   1      39.367  21.883  26.251  1.00  0.00    -0.051 A 
ATOM     19  C   UNL A   1      39.026  23.182  26.637  1.00  0.00     0.004 A 
ATOM     20  C   UNL A   1      38.451  21.196  25.539  1.00  0.00     0.004 A 
ATOM     21  C   UNL A   1      37.854  23.887  26.175  1.00  0.00     0.010 A 
ATOM     22  C   UNL A   1      37.368  21.904  25.050  1.00  0.00     0.010 A 
ENDBRANCH  12  16
BRANCH  15  23
ATOM     23  C   UNL A   1      31.637  22.532  23.155  1.00  0.00     0.045 C 
BRANCH  23  24
ATOM     24  C   UNL A   1      32.269  21.207  23.734  1.00  0.00     0.106 C 
ATOM     25  C   UNL A   1      32.170  20.026  22.806  1.00  0.00    -0.003 C 
ATOM     26  C   UNL A   1      31.838  20.684  25.119  1.00  0.00     0.253 C 
ATOM     27  C   UNL A   1      32.710  18.854  23.138  1.00  0.00    -0.003 A 
ATOM     28  N   UNL A   1      32.291  19.418  25.505  1.00  0.00    -0.212 NA
ATOM     29  O   UNL A   1      31.234  21.421  25.896  1.00  0.00    -0.272 OA
ATOM     30  C   UNL A   1      33.250  17.920  22.182  1.00  0.00     0.010 A 
ATOM     31  C   UNL A   1      32.689  18.571  24.600  1.00  0.00     0.077 A 
ATOM     32  C   UNL A   1      33.779  16.766  22.603  1.00  0.00     0.001 A 
ATOM     33  C   UNL A   1      33.062  17.139  24.922  1.00  0.00    -0.025 A 
ATOM     34  C   UNL A   1      33.605  16.348  23.972  1.00  0.00     0.005 A 
ATOM     35  C   UNL A   1      32.623  16.583  26.236  1.00  0.00     0.047 C 
ENDBRANCH  23  24
ENDBRANCH  15  23
ENDBRANCH   9  11
ENDBRANCH   8   9
ENDBRANCH   7   8
ENDBRANCH   4   7
ENDBRANCH   2   3
ENDBRANCH   1   2
BRANCH   1  36
ATOM     36  C   UNL A   1      36.281  32.294  28.058  1.00  0.00     0.002 C 
BRANCH  36  37
ATOM     37  C   UNL A   1      35.313  33.901  27.971  1.00  0.00     0.002 C 
BRANCH  37  38
ATOM     38  C   UNL A   1      33.695  34.358  28.759  1.00  0.00     0.021 C 
BRANCH  38  39
ATOM     39  C   UNL A   1      33.195  35.694  29.783  1.00  0.00     0.116 C 
BRANCH  39  40
ATOM     40  N   UNL A   1      32.703  35.465  31.183  1.00  0.00    -0.352 N 
ATOM     41  C   UNL A   1      33.129  34.868  32.387  1.00  0.00     0.251 C 
ATOM     42  H   UNL A   1      31.804  35.850  31.295  1.00  0.00     0.163 HD
ATOM     43  O   UNL A   1      32.234  34.742  33.235  1.00  0.00    -0.269 OA
BRANCH  41  44
ATOM     44  C   UNL A   1      34.523  34.456  32.822  1.00  0.00     0.039 A 
ATOM     45  C   UNL A   1      35.646  35.150  32.274  1.00  0.00     0.014 A 
ATOM     46  C   UNL A   1      34.806  33.390  33.661  1.00  0.00     0.014 A 
ATOM     47  C   UNL A   1      36.970  34.636  32.339  1.00  0.00     0.010 A 
ATOM     48  C   UNL A   1      36.124  32.886  33.742  1.00  0.00     0.010 A 
ATOM     49  C   UNL A   1      37.194  33.432  32.998  1.00  0.00    -0.014 A 
BRANCH  49  50
ATOM     50  C   UNL A   1      38.454  32.651  32.979  1.00  0.00     0.031 A 
ATOM     51  C   UNL A   1      38.521  31.355  32.238  1.00  0.00     0.074 A 
ATOM     52  C   UNL A   1      39.642  33.169  33.397  1.00  0.00     0.049 A 
ATOM     53  N   UNL A   1      39.542  30.559  32.226  1.00  0.00    -0.248 NA
ATOM     54  C   UNL A   1      37.398  30.848  31.461  1.00  0.00     0.031 C 
ATOM     55  C   UNL A   1      40.943  32.912  32.773  1.00  0.00     0.029 A 
ATOM     56  N   UNL A   1      39.973  33.985  34.485  1.00  0.00    -0.354 N 
ATOM     57  C   UNL A   1      39.332  29.618  31.238  1.00  0.00     0.074 A 
ATOM     58  C   UNL A   1      37.949  29.790  30.857  1.00  0.00     0.031 C 
ATOM     59  C   UNL A   1      41.925  33.399  33.545  1.00  0.00     0.029 A 
ATOM     60  C   UNL A   1      41.327  33.792  34.802  1.00  0.00     0.049 A 
ATOM     61  H   UNL A   1      39.357  34.594  34.951  1.00  0.00     0.167 HD
ATOM     62  C   UNL A   1      40.389  28.914  30.733  1.00  0.00     0.034 A 
ATOM     63  C   UNL A   1      41.784  33.449  36.040  1.00  0.00     0.034 A 
ATOM     64  C   UNL A   1      41.642  29.255  31.416  1.00  0.00     0.049 A 
ATOM     65  C   UNL A   1      42.668  32.223  36.058  1.00  0.00     0.074 A 
ATOM     66  C   UNL A   1      42.648  30.160  31.114  1.00  0.00     0.029 A 
ATOM     67  N   UNL A   1      41.892  28.799  32.701  1.00  0.00    -0.354 N 
ATOM     68  N   UNL A   1      42.895  31.477  35.017  1.00  0.00    -0.248 NA
ATOM     69  C   UNL A   1      43.298  31.690  37.265  1.00  0.00     0.031 C 
ATOM     70  C   UNL A   1      43.481  30.286  32.252  1.00  0.00     0.029 A 
ATOM     71  C   UNL A   1      42.996  29.445  33.239  1.00  0.00     0.049 A 
ATOM     72  H   UNL A   1      41.360  28.113  33.168  1.00  0.00     0.167 HD
ATOM     73  C   UNL A   1      43.431  30.286  35.427  1.00  0.00     0.074 A 
ATOM     74  C   UNL A   1      43.791  30.525  36.812  1.00  0.00     0.031 C 
ATOM     75  C   UNL A   1      43.417  29.185  34.614  1.00  0.00     0.034 A 
BRANCH  62  76
ATOM     76  C   UNL A   1      40.385  28.168  29.402  1.00  0.00     0.023 A 
ATOM     77  C   UNL A   1      39.611  26.983  29.328  1.00  0.00     0.012 A 
ATOM     78  C   UNL A   1      41.119  28.495  28.240  1.00  0.00     0.148 A 
ATOM     79  C   UNL A   1      39.648  26.118  28.230  1.00  0.00     0.002 A 
ATOM     80  C   UNL A   1      41.207  27.600  27.165  1.00  0.00     0.091 A 
ATOM     81  F   UNL A   1      41.675  29.706  28.129  1.00  0.00    -0.205 F 
ATOM     82  C   UNL A   1      40.478  26.407  27.162  1.00  0.00     0.022 A 
BRANCH  80  83
ATOM     83  S   UNL A   1      42.316  27.859  25.768  1.00  0.00     0.127 S 
ATOM     84  O   UNL A   1      41.978  26.734  24.894  1.00  0.00    -0.237 OA
ATOM     85  O   UNL A   1      41.891  29.163  25.265  1.00  0.00    -0.237 OA
ATOM     86  O   UNL A   1      43.668  27.803  26.311  1.00  0.00    -0.744 OA
ENDBRANCH  80  83
ENDBRANCH  62  76
BRANCH  63  87
ATOM     87  C   UNL A   1      40.862  33.795  37.154  1.00  0.00     0.023 A 
ATOM     88  C   UNL A   1      40.950  35.073  37.746  1.00  0.00     0.012 A 
ATOM     89  C   UNL A   1      39.724  33.000  37.388  1.00  0.00     0.148 A 
ATOM     90  C   UNL A   1      39.897  35.570  38.513  1.00  0.00     0.002 A 
ATOM     91  C   UNL A   1      38.661  33.517  38.113  1.00  0.00     0.091 A 
ATOM     92  F   UNL A   1      39.687  31.773  36.855  1.00  0.00    -0.205 F 
ATOM     93  C   UNL A   1      38.750  34.796  38.686  1.00  0.00     0.022 A 
BRANCH  91  94
ATOM     94  S   UNL A   1      37.088  32.655  38.256  1.00  0.00     0.127 S 
ATOM     95  O   UNL A   1      36.321  33.270  37.175  1.00  0.00    -0.237 OA
ATOM     96  O   UNL A   1      37.467  31.265  38.012  1.00  0.00    -0.237 OA
ATOM     97  O   UNL A   1      36.608  32.924  39.601  1.00  0.00    -0.744 OA
ENDBRANCH  91  94
ENDBRANCH  63  87
BRANCH  75  98
ATOM     98  C   UNL A   1      43.768  27.776  35.047  1.00  0.00     0.023 A 
ATOM     99  C   UNL A   1      42.976  27.045  35.954  1.00  0.00     0.012 A 
ATOM    100  C   UNL A   1      44.854  27.084  34.455  1.00  0.00     0.148 A 
ATOM    101  C   UNL A   1      43.287  25.732  36.323  1.00  0.00     0.002 A 
ATOM    102  C   UNL A   1      45.094  25.742  34.740  1.00  0.00     0.091 A 
ATOM    103  F   UNL A   1      45.683  27.732  33.622  1.00  0.00    -0.205 F 
ATOM    104  C   UNL A   1      44.337  25.072  35.702  1.00  0.00     0.022 A 
BRANCH 102 105
ATOM    105  S   UNL A   1      46.283  24.794  33.780  1.00  0.00     0.127 S 
ATOM    106  O   UNL A   1      45.814  25.008  32.414  1.00  0.00    -0.237 OA
ATOM    107  O   UNL A   1      47.550  25.457  34.098  1.00  0.00    -0.237 OA
ATOM    108  O   UNL A   1      46.178  23.436  34.296  1.00  0.00    -0.744 OA
ENDBRANCH 102 105
ENDBRANCH  75  98
ENDBRANCH  49  50
ENDBRANCH  41  44
ENDBRANCH  39  40
ENDBRANCH  38  39
ENDBRANCH  37  38
ENDBRANCH  36  37
ENDBRANCH   1  36
TORSDOF 22
ENDMDL
MODEL 3
REMARK VINA RESULT:     -14.4      7.671     16.673
REMARK SMILES Cc1ccc(C2=NN(C(=O)CCC(=O)NCCCCCCNC(=O)c3ccc(-c4c5nc(c(-c6cccc(S(=O)(=O)[O-])c6F)c6ccc([nH]6)c(-c6cccc(S(=O)(=O)[O-])c6F)c6nc(c(-c7cccc(S(=O)(=O)[O-])c7F)c7ccc4[nH]7)C=C6)C=C5)cc3)[C@H](C[C@@H]3C=c4cccc(C)c4=NC3=O)C2)cc1
REMARK SMILES IDX 17 1 16 2 15 3 13 4 14 5 12 7 11 8 9 9 10 10 8 11 6 12 7 13
REMARK SMILES IDX 102 14 88 15 5 16 1 17 2 18 3 19 104 20 4 21 103 22 89 23
REMARK SMILES IDX 90 24 91 25 100 26 92 27 99 28 101 29 93 30 98 31 94 32
REMARK SMILES IDX 96 33 95 34 97 35 18 36 19 37 20 38 21 39 22 40 23 41 24 43
REMARK SMILES IDX 25 44 26 45 87 46 27 47 86 48 28 49 29 50 30 51 80 52 31 53
REMARK SMILES IDX 85 54 79 55 81 56 32 57 84 58 78 59 77 60 33 62 65 63 45 64
REMARK SMILES IDX 64 65 46 66 49 67 63 68 82 69 47 70 48 71 62 73 83 74 50 75
REMARK SMILES IDX 34 76 35 77 43 78 36 79 38 80 44 81 37 82 39 83 40 84 41 85
REMARK SMILES IDX 42 86 66 87 67 88 75 89 68 90 70 91 76 92 69 93 71 94 72 95
REMARK SMILES IDX 73 96 74 97 51 98 52 99 60 100 53 101 55 102 61 103 54 104
REMARK SMILES IDX 56 105 57 106 58 107 59 108
REMARK H PARENT 15 6 22 42 81 61 49 72
REMARK Flexibility Score: inf
ROOT
ATOM      1  C   UNL A   1      43.436  40.624  30.861  1.00  0.00     0.021 C 
ENDROOT
BRANCH   1   2
ATOM      2  C   UNL A   1      43.240  41.145  28.712  1.00  0.00     0.116 C 
BRANCH   2   3
ATOM      3  N   UNL A   1      42.059  40.754  27.681  1.00  0.00    -0.356 N 
ATOM      4  C   UNL A   1      41.888  40.746  26.343  1.00  0.00     0.220 C 
ATOM      5  O   UNL A   1      40.769  40.425  25.935  1.00  0.00    -0.275 OA
ATOM      6  H   UNL A   1      41.254  40.438  28.153  1.00  0.00     0.163 HD
BRANCH   4   7
ATOM      7  C   UNL A   1      43.005  41.075  25.401  1.00  0.00     0.110 C 
BRANCH   7   8
ATOM      8  C   UNL A   1      42.940  42.415  24.689  1.00  0.00     0.112 C 
BRANCH   8   9
ATOM      9  C   UNL A   1      42.731  42.370  23.164  1.00  0.00     0.243 C 
ATOM     10  O   UNL A   1      42.001  41.509  22.675  1.00  0.00    -0.273 OA
BRANCH   9  11
ATOM     11  N   UNL A   1      43.548  43.280  22.384  1.00  0.00    -0.230 N 
ATOM     12  C   UNL A   1      43.526  43.837  19.616  1.00  0.00     0.070 C 
ATOM     13  N   UNL A   1      42.694  43.917  20.907  1.00  0.00    -0.174 NA
ATOM     14  C   UNL A   1      45.434  42.925  20.034  1.00  0.00     0.086 C 
ATOM     15  C   UNL A   1      45.337  42.893  22.090  1.00  0.00     0.118 C 
BRANCH  12  16
ATOM     16  C   UNL A   1      43.051  45.189  18.467  1.00  0.00    -0.002 A 
ATOM     17  C   UNL A   1      41.655  48.453  15.888  1.00  0.00     0.044 C 
ATOM     18  C   UNL A   1      42.329  47.328  16.600  1.00  0.00    -0.051 A 
ATOM     19  C   UNL A   1      43.350  47.446  17.548  1.00  0.00     0.004 A 
ATOM     20  C   UNL A   1      41.788  46.105  16.433  1.00  0.00     0.004 A 
ATOM     21  C   UNL A   1      43.726  46.403  18.472  1.00  0.00     0.010 A 
ATOM     22  C   UNL A   1      42.111  45.137  17.366  1.00  0.00     0.010 A 
ENDBRANCH  12  16
BRANCH  15  23
ATOM     23  C   UNL A   1      46.148  43.887  23.197  1.00  0.00     0.045 C 
BRANCH  23  24
ATOM     24  C   UNL A   1      46.717  43.160  24.478  1.00  0.00     0.106 C 
ATOM     25  C   UNL A   1      46.447  41.680  24.509  1.00  0.00    -0.003 C 
ATOM     26  C   UNL A   1      46.359  43.678  25.885  1.00  0.00     0.253 C 
ATOM     27  C   UNL A   1      46.915  40.926  25.503  1.00  0.00    -0.003 A 
ATOM     28  N   UNL A   1      46.738  42.896  26.981  1.00  0.00    -0.212 NA
ATOM     29  O   UNL A   1      45.882  44.803  26.026  1.00  0.00    -0.272 OA
ATOM     30  C   UNL A   1      47.298  39.544  25.350  1.00  0.00     0.010 A 
ATOM     31  C   UNL A   1      46.991  41.630  26.814  1.00  0.00     0.077 A 
ATOM     32  C   UNL A   1      47.765  38.861  26.401  1.00  0.00     0.001 A 
ATOM     33  C   UNL A   1      47.272  40.688  27.966  1.00  0.00    -0.025 A 
ATOM     34  C   UNL A   1      47.670  39.421  27.726  1.00  0.00     0.005 A 
ATOM     35  C   UNL A   1      46.899  41.138  29.339  1.00  0.00     0.047 C 
ENDBRANCH  23  24
ENDBRANCH  15  23
ENDBRANCH   9  11
ENDBRANCH   8   9
ENDBRANCH   7   8
ENDBRANCH   4   7
ENDBRANCH   2   3
ENDBRANCH   1   2
BRANCH   1  36
ATOM     36  C   UNL A   1      43.960  42.269  31.826  1.00  0.00     0.002 C 
BRANCH  36  37
ATOM     37  C   UNL A   1      43.731  42.195  33.688  1.00  0.00     0.002 C 
BRANCH  37  38
ATOM     38  C   UNL A   1      44.818  41.442  34.991  1.00  0.00     0.021 C 
BRANCH  38  39
ATOM     39  C   UNL A   1      46.547  41.502  35.293  1.00  0.00     0.116 C 
BRANCH  39  40
ATOM     40  N   UNL A   1      47.174  40.715  36.407  1.00  0.00    -0.352 N 
ATOM     41  C   UNL A   1      46.974  39.516  37.120  1.00  0.00     0.251 C 
ATOM     42  H   UNL A   1      47.973  41.181  36.745  1.00  0.00     0.163 HD
ATOM     43  O   UNL A   1      47.669  39.411  38.141  1.00  0.00    -0.269 OA
BRANCH  41  44
ATOM     44  C   UNL A   1      46.116  38.314  36.770  1.00  0.00     0.039 A 
ATOM     45  C   UNL A   1      46.723  37.211  36.096  1.00  0.00     0.014 A 
ATOM     46  C   UNL A   1      44.749  38.231  36.983  1.00  0.00     0.014 A 
ATOM     47  C   UNL A   1      45.966  36.211  35.427  1.00  0.00     0.010 A 
ATOM     48  C   UNL A   1      43.994  37.227  36.334  1.00  0.00     0.010 A 
ATOM     49  C   UNL A   1      44.577  36.280  35.463  1.00  0.00    -0.014 A 
BRANCH  49  50
ATOM     50  C   UNL A   1      43.643  35.459  34.656  1.00  0.00     0.031 A 
ATOM     51  C   UNL A   1      43.387  35.806  33.226  1.00  0.00     0.074 A 
ATOM     52  C   UNL A   1      43.187  34.246  35.074  1.00  0.00     0.049 A 
ATOM     53  N   UNL A   1      42.532  35.207  32.458  1.00  0.00    -0.248 NA
ATOM     54  C   UNL A   1      44.080  36.899  32.557  1.00  0.00     0.031 C 
ATOM     55  C   UNL A   1      42.974  33.080  34.213  1.00  0.00     0.029 A 
ATOM     56  N   UNL A   1      42.761  33.790  36.327  1.00  0.00    -0.354 N 
ATOM     57  C   UNL A   1      42.767  35.620  31.163  1.00  0.00     0.074 A 
ATOM     58  C   UNL A   1      43.676  36.735  31.293  1.00  0.00     0.031 C 
ATOM     59  C   UNL A   1      42.328  32.121  34.891  1.00  0.00     0.029 A 
ATOM     60  C   UNL A   1      41.896  32.700  36.145  1.00  0.00     0.049 A 
ATOM     61  H   UNL A   1      43.026  34.172  37.194  1.00  0.00     0.167 HD
ATOM     62  C   UNL A   1      42.303  34.874  30.116  1.00  0.00     0.034 A 
ATOM     63  C   UNL A   1      40.637  32.625  36.661  1.00  0.00     0.034 A 
ATOM     64  C   UNL A   1      41.530  33.716  30.578  1.00  0.00     0.049 A 
ATOM     65  C   UNL A   1      39.563  32.328  35.640  1.00  0.00     0.074 A 
ATOM     66  C   UNL A   1      41.882  32.396  30.812  1.00  0.00     0.029 A 
ATOM     67  N   UNL A   1      40.251  33.880  31.089  1.00  0.00    -0.354 N 
ATOM     68  N   UNL A   1      39.779  32.261  34.359  1.00  0.00    -0.248 NA
ATOM     69  C   UNL A   1      38.147  32.170  35.969  1.00  0.00     0.031 C 
ATOM     70  C   UNL A   1      40.822  31.776  31.515  1.00  0.00     0.029 A 
ATOM     71  C   UNL A   1      39.815  32.710  31.695  1.00  0.00     0.049 A 
ATOM     72  H   UNL A   1      39.724  34.711  31.030  1.00  0.00     0.167 HD
ATOM     73  C   UNL A   1      38.581  32.326  33.698  1.00  0.00     0.074 A 
ATOM     74  C   UNL A   1      37.595  32.125  34.743  1.00  0.00     0.031 C 
ATOM     75  C   UNL A   1      38.522  32.655  32.371  1.00  0.00     0.034 A 
BRANCH  62  76
ATOM     76  C   UNL A   1      42.815  34.967  28.682  1.00  0.00     0.023 A 
ATOM     77  C   UNL A   1      42.329  36.038  27.891  1.00  0.00     0.012 A 
ATOM     78  C   UNL A   1      43.683  34.066  28.026  1.00  0.00     0.148 A 
ATOM     79  C   UNL A   1      42.584  36.149  26.521  1.00  0.00     0.002 A 
ATOM     80  C   UNL A   1      43.890  34.139  26.642  1.00  0.00     0.091 A 
ATOM     81  F   UNL A   1      44.379  33.178  28.745  1.00  0.00    -0.205 F 
ATOM     82  C   UNL A   1      43.335  35.176  25.886  1.00  0.00     0.022 A 
BRANCH  80  83
ATOM     83  S   UNL A   1      44.791  32.877  25.723  1.00  0.00     0.127 S 
ATOM     84  O   UNL A   1      44.469  33.219  24.335  1.00  0.00    -0.237 OA
ATOM     85  O   UNL A   1      46.177  33.138  26.103  1.00  0.00    -0.237 OA
ATOM     86  O   UNL A   1      44.248  31.596  26.159  1.00  0.00    -0.744 OA
ENDBRANCH  80  83
ENDBRANCH  62  76
BRANCH  63  87
ATOM     87  C   UNL A   1      40.405  33.492  37.846  1.00  0.00     0.023 A 
ATOM     88  C   UNL A   1      39.594  34.639  37.709  1.00  0.00     0.012 A 
ATOM     89  C   UNL A   1      40.711  33.010  39.133  1.00  0.00     0.148 A 
ATOM     90  C   UNL A   1      39.054  35.260  38.834  1.00  0.00     0.002 A 
ATOM     91  C   UNL A   1      40.133  33.603  40.245  1.00  0.00     0.091 A 
ATOM     92  F   UNL A   1      41.522  31.950  39.237  1.00  0.00    -0.205 F 
ATOM     93  C   UNL A   1      39.315  34.734  40.099  1.00  0.00     0.022 A 
BRANCH  91  94
ATOM     94  S   UNL A   1      40.289  32.903  41.895  1.00  0.00     0.127 S 
ATOM     95  O   UNL A   1      39.970  31.499  41.645  1.00  0.00    -0.237 OA
ATOM     96  O   UNL A   1      41.693  33.155  42.214  1.00  0.00    -0.237 OA
ATOM     97  O   UNL A   1      39.340  33.626  42.726  1.00  0.00    -0.744 OA
ENDBRANCH  91  94
ENDBRANCH  63  87
BRANCH  75  98
ATOM     98  C   UNL A   1      37.253  32.979  31.609  1.00  0.00     0.023 A 
ATOM     99  C   UNL A   1      36.779  32.174  30.554  1.00  0.00     0.012 A 
ATOM    100  C   UNL A   1      36.418  34.051  32.012  1.00  0.00     0.148 A 
ATOM    101  C   UNL A   1      35.588  32.461  29.877  1.00  0.00     0.002 A 
ATOM    102  C   UNL A   1      35.180  34.265  31.410  1.00  0.00     0.091 A 
ATOM    103  F   UNL A   1      36.830  34.891  32.974  1.00  0.00    -0.205 F 
ATOM    104  C   UNL A   1      34.778  33.497  30.317  1.00  0.00     0.022 A 
BRANCH 102 105
ATOM    105  S   UNL A   1      34.006  35.435  32.108  1.00  0.00     0.127 S 
ATOM    106  O   UNL A   1      33.069  34.553  32.798  1.00  0.00    -0.237 OA
ATOM    107  O   UNL A   1      34.848  36.240  32.996  1.00  0.00    -0.237 OA
ATOM    108  O   UNL A   1      33.483  36.165  30.961  1.00  0.00    -0.744 OA
ENDBRANCH 102 105
ENDBRANCH  75  98
ENDBRANCH  49  50
ENDBRANCH  41  44
ENDBRANCH  39  40
ENDBRANCH  38  39
ENDBRANCH  37  38
ENDBRANCH  36  37
ENDBRANCH   1  36
TORSDOF 22
ENDMDL
