MODEL 1
REMARK VINA RESULT:     -11.6      0.000      0.000
REMARK SMILES CC(C)[C@H](NC(=O)CN1C(=O)c2ccccc2C1=O)C(=O)NCCCCCCNC(=O)c1ccc(-c2c3nc(c(-c4cccc(S(=O)(=O)[O-])c4F)c4ccc([nH]4)c(-c4cccc(S(=O)(=O)[O-])c4F)c4nc(c(-c5cccc(S(=O)(=O)[O-])c5F)c5ccc2[nH]5)C=C4)C=C3)cc1
REMARK SMILES IDX 25 1 24 2 23 3 22 4 20 5 21 6 4 8 2 9 1 10 3 11 5 12 6 13
REMARK SMILES IDX 7 15 8 16 9 17 10 18 18 19 11 20 12 21 17 22 19 23 13 24
REMARK SMILES IDX 16 25 14 26 15 27 26 28 27 29 28 30 29 31 30 32 31 34 32 35
REMARK SMILES IDX 33 36 94 37 34 38 93 39 35 40 36 41 37 42 87 43 38 44 92 45
REMARK SMILES IDX 86 46 88 47 39 48 91 49 85 50 84 51 40 53 72 54 52 55 71 56
REMARK SMILES IDX 53 57 56 58 70 59 89 60 54 61 55 62 69 64 90 65 57 66 41 67
REMARK SMILES IDX 42 68 50 69 43 70 45 71 51 72 44 73 46 74 47 75 48 76 49 77
REMARK SMILES IDX 73 78 74 79 82 80 75 81 77 82 83 83 76 84 78 85 79 86 80 87
REMARK SMILES IDX 81 88 58 89 59 90 67 91 60 92 62 93 68 94 61 95 63 96 64 97
REMARK SMILES IDX 65 98 66 99
REMARK H PARENT 22 7 5 14 29 33 88 52 56 63
REMARK Flexibility Score: inf
ROOT
ATOM      1  C   UNL A   1      31.180  26.740  26.773  1.00  0.00     0.002 C 
ENDROOT
BRANCH   1   2
ATOM      2  C   UNL A   1      32.112  25.547  26.542  1.00  0.00     0.021 C 
BRANCH   2   3
ATOM      3  C   UNL A   1      31.438  24.176  26.506  1.00  0.00     0.116 C 
BRANCH   3   4
ATOM      4  N   UNL A   1      32.130  23.130  27.241  1.00  0.00    -0.354 N 
ATOM      5  C   UNL A   1      33.086  22.248  26.835  1.00  0.00     0.242 C 
ATOM      6  O   UNL A   1      33.803  21.707  27.683  1.00  0.00    -0.273 OA
ATOM      7  H   UNL A   1      31.864  23.044  28.184  1.00  0.00     0.163 HD
BRANCH   5   8
ATOM      8  C   UNL A   1      33.386  22.029  25.349  1.00  0.00     0.173 C 
BRANCH   8   9
ATOM      9  C   UNL A   1      33.842  20.544  25.110  1.00  0.00     0.015 C 
ATOM     10  C   UNL A   1      33.077  19.820  24.001  1.00  0.00     0.010 C 
ATOM     11  C   UNL A   1      35.345  20.298  24.904  1.00  0.00     0.010 C 
ENDBRANCH   8   9
BRANCH   8  12
ATOM     12  N   UNL A   1      34.191  23.077  24.697  1.00  0.00    -0.343 N 
ATOM     13  C   UNL A   1      34.298  23.220  23.329  1.00  0.00     0.240 C 
ATOM     14  H   UNL A   1      34.682  23.711  25.271  1.00  0.00     0.164 HD
ATOM     15  O   UNL A   1      35.422  23.109  22.834  1.00  0.00    -0.273 OA
BRANCH  13  16
ATOM     16  C   UNL A   1      33.071  23.558  22.470  1.00  0.00     0.229 C 
BRANCH  16  17
ATOM     17  N   UNL A   1      32.396  24.807  22.733  1.00  0.00    -0.265 N 
ATOM     18  C   UNL A   1      31.064  24.915  23.033  1.00  0.00     0.262 C 
ATOM     19  C   UNL A   1      32.901  26.018  22.350  1.00  0.00     0.262 C 
ATOM     20  O   UNL A   1      30.221  24.057  23.144  1.00  0.00    -0.269 OA
ATOM     21  C   UNL A   1      30.779  26.354  23.105  1.00  0.00     0.053 A 
ATOM     22  C   UNL A   1      31.936  27.022  22.759  1.00  0.00     0.053 A 
ATOM     23  O   UNL A   1      33.852  26.274  21.635  1.00  0.00    -0.269 OA
ATOM     24  C   UNL A   1      29.620  27.035  23.414  1.00  0.00     0.015 A 
ATOM     25  C   UNL A   1      32.035  28.400  22.769  1.00  0.00     0.015 A 
ATOM     26  C   UNL A   1      29.686  28.434  23.427  1.00  0.00     0.001 A 
ATOM     27  C   UNL A   1      30.889  29.110  23.129  1.00  0.00     0.001 A 
ENDBRANCH  16  17
ENDBRANCH  13  16
ENDBRANCH   8  12
ENDBRANCH   5   8
ENDBRANCH   3   4
ENDBRANCH   2   3
ENDBRANCH   1   2
BRANCH   1  28
ATOM     28  C   UNL A   1      31.813  28.113  26.546  1.00  0.00     0.002 C 
BRANCH  28  29
ATOM     29  C   UNL A   1      33.337  28.141  26.640  1.00  0.00     0.021 C 
BRANCH  29  30
ATOM     30  C   UNL A   1      33.998  29.346  25.981  1.00  0.00     0.116 C 
BRANCH  30  31
ATOM     31  N   UNL A   1      33.802  30.575  26.733  1.00  0.00    -0.352 N 
ATOM     32  C   UNL A   1      34.566  31.048  27.773  1.00  0.00     0.251 C 
ATOM     33  H   UNL A   1      33.036  31.133  26.466  1.00  0.00     0.163 HD
ATOM     34  O   UNL A   1      34.232  32.042  28.408  1.00  0.00    -0.269 OA
BRANCH  32  35
ATOM     35  C   UNL A   1      35.788  30.300  28.131  1.00  0.00     0.039 A 
ATOM     36  C   UNL A   1      36.923  30.438  27.330  1.00  0.00     0.014 A 
ATOM     37  C   UNL A   1      35.830  29.559  29.316  1.00  0.00     0.014 A 
ATOM     38  C   UNL A   1      38.129  29.878  27.754  1.00  0.00     0.010 A 
ATOM     39  C   UNL A   1      37.046  29.052  29.763  1.00  0.00     0.010 A 
ATOM     40  C   UNL A   1      38.207  29.212  28.989  1.00  0.00    -0.014 A 
BRANCH  40  41
ATOM     41  C   UNL A   1      39.503  28.709  29.508  1.00  0.00     0.031 A 
ATOM     42  C   UNL A   1      40.197  29.423  30.633  1.00  0.00     0.074 A 
ATOM     43  C   UNL A   1      40.100  27.666  28.899  1.00  0.00     0.049 A 
ATOM     44  N   UNL A   1      41.349  29.155  31.188  1.00  0.00    -0.248 NA
ATOM     45  C   UNL A   1      39.521  30.606  31.190  1.00  0.00     0.031 C 
ATOM     46  C   UNL A   1      39.567  26.947  27.738  1.00  0.00     0.029 A 
ATOM     47  N   UNL A   1      41.299  27.047  29.149  1.00  0.00    -0.354 N 
ATOM     48  C   UNL A   1      41.553  30.149  32.136  1.00  0.00     0.074 A 
ATOM     49  C   UNL A   1      40.419  31.045  32.060  1.00  0.00     0.031 C 
ATOM     50  C   UNL A   1      40.437  25.990  27.377  1.00  0.00     0.029 A 
ATOM     51  C   UNL A   1      41.596  26.038  28.262  1.00  0.00     0.049 A 
ATOM     52  H   UNL A   1      41.891  27.302  29.894  1.00  0.00     0.167 HD
ATOM     53  C   UNL A   1      42.573  30.285  33.016  1.00  0.00     0.034 A 
ATOM     54  C   UNL A   1      42.682  25.246  28.170  1.00  0.00     0.034 A 
ATOM     55  C   UNL A   1      43.672  29.365  33.122  1.00  0.00     0.049 A 
ATOM     56  C   UNL A   1      43.786  25.395  29.182  1.00  0.00     0.074 A 
ATOM     57  C   UNL A   1      44.691  29.346  34.059  1.00  0.00     0.029 A 
ATOM     58  N   UNL A   1      43.904  28.307  32.258  1.00  0.00    -0.354 N 
ATOM     59  N   UNL A   1      43.866  26.221  30.198  1.00  0.00    -0.248 NA
ATOM     60  C   UNL A   1      44.934  24.484  29.056  1.00  0.00     0.031 C 
ATOM     61  C   UNL A   1      45.550  28.287  33.748  1.00  0.00     0.029 A 
ATOM     62  C   UNL A   1      45.061  27.640  32.624  1.00  0.00     0.049 A 
ATOM     63  H   UNL A   1      43.331  28.065  31.495  1.00  0.00     0.167 HD
ATOM     64  C   UNL A   1      45.061  25.920  30.841  1.00  0.00     0.074 A 
ATOM     65  C   UNL A   1      45.657  24.814  30.118  1.00  0.00     0.031 C 
ATOM     66  C   UNL A   1      45.623  26.518  31.920  1.00  0.00     0.034 A 
BRANCH  53  67
ATOM     67  C   UNL A   1      42.513  31.439  33.981  1.00  0.00     0.023 A 
ATOM     68  C   UNL A   1      43.259  32.604  33.710  1.00  0.00     0.012 A 
ATOM     69  C   UNL A   1      41.683  31.396  35.117  1.00  0.00     0.148 A 
ATOM     70  C   UNL A   1      43.203  33.698  34.571  1.00  0.00     0.002 A 
ATOM     71  C   UNL A   1      41.603  32.507  35.950  1.00  0.00     0.091 A 
ATOM     72  F   UNL A   1      41.001  30.270  35.372  1.00  0.00    -0.205 F 
ATOM     73  C   UNL A   1      42.369  33.654  35.684  1.00  0.00     0.022 A 
BRANCH  71  74
ATOM     74  S   UNL A   1      40.503  32.571  37.369  1.00  0.00     0.127 S 
ATOM     75  O   UNL A   1      41.358  32.039  38.429  1.00  0.00    -0.237 OA
ATOM     76  O   UNL A   1      40.220  34.003  37.478  1.00  0.00    -0.237 OA
ATOM     77  O   UNL A   1      39.351  31.752  37.019  1.00  0.00    -0.744 OA
ENDBRANCH  71  74
ENDBRANCH  53  67
BRANCH  54  78
ATOM     78  C   UNL A   1      42.743  24.195  27.116  1.00  0.00     0.023 A 
ATOM     79  C   UNL A   1      43.481  24.440  25.941  1.00  0.00     0.012 A 
ATOM     80  C   UNL A   1      42.118  22.945  27.286  1.00  0.00     0.148 A 
ATOM     81  C   UNL A   1      43.577  23.466  24.946  1.00  0.00     0.002 A 
ATOM     82  C   UNL A   1      42.262  21.960  26.315  1.00  0.00     0.091 A 
ATOM     83  F   UNL A   1      41.405  22.737  28.402  1.00  0.00    -0.205 F 
ATOM     84  C   UNL A   1      42.979  22.224  25.137  1.00  0.00     0.022 A 
BRANCH  82  85
ATOM     85  S   UNL A   1      41.639  20.291  26.544  1.00  0.00     0.127 S 
ATOM     86  O   UNL A   1      42.274  19.903  27.801  1.00  0.00    -0.237 OA
ATOM     87  O   UNL A   1      40.195  20.511  26.625  1.00  0.00    -0.237 OA
ATOM     88  O   UNL A   1      42.063  19.552  25.361  1.00  0.00    -0.744 OA
ENDBRANCH  82  85
ENDBRANCH  54  78
BRANCH  66  89
ATOM     89  C   UNL A   1      46.958  26.000  32.387  1.00  0.00     0.023 A 
ATOM     90  C   UNL A   1      48.138  26.575  31.874  1.00  0.00     0.012 A 
ATOM     91  C   UNL A   1      47.047  25.010  33.384  1.00  0.00     0.148 A 
ATOM     92  C   UNL A   1      49.387  26.157  32.330  1.00  0.00     0.002 A 
ATOM     93  C   UNL A   1      48.294  24.629  33.866  1.00  0.00     0.091 A 
ATOM     94  F   UNL A   1      45.913  24.463  33.846  1.00  0.00    -0.205 F 
ATOM     95  C   UNL A   1      49.465  25.194  33.333  1.00  0.00     0.022 A 
BRANCH  93  96
ATOM     96  S   UNL A   1      48.490  23.460  35.216  1.00  0.00     0.127 S 
ATOM     97  O   UNL A   1      47.932  22.240  34.638  1.00  0.00    -0.237 OA
ATOM     98  O   UNL A   1      49.942  23.439  35.402  1.00  0.00    -0.237 OA
ATOM     99  O   UNL A   1      47.748  24.018  36.339  1.00  0.00    -0.744 OA
ENDBRANCH  93  96
ENDBRANCH  66  89
ENDBRANCH  40  41
ENDBRANCH  32  35
ENDBRANCH  30  31
ENDBRANCH  29  30
ENDBRANCH  28  29
ENDBRANCH   1  28
TORSDOF 20
ENDMDL
MODEL 2
REMARK VINA RESULT:     -11.2      4.766      9.452
REMARK SMILES CC(C)[C@H](NC(=O)CN1C(=O)c2ccccc2C1=O)C(=O)NCCCCCCNC(=O)c1ccc(-c2c3nc(c(-c4cccc(S(=O)(=O)[O-])c4F)c4ccc([nH]4)c(-c4cccc(S(=O)(=O)[O-])c4F)c4nc(c(-c5cccc(S(=O)(=O)[O-])c5F)c5ccc2[nH]5)C=C4)C=C3)cc1
REMARK SMILES IDX 25 1 24 2 23 3 22 4 20 5 21 6 4 8 2 9 1 10 3 11 5 12 6 13
REMARK SMILES IDX 7 15 8 16 9 17 10 18 18 19 11 20 12 21 17 22 19 23 13 24
REMARK SMILES IDX 16 25 14 26 15 27 26 28 27 29 28 30 29 31 30 32 31 34 32 35
REMARK SMILES IDX 33 36 94 37 34 38 93 39 35 40 36 41 37 42 87 43 38 44 92 45
REMARK SMILES IDX 86 46 88 47 39 48 91 49 85 50 84 51 40 53 72 54 52 55 71 56
REMARK SMILES IDX 53 57 56 58 70 59 89 60 54 61 55 62 69 64 90 65 57 66 41 67
REMARK SMILES IDX 42 68 50 69 43 70 45 71 51 72 44 73 46 74 47 75 48 76 49 77
REMARK SMILES IDX 73 78 74 79 82 80 75 81 77 82 83 83 76 84 78 85 79 86 80 87
REMARK SMILES IDX 81 88 58 89 59 90 67 91 60 92 62 93 68 94 61 95 63 96 64 97
REMARK SMILES IDX 65 98 66 99
REMARK H PARENT 22 7 5 14 29 33 88 52 56 63
REMARK Flexibility Score: inf
ROOT
ATOM      1  C   UNL A   1      35.370  23.720  23.630  1.00  0.00     0.002 C 
ENDROOT
BRANCH   1   2
ATOM      2  C   UNL A   1      34.190  23.375  22.714  1.00  0.00     0.021 C 
BRANCH   2   3
ATOM      3  C   UNL A   1      33.238  24.527  22.399  1.00  0.00     0.116 C 
BRANCH   3   4
ATOM      4  N   UNL A   1      31.832  24.163  22.331  1.00  0.00    -0.354 N 
ATOM      5  C   UNL A   1      30.870  24.159  23.296  1.00  0.00     0.242 C 
ATOM      6  O   UNL A   1      29.682  24.184  22.961  1.00  0.00    -0.273 OA
ATOM      7  H   UNL A   1      31.525  23.873  21.442  1.00  0.00     0.163 HD
BRANCH   5   8
ATOM      8  C   UNL A   1      31.235  24.275  24.780  1.00  0.00     0.173 C 
BRANCH   8   9
ATOM      9  C   UNL A   1      31.100  22.869  25.472  1.00  0.00     0.015 C 
ATOM     10  C   UNL A   1      32.290  21.937  25.242  1.00  0.00     0.010 C 
ATOM     11  C   UNL A   1      30.756  22.859  26.970  1.00  0.00     0.010 C 
ENDBRANCH   8   9
BRANCH   8  12
ATOM     12  N   UNL A   1      30.647  25.420  25.497  1.00  0.00    -0.343 N 
ATOM     13  C   UNL A   1      31.330  26.589  25.762  1.00  0.00     0.240 C 
ATOM     14  H   UNL A   1      29.714  25.347  25.805  1.00  0.00     0.164 HD
ATOM     15  O   UNL A   1      31.486  26.899  26.945  1.00  0.00    -0.273 OA
BRANCH  13  16
ATOM     16  C   UNL A   1      31.827  27.492  24.623  1.00  0.00     0.229 C 
BRANCH  16  17
ATOM     17  N   UNL A   1      30.889  28.437  24.064  1.00  0.00    -0.265 N 
ATOM     18  C   UNL A   1      30.360  28.345  22.804  1.00  0.00     0.262 C 
ATOM     19  C   UNL A   1      30.721  29.698  24.563  1.00  0.00     0.262 C 
ATOM     20  O   UNL A   1      30.538  27.513  21.946  1.00  0.00    -0.269 OA
ATOM     21  C   UNL A   1      29.561  29.561  22.609  1.00  0.00     0.053 A 
ATOM     22  C   UNL A   1      29.728  30.350  23.729  1.00  0.00     0.053 A 
ATOM     23  O   UNL A   1      31.370  30.298  25.400  1.00  0.00    -0.269 OA
ATOM     24  C   UNL A   1      28.776  29.971  21.551  1.00  0.00     0.015 A 
ATOM     25  C   UNL A   1      29.074  31.554  23.899  1.00  0.00     0.015 A 
ATOM     26  C   UNL A   1      28.104  31.192  21.690  1.00  0.00     0.001 A 
ATOM     27  C   UNL A   1      28.234  31.966  22.863  1.00  0.00     0.001 A 
ENDBRANCH  16  17
ENDBRANCH  13  16
ENDBRANCH   8  12
ENDBRANCH   5   8
ENDBRANCH   3   4
ENDBRANCH   2   3
ENDBRANCH   1   2
BRANCH   1  28
ATOM     28  C   UNL A   1      36.614  22.852  23.442  1.00  0.00     0.002 C 
BRANCH  28  29
ATOM     29  C   UNL A   1      36.697  21.639  24.367  1.00  0.00     0.021 C 
BRANCH  29  30
ATOM     30  C   UNL A   1      37.496  21.862  25.645  1.00  0.00     0.116 C 
BRANCH  30  31
ATOM     31  N   UNL A   1      38.561  20.888  25.819  1.00  0.00    -0.352 N 
ATOM     32  C   UNL A   1      39.820  21.110  26.323  1.00  0.00     0.251 C 
ATOM     33  H   UNL A   1      38.357  19.964  25.546  1.00  0.00     0.163 HD
ATOM     34  O   UNL A   1      40.674  20.230  26.312  1.00  0.00    -0.269 OA
BRANCH  32  35
ATOM     35  C   UNL A   1      40.130  22.454  26.849  1.00  0.00     0.039 A 
ATOM     36  C   UNL A   1      41.137  22.590  27.806  1.00  0.00     0.014 A 
ATOM     37  C   UNL A   1      39.495  23.577  26.309  1.00  0.00     0.014 A 
ATOM     38  C   UNL A   1      41.556  23.868  28.179  1.00  0.00     0.010 A 
ATOM     39  C   UNL A   1      39.954  24.848  26.641  1.00  0.00     0.010 A 
ATOM     40  C   UNL A   1      40.993  25.004  27.573  1.00  0.00    -0.014 A 
BRANCH  40  41
ATOM     41  C   UNL A   1      41.502  26.365  27.874  1.00  0.00     0.031 A 
ATOM     42  C   UNL A   1      42.920  26.733  27.542  1.00  0.00     0.074 A 
ATOM     43  C   UNL A   1      40.714  27.236  28.535  1.00  0.00     0.049 A 
ATOM     44  N   UNL A   1      43.551  27.856  27.767  1.00  0.00    -0.248 NA
ATOM     45  C   UNL A   1      43.745  25.699  26.897  1.00  0.00     0.031 C 
ATOM     46  C   UNL A   1      39.349  26.962  28.993  1.00  0.00     0.029 A 
ATOM     47  N   UNL A   1      40.957  28.515  28.967  1.00  0.00    -0.354 N 
ATOM     48  C   UNL A   1      44.851  27.655  27.320  1.00  0.00     0.074 A 
ATOM     49  C   UNL A   1      44.927  26.292  26.840  1.00  0.00     0.031 C 
ATOM     50  C   UNL A   1      38.879  28.039  29.642  1.00  0.00     0.029 A 
ATOM     51  C   UNL A   1      39.912  29.071  29.667  1.00  0.00     0.049 A 
ATOM     52  H   UNL A   1      41.801  28.992  28.791  1.00  0.00     0.167 HD
ATOM     53  C   UNL A   1      45.878  28.536  27.281  1.00  0.00     0.034 A 
ATOM     54  C   UNL A   1      39.799  30.273  30.266  1.00  0.00     0.034 A 
ATOM     55  C   UNL A   1      45.783  29.904  27.712  1.00  0.00     0.049 A 
ATOM     56  C   UNL A   1      40.943  31.246  30.177  1.00  0.00     0.074 A 
ATOM     57  C   UNL A   1      46.729  30.909  27.601  1.00  0.00     0.029 A 
ATOM     58  N   UNL A   1      44.684  30.458  28.347  1.00  0.00    -0.354 N 
ATOM     59  N   UNL A   1      42.100  31.104  29.575  1.00  0.00    -0.248 NA
ATOM     60  C   UNL A   1      40.757  32.555  30.820  1.00  0.00     0.031 C 
ATOM     61  C   UNL A   1      46.206  32.065  28.187  1.00  0.00     0.029 A 
ATOM     62  C   UNL A   1      44.932  31.785  28.654  1.00  0.00     0.049 A 
ATOM     63  H   UNL A   1      43.848  29.979  28.550  1.00  0.00     0.167 HD
ATOM     64  C   UNL A   1      42.772  32.308  29.751  1.00  0.00     0.074 A 
ATOM     65  C   UNL A   1      41.880  33.179  30.490  1.00  0.00     0.031 C 
ATOM     66  C   UNL A   1      44.022  32.653  29.355  1.00  0.00     0.034 A 
BRANCH  53  67
ATOM     67  C   UNL A   1      47.178  28.064  26.687  1.00  0.00     0.023 A 
ATOM     68  C   UNL A   1      48.223  27.664  27.546  1.00  0.00     0.012 A 
ATOM     69  C   UNL A   1      47.350  27.963  25.294  1.00  0.00     0.148 A 
ATOM     70  C   UNL A   1      49.429  27.197  27.026  1.00  0.00     0.002 A 
ATOM     71  C   UNL A   1      48.543  27.459  24.785  1.00  0.00     0.091 A 
ATOM     72  F   UNL A   1      46.355  28.373  24.494  1.00  0.00    -0.205 F 
ATOM     73  C   UNL A   1      49.585  27.086  25.648  1.00  0.00     0.022 A 
BRANCH  71  74
ATOM     74  S   UNL A   1      48.812  27.212  23.026  1.00  0.00     0.127 S 
ATOM     75  O   UNL A   1      50.267  27.324  22.932  1.00  0.00    -0.237 OA
ATOM     76  O   UNL A   1      48.292  25.860  22.819  1.00  0.00    -0.237 OA
ATOM     77  O   UNL A   1      48.056  28.260  22.355  1.00  0.00    -0.744 OA
ENDBRANCH  71  74
ENDBRANCH  53  67
BRANCH  54  78
ATOM     78  C   UNL A   1      38.526  30.644  30.946  1.00  0.00     0.023 A 
ATOM     79  C   UNL A   1      38.367  30.354  32.315  1.00  0.00     0.012 A 
ATOM     80  C   UNL A   1      37.496  31.318  30.263  1.00  0.00     0.148 A 
ATOM     81  C   UNL A   1      37.197  30.711  32.986  1.00  0.00     0.002 A 
ATOM     82  C   UNL A   1      36.356  31.718  30.950  1.00  0.00     0.091 A 
ATOM     83  F   UNL A   1      37.658  31.568  28.956  1.00  0.00    -0.205 F 
ATOM     84  C   UNL A   1      36.197  31.402  32.308  1.00  0.00     0.022 A 
BRANCH  82  85
ATOM     85  S   UNL A   1      35.083  32.731  30.184  1.00  0.00     0.127 S 
ATOM     86  O   UNL A   1      34.184  32.982  31.307  1.00  0.00    -0.237 OA
ATOM     87  O   UNL A   1      35.848  33.894  29.734  1.00  0.00    -0.237 OA
ATOM     88  O   UNL A   1      34.540  31.919  29.102  1.00  0.00    -0.744 OA
ENDBRANCH  82  85
ENDBRANCH  54  78
BRANCH  66  89
ATOM     89  C   UNL A   1      44.512  34.030  29.718  1.00  0.00     0.023 A 
ATOM     90  C   UNL A   1      45.264  34.205  30.896  1.00  0.00     0.012 A 
ATOM     91  C   UNL A   1      44.302  35.127  28.860  1.00  0.00     0.148 A 
ATOM     92  C   UNL A   1      45.781  35.457  31.228  1.00  0.00     0.002 A 
ATOM     93  C   UNL A   1      44.857  36.362  29.175  1.00  0.00     0.091 A 
ATOM     94  F   UNL A   1      43.569  34.942  27.753  1.00  0.00    -0.205 F 
ATOM     95  C   UNL A   1      45.588  36.531  30.363  1.00  0.00     0.022 A 
BRANCH  93  96
ATOM     96  S   UNL A   1      44.735  37.781  28.080  1.00  0.00     0.127 S 
ATOM     97  O   UNL A   1      45.257  38.854  28.924  1.00  0.00    -0.237 OA
ATOM     98  O   UNL A   1      45.610  37.396  26.972  1.00  0.00    -0.237 OA
ATOM     99  O   UNL A   1      43.327  37.893  27.725  1.00  0.00    -0.744 OA
ENDBRANCH  93  96
ENDBRANCH  66  89
ENDBRANCH  40  41
ENDBRANCH  32  35
ENDBRANCH  30  31
ENDBRANCH  29  30
ENDBRANCH  28  29
ENDBRANCH   1  28
TORSDOF 20
ENDMDL
MODEL 3
REMARK VINA RESULT:     -11.1      1.783      2.346
REMARK SMILES CC(C)[C@H](NC(=O)CN1C(=O)c2ccccc2C1=O)C(=O)NCCCCCCNC(=O)c1ccc(-c2c3nc(c(-c4cccc(S(=O)(=O)[O-])c4F)c4ccc([nH]4)c(-c4cccc(S(=O)(=O)[O-])c4F)c4nc(c(-c5cccc(S(=O)(=O)[O-])c5F)c5ccc2[nH]5)C=C4)C=C3)cc1
REMARK SMILES IDX 25 1 24 2 23 3 22 4 20 5 21 6 4 8 2 9 1 10 3 11 5 12 6 13
REMARK SMILES IDX 7 15 8 16 9 17 10 18 18 19 11 20 12 21 17 22 19 23 13 24
REMARK SMILES IDX 16 25 14 26 15 27 26 28 27 29 28 30 29 31 30 32 31 34 32 35
REMARK SMILES IDX 33 36 94 37 34 38 93 39 35 40 36 41 37 42 87 43 38 44 92 45
REMARK SMILES IDX 86 46 88 47 39 48 91 49 85 50 84 51 40 53 72 54 52 55 71 56
REMARK SMILES IDX 53 57 56 58 70 59 89 60 54 61 55 62 69 64 90 65 57 66 41 67
REMARK SMILES IDX 42 68 50 69 43 70 45 71 51 72 44 73 46 74 47 75 48 76 49 77
REMARK SMILES IDX 73 78 74 79 82 80 75 81 77 82 83 83 76 84 78 85 79 86 80 87
REMARK SMILES IDX 81 88 58 89 59 90 67 91 60 92 62 93 68 94 61 95 63 96 64 97
REMARK SMILES IDX 65 98 66 99
REMARK H PARENT 22 7 5 14 29 33 88 52 56 63
REMARK Flexibility Score: inf
ROOT
ATOM      1  C   UNL A   1      30.935  26.698  26.545  1.00  0.00     0.002 C 
ENDROOT
BRANCH   1   2
ATOM      2  C   UNL A   1      31.902  25.519  26.394  1.00  0.00     0.021 C 
BRANCH   2   3
ATOM      3  C   UNL A   1      31.307  24.137  26.659  1.00  0.00     0.116 C 
BRANCH   3   4
ATOM      4  N   UNL A   1      32.194  23.205  27.337  1.00  0.00    -0.354 N 
ATOM      5  C   UNL A   1      33.204  22.430  26.852  1.00  0.00     0.242 C 
ATOM      6  O   UNL A   1      34.065  22.007  27.630  1.00  0.00    -0.273 OA
ATOM      7  H   UNL A   1      32.038  23.120  28.306  1.00  0.00     0.163 HD
BRANCH   5   8
ATOM      8  C   UNL A   1      33.373  22.199  25.347  1.00  0.00     0.173 C 
BRANCH   8   9
ATOM      9  C   UNL A   1      33.686  20.682  25.073  1.00  0.00     0.015 C 
ATOM     10  C   UNL A   1      32.902  20.078  23.906  1.00  0.00     0.010 C 
ATOM     11  C   UNL A   1      35.164  20.290  24.921  1.00  0.00     0.010 C 
ENDBRANCH   8   9
BRANCH   8  12
ATOM     12  N   UNL A   1      34.212  23.182  24.638  1.00  0.00    -0.343 N 
ATOM     13  C   UNL A   1      34.356  23.217  23.266  1.00  0.00     0.240 C 
ATOM     14  H   UNL A   1      34.698  23.851  25.174  1.00  0.00     0.164 HD
ATOM     15  O   UNL A   1      35.491  23.052  22.812  1.00  0.00    -0.273 OA
BRANCH  13  16
ATOM     16  C   UNL A   1      33.157  23.505  22.351  1.00  0.00     0.229 C 
BRANCH  16  17
ATOM     17  N   UNL A   1      32.398  24.706  22.606  1.00  0.00    -0.265 N 
ATOM     18  C   UNL A   1      31.085  24.720  22.997  1.00  0.00     0.262 C 
ATOM     19  C   UNL A   1      32.769  25.933  22.133  1.00  0.00     0.262 C 
ATOM     20  O   UNL A   1      30.328  23.802  23.208  1.00  0.00    -0.269 OA
ATOM     21  C   UNL A   1      30.683  26.132  23.024  1.00  0.00     0.053 A 
ATOM     22  C   UNL A   1      31.752  26.875  22.565  1.00  0.00     0.053 A 
ATOM     23  O   UNL A   1      33.643  26.230  21.340  1.00  0.00    -0.269 OA
ATOM     24  C   UNL A   1      29.495  26.730  23.386  1.00  0.00     0.015 A 
ATOM     25  C   UNL A   1      31.733  28.254  22.505  1.00  0.00     0.015 A 
ATOM     26  C   UNL A   1      29.440  28.129  23.331  1.00  0.00     0.001 A 
ATOM     27  C   UNL A   1      30.558  28.885  22.915  1.00  0.00     0.001 A 
ENDBRANCH  16  17
ENDBRANCH  13  16
ENDBRANCH   8  12
ENDBRANCH   5   8
ENDBRANCH   3   4
ENDBRANCH   2   3
ENDBRANCH   1   2
BRANCH   1  28
ATOM     28  C   UNL A   1      31.596  28.074  26.629  1.00  0.00     0.002 C 
BRANCH  28  29
ATOM     29  C   UNL A   1      33.001  28.149  26.034  1.00  0.00     0.021 C 
BRANCH  29  30
ATOM     30  C   UNL A   1      33.310  29.439  25.284  1.00  0.00     0.116 C 
BRANCH  30  31
ATOM     31  N   UNL A   1      32.808  30.621  25.967  1.00  0.00    -0.352 N 
ATOM     32  C   UNL A   1      33.350  31.242  27.066  1.00  0.00     0.251 C 
ATOM     33  H   UNL A   1      31.988  31.022  25.599  1.00  0.00     0.163 HD
ATOM     34  O   UNL A   1      32.770  32.165  27.626  1.00  0.00    -0.269 OA
BRANCH  32  35
ATOM     35  C   UNL A   1      34.640  30.740  27.581  1.00  0.00     0.039 A 
ATOM     36  C   UNL A   1      35.696  31.638  27.747  1.00  0.00     0.014 A 
ATOM     37  C   UNL A   1      34.756  29.410  27.996  1.00  0.00     0.014 A 
ATOM     38  C   UNL A   1      36.858  31.213  28.393  1.00  0.00     0.010 A 
ATOM     39  C   UNL A   1      35.892  29.006  28.690  1.00  0.00     0.010 A 
ATOM     40  C   UNL A   1      36.950  29.905  28.900  1.00  0.00    -0.014 A 
BRANCH  40  41
ATOM     41  C   UNL A   1      38.130  29.470  29.687  1.00  0.00     0.031 A 
ATOM     42  C   UNL A   1      38.374  30.030  31.059  1.00  0.00     0.074 A 
ATOM     43  C   UNL A   1      39.033  28.643  29.124  1.00  0.00     0.049 A 
ATOM     44  N   UNL A   1      39.368  29.800  31.875  1.00  0.00    -0.248 NA
ATOM     45  C   UNL A   1      37.386  30.994  31.571  1.00  0.00     0.031 C 
ATOM     46  C   UNL A   1      38.953  28.105  27.763  1.00  0.00     0.029 A 
ATOM     47  N   UNL A   1      40.211  28.136  29.611  1.00  0.00    -0.354 N 
ATOM     48  C   UNL A   1      39.145  30.608  32.982  1.00  0.00     0.074 A 
ATOM     49  C   UNL A   1      37.936  31.360  32.719  1.00  0.00     0.031 C 
ATOM     50  C   UNL A   1      40.036  27.347  27.526  1.00  0.00     0.029 A 
ATOM     51  C   UNL A   1      40.897  27.361  28.705  1.00  0.00     0.049 A 
ATOM     52  H   UNL A   1      40.535  28.311  30.525  1.00  0.00     0.167 HD
ATOM     53  C   UNL A   1      39.861  30.693  34.128  1.00  0.00     0.034 A 
ATOM     54  C   UNL A   1      42.086  26.737  28.810  1.00  0.00     0.034 A 
ATOM     55  C   UNL A   1      41.032  29.907  34.405  1.00  0.00     0.049 A 
ATOM     56  C   UNL A   1      42.845  26.819  30.107  1.00  0.00     0.074 A 
ATOM     57  C   UNL A   1      41.757  29.829  35.582  1.00  0.00     0.029 A 
ATOM     58  N   UNL A   1      41.658  29.073  33.494  1.00  0.00    -0.354 N 
ATOM     59  N   UNL A   1      42.515  27.436  31.216  1.00  0.00    -0.248 NA
ATOM     60  C   UNL A   1      44.122  26.094  30.179  1.00  0.00     0.031 C 
ATOM     61  C   UNL A   1      42.834  28.962  35.373  1.00  0.00     0.029 A 
ATOM     62  C   UNL A   1      42.774  28.491  34.071  1.00  0.00     0.049 A 
ATOM     63  H   UNL A   1      41.354  28.916  32.570  1.00  0.00     0.167 HD
ATOM     64  C   UNL A   1      43.532  27.160  32.123  1.00  0.00     0.074 A 
ATOM     65  C   UNL A   1      44.475  26.295  31.442  1.00  0.00     0.031 C 
ATOM     66  C   UNL A   1      43.682  27.601  33.396  1.00  0.00     0.034 A 
BRANCH  53  67
ATOM     67  C   UNL A   1      39.355  31.621  35.199  1.00  0.00     0.023 A 
ATOM     68  C   UNL A   1      38.433  31.139  36.150  1.00  0.00     0.012 A 
ATOM     69  C   UNL A   1      39.828  32.943  35.301  1.00  0.00     0.148 A 
ATOM     70  C   UNL A   1      37.967  31.967  37.170  1.00  0.00     0.002 A 
ATOM     71  C   UNL A   1      39.388  33.751  36.345  1.00  0.00     0.091 A 
ATOM     72  F   UNL A   1      40.685  33.392  34.373  1.00  0.00    -0.205 F 
ATOM     73  C   UNL A   1      38.451  33.268  37.273  1.00  0.00     0.022 A 
BRANCH  71  74
ATOM     74  S   UNL A   1      40.007  35.417  36.603  1.00  0.00     0.127 S 
ATOM     75  O   UNL A   1      39.282  36.163  35.575  1.00  0.00    -0.237 OA
ATOM     76  O   UNL A   1      39.579  35.698  37.974  1.00  0.00    -0.237 OA
ATOM     77  O   UNL A   1      41.450  35.339  36.423  1.00  0.00    -0.744 OA
ENDBRANCH  71  74
ENDBRANCH  53  67
BRANCH  54  78
ATOM     78  C   UNL A   1      42.599  25.925  27.670  1.00  0.00     0.023 A 
ATOM     79  C   UNL A   1      43.602  26.461  26.839  1.00  0.00     0.012 A 
ATOM     80  C   UNL A   1      42.136  24.618  27.431  1.00  0.00     0.148 A 
ATOM     81  C   UNL A   1      44.119  25.716  25.778  1.00  0.00     0.002 A 
ATOM     82  C   UNL A   1      42.693  23.861  26.407  1.00  0.00     0.091 A 
ATOM     83  F   UNL A   1      41.168  24.132  28.222  1.00  0.00    -0.205 F 
ATOM     84  C   UNL A   1      43.674  24.414  25.569  1.00  0.00     0.022 A 
BRANCH  82  85
ATOM     85  S   UNL A   1      42.274  22.132  26.157  1.00  0.00     0.127 S 
ATOM     86  O   UNL A   1      40.843  22.206  25.878  1.00  0.00    -0.237 OA
ATOM     87  O   UNL A   1      43.109  21.778  25.008  1.00  0.00    -0.237 OA
ATOM     88  O   UNL A   1      42.649  21.459  27.394  1.00  0.00    -0.744 OA
ENDBRANCH  82  85
ENDBRANCH  54  78
BRANCH  66  89
ATOM     89  C   UNL A   1      44.916  27.166  34.143  1.00  0.00     0.023 A 
ATOM     90  C   UNL A   1      46.054  27.996  34.135  1.00  0.00     0.012 A 
ATOM     91  C   UNL A   1      44.923  25.988  34.914  1.00  0.00     0.148 A 
ATOM     92  C   UNL A   1      47.190  27.649  34.864  1.00  0.00     0.002 A 
ATOM     93  C   UNL A   1      46.043  25.669  35.673  1.00  0.00     0.091 A 
ATOM     94  F   UNL A   1      43.835  25.203  34.892  1.00  0.00    -0.205 F 
ATOM     95  C   UNL A   1      47.180  26.493  35.642  1.00  0.00     0.022 A 
BRANCH  93  96
ATOM     96  S   UNL A   1      46.090  24.249  36.771  1.00  0.00     0.127 S 
ATOM     97  O   UNL A   1      44.878  24.444  37.564  1.00  0.00    -0.237 OA
ATOM     98  O   UNL A   1      46.033  23.126  35.834  1.00  0.00    -0.237 OA
ATOM     99  O   UNL A   1      47.343  24.354  37.508  1.00  0.00    -0.744 OA
ENDBRANCH  93  96
ENDBRANCH  66  89
ENDBRANCH  40  41
ENDBRANCH  32  35
ENDBRANCH  30  31
ENDBRANCH  29  30
ENDBRANCH  28  29
ENDBRANCH   1  28
TORSDOF 20
ENDMDL
