MODEL 1
REMARK VINA RESULT:     -12.2      0.000      0.000
REMARK SMILES O=C(NCCCCCCNC(=O)[C@H]1Cc2ccc(Cl)cc2C[N@@H+]1Cc1ccc(Cl)cc1)c1ccc(-c2c3nc(c(-c4cccc(S(=O)(=O)[O-])c4F)c4ccc([nH]4)c(-c4cccc(S(=O)(=O)[O-])c4F)c4nc(c(-c5cccc(S(=O)(=O)[O-])c5F)c5ccc2[nH]5)C=C4)C=C3)cc1
REMARK SMILES IDX 6 1 5 2 4 3 3 4 1 5 2 6 32 8 33 9 94 10 34 11 93 12 35 13
REMARK SMILES IDX 36 14 37 15 87 16 38 17 92 18 86 19 88 20 39 21 91 22 85 23
REMARK SMILES IDX 84 24 40 26 72 27 52 28 71 29 53 30 56 31 70 32 89 33 54 34
REMARK SMILES IDX 55 35 69 37 90 38 57 39 41 40 42 41 50 42 43 43 45 44 51 45
REMARK SMILES IDX 44 46 46 47 47 48 48 49 49 50 73 51 74 52 82 53 75 54 77 55
REMARK SMILES IDX 83 56 76 57 78 58 79 59 80 60 81 61 58 62 59 63 67 64 60 65
REMARK SMILES IDX 62 66 68 67 61 68 63 69 64 70 65 71 66 72 7 73 8 74 9 75
REMARK SMILES IDX 10 76 11 77 12 79 13 80 14 81 23 82 15 83 22 84 16 86 21 87
REMARK SMILES IDX 17 88 20 89 18 90 19 91 24 92 25 93 26 94 31 95 27 96 30 97
REMARK SMILES IDX 28 98 29 99
REMARK H PARENT 3 7 88 25 56 36 10 78 23 85
REMARK Flexibility Score: inf
ROOT
ATOM      1  C   UNL A   1      33.685  26.886  24.259  1.00  0.00     0.002 C 
ENDROOT
BRANCH   1   2
ATOM      2  C   UNL A   1      33.458  28.382  24.477  1.00  0.00     0.021 C 
BRANCH   2   3
ATOM      3  C   UNL A   1      34.026  28.958  25.766  1.00  0.00     0.116 C 
BRANCH   3   4
ATOM      4  N   UNL A   1      33.444  30.237  26.127  1.00  0.00    -0.352 N 
ATOM      5  O   UNL A   1      33.127  32.095  27.354  1.00  0.00    -0.269 OA
ATOM      6  C   UNL A   1      33.815  31.107  27.123  1.00  0.00     0.251 C 
ATOM      7  H   UNL A   1      32.674  30.520  25.581  1.00  0.00     0.163 HD
BRANCH   6   8
ATOM      8  C   UNL A   1      35.029  30.841  27.929  1.00  0.00     0.039 A 
ATOM      9  C   UNL A   1      35.112  29.639  28.635  1.00  0.00     0.014 A 
ATOM     10  C   UNL A   1      36.075  31.767  28.004  1.00  0.00     0.014 A 
ATOM     11  C   UNL A   1      36.251  29.358  29.393  1.00  0.00     0.010 A 
ATOM     12  C   UNL A   1      37.248  31.442  28.679  1.00  0.00     0.010 A 
ATOM     13  C   UNL A   1      37.336  30.250  29.409  1.00  0.00    -0.014 A 
BRANCH  13  14
ATOM     14  C   UNL A   1      38.537  29.969  30.239  1.00  0.00     0.031 A 
ATOM     15  C   UNL A   1      38.695  30.628  31.586  1.00  0.00     0.074 A 
ATOM     16  C   UNL A   1      39.490  29.131  29.782  1.00  0.00     0.049 A 
ATOM     17  N   UNL A   1      39.663  30.492  32.454  1.00  0.00    -0.248 NA
ATOM     18  C   UNL A   1      37.649  31.577  32.009  1.00  0.00     0.031 C 
ATOM     19  C   UNL A   1      39.491  28.492  28.463  1.00  0.00     0.029 A 
ATOM     20  N   UNL A   1      40.641  28.673  30.373  1.00  0.00    -0.354 N 
ATOM     21  C   UNL A   1      39.353  31.346  33.505  1.00  0.00     0.074 A 
ATOM     22  C   UNL A   1      38.135  32.036  33.152  1.00  0.00     0.031 C 
ATOM     23  C   UNL A   1      40.573  27.704  28.358  1.00  0.00     0.029 A 
ATOM     24  C   UNL A   1      41.356  27.799  29.587  1.00  0.00     0.049 A 
ATOM     25  H   UNL A   1      40.929  28.946  31.274  1.00  0.00     0.167 HD
ATOM     26  C   UNL A   1      39.997  31.507  34.682  1.00  0.00     0.034 A 
ATOM     27  C   UNL A   1      42.508  27.141  29.830  1.00  0.00     0.034 A 
ATOM     28  C   UNL A   1      41.165  30.769  35.066  1.00  0.00     0.049 A 
ATOM     29  C   UNL A   1      43.180  27.302  31.163  1.00  0.00     0.074 A 
ATOM     30  C   UNL A   1      41.840  30.811  36.272  1.00  0.00     0.029 A 
ATOM     31  N   UNL A   1      41.818  29.852  34.263  1.00  0.00    -0.354 N 
ATOM     32  N   UNL A   1      42.805  28.032  32.185  1.00  0.00    -0.248 NA
ATOM     33  C   UNL A   1      44.415  26.536  31.394  1.00  0.00     0.031 C 
ATOM     34  C   UNL A   1      42.912  29.921  36.196  1.00  0.00     0.029 A 
ATOM     35  C   UNL A   1      42.891  29.317  34.949  1.00  0.00     0.049 A 
ATOM     36  H   UNL A   1      41.559  29.616  33.344  1.00  0.00     0.167 HD
ATOM     37  C   UNL A   1      43.740  27.798  33.185  1.00  0.00     0.074 A 
ATOM     38  C   UNL A   1      44.698  26.851  32.653  1.00  0.00     0.031 C 
ATOM     39  C   UNL A   1      43.801  28.332  34.427  1.00  0.00     0.034 A 
BRANCH  26  40
ATOM     40  C   UNL A   1      39.408  32.447  35.697  1.00  0.00     0.023 A 
ATOM     41  C   UNL A   1      38.455  31.952  36.608  1.00  0.00     0.012 A 
ATOM     42  C   UNL A   1      39.893  33.760  35.836  1.00  0.00     0.148 A 
ATOM     43  C   UNL A   1      37.990  32.752  37.649  1.00  0.00     0.002 A 
ATOM     44  C   UNL A   1      39.447  34.543  36.895  1.00  0.00     0.091 A 
ATOM     45  F   UNL A   1      40.794  34.206  34.951  1.00  0.00    -0.205 F 
ATOM     46  C   UNL A   1      38.495  34.041  37.799  1.00  0.00     0.022 A 
BRANCH  44  47
ATOM     47  S   UNL A   1      40.069  36.197  37.213  1.00  0.00     0.127 S 
ATOM     48  O   UNL A   1      41.469  35.927  37.539  1.00  0.00    -0.237 OA
ATOM     49  O   UNL A   1      39.859  36.855  35.925  1.00  0.00    -0.237 OA
ATOM     50  O   UNL A   1      39.274  36.725  38.313  1.00  0.00    -0.744 OA
ENDBRANCH  44  47
ENDBRANCH  26  40
BRANCH  27  51
ATOM     51  C   UNL A   1      43.053  26.224  28.791  1.00  0.00     0.023 A 
ATOM     52  C   UNL A   1      42.547  24.915  28.684  1.00  0.00     0.012 A 
ATOM     53  C   UNL A   1      44.016  26.671  27.866  1.00  0.00     0.148 A 
ATOM     54  C   UNL A   1      42.997  24.063  27.674  1.00  0.00     0.002 A 
ATOM     55  C   UNL A   1      44.428  25.831  26.839  1.00  0.00     0.091 A 
ATOM     56  F   UNL A   1      44.481  27.922  27.993  1.00  0.00    -0.205 F 
ATOM     57  C   UNL A   1      43.928  24.524  26.746  1.00  0.00     0.022 A 
BRANCH  55  58
ATOM     58  S   UNL A   1      45.545  26.371  25.538  1.00  0.00     0.127 S 
ATOM     59  O   UNL A   1      44.838  27.531  25.001  1.00  0.00    -0.237 OA
ATOM     60  O   UNL A   1      46.757  26.683  26.297  1.00  0.00    -0.237 OA
ATOM     61  O   UNL A   1      45.674  25.240  24.630  1.00  0.00    -0.744 OA
ENDBRANCH  55  58
ENDBRANCH  27  51
BRANCH  39  62
ATOM     62  C   UNL A   1      44.917  27.918  35.342  1.00  0.00     0.023 A 
ATOM     63  C   UNL A   1      46.148  28.596  35.269  1.00  0.00     0.012 A 
ATOM     64  C   UNL A   1      44.669  27.023  36.400  1.00  0.00     0.148 A 
ATOM     65  C   UNL A   1      47.116  28.398  36.253  1.00  0.00     0.002 A 
ATOM     66  C   UNL A   1      45.626  26.857  37.393  1.00  0.00     0.091 A 
ATOM     67  F   UNL A   1      43.482  26.401  36.442  1.00  0.00    -0.205 F 
ATOM     68  C   UNL A   1      46.849  27.543  37.320  1.00  0.00     0.022 A 
BRANCH  66  69
ATOM     69  S   UNL A   1      45.345  25.845  38.851  1.00  0.00     0.127 S 
ATOM     70  O   UNL A   1      44.995  24.556  38.254  1.00  0.00    -0.237 OA
ATOM     71  O   UNL A   1      46.651  25.881  39.505  1.00  0.00    -0.237 OA
ATOM     72  O   UNL A   1      44.267  26.488  39.591  1.00  0.00    -0.744 OA
ENDBRANCH  66  69
ENDBRANCH  39  62
ENDBRANCH  13  14
ENDBRANCH   6   8
ENDBRANCH   3   4
ENDBRANCH   2   3
ENDBRANCH   1   2
BRANCH   1  73
ATOM     73  C   UNL A   1      33.585  26.379  22.817  1.00  0.00     0.002 C 
BRANCH  73  74
ATOM     74  C   UNL A   1      32.286  25.673  22.412  1.00  0.00     0.021 C 
BRANCH  74  75
ATOM     75  C   UNL A   1      32.235  24.167  22.642  1.00  0.00     0.116 C 
BRANCH  75  76
ATOM     76  N   UNL A   1      31.849  23.794  23.988  1.00  0.00    -0.351 N 
ATOM     77  C   UNL A   1      32.627  23.304  24.999  1.00  0.00     0.278 C 
ATOM     78  H   UNL A   1      30.895  23.908  24.204  1.00  0.00     0.163 HD
ATOM     79  O   UNL A   1      32.098  23.201  26.112  1.00  0.00    -0.268 OA
BRANCH  77  80
ATOM     80  C   UNL A   1      34.064  22.782  24.770  1.00  0.00     0.279 C 
ATOM     81  C   UNL A   1      34.961  23.598  25.727  1.00  0.00     0.111 C 
ATOM     82  N   UNL A   1      34.207  21.316  24.938  1.00  0.00    -0.317 N 
ATOM     83  C   UNL A   1      36.374  23.088  25.808  1.00  0.00    -0.033 A 
ATOM     84  C   UNL A   1      35.605  20.874  24.831  1.00  0.00     0.300 C 
ATOM     85  H   UNL A   1      33.887  21.148  25.891  1.00  0.00     0.349 HD
ATOM     86  C   UNL A   1      37.406  23.919  26.269  1.00  0.00     0.006 A 
ATOM     87  C   UNL A   1      36.649  21.758  25.471  1.00  0.00     0.011 A 
ATOM     88  C   UNL A   1      38.711  23.433  26.374  1.00  0.00     0.021 A 
ATOM     89  C   UNL A   1      37.963  21.273  25.595  1.00  0.00     0.030 A 
ATOM     90  C   UNL A   1      38.982  22.109  26.042  1.00  0.00     0.041 A 
ATOM     91  Cl  UNL A   1      40.591  21.510  26.155  1.00  0.00    -0.084 Cl
BRANCH  82  92
ATOM     92  C   UNL A   1      33.327  20.498  24.071  1.00  0.00     0.299 C 
BRANCH  92  93
ATOM     93  C   UNL A   1      33.191  19.026  24.403  1.00  0.00     0.006 A 
ATOM     94  C   UNL A   1      32.677  18.603  25.639  1.00  0.00     0.011 A 
ATOM     95  C   UNL A   1      33.578  18.054  23.466  1.00  0.00     0.011 A 
ATOM     96  C   UNL A   1      32.628  17.247  25.962  1.00  0.00     0.021 A 
ATOM     97  C   UNL A   1      33.502  16.695  23.779  1.00  0.00     0.021 A 
ATOM     98  C   UNL A   1      33.048  16.299  25.033  1.00  0.00     0.041 A 
ATOM     99  Cl  UNL A   1      33.007  14.628  25.440  1.00  0.00    -0.084 Cl
ENDBRANCH  92  93
ENDBRANCH  82  92
ENDBRANCH  77  80
ENDBRANCH  75  76
ENDBRANCH  74  75
ENDBRANCH  73  74
ENDBRANCH   1  73
TORSDOF 18
ENDMDL
MODEL 2
REMARK VINA RESULT:     -12.0      5.315     10.089
REMARK SMILES O=C(NCCCCCCNC(=O)[C@H]1Cc2ccc(Cl)cc2C[N@@H+]1Cc1ccc(Cl)cc1)c1ccc(-c2c3nc(c(-c4cccc(S(=O)(=O)[O-])c4F)c4ccc([nH]4)c(-c4cccc(S(=O)(=O)[O-])c4F)c4nc(c(-c5cccc(S(=O)(=O)[O-])c5F)c5ccc2[nH]5)C=C4)C=C3)cc1
REMARK SMILES IDX 6 1 5 2 4 3 3 4 1 5 2 6 32 8 33 9 94 10 34 11 93 12 35 13
REMARK SMILES IDX 36 14 37 15 87 16 38 17 92 18 86 19 88 20 39 21 91 22 85 23
REMARK SMILES IDX 84 24 40 26 72 27 52 28 71 29 53 30 56 31 70 32 89 33 54 34
REMARK SMILES IDX 55 35 69 37 90 38 57 39 41 40 42 41 50 42 43 43 45 44 51 45
REMARK SMILES IDX 44 46 46 47 47 48 48 49 49 50 73 51 74 52 82 53 75 54 77 55
REMARK SMILES IDX 83 56 76 57 78 58 79 59 80 60 81 61 58 62 59 63 67 64 60 65
REMARK SMILES IDX 62 66 68 67 61 68 63 69 64 70 65 71 66 72 7 73 8 74 9 75
REMARK SMILES IDX 10 76 11 77 12 79 13 80 14 81 23 82 15 83 22 84 16 86 21 87
REMARK SMILES IDX 17 88 20 89 18 90 19 91 24 92 25 93 26 94 31 95 27 96 30 97
REMARK SMILES IDX 28 98 29 99
REMARK H PARENT 3 7 88 25 56 36 10 78 23 85
REMARK Flexibility Score: inf
ROOT
ATOM      1  C   UNL A   1      35.349  22.211  23.947  1.00  0.00     0.002 C 
ENDROOT
BRANCH   1   2
ATOM      2  C   UNL A   1      35.711  21.877  25.393  1.00  0.00     0.021 C 
BRANCH   2   3
ATOM      3  C   UNL A   1      37.056  22.396  25.877  1.00  0.00     0.116 C 
BRANCH   3   4
ATOM      4  N   UNL A   1      38.057  21.354  26.017  1.00  0.00    -0.352 N 
ATOM      5  O   UNL A   1      40.104  20.479  26.335  1.00  0.00    -0.269 OA
ATOM      6  C   UNL A   1      39.376  21.464  26.385  1.00  0.00     0.251 C 
ATOM      7  H   UNL A   1      37.746  20.441  25.818  1.00  0.00     0.163 HD
BRANCH   6   8
ATOM      8  C   UNL A   1      39.920  22.772  26.819  1.00  0.00     0.039 A 
ATOM      9  C   UNL A   1      39.523  23.922  26.134  1.00  0.00     0.014 A 
ATOM     10  C   UNL A   1      40.825  22.871  27.880  1.00  0.00     0.014 A 
ATOM     11  C   UNL A   1      40.013  25.168  26.529  1.00  0.00     0.010 A 
ATOM     12  C   UNL A   1      41.234  24.121  28.335  1.00  0.00     0.010 A 
ATOM     13  C   UNL A   1      40.861  25.281  27.644  1.00  0.00    -0.014 A 
BRANCH  13  14
ATOM     14  C   UNL A   1      41.409  26.602  28.050  1.00  0.00     0.031 A 
ATOM     15  C   UNL A   1      42.831  26.967  27.708  1.00  0.00     0.074 A 
ATOM     16  C   UNL A   1      40.635  27.471  28.732  1.00  0.00     0.049 A 
ATOM     17  N   UNL A   1      43.475  28.075  27.964  1.00  0.00    -0.248 NA
ATOM     18  C   UNL A   1      43.646  25.955  27.010  1.00  0.00     0.031 C 
ATOM     19  C   UNL A   1      39.268  27.206  29.190  1.00  0.00     0.029 A 
ATOM     20  N   UNL A   1      40.885  28.750  29.160  1.00  0.00    -0.354 N 
ATOM     21  C   UNL A   1      44.764  27.886  27.481  1.00  0.00     0.074 A 
ATOM     22  C   UNL A   1      44.833  26.542  26.960  1.00  0.00     0.031 C 
ATOM     23  C   UNL A   1      38.792  28.299  29.807  1.00  0.00     0.029 A 
ATOM     24  C   UNL A   1      39.824  29.332  29.814  1.00  0.00     0.049 A 
ATOM     25  H   UNL A   1      41.743  29.209  29.014  1.00  0.00     0.167 HD
ATOM     26  C   UNL A   1      45.786  28.768  27.430  1.00  0.00     0.034 A 
ATOM     27  C   UNL A   1      39.691  30.562  30.353  1.00  0.00     0.034 A 
ATOM     28  C   UNL A   1      45.697  30.127  27.879  1.00  0.00     0.049 A 
ATOM     29  C   UNL A   1      40.825  31.540  30.242  1.00  0.00     0.074 A 
ATOM     30  C   UNL A   1      46.659  31.116  27.795  1.00  0.00     0.029 A 
ATOM     31  N   UNL A   1      44.585  30.689  28.479  1.00  0.00    -0.354 N 
ATOM     32  N   UNL A   1      41.997  31.372  29.679  1.00  0.00    -0.248 NA
ATOM     33  C   UNL A   1      40.620  32.880  30.813  1.00  0.00     0.031 C 
ATOM     34  C   UNL A   1      46.131  32.280  28.354  1.00  0.00     0.029 A 
ATOM     35  C   UNL A   1      44.835  32.016  28.770  1.00  0.00     0.049 A 
ATOM     36  H   UNL A   1      43.743  30.216  28.670  1.00  0.00     0.167 HD
ATOM     37  C   UNL A   1      42.658  32.586  29.806  1.00  0.00     0.074 A 
ATOM     38  C   UNL A   1      41.757  33.488  30.493  1.00  0.00     0.031 C 
ATOM     39  C   UNL A   1      43.907  32.916  29.400  1.00  0.00     0.034 A 
BRANCH  26  40
ATOM     40  C   UNL A   1      47.071  28.338  26.778  1.00  0.00     0.023 A 
ATOM     41  C   UNL A   1      48.135  27.908  27.595  1.00  0.00     0.012 A 
ATOM     42  C   UNL A   1      47.174  28.230  25.380  1.00  0.00     0.148 A 
ATOM     43  C   UNL A   1      49.289  27.372  27.027  1.00  0.00     0.002 A 
ATOM     44  C   UNL A   1      48.316  27.667  24.822  1.00  0.00     0.091 A 
ATOM     45  F   UNL A   1      46.149  28.654  24.628  1.00  0.00    -0.205 F 
ATOM     46  C   UNL A   1      49.373  27.240  25.643  1.00  0.00     0.022 A 
BRANCH  44  47
ATOM     47  S   UNL A   1      48.508  27.401  23.056  1.00  0.00     0.127 S 
ATOM     48  O   UNL A   1      49.879  27.862  22.837  1.00  0.00    -0.237 OA
ATOM     49  O   UNL A   1      48.326  25.956  22.943  1.00  0.00    -0.237 OA
ATOM     50  O   UNL A   1      47.481  28.207  22.411  1.00  0.00    -0.744 OA
ENDBRANCH  44  47
ENDBRANCH  26  40
BRANCH  27  51
ATOM     51  C   UNL A   1      38.400  30.940  30.990  1.00  0.00     0.023 A 
ATOM     52  C   UNL A   1      38.220  30.738  32.372  1.00  0.00     0.012 A 
ATOM     53  C   UNL A   1      37.382  31.566  30.245  1.00  0.00     0.148 A 
ATOM     54  C   UNL A   1      37.044  31.149  33.000  1.00  0.00     0.002 A 
ATOM     55  C   UNL A   1      36.231  32.009  30.885  1.00  0.00     0.091 A 
ATOM     56  F   UNL A   1      37.579  31.744  28.931  1.00  0.00    -0.205 F 
ATOM     57  C   UNL A   1      36.055  31.793  32.260  1.00  0.00     0.022 A 
BRANCH  55  58
ATOM     58  S   UNL A   1      34.949  32.940  30.035  1.00  0.00     0.127 S 
ATOM     59  O   UNL A   1      34.457  31.957  29.073  1.00  0.00    -0.237 OA
ATOM     60  O   UNL A   1      34.029  33.248  31.130  1.00  0.00    -0.237 OA
ATOM     61  O   UNL A   1      35.616  34.100  29.460  1.00  0.00    -0.744 OA
ENDBRANCH  55  58
ENDBRANCH  27  51
BRANCH  39  62
ATOM     62  C   UNL A   1      44.408  34.309  29.649  1.00  0.00     0.023 A 
ATOM     63  C   UNL A   1      45.082  34.589  30.852  1.00  0.00     0.012 A 
ATOM     64  C   UNL A   1      44.401  35.259  28.609  1.00  0.00     0.148 A 
ATOM     65  C   UNL A   1      45.760  35.797  31.011  1.00  0.00     0.002 A 
ATOM     66  C   UNL A   1      45.106  36.446  28.764  1.00  0.00     0.091 A 
ATOM     67  F   UNL A   1      43.755  34.956  27.474  1.00  0.00    -0.205 F 
ATOM     68  C   UNL A   1      45.784  36.717  29.964  1.00  0.00     0.022 A 
BRANCH  66  69
ATOM     69  S   UNL A   1      45.269  37.655  27.445  1.00  0.00     0.127 S 
ATOM     70  O   UNL A   1      46.087  38.685  28.087  1.00  0.00    -0.237 OA
ATOM     71  O   UNL A   1      45.957  36.887  26.409  1.00  0.00    -0.237 OA
ATOM     72  O   UNL A   1      43.915  38.073  27.106  1.00  0.00    -0.744 OA
ENDBRANCH  66  69
ENDBRANCH  39  62
ENDBRANCH  13  14
ENDBRANCH   6   8
ENDBRANCH   3   4
ENDBRANCH   2   3
ENDBRANCH   1   2
BRANCH   1  73
ATOM     73  C   UNL A   1      35.608  23.649  23.487  1.00  0.00     0.002 C 
BRANCH  73  74
ATOM     74  C   UNL A   1      34.386  24.498  23.120  1.00  0.00     0.021 C 
BRANCH  74  75
ATOM     75  C   UNL A   1      33.429  23.898  22.097  1.00  0.00     0.116 C 
BRANCH  75  76
ATOM     76  N   UNL A   1      32.059  24.350  22.241  1.00  0.00    -0.351 N 
ATOM     77  C   UNL A   1      31.085  23.881  23.077  1.00  0.00     0.278 C 
ATOM     78  H   UNL A   1      31.794  25.096  21.656  1.00  0.00     0.163 HD
ATOM     79  O   UNL A   1      30.032  24.529  23.127  1.00  0.00    -0.268 OA
BRANCH  77  80
ATOM     80  C   UNL A   1      31.213  22.545  23.844  1.00  0.00     0.279 C 
ATOM     81  C   UNL A   1      31.867  21.558  22.853  1.00  0.00     0.111 C 
ATOM     82  N   UNL A   1      31.942  22.655  25.131  1.00  0.00    -0.317 N 
ATOM     83  C   UNL A   1      32.273  20.253  23.483  1.00  0.00    -0.033 A 
ATOM     84  C   UNL A   1      32.148  21.348  25.771  1.00  0.00     0.300 C 
ATOM     85  H   UNL A   1      32.852  23.032  24.863  1.00  0.00     0.349 HD
ATOM     86  C   UNL A   1      32.479  19.113  22.692  1.00  0.00     0.006 A 
ATOM     87  C   UNL A   1      32.499  20.194  24.863  1.00  0.00     0.011 A 
ATOM     88  C   UNL A   1      32.888  17.912  23.276  1.00  0.00     0.021 A 
ATOM     89  C   UNL A   1      32.925  18.984  25.439  1.00  0.00     0.030 A 
ATOM     90  C   UNL A   1      33.115  17.855  24.648  1.00  0.00     0.041 A 
ATOM     91  Cl  UNL A   1      33.603  16.374  25.374  1.00  0.00    -0.084 Cl
BRANCH  82  92
ATOM     92  C   UNL A   1      31.373  23.630  26.091  1.00  0.00     0.299 C 
BRANCH  92  93
ATOM     93  C   UNL A   1      31.953  25.030  26.091  1.00  0.00     0.006 A 
ATOM     94  C   UNL A   1      33.339  25.243  26.047  1.00  0.00     0.011 A 
ATOM     95  C   UNL A   1      31.101  26.145  26.131  1.00  0.00     0.011 A 
ATOM     96  C   UNL A   1      33.863  26.534  26.126  1.00  0.00     0.021 A 
ATOM     97  C   UNL A   1      31.623  27.439  26.180  1.00  0.00     0.021 A 
ATOM     98  C   UNL A   1      33.002  27.627  26.199  1.00  0.00     0.041 A 
ATOM     99  Cl  UNL A   1      33.648  29.216  26.316  1.00  0.00    -0.084 Cl
ENDBRANCH  92  93
ENDBRANCH  82  92
ENDBRANCH  77  80
ENDBRANCH  75  76
ENDBRANCH  74  75
ENDBRANCH  73  74
ENDBRANCH   1  73
TORSDOF 18
ENDMDL
MODEL 3
REMARK VINA RESULT:     -11.7      2.269      3.901
REMARK SMILES O=C(NCCCCCCNC(=O)[C@H]1Cc2ccc(Cl)cc2C[N@@H+]1Cc1ccc(Cl)cc1)c1ccc(-c2c3nc(c(-c4cccc(S(=O)(=O)[O-])c4F)c4ccc([nH]4)c(-c4cccc(S(=O)(=O)[O-])c4F)c4nc(c(-c5cccc(S(=O)(=O)[O-])c5F)c5ccc2[nH]5)C=C4)C=C3)cc1
REMARK SMILES IDX 6 1 5 2 4 3 3 4 1 5 2 6 32 8 33 9 94 10 34 11 93 12 35 13
REMARK SMILES IDX 36 14 37 15 87 16 38 17 92 18 86 19 88 20 39 21 91 22 85 23
REMARK SMILES IDX 84 24 40 26 72 27 52 28 71 29 53 30 56 31 70 32 89 33 54 34
REMARK SMILES IDX 55 35 69 37 90 38 57 39 41 40 42 41 50 42 43 43 45 44 51 45
REMARK SMILES IDX 44 46 46 47 47 48 48 49 49 50 73 51 74 52 82 53 75 54 77 55
REMARK SMILES IDX 83 56 76 57 78 58 79 59 80 60 81 61 58 62 59 63 67 64 60 65
REMARK SMILES IDX 62 66 68 67 61 68 63 69 64 70 65 71 66 72 7 73 8 74 9 75
REMARK SMILES IDX 10 76 11 77 12 79 13 80 14 81 23 82 15 83 22 84 16 86 21 87
REMARK SMILES IDX 17 88 20 89 18 90 19 91 24 92 25 93 26 94 31 95 27 96 30 97
REMARK SMILES IDX 28 98 29 99
REMARK H PARENT 3 7 88 25 56 36 10 78 23 85
REMARK Flexibility Score: inf
ROOT
ATOM      1  C   UNL A   1      31.893  28.610  23.665  1.00  0.00     0.002 C 
ENDROOT
BRANCH   1   2
ATOM      2  C   UNL A   1      31.284  29.555  24.701  1.00  0.00     0.021 C 
BRANCH   2   3
ATOM      3  C   UNL A   1      32.255  30.152  25.708  1.00  0.00     0.116 C 
BRANCH   3   4
ATOM      4  N   UNL A   1      31.928  31.515  26.081  1.00  0.00    -0.352 N 
ATOM      5  O   UNL A   1      32.048  33.423  27.266  1.00  0.00    -0.269 OA
ATOM      6  C   UNL A   1      32.540  32.332  27.001  1.00  0.00     0.251 C 
ATOM      7  H   UNL A   1      31.159  31.909  25.608  1.00  0.00     0.163 HD
BRANCH   6   8
ATOM      8  C   UNL A   1      33.776  31.886  27.685  1.00  0.00     0.039 A 
ATOM      9  C   UNL A   1      34.746  32.839  28.001  1.00  0.00     0.014 A 
ATOM     10  C   UNL A   1      33.991  30.541  28.003  1.00  0.00     0.014 A 
ATOM     11  C   UNL A   1      35.915  32.447  28.656  1.00  0.00     0.010 A 
ATOM     12  C   UNL A   1      35.110  30.169  28.743  1.00  0.00     0.010 A 
ATOM     13  C   UNL A   1      36.101  31.111  29.047  1.00  0.00    -0.014 A 
BRANCH  13  14
ATOM     14  C   UNL A   1      37.357  30.684  29.717  1.00  0.00     0.031 A 
ATOM     15  C   UNL A   1      37.689  31.198  31.095  1.00  0.00     0.074 A 
ATOM     16  C   UNL A   1      38.205  29.845  29.088  1.00  0.00     0.049 A 
ATOM     17  N   UNL A   1      38.728  30.925  31.842  1.00  0.00    -0.248 NA
ATOM     18  C   UNL A   1      36.753  32.156  31.711  1.00  0.00     0.031 C 
ATOM     19  C   UNL A   1      38.035  29.339  27.723  1.00  0.00     0.029 A 
ATOM     20  N   UNL A   1      39.376  29.269  29.511  1.00  0.00    -0.354 N 
ATOM     21  C   UNL A   1      38.579  31.687  32.993  1.00  0.00     0.074 A 
ATOM     22  C   UNL A   1      37.379  32.473  32.835  1.00  0.00     0.031 C 
ATOM     23  C   UNL A   1      39.048  28.507  27.434  1.00  0.00     0.029 A 
ATOM     24  C   UNL A   1      39.952  28.438  28.578  1.00  0.00     0.049 A 
ATOM     25  H   UNL A   1      39.769  29.435  30.398  1.00  0.00     0.167 HD
ATOM     26  C   UNL A   1      39.345  31.696  34.106  1.00  0.00     0.034 A 
ATOM     27  C   UNL A   1      41.078  27.698  28.637  1.00  0.00     0.034 A 
ATOM     28  C   UNL A   1      40.495  30.862  34.296  1.00  0.00     0.049 A 
ATOM     29  C   UNL A   1      41.888  27.690  29.902  1.00  0.00     0.074 A 
ATOM     30  C   UNL A   1      41.287  30.748  35.424  1.00  0.00     0.029 A 
ATOM     31  N   UNL A   1      41.006  29.993  33.349  1.00  0.00    -0.354 N 
ATOM     32  N   UNL A   1      41.663  28.335  31.020  1.00  0.00    -0.248 NA
ATOM     33  C   UNL A   1      43.088  26.839  29.931  1.00  0.00     0.031 C 
ATOM     34  C   UNL A   1      42.287  29.813  35.155  1.00  0.00     0.029 A 
ATOM     35  C   UNL A   1      42.104  29.336  33.867  1.00  0.00     0.049 A 
ATOM     36  H   UNL A   1      40.642  29.863  32.444  1.00  0.00     0.167 HD
ATOM     37  C   UNL A   1      42.675  27.953  31.891  1.00  0.00     0.074 A 
ATOM     38  C   UNL A   1      43.514  27.013  31.177  1.00  0.00     0.031 C 
ATOM     39  C   UNL A   1      42.893  28.360  33.164  1.00  0.00     0.034 A 
BRANCH  26  40
ATOM     40  C   UNL A   1      38.921  32.562  35.259  1.00  0.00     0.023 A 
ATOM     41  C   UNL A   1      38.016  32.040  36.205  1.00  0.00     0.012 A 
ATOM     42  C   UNL A   1      39.514  33.819  35.480  1.00  0.00     0.148 A 
ATOM     43  C   UNL A   1      37.707  32.757  37.358  1.00  0.00     0.002 A 
ATOM     44  C   UNL A   1      39.224  34.515  36.647  1.00  0.00     0.091 A 
ATOM     45  F   UNL A   1      40.365  34.293  34.560  1.00  0.00    -0.205 F 
ATOM     46  C   UNL A   1      38.320  33.987  37.584  1.00  0.00     0.022 A 
BRANCH  44  47
ATOM     47  S   UNL A   1      39.996  36.082  37.064  1.00  0.00     0.127 S 
ATOM     48  O   UNL A   1      41.368  35.666  37.351  1.00  0.00    -0.237 OA
ATOM     49  O   UNL A   1      39.834  36.841  35.826  1.00  0.00    -0.237 OA
ATOM     50  O   UNL A   1      39.262  36.603  38.209  1.00  0.00    -0.744 OA
ENDBRANCH  44  47
ENDBRANCH  26  40
BRANCH  27  51
ATOM     51  C   UNL A   1      41.459  26.859  27.467  1.00  0.00     0.023 A 
ATOM     52  C   UNL A   1      42.104  27.452  26.366  1.00  0.00     0.012 A 
ATOM     53  C   UNL A   1      41.249  25.467  27.478  1.00  0.00     0.148 A 
ATOM     54  C   UNL A   1      42.529  26.671  25.290  1.00  0.00     0.002 A 
ATOM     55  C   UNL A   1      41.711  24.690  26.423  1.00  0.00     0.091 A 
ATOM     56  F   UNL A   1      40.630  24.930  28.539  1.00  0.00    -0.205 F 
ATOM     57  C   UNL A   1      42.343  25.290  25.323  1.00  0.00     0.022 A 
BRANCH  55  58
ATOM     58  S   UNL A   1      41.608  22.896  26.425  1.00  0.00     0.127 S 
ATOM     59  O   UNL A   1      42.260  22.562  27.688  1.00  0.00    -0.237 OA
ATOM     60  O   UNL A   1      40.161  22.680  26.399  1.00  0.00    -0.237 OA
ATOM     61  O   UNL A   1      42.307  22.456  25.224  1.00  0.00    -0.744 OA
ENDBRANCH  55  58
ENDBRANCH  27  51
BRANCH  39  62
ATOM     62  C   UNL A   1      44.065  27.797  33.915  1.00  0.00     0.023 A 
ATOM     63  C   UNL A   1      45.258  28.541  33.977  1.00  0.00     0.012 A 
ATOM     64  C   UNL A   1      43.905  26.657  34.726  1.00  0.00     0.148 A 
ATOM     65  C   UNL A   1      46.275  28.163  34.853  1.00  0.00     0.002 A 
ATOM     66  C   UNL A   1      44.909  26.306  35.618  1.00  0.00     0.091 A 
ATOM     67  F   UNL A   1      42.752  25.977  34.646  1.00  0.00    -0.205 F 
ATOM     68  C   UNL A   1      46.095  27.057  35.682  1.00  0.00     0.022 A 
BRANCH  66  69
ATOM     69  S   UNL A   1      44.738  24.953  36.787  1.00  0.00     0.127 S 
ATOM     70  O   UNL A   1      45.994  25.045  37.533  1.00  0.00    -0.237 OA
ATOM     71  O   UNL A   1      43.549  25.348  37.541  1.00  0.00    -0.237 OA
ATOM     72  O   UNL A   1      44.588  23.743  35.990  1.00  0.00    -0.744 OA
ENDBRANCH  66  69
ENDBRANCH  39  62
ENDBRANCH  13  14
ENDBRANCH   6   8
ENDBRANCH   3   4
ENDBRANCH   2   3
ENDBRANCH   1   2
BRANCH   1  73
ATOM     73  C   UNL A   1      30.913  27.783  22.828  1.00  0.00     0.002 C 
BRANCH  73  74
ATOM     74  C   UNL A   1      30.164  26.651  23.540  1.00  0.00     0.021 C 
BRANCH  74  75
ATOM     75  C   UNL A   1      30.694  25.241  23.309  1.00  0.00     0.116 C 
BRANCH  75  76
ATOM     76  N   UNL A   1      31.782  25.173  22.354  1.00  0.00    -0.351 N 
ATOM     77  C   UNL A   1      32.714  24.188  22.184  1.00  0.00     0.278 C 
ATOM     78  H   UNL A   1      31.861  25.942  21.744  1.00  0.00     0.163 HD
ATOM     79  O   UNL A   1      33.456  24.284  21.199  1.00  0.00    -0.268 OA
BRANCH  77  80
ATOM     80  C   UNL A   1      32.937  23.061  23.218  1.00  0.00     0.279 C 
ATOM     81  C   UNL A   1      32.394  21.775  22.557  1.00  0.00     0.111 C 
ATOM     82  N   UNL A   1      34.341  22.936  23.680  1.00  0.00    -0.317 N 
ATOM     83  C   UNL A   1      32.716  20.522  23.324  1.00  0.00    -0.033 A 
ATOM     84  C   UNL A   1      34.537  21.781  24.569  1.00  0.00     0.300 C 
ATOM     85  H   UNL A   1      34.866  22.776  22.821  1.00  0.00     0.349 HD
ATOM     86  C   UNL A   1      31.971  19.351  23.122  1.00  0.00     0.006 A 
ATOM     87  C   UNL A   1      33.802  20.512  24.207  1.00  0.00     0.011 A 
ATOM     88  C   UNL A   1      32.293  18.180  23.812  1.00  0.00     0.021 A 
ATOM     89  C   UNL A   1      34.128  19.325  24.885  1.00  0.00     0.030 A 
ATOM     90  C   UNL A   1      33.375  18.171  24.686  1.00  0.00     0.041 A 
ATOM     91  Cl  UNL A   1      33.766  16.735  25.550  1.00  0.00    -0.084 Cl
BRANCH  82  92
ATOM     92  C   UNL A   1      34.915  24.165  24.277  1.00  0.00     0.299 C 
BRANCH  92  93
ATOM     93  C   UNL A   1      34.021  24.983  25.186  1.00  0.00     0.006 A 
ATOM     94  C   UNL A   1      32.920  24.406  25.836  1.00  0.00     0.011 A 
ATOM     95  C   UNL A   1      34.290  26.345  25.396  1.00  0.00     0.011 A 
ATOM     96  C   UNL A   1      32.061  25.187  26.610  1.00  0.00     0.021 A 
ATOM     97  C   UNL A   1      33.447  27.122  26.194  1.00  0.00     0.021 A 
ATOM     98  C   UNL A   1      32.324  26.544  26.780  1.00  0.00     0.041 A 
ATOM     99  Cl  UNL A   1      31.254  27.510  27.717  1.00  0.00    -0.084 Cl
ENDBRANCH  92  93
ENDBRANCH  82  92
ENDBRANCH  77  80
ENDBRANCH  75  76
ENDBRANCH  74  75
ENDBRANCH  73  74
ENDBRANCH   1  73
TORSDOF 18
ENDMDL
