MODEL 1
REMARK VINA RESULT:     -12.0      0.000      0.000
REMARK SMILES Cc1ccnc(C(=O)c2[nH]c3cc(F)ccc3c2CC(=O)NCCCCCCNC(=O)c2ccc(-c3c4nc(c(-c5cccc(S(=O)(=O)[O-])c5F)c5ccc([nH]5)c(-c5cccc(S(=O)(=O)[O-])c5F)c5nc(c(-c6cccc(S(=O)(=O)[O-])c6F)c6ccc3[nH]6)C=C5)C=C4)cc2)c1
REMARK SMILES IDX 25 1 24 2 23 3 22 4 20 5 21 6 19 8 18 9 9 10 10 11 11 12
REMARK SMILES IDX 17 14 12 15 16 16 13 17 15 18 14 19 7 20 8 21 6 22 1 23 2 24
REMARK SMILES IDX 3 25 95 26 4 27 5 28 26 29 27 30 28 31 29 32 30 33 31 35
REMARK SMILES IDX 32 36 33 37 94 38 34 39 93 40 35 41 36 42 37 43 87 44 38 45
REMARK SMILES IDX 92 46 86 47 88 48 39 49 91 50 85 51 84 52 40 54 72 55 52 56
REMARK SMILES IDX 71 57 53 58 56 59 70 60 89 61 54 62 55 63 69 65 90 66 57 67
REMARK SMILES IDX 41 68 42 69 50 70 43 71 45 72 51 73 44 74 46 75 47 76 48 77
REMARK SMILES IDX 49 78 73 79 74 80 82 81 75 82 77 83 83 84 76 85 78 86 79 87
REMARK SMILES IDX 80 88 81 89 58 90 59 91 67 92 60 93 62 94 68 95 61 96 63 97
REMARK SMILES IDX 64 98 65 99 66 100
REMARK H PARENT 22 7 10 13 29 34 88 53 56 64
REMARK Flexibility Score: inf
ROOT
ATOM      1  C   UNL A   1      36.746  21.610  25.184  1.00  0.00     0.002 C 
ENDROOT
BRANCH   1   2
ATOM      2  C   UNL A   1      36.425  22.564  24.027  1.00  0.00     0.021 C 
BRANCH   2   3
ATOM      3  C   UNL A   1      35.255  23.512  24.292  1.00  0.00     0.116 C 
BRANCH   3   4
ATOM      4  N   UNL A   1      34.759  24.126  23.076  1.00  0.00    -0.356 N 
ATOM      5  C   UNL A   1      33.901  25.175  22.922  1.00  0.00     0.224 C 
ATOM      6  O   UNL A   1      33.700  25.600  21.780  1.00  0.00    -0.275 OA
ATOM      7  H   UNL A   1      35.091  23.726  22.239  1.00  0.00     0.163 HD
BRANCH   5   8
ATOM      8  C   UNL A   1      33.315  25.891  24.130  1.00  0.00     0.138 C 
BRANCH   8   9
ATOM      9  C   UNL A   1      31.826  25.772  24.299  1.00  0.00    -0.002 A 
ATOM     10  C   UNL A   1      31.122  24.751  24.930  1.00  0.00     0.093 A 
ATOM     11  N   UNL A   1      29.791  25.102  24.920  1.00  0.00    -0.351 N 
ATOM     12  C   UNL A   1      29.595  26.244  24.184  1.00  0.00     0.049 A 
ATOM     13  H   UNL A   1      29.077  24.604  25.379  1.00  0.00     0.167 HD
ATOM     14  C   UNL A   1      30.851  26.686  23.770  1.00  0.00     0.004 A 
ATOM     15  C   UNL A   1      28.411  26.921  23.869  1.00  0.00     0.066 A 
ATOM     16  C   UNL A   1      30.925  27.865  22.994  1.00  0.00     0.013 A 
ATOM     17  C   UNL A   1      28.523  28.080  23.104  1.00  0.00     0.125 A 
ATOM     18  C   UNL A   1      29.752  28.555  22.668  1.00  0.00     0.040 A 
ATOM     19  F   UNL A   1      27.411  28.751  22.778  1.00  0.00    -0.207 F 
BRANCH  10  20
ATOM     20  C   UNL A   1      31.621  23.553  25.583  1.00  0.00     0.227 C 
ATOM     21  O   UNL A   1      31.798  23.523  26.800  1.00  0.00    -0.285 OA
BRANCH  20  22
ATOM     22  C   UNL A   1      31.891  22.327  24.741  1.00  0.00     0.113 A 
ATOM     23  C   UNL A   1      32.862  18.667  25.016  1.00  0.00     0.044 C 
ATOM     24  C   UNL A   1      32.480  20.007  24.462  1.00  0.00    -0.047 A 
ATOM     25  C   UNL A   1      32.400  20.196  23.082  1.00  0.00     0.023 A 
ATOM     26  C   UNL A   1      32.202  21.088  25.304  1.00  0.00     0.036 A 
ATOM     27  C   UNL A   1      32.066  21.451  22.604  1.00  0.00     0.112 A 
ATOM     28  N   UNL A   1      31.825  22.515  23.395  1.00  0.00    -0.253 NA
ENDBRANCH  20  22
ENDBRANCH  10  20
ENDBRANCH   8   9
ENDBRANCH   5   8
ENDBRANCH   3   4
ENDBRANCH   2   3
ENDBRANCH   1   2
BRANCH   1  29
ATOM     29  C   UNL A   1      36.776  20.118  24.828  1.00  0.00     0.002 C 
BRANCH  29  30
ATOM     30  C   UNL A   1      38.116  19.410  25.045  1.00  0.00     0.021 C 
BRANCH  30  31
ATOM     31  C   UNL A   1      39.138  20.185  25.874  1.00  0.00     0.116 C 
BRANCH  31  32
ATOM     32  N   UNL A   1      40.334  19.403  26.148  1.00  0.00    -0.352 N 
ATOM     33  C   UNL A   1      41.598  19.827  26.474  1.00  0.00     0.251 C 
ATOM     34  H   UNL A   1      40.220  18.427  26.090  1.00  0.00     0.163 HD
ATOM     35  O   UNL A   1      42.524  19.019  26.502  1.00  0.00    -0.269 OA
BRANCH  33  36
ATOM     36  C   UNL A   1      41.857  21.254  26.777  1.00  0.00     0.039 A 
ATOM     37  C   UNL A   1      42.154  21.621  28.093  1.00  0.00     0.014 A 
ATOM     38  C   UNL A   1      41.777  22.231  25.780  1.00  0.00     0.014 A 
ATOM     39  C   UNL A   1      42.422  22.958  28.402  1.00  0.00     0.010 A 
ATOM     40  C   UNL A   1      42.092  23.556  26.079  1.00  0.00     0.010 A 
ATOM     41  C   UNL A   1      42.414  23.934  27.393  1.00  0.00    -0.014 A 
BRANCH  41  42
ATOM     42  C   UNL A   1      42.745  25.352  27.684  1.00  0.00     0.031 A 
ATOM     43  C   UNL A   1      44.156  25.848  27.521  1.00  0.00     0.074 A 
ATOM     44  C   UNL A   1      41.797  26.168  28.184  1.00  0.00     0.049 A 
ATOM     45  N   UNL A   1      44.655  27.021  27.809  1.00  0.00    -0.248 NA
ATOM     46  C   UNL A   1      45.140  24.891  26.985  1.00  0.00     0.031 C 
ATOM     47  C   UNL A   1      40.411  25.786  28.455  1.00  0.00     0.029 A 
ATOM     48  N   UNL A   1      41.865  27.480  28.583  1.00  0.00    -0.354 N 
ATOM     49  C   UNL A   1      46.014  26.937  27.526  1.00  0.00     0.074 A 
ATOM     50  C   UNL A   1      46.266  25.590  27.062  1.00  0.00     0.031 C 
ATOM     51  C   UNL A   1      39.762  26.836  28.989  1.00  0.00     0.029 A 
ATOM     52  C   UNL A   1      40.689  27.958  29.111  1.00  0.00     0.049 A 
ATOM     53  H   UNL A   1      42.680  28.027  28.501  1.00  0.00     0.167 HD
ATOM     54  C   UNL A   1      46.960  27.902  27.615  1.00  0.00     0.034 A 
ATOM     55  C   UNL A   1      40.389  29.163  29.638  1.00  0.00     0.034 A 
ATOM     56  C   UNL A   1      46.700  29.256  28.020  1.00  0.00     0.049 A 
ATOM     57  C   UNL A   1      41.444  30.236  29.657  1.00  0.00     0.074 A 
ATOM     58  C   UNL A   1      47.581  30.322  28.077  1.00  0.00     0.029 A 
ATOM     59  N   UNL A   1      45.465  29.736  28.426  1.00  0.00    -0.354 N 
ATOM     60  N   UNL A   1      42.687  30.177  29.246  1.00  0.00    -0.248 NA
ATOM     61  C   UNL A   1      41.045  31.553  30.174  1.00  0.00     0.031 C 
ATOM     62  C   UNL A   1      46.875  31.449  28.511  1.00  0.00     0.029 A 
ATOM     63  C   UNL A   1      45.557  31.084  28.726  1.00  0.00     0.049 A 
ATOM     64  H   UNL A   1      44.644  29.197  28.493  1.00  0.00     0.167 HD
ATOM     65  C   UNL A   1      43.209  31.454  29.425  1.00  0.00     0.074 A 
ATOM     66  C   UNL A   1      42.140  32.271  29.961  1.00  0.00     0.031 C 
ATOM     67  C   UNL A   1      44.466  31.902  29.188  1.00  0.00     0.034 A 
BRANCH  54  68
ATOM     68  C   UNL A   1      48.358  27.548  27.188  1.00  0.00     0.023 A 
ATOM     69  C   UNL A   1      49.233  26.971  28.130  1.00  0.00     0.012 A 
ATOM     70  C   UNL A   1      48.787  27.719  25.858  1.00  0.00     0.148 A 
ATOM     71  C   UNL A   1      50.523  26.589  27.761  1.00  0.00     0.002 A 
ATOM     72  C   UNL A   1      50.064  27.306  25.490  1.00  0.00     0.091 A 
ATOM     73  F   UNL A   1      47.948  28.291  24.982  1.00  0.00    -0.205 F 
ATOM     74  C   UNL A   1      50.934  26.747  26.441  1.00  0.00     0.022 A 
BRANCH  72  75
ATOM     75  S   UNL A   1      50.660  27.409  23.798  1.00  0.00     0.127 S 
ATOM     76  O   UNL A   1      51.903  26.642  23.876  1.00  0.00    -0.237 OA
ATOM     77  O   UNL A   1      49.586  26.751  23.048  1.00  0.00    -0.237 OA
ATOM     78  O   UNL A   1      50.812  28.827  23.514  1.00  0.00    -0.744 OA
ENDBRANCH  72  75
ENDBRANCH  54  68
BRANCH  55  79
ATOM     79  C   UNL A   1      39.004  29.441  30.108  1.00  0.00     0.023 A 
ATOM     80  C   UNL A   1      38.648  29.102  31.428  1.00  0.00     0.012 A 
ATOM     81  C   UNL A   1      38.054  30.066  29.280  1.00  0.00     0.148 A 
ATOM     82  C   UNL A   1      37.362  29.357  31.906  1.00  0.00     0.002 A 
ATOM     83  C   UNL A   1      36.789  30.362  29.779  1.00  0.00     0.091 A 
ATOM     84  F   UNL A   1      38.399  30.364  28.020  1.00  0.00    -0.205 F 
ATOM     85  C   UNL A   1      36.436  29.996  31.086  1.00  0.00     0.022 A 
BRANCH  83  86
ATOM     86  S   UNL A   1      35.602  31.304  28.812  1.00  0.00     0.127 S 
ATOM     87  O   UNL A   1      34.772  31.904  29.851  1.00  0.00    -0.237 OA
ATOM     88  O   UNL A   1      36.459  32.246  28.089  1.00  0.00    -0.237 OA
ATOM     89  O   UNL A   1      34.954  30.319  27.954  1.00  0.00    -0.744 OA
ENDBRANCH  83  86
ENDBRANCH  55  79
BRANCH  67  90
ATOM     90  C   UNL A   1      44.759  33.347  29.481  1.00  0.00     0.023 A 
ATOM     91  C   UNL A   1      45.251  33.709  30.750  1.00  0.00     0.012 A 
ATOM     92  C   UNL A   1      44.630  34.330  28.481  1.00  0.00     0.148 A 
ATOM     93  C   UNL A   1      45.594  35.032  31.025  1.00  0.00     0.002 A 
ATOM     94  C   UNL A   1      45.008  35.641  28.751  1.00  0.00     0.091 A 
ATOM     95  F   UNL A   1      44.137  33.970  27.286  1.00  0.00    -0.205 F 
ATOM     96  C   UNL A   1      45.483  35.995  30.024  1.00  0.00     0.022 A 
BRANCH  94  97
ATOM     97  S   UNL A   1      44.973  36.918  27.489  1.00  0.00     0.127 S 
ATOM     98  O   UNL A   1      45.798  36.324  26.438  1.00  0.00    -0.237 OA
ATOM     99  O   UNL A   1      43.547  37.007  27.166  1.00  0.00    -0.237 OA
ATOM    100  O   UNL A   1      45.516  38.112  28.123  1.00  0.00    -0.744 OA
ENDBRANCH  94  97
ENDBRANCH  67  90
ENDBRANCH  41  42
ENDBRANCH  33  36
ENDBRANCH  31  32
ENDBRANCH  30  31
ENDBRANCH  29  30
ENDBRANCH   1  29
TORSDOF 19
ENDMDL
MODEL 2
REMARK VINA RESULT:     -12.0      4.545      9.434
REMARK SMILES Cc1ccnc(C(=O)c2[nH]c3cc(F)ccc3c2CC(=O)NCCCCCCNC(=O)c2ccc(-c3c4nc(c(-c5cccc(S(=O)(=O)[O-])c5F)c5ccc([nH]5)c(-c5cccc(S(=O)(=O)[O-])c5F)c5nc(c(-c6cccc(S(=O)(=O)[O-])c6F)c6ccc3[nH]6)C=C5)C=C4)cc2)c1
REMARK SMILES IDX 25 1 24 2 23 3 22 4 20 5 21 6 19 8 18 9 9 10 10 11 11 12
REMARK SMILES IDX 17 14 12 15 16 16 13 17 15 18 14 19 7 20 8 21 6 22 1 23 2 24
REMARK SMILES IDX 3 25 95 26 4 27 5 28 26 29 27 30 28 31 29 32 30 33 31 35
REMARK SMILES IDX 32 36 33 37 94 38 34 39 93 40 35 41 36 42 37 43 87 44 38 45
REMARK SMILES IDX 92 46 86 47 88 48 39 49 91 50 85 51 84 52 40 54 72 55 52 56
REMARK SMILES IDX 71 57 53 58 56 59 70 60 89 61 54 62 55 63 69 65 90 66 57 67
REMARK SMILES IDX 41 68 42 69 50 70 43 71 45 72 51 73 44 74 46 75 47 76 48 77
REMARK SMILES IDX 49 78 73 79 74 80 82 81 75 82 77 83 83 84 76 85 78 86 79 87
REMARK SMILES IDX 80 88 81 89 58 90 59 91 67 92 60 93 62 94 68 95 61 96 63 97
REMARK SMILES IDX 64 98 65 99 66 100
REMARK H PARENT 22 7 10 13 29 34 88 53 56 64
REMARK Flexibility Score: inf
ROOT
ATOM      1  C   UNL A   1      30.720  27.227  24.736  1.00  0.00     0.002 C 
ENDROOT
BRANCH   1   2
ATOM      2  C   UNL A   1      30.363  26.253  25.866  1.00  0.00     0.021 C 
BRANCH   2   3
ATOM      3  C   UNL A   1      30.286  24.786  25.440  1.00  0.00     0.116 C 
BRANCH   3   4
ATOM      4  N   UNL A   1      31.213  24.476  24.370  1.00  0.00    -0.356 N 
ATOM      5  C   UNL A   1      32.378  23.767  24.411  1.00  0.00     0.224 C 
ATOM      6  O   UNL A   1      32.955  23.535  23.344  1.00  0.00    -0.275 OA
ATOM      7  H   UNL A   1      30.965  24.829  23.485  1.00  0.00     0.163 HD
BRANCH   5   8
ATOM      8  C   UNL A   1      32.880  23.159  25.711  1.00  0.00     0.138 C 
BRANCH   8   9
ATOM      9  C   UNL A   1      34.052  22.227  25.585  1.00  0.00    -0.002 A 
ATOM     10  C   UNL A   1      34.026  20.853  25.365  1.00  0.00     0.093 A 
ATOM     11  N   UNL A   1      35.330  20.432  25.234  1.00  0.00    -0.351 N 
ATOM     12  C   UNL A   1      36.201  21.460  25.500  1.00  0.00     0.049 A 
ATOM     13  H   UNL A   1      35.602  19.520  24.984  1.00  0.00     0.167 HD
ATOM     14  C   UNL A   1      35.433  22.599  25.734  1.00  0.00     0.004 A 
ATOM     15  C   UNL A   1      37.600  21.467  25.535  1.00  0.00     0.066 A 
ATOM     16  C   UNL A   1      36.100  23.810  26.026  1.00  0.00     0.013 A 
ATOM     17  C   UNL A   1      38.224  22.680  25.824  1.00  0.00     0.125 A 
ATOM     18  C   UNL A   1      37.499  23.838  26.066  1.00  0.00     0.040 A 
ATOM     19  F   UNL A   1      39.562  22.725  25.871  1.00  0.00    -0.207 F 
BRANCH  10  20
ATOM     20  C   UNL A   1      32.887  19.967  25.200  1.00  0.00     0.227 C 
ATOM     21  O   UNL A   1      31.737  20.389  25.311  1.00  0.00    -0.285 OA
BRANCH  20  22
ATOM     22  C   UNL A   1      33.140  18.517  24.856  1.00  0.00     0.113 A 
ATOM     23  C   UNL A   1      32.332  14.989  26.004  1.00  0.00     0.044 C 
ATOM     24  C   UNL A   1      32.882  16.150  25.231  1.00  0.00    -0.047 A 
ATOM     25  C   UNL A   1      33.725  15.929  24.142  1.00  0.00     0.023 A 
ATOM     26  C   UNL A   1      32.570  17.468  25.580  1.00  0.00     0.036 A 
ATOM     27  C   UNL A   1      34.232  17.023  23.463  1.00  0.00     0.112 A 
ATOM     28  N   UNL A   1      33.971  18.301  23.802  1.00  0.00    -0.253 NA
ENDBRANCH  20  22
ENDBRANCH  10  20
ENDBRANCH   8   9
ENDBRANCH   5   8
ENDBRANCH   3   4
ENDBRANCH   2   3
ENDBRANCH   1   2
BRANCH   1  29
ATOM     29  C   UNL A   1      31.934  28.128  24.992  1.00  0.00     0.002 C 
BRANCH  29  30
ATOM     30  C   UNL A   1      32.777  27.774  26.221  1.00  0.00     0.021 C 
BRANCH  30  31
ATOM     31  C   UNL A   1      34.095  28.534  26.350  1.00  0.00     0.116 C 
BRANCH  31  32
ATOM     32  N   UNL A   1      33.895  29.925  26.726  1.00  0.00    -0.352 N 
ATOM     33  C   UNL A   1      34.636  30.716  27.568  1.00  0.00     0.251 C 
ATOM     34  H   UNL A   1      33.115  30.363  26.317  1.00  0.00     0.163 HD
ATOM     35  O   UNL A   1      34.213  31.823  27.896  1.00  0.00    -0.269 OA
BRANCH  33  36
ATOM     36  C   UNL A   1      35.935  30.240  28.098  1.00  0.00     0.039 A 
ATOM     37  C   UNL A   1      35.968  29.633  29.358  1.00  0.00     0.014 A 
ATOM     38  C   UNL A   1      37.119  30.418  27.378  1.00  0.00     0.014 A 
ATOM     39  C   UNL A   1      37.178  29.158  29.873  1.00  0.00     0.010 A 
ATOM     40  C   UNL A   1      38.317  29.901  27.870  1.00  0.00     0.010 A 
ATOM     41  C   UNL A   1      38.360  29.269  29.123  1.00  0.00    -0.014 A 
BRANCH  41  42
ATOM     42  C   UNL A   1      39.649  28.726  29.623  1.00  0.00     0.031 A 
ATOM     43  C   UNL A   1      40.392  29.435  30.722  1.00  0.00     0.074 A 
ATOM     44  C   UNL A   1      40.195  27.650  29.025  1.00  0.00     0.049 A 
ATOM     45  N   UNL A   1      41.567  29.167  31.228  1.00  0.00    -0.248 NA
ATOM     46  C   UNL A   1      39.738  30.615  31.315  1.00  0.00     0.031 C 
ATOM     47  C   UNL A   1      39.607  26.918  27.902  1.00  0.00     0.029 A 
ATOM     48  N   UNL A   1      41.384  27.004  29.257  1.00  0.00    -0.354 N 
ATOM     49  C   UNL A   1      41.812  30.159  32.170  1.00  0.00     0.074 A 
ATOM     50  C   UNL A   1      40.671  31.049  32.152  1.00  0.00     0.031 C 
ATOM     51  C   UNL A   1      40.443  25.932  27.535  1.00  0.00     0.029 A 
ATOM     52  C   UNL A   1      41.631  25.970  28.384  1.00  0.00     0.049 A 
ATOM     53  H   UNL A   1      42.002  27.257  29.980  1.00  0.00     0.167 HD
ATOM     54  C   UNL A   1      42.876  30.300  32.996  1.00  0.00     0.034 A 
ATOM     55  C   UNL A   1      42.694  25.148  28.276  1.00  0.00     0.034 A 
ATOM     56  C   UNL A   1      43.982  29.384  33.055  1.00  0.00     0.049 A 
ATOM     57  C   UNL A   1      43.828  25.286  29.256  1.00  0.00     0.074 A 
ATOM     58  C   UNL A   1      45.073  29.406  33.906  1.00  0.00     0.029 A 
ATOM     59  N   UNL A   1      44.134  28.274  32.240  1.00  0.00    -0.354 N 
ATOM     60  N   UNL A   1      43.970  26.143  30.237  1.00  0.00    -0.248 NA
ATOM     61  C   UNL A   1      44.929  24.318  29.140  1.00  0.00     0.031 C 
ATOM     62  C   UNL A   1      45.882  28.304  33.610  1.00  0.00     0.029 A 
ATOM     63  C   UNL A   1      45.294  27.598  32.573  1.00  0.00     0.049 A 
ATOM     64  H   UNL A   1      43.509  28.008  31.528  1.00  0.00     0.167 HD
ATOM     65  C   UNL A   1      45.158  25.800  30.874  1.00  0.00     0.074 A 
ATOM     66  C   UNL A   1      45.685  24.643  30.181  1.00  0.00     0.031 C 
ATOM     67  C   UNL A   1      45.767  26.404  31.922  1.00  0.00     0.034 A 
BRANCH  54  68
ATOM     68  C   UNL A   1      42.857  31.450  33.966  1.00  0.00     0.023 A 
ATOM     69  C   UNL A   1      43.392  32.690  33.564  1.00  0.00     0.012 A 
ATOM     70  C   UNL A   1      42.259  31.332  35.235  1.00  0.00     0.148 A 
ATOM     71  C   UNL A   1      43.354  33.791  34.419  1.00  0.00     0.002 A 
ATOM     72  C   UNL A   1      42.196  32.443  36.070  1.00  0.00     0.091 A 
ATOM     73  F   UNL A   1      41.777  30.138  35.609  1.00  0.00    -0.205 F 
ATOM     74  C   UNL A   1      42.748  33.671  35.665  1.00  0.00     0.022 A 
BRANCH  72  75
ATOM     75  S   UNL A   1      41.377  32.402  37.669  1.00  0.00     0.127 S 
ATOM     76  O   UNL A   1      40.054  31.890  37.309  1.00  0.00    -0.237 OA
ATOM     77  O   UNL A   1      42.209  31.460  38.422  1.00  0.00    -0.237 OA
ATOM     78  O   UNL A   1      41.408  33.767  38.169  1.00  0.00    -0.744 OA
ENDBRANCH  72  75
ENDBRANCH  54  68
BRANCH  55  79
ATOM     79  C   UNL A   1      42.692  24.066  27.253  1.00  0.00     0.023 A 
ATOM     80  C   UNL A   1      43.247  24.321  25.984  1.00  0.00     0.012 A 
ATOM     81  C   UNL A   1      42.181  22.785  27.534  1.00  0.00     0.148 A 
ATOM     82  C   UNL A   1      43.271  23.328  25.005  1.00  0.00     0.002 A 
ATOM     83  C   UNL A   1      42.253  21.785  26.568  1.00  0.00     0.091 A 
ATOM     84  F   UNL A   1      41.637  22.561  28.737  1.00  0.00    -0.205 F 
ATOM     85  C   UNL A   1      42.785  22.058  25.300  1.00  0.00     0.022 A 
BRANCH  83  86
ATOM     86  S   UNL A   1      41.765  20.095  26.939  1.00  0.00     0.127 S 
ATOM     87  O   UNL A   1      40.393  20.270  27.404  1.00  0.00    -0.237 OA
ATOM     88  O   UNL A   1      41.894  19.436  25.638  1.00  0.00    -0.237 OA
ATOM     89  O   UNL A   1      42.732  19.637  27.930  1.00  0.00    -0.744 OA
ENDBRANCH  83  86
ENDBRANCH  55  79
BRANCH  67  90
ATOM     90  C   UNL A   1      47.063  25.816  32.411  1.00  0.00     0.023 A 
ATOM     91  C   UNL A   1      47.050  24.929  33.504  1.00  0.00     0.012 A 
ATOM     92  C   UNL A   1      48.274  26.074  31.740  1.00  0.00     0.148 A 
ATOM     93  C   UNL A   1      48.227  24.319  33.934  1.00  0.00     0.002 A 
ATOM     94  C   UNL A   1      49.438  25.434  32.152  1.00  0.00     0.091 A 
ATOM     95  F   UNL A   1      48.270  26.941  30.717  1.00  0.00    -0.205 F 
ATOM     96  C   UNL A   1      49.418  24.562  33.252  1.00  0.00     0.022 A 
BRANCH  94  97
ATOM     97  S   UNL A   1      50.992  25.633  31.273  1.00  0.00     0.127 S 
ATOM     98  O   UNL A   1      51.916  24.886  32.124  1.00  0.00    -0.237 OA
ATOM     99  O   UNL A   1      50.710  25.002  29.982  1.00  0.00    -0.237 OA
ATOM    100  O   UNL A   1      51.219  27.070  31.198  1.00  0.00    -0.744 OA
ENDBRANCH  94  97
ENDBRANCH  67  90
ENDBRANCH  41  42
ENDBRANCH  33  36
ENDBRANCH  31  32
ENDBRANCH  30  31
ENDBRANCH  29  30
ENDBRANCH   1  29
TORSDOF 19
ENDMDL
MODEL 3
REMARK VINA RESULT:     -11.7      5.964      9.237
REMARK SMILES Cc1ccnc(C(=O)c2[nH]c3cc(F)ccc3c2CC(=O)NCCCCCCNC(=O)c2ccc(-c3c4nc(c(-c5cccc(S(=O)(=O)[O-])c5F)c5ccc([nH]5)c(-c5cccc(S(=O)(=O)[O-])c5F)c5nc(c(-c6cccc(S(=O)(=O)[O-])c6F)c6ccc3[nH]6)C=C5)C=C4)cc2)c1
REMARK SMILES IDX 25 1 24 2 23 3 22 4 20 5 21 6 19 8 18 9 9 10 10 11 11 12
REMARK SMILES IDX 17 14 12 15 16 16 13 17 15 18 14 19 7 20 8 21 6 22 1 23 2 24
REMARK SMILES IDX 3 25 95 26 4 27 5 28 26 29 27 30 28 31 29 32 30 33 31 35
REMARK SMILES IDX 32 36 33 37 94 38 34 39 93 40 35 41 36 42 37 43 87 44 38 45
REMARK SMILES IDX 92 46 86 47 88 48 39 49 91 50 85 51 84 52 40 54 72 55 52 56
REMARK SMILES IDX 71 57 53 58 56 59 70 60 89 61 54 62 55 63 69 65 90 66 57 67
REMARK SMILES IDX 41 68 42 69 50 70 43 71 45 72 51 73 44 74 46 75 47 76 48 77
REMARK SMILES IDX 49 78 73 79 74 80 82 81 75 82 77 83 83 84 76 85 78 86 79 87
REMARK SMILES IDX 80 88 81 89 58 90 59 91 67 92 60 93 62 94 68 95 61 96 63 97
REMARK SMILES IDX 64 98 65 99 66 100
REMARK H PARENT 22 7 10 13 29 34 88 53 56 64
REMARK Flexibility Score: inf
ROOT
ATOM      1  C   UNL A   1      32.384  29.760  26.444  1.00  0.00     0.002 C 
ENDROOT
BRANCH   1   2
ATOM      2  C   UNL A   1      31.749  28.485  27.011  1.00  0.00     0.021 C 
BRANCH   2   3
ATOM      3  C   UNL A   1      32.342  27.184  26.468  1.00  0.00     0.116 C 
BRANCH   3   4
ATOM      4  N   UNL A   1      31.520  26.033  26.783  1.00  0.00    -0.356 N 
ATOM      5  C   UNL A   1      31.804  24.704  26.655  1.00  0.00     0.224 C 
ATOM      6  O   UNL A   1      30.984  23.890  27.092  1.00  0.00    -0.275 OA
ATOM      7  H   UNL A   1      30.627  26.240  27.142  1.00  0.00     0.163 HD
BRANCH   5   8
ATOM      8  C   UNL A   1      33.149  24.239  26.119  1.00  0.00     0.138 C 
BRANCH   8   9
ATOM      9  C   UNL A   1      33.137  23.683  24.723  1.00  0.00    -0.002 A 
ATOM     10  C   UNL A   1      33.258  22.351  24.338  1.00  0.00     0.093 A 
ATOM     11  N   UNL A   1      33.106  22.303  22.970  1.00  0.00    -0.351 N 
ATOM     12  C   UNL A   1      33.029  23.569  22.445  1.00  0.00     0.049 A 
ATOM     13  H   UNL A   1      33.058  21.474  22.441  1.00  0.00     0.167 HD
ATOM     14  C   UNL A   1      33.056  24.460  23.516  1.00  0.00     0.004 A 
ATOM     15  C   UNL A   1      32.924  23.987  21.113  1.00  0.00     0.066 A 
ATOM     16  C   UNL A   1      32.979  25.844  23.241  1.00  0.00     0.013 A 
ATOM     17  C   UNL A   1      32.849  25.358  20.879  1.00  0.00     0.125 A 
ATOM     18  C   UNL A   1      32.874  26.281  21.915  1.00  0.00     0.040 A 
ATOM     19  F   UNL A   1      32.753  25.796  19.617  1.00  0.00    -0.207 F 
BRANCH  10  20
ATOM     20  C   UNL A   1      33.425  21.165  25.159  1.00  0.00     0.227 C 
ATOM     21  O   UNL A   1      33.623  21.257  26.369  1.00  0.00    -0.285 OA
BRANCH  20  22
ATOM     22  C   UNL A   1      33.319  19.807  24.502  1.00  0.00     0.113 A 
ATOM     23  C   UNL A   1      34.897  16.353  24.508  1.00  0.00     0.044 C 
ATOM     24  C   UNL A   1      34.012  17.521  24.186  1.00  0.00    -0.047 A 
ATOM     25  C   UNL A   1      33.042  17.409  23.190  1.00  0.00     0.023 A 
ATOM     26  C   UNL A   1      34.138  18.736  24.866  1.00  0.00     0.036 A 
ATOM     27  C   UNL A   1      32.256  18.512  22.903  1.00  0.00     0.112 A 
ATOM     28  N   UNL A   1      32.382  19.702  23.522  1.00  0.00    -0.253 NA
ENDBRANCH  20  22
ENDBRANCH  10  20
ENDBRANCH   8   9
ENDBRANCH   5   8
ENDBRANCH   3   4
ENDBRANCH   2   3
ENDBRANCH   1   2
BRANCH   1  29
ATOM     29  C   UNL A   1      31.411  30.770  25.822  1.00  0.00     0.002 C 
BRANCH  29  30
ATOM     30  C   UNL A   1      31.316  32.124  26.531  1.00  0.00     0.021 C 
BRANCH  30  31
ATOM     31  C   UNL A   1      32.596  32.593  27.218  1.00  0.00     0.116 C 
BRANCH  31  32
ATOM     32  N   UNL A   1      32.510  33.978  27.657  1.00  0.00    -0.352 N 
ATOM     33  C   UNL A   1      33.222  34.628  28.635  1.00  0.00     0.251 C 
ATOM     34  H   UNL A   1      31.845  34.528  27.186  1.00  0.00     0.163 HD
ATOM     35  O   UNL A   1      32.889  35.760  28.981  1.00  0.00    -0.269 OA
BRANCH  33  36
ATOM     36  C   UNL A   1      34.377  33.971  29.288  1.00  0.00     0.039 A 
ATOM     37  C   UNL A   1      35.666  34.256  28.825  1.00  0.00     0.014 A 
ATOM     38  C   UNL A   1      34.196  33.053  30.327  1.00  0.00     0.014 A 
ATOM     39  C   UNL A   1      36.775  33.663  29.436  1.00  0.00     0.010 A 
ATOM     40  C   UNL A   1      35.304  32.500  30.968  1.00  0.00     0.010 A 
ATOM     41  C   UNL A   1      36.604  32.796  30.528  1.00  0.00    -0.014 A 
BRANCH  41  42
ATOM     42  C   UNL A   1      37.766  32.194  31.228  1.00  0.00     0.031 A 
ATOM     43  C   UNL A   1      38.504  31.037  30.613  1.00  0.00     0.074 A 
ATOM     44  C   UNL A   1      38.099  32.627  32.460  1.00  0.00     0.049 A 
ATOM     45  N   UNL A   1      39.481  30.325  31.109  1.00  0.00    -0.248 NA
ATOM     46  C   UNL A   1      38.071  30.609  29.271  1.00  0.00     0.031 C 
ATOM     47  C   UNL A   1      37.415  33.693  33.195  1.00  0.00     0.029 A 
ATOM     48  N   UNL A   1      39.076  32.201  33.325  1.00  0.00    -0.354 N 
ATOM     49  C   UNL A   1      39.757  29.345  30.164  1.00  0.00     0.074 A 
ATOM     50  C   UNL A   1      38.831  29.540  29.070  1.00  0.00     0.031 C 
ATOM     51  C   UNL A   1      37.986  33.829  34.404  1.00  0.00     0.029 A 
ATOM     52  C   UNL A   1      39.063  32.852  34.537  1.00  0.00     0.049 A 
ATOM     53  H   UNL A   1      39.725  31.496  33.100  1.00  0.00     0.167 HD
ATOM     54  C   UNL A   1      40.715  28.387  30.188  1.00  0.00     0.034 A 
ATOM     55  C   UNL A   1      39.829  32.680  35.633  1.00  0.00     0.034 A 
ATOM     56  C   UNL A   1      41.674  28.229  31.248  1.00  0.00     0.049 A 
ATOM     57  C   UNL A   1      40.931  31.656  35.602  1.00  0.00     0.074 A 
ATOM     58  C   UNL A   1      42.724  27.332  31.331  1.00  0.00     0.029 A 
ATOM     59  N   UNL A   1      41.708  28.993  32.404  1.00  0.00    -0.354 N 
ATOM     60  N   UNL A   1      41.269  30.837  34.636  1.00  0.00    -0.248 NA
ATOM     61  C   UNL A   1      41.784  31.559  36.797  1.00  0.00     0.031 C 
ATOM     62  C   UNL A   1      43.399  27.559  32.535  1.00  0.00     0.029 A 
ATOM     63  C   UNL A   1      42.767  28.595  33.202  1.00  0.00     0.049 A 
ATOM     64  H   UNL A   1      41.073  29.711  32.624  1.00  0.00     0.167 HD
ATOM     65  C   UNL A   1      42.390  30.152  35.092  1.00  0.00     0.074 A 
ATOM     66  C   UNL A   1      42.687  30.667  36.412  1.00  0.00     0.031 C 
ATOM     67  C   UNL A   1      43.094  29.168  34.481  1.00  0.00     0.034 A 
BRANCH  54  68
ATOM     68  C   UNL A   1      40.827  27.482  28.992  1.00  0.00     0.023 A 
ATOM     69  C   UNL A   1      39.963  26.374  28.893  1.00  0.00     0.012 A 
ATOM     70  C   UNL A   1      41.727  27.755  27.945  1.00  0.00     0.148 A 
ATOM     71  C   UNL A   1      40.007  25.537  27.779  1.00  0.00     0.002 A 
ATOM     72  C   UNL A   1      41.743  26.934  26.822  1.00  0.00     0.091 A 
ATOM     73  F   UNL A   1      42.558  28.801  28.069  1.00  0.00    -0.205 F 
ATOM     74  C   UNL A   1      40.888  25.822  26.740  1.00  0.00     0.022 A 
BRANCH  72  75
ATOM     75  S   UNL A   1      42.798  27.260  25.404  1.00  0.00     0.127 S 
ATOM     76  O   UNL A   1      44.098  27.465  26.045  1.00  0.00    -0.237 OA
ATOM     77  O   UNL A   1      42.688  26.014  24.640  1.00  0.00    -0.237 OA
ATOM     78  O   UNL A   1      42.233  28.425  24.744  1.00  0.00    -0.744 OA
ENDBRANCH  72  75
ENDBRANCH  54  68
BRANCH  55  79
ATOM     79  C   UNL A   1      39.633  33.560  36.818  1.00  0.00     0.023 A 
ATOM     80  C   UNL A   1      38.594  33.269  37.723  1.00  0.00     0.012 A 
ATOM     81  C   UNL A   1      40.481  34.653  37.075  1.00  0.00     0.148 A 
ATOM     82  C   UNL A   1      38.386  34.066  38.849  1.00  0.00     0.002 A 
ATOM     83  C   UNL A   1      40.299  35.414  38.226  1.00  0.00     0.091 A 
ATOM     84  F   UNL A   1      41.453  34.932  36.196  1.00  0.00    -0.205 F 
ATOM     85  C   UNL A   1      39.245  35.131  39.107  1.00  0.00     0.022 A 
BRANCH  83  86
ATOM     86  S   UNL A   1      41.457  36.713  38.678  1.00  0.00     0.127 S 
ATOM     87  O   UNL A   1      40.579  37.698  39.302  1.00  0.00    -0.237 OA
ATOM     88  O   UNL A   1      42.362  36.025  39.599  1.00  0.00    -0.237 OA
ATOM     89  O   UNL A   1      42.082  37.107  37.421  1.00  0.00    -0.744 OA
ENDBRANCH  83  86
ENDBRANCH  55  79
BRANCH  67  90
ATOM     90  C   UNL A   1      44.274  28.594  35.216  1.00  0.00     0.023 A 
ATOM     91  C   UNL A   1      45.558  29.126  34.983  1.00  0.00     0.012 A 
ATOM     92  C   UNL A   1      44.104  27.593  36.191  1.00  0.00     0.148 A 
ATOM     93  C   UNL A   1      46.658  28.657  35.699  1.00  0.00     0.002 A 
ATOM     94  C   UNL A   1      45.200  27.156  36.927  1.00  0.00     0.091 A 
ATOM     95  F   UNL A   1      42.878  27.082  36.380  1.00  0.00    -0.205 F 
ATOM     96  C   UNL A   1      46.478  27.681  36.678  1.00  0.00     0.022 A 
BRANCH  94  97
ATOM     97  S   UNL A   1      45.033  25.963  38.260  1.00  0.00     0.127 S 
ATOM     98  O   UNL A   1      46.412  25.843  38.730  1.00  0.00    -0.237 OA
ATOM     99  O   UNL A   1      44.131  26.648  39.188  1.00  0.00    -0.237 OA
ATOM    100  O   UNL A   1      44.465  24.769  37.648  1.00  0.00    -0.744 OA
ENDBRANCH  94  97
ENDBRANCH  67  90
ENDBRANCH  41  42
ENDBRANCH  33  36
ENDBRANCH  31  32
ENDBRANCH  30  31
ENDBRANCH  29  30
ENDBRANCH   1  29
TORSDOF 19
ENDMDL
