MODEL 1
REMARK VINA RESULT:     -12.0      0.000      0.000
REMARK SMILES Cc1cc(NS(=O)(=O)c2ccc(NC(=O)[C@@H]3CCCC[C@@H]3C(=O)NCCCCCCNC(=O)c3ccc(-c4c5nc(c(-c6cccc(S(=O)(=O)[O-])c6F)c6ccc([nH]6)c(-c6cccc(S(=O)(=O)[O-])c6F)c6nc(c(-c7cccc(S(=O)(=O)[O-])c7F)c7ccc4[nH]7)C=C6)C=C5)cc3)cc2)no1
REMARK SMILES IDX 26 1 25 2 24 3 22 4 23 5 21 7 16 8 17 9 18 10 20 11 19 12
REMARK SMILES IDX 14 13 13 14 15 16 12 17 9 18 10 19 98 20 11 21 97 22 6 23
REMARK SMILES IDX 7 24 8 25 5 26 4 28 1 29 2 30 3 31 100 32 99 33 27 34 28 35
REMARK SMILES IDX 29 36 30 37 31 38 32 39 33 41 34 42 35 43 96 44 36 45 95 46
REMARK SMILES IDX 37 47 38 48 39 49 89 50 40 51 94 52 88 53 90 54 41 55 93 56
REMARK SMILES IDX 87 57 86 58 42 60 74 61 54 62 73 63 55 64 58 65 72 66 91 67
REMARK SMILES IDX 56 68 57 69 71 71 92 72 59 73 43 74 44 75 52 76 45 77 47 78
REMARK SMILES IDX 53 79 46 80 48 81 49 82 50 83 51 84 75 85 76 86 84 87 77 88
REMARK SMILES IDX 79 89 85 90 78 91 80 92 81 93 82 94 83 95 60 96 61 97 69 98
REMARK SMILES IDX 62 99 64 100 70 101 63 102 65 103 66 104 67 105 68 106
REMARK H PARENT 24 6 13 15 5 27 31 40 90 59 58 70
REMARK Flexibility Score: inf
ROOT
ATOM      1  C   UNL A   1      34.447  24.391  23.883  1.00  0.00     0.021 C 
ENDROOT
BRANCH   1   2
ATOM      2  C   UNL A   1      33.895  25.551  24.712  1.00  0.00     0.116 C 
BRANCH   2   3
ATOM      3  N   UNL A   1      34.018  26.816  24.000  1.00  0.00    -0.356 N 
ATOM      4  C   UNL A   1      33.512  28.048  24.283  1.00  0.00     0.223 C 
ATOM      5  O   UNL A   1      33.776  28.972  23.510  1.00  0.00    -0.275 OA
ATOM      6  H   UNL A   1      34.556  26.773  23.178  1.00  0.00     0.163 HD
BRANCH   4   7
ATOM      7  C   UNL A   1      32.667  28.270  25.533  1.00  0.00     0.091 C 
ATOM      8  C   UNL A   1      31.400  29.134  25.324  1.00  0.00     0.091 C 
ATOM      9  C   UNL A   1      31.420  30.598  25.787  1.00  0.00     0.014 C 
ATOM     10  C   UNL A   1      32.349  30.895  26.955  1.00  0.00     0.001 C 
ATOM     11  C   UNL A   1      33.554  28.734  26.699  1.00  0.00     0.014 C 
ATOM     12  C   UNL A   1      33.709  30.243  26.774  1.00  0.00     0.001 C 
BRANCH   8  13
ATOM     13  C   UNL A   1      30.684  28.812  24.008  1.00  0.00     0.228 C 
ATOM     14  N   UNL A   1      30.098  27.654  23.616  1.00  0.00    -0.326 N 
ATOM     15  H   UNL A   1      29.560  27.758  22.798  1.00  0.00     0.169 HD
ATOM     16  O   UNL A   1      30.639  29.718  23.158  1.00  0.00    -0.274 OA
BRANCH  14  17
ATOM     17  C   UNL A   1      30.082  26.345  24.110  1.00  0.00     0.041 A 
ATOM     18  C   UNL A   1      30.762  23.790  24.961  1.00  0.00     0.088 A 
ATOM     19  C   UNL A   1      30.242  24.704  25.880  1.00  0.00     0.024 A 
ATOM     20  C   UNL A   1      30.744  24.073  23.596  1.00  0.00     0.024 A 
ATOM     21  C   UNL A   1      29.882  25.984  25.440  1.00  0.00     0.027 A 
ATOM     22  C   UNL A   1      30.383  25.350  23.172  1.00  0.00     0.027 A 
BRANCH  18  23
ATOM     23  S   UNL A   1      31.564  22.314  25.523  1.00  0.00     0.263 S 
ATOM     24  O   UNL A   1      30.559  21.371  25.971  1.00  0.00    -0.201 OA
ATOM     25  O   UNL A   1      32.630  22.725  26.413  1.00  0.00    -0.201 OA
BRANCH  23  26
ATOM     26  N   UNL A   1      32.330  21.658  24.191  1.00  0.00    -0.261 N 
ATOM     27  H   UNL A   1      32.650  22.293  23.511  1.00  0.00     0.182 HD
BRANCH  26  28
ATOM     28  C   UNL A   1      32.565  20.314  23.941  1.00  0.00     0.183 A 
ATOM     29  C   UNL A   1      34.112  17.013  24.391  1.00  0.00     0.091 C 
ATOM     30  C   UNL A   1      33.423  18.290  24.126  1.00  0.00     0.135 A 
ATOM     31  C   UNL A   1      33.335  19.488  24.791  1.00  0.00     0.096 A 
ATOM     32  O   UNL A   1      32.712  18.376  22.970  1.00  0.00    -0.360 OA
ATOM     33  N   UNL A   1      32.153  19.638  22.869  1.00  0.00    -0.061 NA
ENDBRANCH  26  28
ENDBRANCH  23  26
ENDBRANCH  18  23
ENDBRANCH  14  17
ENDBRANCH   8  13
ENDBRANCH   4   7
ENDBRANCH   2   3
ENDBRANCH   1   2
BRANCH   1  34
ATOM     34  C   UNL A   1      35.778  23.818  24.381  1.00  0.00     0.002 C 
BRANCH  34  35
ATOM     35  C   UNL A   1      35.699  23.020  25.684  1.00  0.00     0.002 C 
BRANCH  35  36
ATOM     36  C   UNL A   1      36.172  21.567  25.593  1.00  0.00     0.021 C 
BRANCH  36  37
ATOM     37  C   UNL A   1      37.440  21.342  24.773  1.00  0.00     0.116 C 
BRANCH  37  38
ATOM     38  N   UNL A   1      38.306  20.326  25.351  1.00  0.00    -0.352 N 
ATOM     39  C   UNL A   1      39.457  20.477  26.086  1.00  0.00     0.251 C 
ATOM     40  H   UNL A   1      38.027  19.396  25.194  1.00  0.00     0.163 HD
ATOM     41  O   UNL A   1      40.142  19.498  26.362  1.00  0.00    -0.269 OA
BRANCH  39  42
ATOM     42  C   UNL A   1      39.881  21.826  26.522  1.00  0.00     0.039 A 
ATOM     43  C   UNL A   1      40.795  21.936  27.573  1.00  0.00     0.014 A 
ATOM     44  C   UNL A   1      39.387  22.973  25.897  1.00  0.00     0.014 A 
ATOM     45  C   UNL A   1      41.267  23.196  27.950  1.00  0.00     0.010 A 
ATOM     46  C   UNL A   1      39.906  24.223  26.231  1.00  0.00     0.010 A 
ATOM     47  C   UNL A   1      40.855  24.347  27.258  1.00  0.00    -0.014 A 
BRANCH  47  48
ATOM     48  C   UNL A   1      41.437  25.679  27.566  1.00  0.00     0.031 A 
ATOM     49  C   UNL A   1      42.845  26.012  27.154  1.00  0.00     0.074 A 
ATOM     50  C   UNL A   1      40.725  26.557  28.299  1.00  0.00     0.049 A 
ATOM     51  N   UNL A   1      43.530  27.104  27.377  1.00  0.00    -0.248 NA
ATOM     52  C   UNL A   1      43.590  24.977  26.418  1.00  0.00     0.031 C 
ATOM     53  C   UNL A   1      39.379  26.319  28.828  1.00  0.00     0.029 A 
ATOM     54  N   UNL A   1      41.040  27.814  28.750  1.00  0.00    -0.354 N 
ATOM     55  C   UNL A   1      44.793  26.877  26.841  1.00  0.00     0.074 A 
ATOM     56  C   UNL A   1      44.788  25.533  26.305  1.00  0.00     0.031 C 
ATOM     57  C   UNL A   1      38.987  27.395  29.530  1.00  0.00     0.029 A 
ATOM     58  C   UNL A   1      40.057  28.386  29.524  1.00  0.00     0.049 A 
ATOM     59  H   UNL A   1      41.891  28.263  28.540  1.00  0.00     0.167 HD
ATOM     60  C   UNL A   1      45.850  27.720  26.778  1.00  0.00     0.034 A 
ATOM     61  C   UNL A   1      40.022  29.572  30.163  1.00  0.00     0.034 A 
ATOM     62  C   UNL A   1      45.837  29.072  27.270  1.00  0.00     0.049 A 
ATOM     63  C   UNL A   1      41.196  30.506  30.037  1.00  0.00     0.074 A 
ATOM     64  C   UNL A   1      46.823  30.037  27.159  1.00  0.00     0.029 A 
ATOM     65  N   UNL A   1      44.791  29.649  27.973  1.00  0.00    -0.354 N 
ATOM     66  N   UNL A   1      42.315  30.340  29.374  1.00  0.00    -0.248 NA
ATOM     67  C   UNL A   1      41.090  31.803  30.719  1.00  0.00     0.031 C 
ATOM     68  C   UNL A   1      46.381  31.191  27.815  1.00  0.00     0.029 A 
ATOM     69  C   UNL A   1      45.112  30.952  28.315  1.00  0.00     0.049 A 
ATOM     70  H   UNL A   1      43.944  29.199  28.196  1.00  0.00     0.167 HD
ATOM     71  C   UNL A   1      43.030  31.521  29.530  1.00  0.00     0.074 A 
ATOM     72  C   UNL A   1      42.207  32.405  30.331  1.00  0.00     0.031 C 
ATOM     73  C   UNL A   1      44.263  31.840  29.067  1.00  0.00     0.034 A 
BRANCH  60  74
ATOM     74  C   UNL A   1      47.101  27.230  26.096  1.00  0.00     0.023 A 
ATOM     75  C   UNL A   1      47.279  27.473  24.719  1.00  0.00     0.012 A 
ATOM     76  C   UNL A   1      48.130  26.602  26.826  1.00  0.00     0.148 A 
ATOM     77  C   UNL A   1      48.448  27.074  24.072  1.00  0.00     0.002 A 
ATOM     78  C   UNL A   1      49.309  26.243  26.183  1.00  0.00     0.091 A 
ATOM     79  F   UNL A   1      47.933  26.360  28.130  1.00  0.00    -0.205 F 
ATOM     80  C   UNL A   1      49.466  26.470  24.806  1.00  0.00     0.022 A 
BRANCH  78  81
ATOM     81  S   UNL A   1      50.710  25.530  27.054  1.00  0.00     0.127 S 
ATOM     82  O   UNL A   1      51.064  26.610  27.976  1.00  0.00    -0.237 OA
ATOM     83  O   UNL A   1      50.112  24.356  27.690  1.00  0.00    -0.237 OA
ATOM     84  O   UNL A   1      51.704  25.228  26.033  1.00  0.00    -0.744 OA
ENDBRANCH  78  81
ENDBRANCH  60  74
BRANCH  61  85
ATOM     85  C   UNL A   1      38.804  29.976  30.920  1.00  0.00     0.023 A 
ATOM     86  C   UNL A   1      38.622  29.499  32.235  1.00  0.00     0.012 A 
ATOM     87  C   UNL A   1      37.843  30.842  30.365  1.00  0.00     0.148 A 
ATOM     88  C   UNL A   1      37.490  29.854  32.968  1.00  0.00     0.002 A 
ATOM     89  C   UNL A   1      36.746  31.235  31.123  1.00  0.00     0.091 A 
ATOM     90  F   UNL A   1      38.026  31.273  29.109  1.00  0.00    -0.205 F 
ATOM     91  C   UNL A   1      36.558  30.729  32.418  1.00  0.00     0.022 A 
BRANCH  89  92
ATOM     92  S   UNL A   1      35.569  32.461  30.540  1.00  0.00     0.127 S 
ATOM     93  O   UNL A   1      34.533  32.394  31.568  1.00  0.00    -0.237 OA
ATOM     94  O   UNL A   1      36.371  33.684  30.553  1.00  0.00    -0.237 OA
ATOM     95  O   UNL A   1      35.174  32.021  29.208  1.00  0.00    -0.744 OA
ENDBRANCH  89  92
ENDBRANCH  61  85
BRANCH  73  96
ATOM     96  C   UNL A   1      44.797  33.211  29.390  1.00  0.00     0.023 A 
ATOM     97  C   UNL A   1      45.502  33.419  30.592  1.00  0.00     0.012 A 
ATOM     98  C   UNL A   1      44.665  34.272  28.473  1.00  0.00     0.148 A 
ATOM     99  C   UNL A   1      46.040  34.670  30.891  1.00  0.00     0.002 A 
ATOM    100  C   UNL A   1      45.245  35.503  28.756  1.00  0.00     0.091 A 
ATOM    101  F   UNL A   1      43.975  34.061  27.343  1.00  0.00    -0.205 F 
ATOM    102  C   UNL A   1      45.922  35.707  29.969  1.00  0.00     0.022 A 
BRANCH 100 103
ATOM    103  S   UNL A   1      45.223  36.868  27.588  1.00  0.00     0.127 S 
ATOM    104  O   UNL A   1      46.062  37.855  28.266  1.00  0.00    -0.237 OA
ATOM    105  O   UNL A   1      45.828  36.269  26.397  1.00  0.00    -0.237 OA
ATOM    106  O   UNL A   1      43.823  37.238  27.430  1.00  0.00    -0.744 OA
ENDBRANCH 100 103
ENDBRANCH  73  96
ENDBRANCH  47  48
ENDBRANCH  39  42
ENDBRANCH  37  38
ENDBRANCH  36  37
ENDBRANCH  35  36
ENDBRANCH  34  35
ENDBRANCH   1  34
TORSDOF 21
ENDMDL
MODEL 2
REMARK VINA RESULT:     -12.0      1.878      2.148
REMARK SMILES Cc1cc(NS(=O)(=O)c2ccc(NC(=O)[C@@H]3CCCC[C@@H]3C(=O)NCCCCCCNC(=O)c3ccc(-c4c5nc(c(-c6cccc(S(=O)(=O)[O-])c6F)c6ccc([nH]6)c(-c6cccc(S(=O)(=O)[O-])c6F)c6nc(c(-c7cccc(S(=O)(=O)[O-])c7F)c7ccc4[nH]7)C=C6)C=C5)cc3)cc2)no1
REMARK SMILES IDX 26 1 25 2 24 3 22 4 23 5 21 7 16 8 17 9 18 10 20 11 19 12
REMARK SMILES IDX 14 13 13 14 15 16 12 17 9 18 10 19 98 20 11 21 97 22 6 23
REMARK SMILES IDX 7 24 8 25 5 26 4 28 1 29 2 30 3 31 100 32 99 33 27 34 28 35
REMARK SMILES IDX 29 36 30 37 31 38 32 39 33 41 34 42 35 43 96 44 36 45 95 46
REMARK SMILES IDX 37 47 38 48 39 49 89 50 40 51 94 52 88 53 90 54 41 55 93 56
REMARK SMILES IDX 87 57 86 58 42 60 74 61 54 62 73 63 55 64 58 65 72 66 91 67
REMARK SMILES IDX 56 68 57 69 71 71 92 72 59 73 43 74 44 75 52 76 45 77 47 78
REMARK SMILES IDX 53 79 46 80 48 81 49 82 50 83 51 84 75 85 76 86 84 87 77 88
REMARK SMILES IDX 79 89 85 90 78 91 80 92 81 93 82 94 83 95 60 96 61 97 69 98
REMARK SMILES IDX 62 99 64 100 70 101 63 102 65 103 66 104 67 105 68 106
REMARK H PARENT 24 6 13 15 5 27 31 40 90 59 58 70
REMARK Flexibility Score: inf
ROOT
ATOM      1  C   UNL A   1      33.965  24.379  22.718  1.00  0.00     0.021 C 
ENDROOT
BRANCH   1   2
ATOM      2  C   UNL A   1      34.038  25.355  23.893  1.00  0.00     0.116 C 
BRANCH   2   3
ATOM      3  N   UNL A   1      34.087  26.736  23.432  1.00  0.00    -0.356 N 
ATOM      4  C   UNL A   1      33.684  27.890  24.032  1.00  0.00     0.223 C 
ATOM      5  O   UNL A   1      33.850  28.948  23.421  1.00  0.00    -0.275 OA
ATOM      6  H   UNL A   1      34.479  26.856  22.537  1.00  0.00     0.163 HD
BRANCH   4   7
ATOM      7  C   UNL A   1      33.068  27.861  25.427  1.00  0.00     0.091 C 
ATOM      8  C   UNL A   1      31.707  28.586  25.558  1.00  0.00     0.091 C 
ATOM      9  C   UNL A   1      31.670  29.977  26.206  1.00  0.00     0.014 C 
ATOM     10  C   UNL A   1      32.767  30.246  27.226  1.00  0.00     0.001 C 
ATOM     11  C   UNL A   1      34.107  28.290  26.475  1.00  0.00     0.014 C 
ATOM     12  C   UNL A   1      34.126  29.788  26.726  1.00  0.00     0.001 C 
BRANCH   8  13
ATOM     13  C   UNL A   1      30.793  28.335  24.354  1.00  0.00     0.228 C 
ATOM     14  N   UNL A   1      30.179  27.187  23.973  1.00  0.00    -0.326 N 
ATOM     15  H   UNL A   1      29.512  27.331  23.262  1.00  0.00     0.169 HD
ATOM     16  O   UNL A   1      30.588  29.298  23.595  1.00  0.00    -0.274 OA
BRANCH  14  17
ATOM     17  C   UNL A   1      30.276  25.846  24.359  1.00  0.00     0.041 A 
ATOM     18  C   UNL A   1      31.123  23.243  24.824  1.00  0.00     0.088 A 
ATOM     19  C   UNL A   1      30.863  24.083  25.908  1.00  0.00     0.024 A 
ATOM     20  C   UNL A   1      30.764  23.623  23.532  1.00  0.00     0.024 A 
ATOM     21  C   UNL A   1      30.415  25.388  25.667  1.00  0.00     0.027 A 
ATOM     22  C   UNL A   1      30.319  24.924  23.307  1.00  0.00     0.027 A 
BRANCH  18  23
ATOM     23  S   UNL A   1      32.027  21.737  25.057  1.00  0.00     0.263 S 
ATOM     24  O   UNL A   1      31.264  20.857  25.920  1.00  0.00    -0.201 OA
ATOM     25  O   UNL A   1      33.383  22.107  25.405  1.00  0.00    -0.201 OA
BRANCH  23  26
ATOM     26  N   UNL A   1      32.139  21.017  23.554  1.00  0.00    -0.261 N 
ATOM     27  H   UNL A   1      31.979  21.598  22.775  1.00  0.00     0.182 HD
BRANCH  26  28
ATOM     28  C   UNL A   1      32.433  19.689  23.284  1.00  0.00     0.183 A 
ATOM     29  C   UNL A   1      33.994  16.402  23.793  1.00  0.00     0.091 C 
ATOM     30  C   UNL A   1      33.311  17.675  23.495  1.00  0.00     0.135 A 
ATOM     31  C   UNL A   1      33.116  18.844  24.188  1.00  0.00     0.096 A 
ATOM     32  O   UNL A   1      32.740  17.793  22.266  1.00  0.00    -0.360 OA
ATOM     33  N   UNL A   1      32.167  19.048  22.146  1.00  0.00    -0.061 NA
ENDBRANCH  26  28
ENDBRANCH  23  26
ENDBRANCH  18  23
ENDBRANCH  14  17
ENDBRANCH   8  13
ENDBRANCH   4   7
ENDBRANCH   2   3
ENDBRANCH   1   2
BRANCH   1  34
ATOM     34  C   UNL A   1      34.932  23.194  22.804  1.00  0.00     0.002 C 
BRANCH  34  35
ATOM     35  C   UNL A   1      36.154  23.411  23.697  1.00  0.00     0.002 C 
BRANCH  35  36
ATOM     36  C   UNL A   1      36.920  22.142  24.081  1.00  0.00     0.021 C 
BRANCH  36  37
ATOM     37  C   UNL A   1      37.204  21.975  25.572  1.00  0.00     0.116 C 
BRANCH  37  38
ATOM     38  N   UNL A   1      38.270  21.020  25.833  1.00  0.00    -0.352 N 
ATOM     39  C   UNL A   1      39.542  21.240  26.301  1.00  0.00     0.251 C 
ATOM     40  H   UNL A   1      38.046  20.079  25.648  1.00  0.00     0.163 HD
ATOM     41  O   UNL A   1      40.359  20.324  26.314  1.00  0.00    -0.269 OA
BRANCH  39  42
ATOM     42  C   UNL A   1      39.934  22.588  26.765  1.00  0.00     0.039 A 
ATOM     43  C   UNL A   1      40.873  22.699  27.794  1.00  0.00     0.014 A 
ATOM     44  C   UNL A   1      39.385  23.736  26.188  1.00  0.00     0.014 A 
ATOM     45  C   UNL A   1      41.314  23.962  28.195  1.00  0.00     0.010 A 
ATOM     46  C   UNL A   1      39.871  24.992  26.545  1.00  0.00     0.010 A 
ATOM     47  C   UNL A   1      40.844  25.119  27.550  1.00  0.00    -0.014 A 
BRANCH  47  48
ATOM     48  C   UNL A   1      41.391  26.460  27.881  1.00  0.00     0.031 A 
ATOM     49  C   UNL A   1      42.803  26.822  27.514  1.00  0.00     0.074 A 
ATOM     50  C   UNL A   1      40.639  27.320  28.596  1.00  0.00     0.049 A 
ATOM     51  N   UNL A   1      43.460  27.926  27.762  1.00  0.00    -0.248 NA
ATOM     52  C   UNL A   1      43.590  25.807  26.796  1.00  0.00     0.031 C 
ATOM     53  C   UNL A   1      39.283  27.053  29.084  1.00  0.00     0.029 A 
ATOM     54  N   UNL A   1      40.916  28.581  29.063  1.00  0.00    -0.354 N 
ATOM     55  C   UNL A   1      44.742  27.727  27.264  1.00  0.00     0.074 A 
ATOM     56  C   UNL A   1      44.780  26.387  26.722  1.00  0.00     0.031 C 
ATOM     57  C   UNL A   1      38.849  28.117  29.778  1.00  0.00     0.029 A 
ATOM     58  C   UNL A   1      39.899  29.130  29.809  1.00  0.00     0.049 A 
ATOM     59  H   UNL A   1      41.764  29.048  28.881  1.00  0.00     0.167 HD
ATOM     60  C   UNL A   1      45.784  28.592  27.236  1.00  0.00     0.034 A 
ATOM     61  C   UNL A   1      39.822  30.311  30.452  1.00  0.00     0.034 A 
ATOM     62  C   UNL A   1      45.729  29.940  27.734  1.00  0.00     0.049 A 
ATOM     63  C   UNL A   1      40.980  31.268  30.366  1.00  0.00     0.074 A 
ATOM     64  C   UNL A   1      46.699  30.925  27.658  1.00  0.00     0.029 A 
ATOM     65  N   UNL A   1      44.651  30.493  28.408  1.00  0.00    -0.354 N 
ATOM     66  N   UNL A   1      42.121  31.128  29.736  1.00  0.00    -0.248 NA
ATOM     67  C   UNL A   1      40.828  32.560  31.051  1.00  0.00     0.031 C 
ATOM     68  C   UNL A   1      46.215  32.067  28.305  1.00  0.00     0.029 A 
ATOM     69  C   UNL A   1      44.936  31.800  28.765  1.00  0.00     0.049 A 
ATOM     70  H   UNL A   1      43.807  30.025  28.603  1.00  0.00     0.167 HD
ATOM     71  C   UNL A   1      42.808  32.322  29.919  1.00  0.00     0.074 A 
ATOM     72  C   UNL A   1      41.944  33.185  30.699  1.00  0.00     0.031 C 
ATOM     73  C   UNL A   1      44.048  32.668  29.495  1.00  0.00     0.034 A 
BRANCH  60  74
ATOM     74  C   UNL A   1      47.065  28.130  26.590  1.00  0.00     0.023 A 
ATOM     75  C   UNL A   1      48.113  27.646  27.399  1.00  0.00     0.012 A 
ATOM     76  C   UNL A   1      47.203  28.101  25.188  1.00  0.00     0.148 A 
ATOM     77  C   UNL A   1      49.290  27.167  26.825  1.00  0.00     0.002 A 
ATOM     78  C   UNL A   1      48.363  27.584  24.622  1.00  0.00     0.091 A 
ATOM     79  F   UNL A   1      46.204  28.585  24.436  1.00  0.00    -0.205 F 
ATOM     80  C   UNL A   1      49.410  27.126  25.439  1.00  0.00     0.022 A 
BRANCH  78  81
ATOM     81  S   UNL A   1      48.585  27.416  22.847  1.00  0.00     0.127 S 
ATOM     82  O   UNL A   1      47.480  28.224  22.334  1.00  0.00    -0.237 OA
ATOM     83  O   UNL A   1      49.912  27.999  22.646  1.00  0.00    -0.237 OA
ATOM     84  O   UNL A   1      48.500  25.989  22.566  1.00  0.00    -0.744 OA
ENDBRANCH  78  81
ENDBRANCH  60  74
BRANCH  61  85
ATOM     85  C   UNL A   1      38.573  30.687  31.174  1.00  0.00     0.023 A 
ATOM     86  C   UNL A   1      38.438  30.348  32.536  1.00  0.00     0.012 A 
ATOM     87  C   UNL A   1      37.537  31.395  30.536  1.00  0.00     0.148 A 
ATOM     88  C   UNL A   1      37.280  30.681  33.239  1.00  0.00     0.002 A 
ATOM     89  C   UNL A   1      36.410  31.770  31.259  1.00  0.00     0.091 A 
ATOM     90  F   UNL A   1      37.677  31.695  29.238  1.00  0.00    -0.205 F 
ATOM     91  C   UNL A   1      36.271  31.400  32.605  1.00  0.00     0.022 A 
BRANCH  89  92
ATOM     92  S   UNL A   1      35.125  32.812  30.556  1.00  0.00     0.127 S 
ATOM     93  O   UNL A   1      34.201  32.946  31.679  1.00  0.00    -0.237 OA
ATOM     94  O   UNL A   1      35.867  34.027  30.221  1.00  0.00    -0.237 OA
ATOM     95  O   UNL A   1      34.621  32.082  29.400  1.00  0.00    -0.744 OA
ENDBRANCH  89  92
ENDBRANCH  61  85
BRANCH  73  96
ATOM     96  C   UNL A   1      44.545  34.047  29.841  1.00  0.00     0.023 A 
ATOM     97  C   UNL A   1      44.287  35.120  28.965  1.00  0.00     0.012 A 
ATOM     98  C   UNL A   1      45.202  34.293  31.062  1.00  0.00     0.148 A 
ATOM     99  C   UNL A   1      44.703  36.412  29.286  1.00  0.00     0.002 A 
ATOM    100  C   UNL A   1      45.572  35.590  31.396  1.00  0.00     0.091 A 
ATOM    101  F   UNL A   1      45.457  33.256  31.874  1.00  0.00    -0.205 F 
ATOM    102  C   UNL A   1      45.334  36.648  30.504  1.00  0.00     0.022 A 
BRANCH 100 103
ATOM    103  S   UNL A   1      46.305  36.003  32.984  1.00  0.00     0.127 S 
ATOM    104  O   UNL A   1      46.426  37.457  32.889  1.00  0.00    -0.237 OA
ATOM    105  O   UNL A   1      45.288  35.536  33.928  1.00  0.00    -0.237 OA
ATOM    106  O   UNL A   1      47.564  35.272  33.045  1.00  0.00    -0.744 OA
ENDBRANCH 100 103
ENDBRANCH  73  96
ENDBRANCH  47  48
ENDBRANCH  39  42
ENDBRANCH  37  38
ENDBRANCH  36  37
ENDBRANCH  35  36
ENDBRANCH  34  35
ENDBRANCH   1  34
TORSDOF 21
ENDMDL
MODEL 3
REMARK VINA RESULT:     -11.7      0.613      7.329
REMARK SMILES Cc1cc(NS(=O)(=O)c2ccc(NC(=O)[C@@H]3CCCC[C@@H]3C(=O)NCCCCCCNC(=O)c3ccc(-c4c5nc(c(-c6cccc(S(=O)(=O)[O-])c6F)c6ccc([nH]6)c(-c6cccc(S(=O)(=O)[O-])c6F)c6nc(c(-c7cccc(S(=O)(=O)[O-])c7F)c7ccc4[nH]7)C=C6)C=C5)cc3)cc2)no1
REMARK SMILES IDX 26 1 25 2 24 3 22 4 23 5 21 7 16 8 17 9 18 10 20 11 19 12
REMARK SMILES IDX 14 13 13 14 15 16 12 17 9 18 10 19 98 20 11 21 97 22 6 23
REMARK SMILES IDX 7 24 8 25 5 26 4 28 1 29 2 30 3 31 100 32 99 33 27 34 28 35
REMARK SMILES IDX 29 36 30 37 31 38 32 39 33 41 34 42 35 43 96 44 36 45 95 46
REMARK SMILES IDX 37 47 38 48 39 49 89 50 40 51 94 52 88 53 90 54 41 55 93 56
REMARK SMILES IDX 87 57 86 58 42 60 74 61 54 62 73 63 55 64 58 65 72 66 91 67
REMARK SMILES IDX 56 68 57 69 71 71 92 72 59 73 43 74 44 75 52 76 45 77 47 78
REMARK SMILES IDX 53 79 46 80 48 81 49 82 50 83 51 84 75 85 76 86 84 87 77 88
REMARK SMILES IDX 79 89 85 90 78 91 80 92 81 93 82 94 83 95 60 96 61 97 69 98
REMARK SMILES IDX 62 99 64 100 70 101 63 102 65 103 66 104 67 105 68 106
REMARK H PARENT 24 6 13 15 5 27 31 40 90 59 58 70
REMARK Flexibility Score: inf
ROOT
ATOM      1  C   UNL A   1      33.756  24.570  22.608  1.00  0.00     0.021 C 
ENDROOT
BRANCH   1   2
ATOM      2  C   UNL A   1      33.924  25.575  23.748  1.00  0.00     0.116 C 
BRANCH   2   3
ATOM      3  N   UNL A   1      33.950  26.943  23.248  1.00  0.00    -0.356 N 
ATOM      4  C   UNL A   1      33.544  28.109  23.823  1.00  0.00     0.223 C 
ATOM      5  O   UNL A   1      33.687  29.151  23.180  1.00  0.00    -0.275 OA
ATOM      6  H   UNL A   1      34.323  27.042  22.343  1.00  0.00     0.163 HD
BRANCH   4   7
ATOM      7  C   UNL A   1      32.954  28.113  25.230  1.00  0.00     0.091 C 
ATOM      8  C   UNL A   1      31.575  28.802  25.362  1.00  0.00     0.091 C 
ATOM      9  C   UNL A   1      31.509  30.214  25.960  1.00  0.00     0.014 C 
ATOM     10  C   UNL A   1      32.615  30.551  26.949  1.00  0.00     0.001 C 
ATOM     11  C   UNL A   1      33.999  28.609  26.242  1.00  0.00     0.014 C 
ATOM     12  C   UNL A   1      33.979  30.115  26.440  1.00  0.00     0.001 C 
BRANCH   8  13
ATOM     13  C   UNL A   1      30.648  28.482  24.185  1.00  0.00     0.228 C 
ATOM     14  N   UNL A   1      30.024  27.316  23.881  1.00  0.00    -0.326 N 
ATOM     15  H   UNL A   1      29.351  27.420  23.170  1.00  0.00     0.169 HD
ATOM     16  O   UNL A   1      30.439  29.397  23.370  1.00  0.00    -0.274 OA
BRANCH  14  17
ATOM     17  C   UNL A   1      30.119  26.001  24.349  1.00  0.00     0.041 A 
ATOM     18  C   UNL A   1      30.968  23.435  24.986  1.00  0.00     0.088 A 
ATOM     19  C   UNL A   1      30.680  24.337  26.012  1.00  0.00     0.024 A 
ATOM     20  C   UNL A   1      30.635  23.736  23.666  1.00  0.00     0.024 A 
ATOM     21  C   UNL A   1      30.232  25.623  25.684  1.00  0.00     0.027 A 
ATOM     22  C   UNL A   1      30.190  25.018  23.354  1.00  0.00     0.027 A 
BRANCH  18  23
ATOM     23  S   UNL A   1      31.873  21.951  25.328  1.00  0.00     0.263 S 
ATOM     24  O   UNL A   1      31.041  21.058  26.108  1.00  0.00    -0.201 OA
ATOM     25  O   UNL A   1      33.175  22.353  25.820  1.00  0.00    -0.201 OA
BRANCH  23  26
ATOM     26  N   UNL A   1      32.166  21.227  23.851  1.00  0.00    -0.261 N 
ATOM     27  H   UNL A   1      32.067  21.797  23.055  1.00  0.00     0.182 HD
BRANCH  26  28
ATOM     28  C   UNL A   1      32.534  19.909  23.626  1.00  0.00     0.183 A 
ATOM     29  C   UNL A   1      34.386  16.780  24.151  1.00  0.00     0.091 C 
ATOM     30  C   UNL A   1      33.580  17.980  23.856  1.00  0.00     0.135 A 
ATOM     31  C   UNL A   1      33.366  19.173  24.500  1.00  0.00     0.096 A 
ATOM     32  O   UNL A   1      32.883  17.980  22.689  1.00  0.00    -0.360 OA
ATOM     33  N   UNL A   1      32.206  19.180  22.559  1.00  0.00    -0.061 NA
ENDBRANCH  26  28
ENDBRANCH  23  26
ENDBRANCH  18  23
ENDBRANCH  14  17
ENDBRANCH   8  13
ENDBRANCH   4   7
ENDBRANCH   2   3
ENDBRANCH   1   2
BRANCH   1  34
ATOM     34  C   UNL A   1      34.668  23.341  22.693  1.00  0.00     0.002 C 
BRANCH  34  35
ATOM     35  C   UNL A   1      35.770  23.417  23.750  1.00  0.00     0.002 C 
BRANCH  35  36
ATOM     36  C   UNL A   1      36.559  22.123  23.969  1.00  0.00     0.021 C 
BRANCH  36  37
ATOM     37  C   UNL A   1      36.783  21.733  25.428  1.00  0.00     0.116 C 
BRANCH  37  38
ATOM     38  N   UNL A   1      37.772  20.677  25.578  1.00  0.00    -0.352 N 
ATOM     39  C   UNL A   1      39.080  20.761  25.990  1.00  0.00     0.251 C 
ATOM     40  H   UNL A   1      37.459  19.772  25.352  1.00  0.00     0.163 HD
ATOM     41  O   UNL A   1      39.814  19.781  25.907  1.00  0.00    -0.269 OA
BRANCH  39  42
ATOM     42  C   UNL A   1      39.609  22.041  26.509  1.00  0.00     0.039 A 
ATOM     43  C   UNL A   1      40.613  22.009  27.481  1.00  0.00     0.014 A 
ATOM     44  C   UNL A   1      39.124  23.264  26.039  1.00  0.00     0.014 A 
ATOM     45  C   UNL A   1      41.180  23.204  27.929  1.00  0.00     0.010 A 
ATOM     46  C   UNL A   1      39.733  24.451  26.440  1.00  0.00     0.010 A 
ATOM     47  C   UNL A   1      40.770  24.434  27.386  1.00  0.00    -0.014 A 
BRANCH  47  48
ATOM     48  C   UNL A   1      41.445  25.703  27.763  1.00  0.00     0.031 A 
ATOM     49  C   UNL A   1      40.699  26.773  28.512  1.00  0.00     0.074 A 
ATOM     50  C   UNL A   1      42.707  25.928  27.348  1.00  0.00     0.049 A 
ATOM     51  N   UNL A   1      41.113  27.958  28.883  1.00  0.00    -0.248 NA
ATOM     52  C   UNL A   1      39.301  26.488  28.871  1.00  0.00     0.031 C 
ATOM     53  C   UNL A   1      43.509  25.002  26.543  1.00  0.00     0.029 A 
ATOM     54  N   UNL A   1      43.529  27.014  27.518  1.00  0.00    -0.354 N 
ATOM     55  C   UNL A   1      40.021  28.571  29.486  1.00  0.00     0.074 A 
ATOM     56  C   UNL A   1      38.918  27.638  29.409  1.00  0.00     0.031 C 
ATOM     57  C   UNL A   1      44.704  25.559  26.293  1.00  0.00     0.029 A 
ATOM     58  C   UNL A   1      44.748  26.888  26.893  1.00  0.00     0.049 A 
ATOM     59  H   UNL A   1      43.270  27.808  28.038  1.00  0.00     0.167 HD
ATOM     60  C   UNL A   1      39.951  29.789  30.074  1.00  0.00     0.034 A 
ATOM     61  C   UNL A   1      45.782  27.747  26.806  1.00  0.00     0.034 A 
ATOM     62  C   UNL A   1      41.062  30.696  30.190  1.00  0.00     0.049 A 
ATOM     63  C   UNL A   1      45.691  29.076  27.507  1.00  0.00     0.074 A 
ATOM     64  C   UNL A   1      41.117  31.906  30.859  1.00  0.00     0.029 A 
ATOM     65  N   UNL A   1      42.310  30.497  29.620  1.00  0.00    -0.354 N 
ATOM     66  N   UNL A   1      44.708  29.564  28.225  1.00  0.00    -0.248 NA
ATOM     67  C   UNL A   1      46.862  29.958  27.416  1.00  0.00     0.031 C 
ATOM     68  C   UNL A   1      42.393  32.450  30.674  1.00  0.00     0.029 A 
ATOM     69  C   UNL A   1      43.138  31.569  29.908  1.00  0.00     0.049 A 
ATOM     70  H   UNL A   1      42.569  29.710  29.088  1.00  0.00     0.167 HD
ATOM     71  C   UNL A   1      45.154  30.792  28.698  1.00  0.00     0.074 A 
ATOM     72  C   UNL A   1      46.506  30.963  28.204  1.00  0.00     0.031 C 
ATOM     73  C   UNL A   1      44.499  31.704  29.456  1.00  0.00     0.034 A 
BRANCH  60  74
ATOM     74  C   UNL A   1      38.641  30.195  30.697  1.00  0.00     0.023 A 
ATOM     75  C   UNL A   1      38.306  29.716  31.980  1.00  0.00     0.012 A 
ATOM     76  C   UNL A   1      37.780  31.106  30.053  1.00  0.00     0.148 A 
ATOM     77  C   UNL A   1      37.123  30.113  32.601  1.00  0.00     0.002 A 
ATOM     78  C   UNL A   1      36.623  31.530  30.696  1.00  0.00     0.091 A 
ATOM     79  F   UNL A   1      38.105  31.534  28.825  1.00  0.00    -0.205 F 
ATOM     80  C   UNL A   1      36.288  31.028  31.965  1.00  0.00     0.022 A 
BRANCH  78  81
ATOM     81  S   UNL A   1      35.520  32.764  29.995  1.00  0.00     0.127 S 
ATOM     82  O   UNL A   1      36.414  33.913  29.857  1.00  0.00    -0.237 OA
ATOM     83  O   UNL A   1      35.127  32.142  28.730  1.00  0.00    -0.237 OA
ATOM     84  O   UNL A   1      34.437  32.925  30.955  1.00  0.00    -0.744 OA
ENDBRANCH  78  81
ENDBRANCH  60  74
BRANCH  61  85
ATOM     85  C   UNL A   1      47.024  27.349  26.085  1.00  0.00     0.023 A 
ATOM     86  C   UNL A   1      47.159  27.669  24.719  1.00  0.00     0.012 A 
ATOM     87  C   UNL A   1      48.077  26.684  26.742  1.00  0.00     0.148 A 
ATOM     88  C   UNL A   1      48.307  27.304  24.014  1.00  0.00     0.002 A 
ATOM     89  C   UNL A   1      49.240  26.374  26.046  1.00  0.00     0.091 A 
ATOM     90  F   UNL A   1      47.925  26.375  28.037  1.00  0.00    -0.205 F 
ATOM     91  C   UNL A   1      49.350  26.668  24.678  1.00  0.00     0.022 A 
BRANCH  89  92
ATOM     92  S   UNL A   1      50.684  25.675  26.855  1.00  0.00     0.127 S 
ATOM     93  O   UNL A   1      51.609  25.520  25.736  1.00  0.00    -0.237 OA
ATOM     94  O   UNL A   1      51.039  26.727  27.808  1.00  0.00    -0.237 OA
ATOM     95  O   UNL A   1      50.223  24.440  27.476  1.00  0.00    -0.744 OA
ENDBRANCH  89  92
ENDBRANCH  61  85
BRANCH  73  96
ATOM     96  C   UNL A   1      45.236  32.964  29.827  1.00  0.00     0.023 A 
ATOM     97  C   UNL A   1      45.817  33.082  31.105  1.00  0.00     0.012 A 
ATOM     98  C   UNL A   1      45.416  33.998  28.888  1.00  0.00     0.148 A 
ATOM     99  C   UNL A   1      46.539  34.223  31.453  1.00  0.00     0.002 A 
ATOM    100  C   UNL A   1      46.176  35.112  29.225  1.00  0.00     0.091 A 
ATOM    101  F   UNL A   1      44.840  33.877  27.682  1.00  0.00    -0.205 F 
ATOM    102  C   UNL A   1      46.728  35.231  30.511  1.00  0.00     0.022 A 
BRANCH 100 103
ATOM    103  S   UNL A   1      46.550  36.415  28.047  1.00  0.00     0.127 S 
ATOM    104  O   UNL A   1      47.515  37.223  28.791  1.00  0.00    -0.237 OA
ATOM    105  O   UNL A   1      47.119  35.667  26.924  1.00  0.00    -0.237 OA
ATOM    106  O   UNL A   1      45.281  37.066  27.754  1.00  0.00    -0.744 OA
ENDBRANCH 100 103
ENDBRANCH  73  96
ENDBRANCH  47  48
ENDBRANCH  39  42
ENDBRANCH  37  38
ENDBRANCH  36  37
ENDBRANCH  35  36
ENDBRANCH  34  35
ENDBRANCH   1  34
TORSDOF 21
ENDMDL
