MODEL 1
REMARK VINA RESULT:     -10.2      0.000      0.000
REMARK SMILES CCCO[C@@H]1CCC[N@@H+]([C@@H]2CC[C@]([NH2+]C)(C(=O)NCCCCCCNC(=O)c3ccc(-c4c5nc(c(-c6cccc(S(=O)(=O)[O-])c6F)c6ccc([nH]6)c(-c6cccc(S(=O)(=O)[O-])c6F)c6nc(c(-c7cccc(S(=O)(=O)[O-])c7F)c7ccc4[nH]7)C=C6)C=C5)cc3)C2)C1
REMARK SMILES IDX 21 1 20 2 19 3 18 4 16 5 17 6 13 8 10 9 11 10 91 11 12 12
REMARK SMILES IDX 9 13 5 14 6 15 92 16 7 17 8 18 4 20 3 21 2 22 1 23 14 24
REMARK SMILES IDX 15 25 22 28 23 29 24 30 25 31 26 32 27 34 28 35 29 36 90 37
REMARK SMILES IDX 30 38 89 39 31 40 32 41 33 42 83 43 34 44 88 45 82 46 84 47
REMARK SMILES IDX 35 48 87 49 81 50 80 51 36 53 68 54 48 55 67 56 49 57 52 58
REMARK SMILES IDX 66 59 85 60 50 61 51 62 65 64 86 65 53 66 37 67 38 68 46 69
REMARK SMILES IDX 39 70 41 71 47 72 40 73 42 74 43 75 44 76 45 77 69 78 70 79
REMARK SMILES IDX 78 80 71 81 73 82 79 83 72 84 74 85 75 86 76 87 77 88 54 89
REMARK SMILES IDX 55 90 63 91 56 92 58 93 64 94 57 95 59 96 60 97 61 98 62 99
REMARK H PARENT 18 7 9 19 14 26 14 27 25 33 84 52 52 63
REMARK Flexibility Score: inf
ROOT
ATOM      1  C   UNL A   1      31.641  26.526  26.292  1.00  0.00     0.002 C 
ENDROOT
BRANCH   1   2
ATOM      2  C   UNL A   1      30.555  25.579  25.778  1.00  0.00     0.021 C 
BRANCH   2   3
ATOM      3  C   UNL A   1      31.007  24.129  25.614  1.00  0.00     0.116 C 
BRANCH   3   4
ATOM      4  N   UNL A   1      31.560  23.608  26.851  1.00  0.00    -0.351 N 
ATOM      5  C   UNL A   1      32.736  22.982  27.131  1.00  0.00     0.281 C 
ATOM      6  O   UNL A   1      32.838  22.504  28.269  1.00  0.00    -0.268 OA
ATOM      7  H   UNL A   1      30.975  23.730  27.633  1.00  0.00     0.163 HD
BRANCH   5   8
ATOM      8  C   UNL A   1      33.878  22.820  26.087  1.00  0.00     0.181 C 
ATOM      9  C   UNL A   1      36.301  22.981  25.901  1.00  0.00     0.191 C 
ATOM     10  C   UNL A   1      35.753  24.320  25.416  1.00  0.00     0.072 C 
ATOM     11  C   UNL A   1      35.199  22.554  26.872  1.00  0.00     0.144 C 
ATOM     12  C   UNL A   1      34.241  24.101  25.296  1.00  0.00     0.085 C 
BRANCH   9  13
ATOM     13  N   UNL A   1      37.681  22.958  26.394  1.00  0.00    -0.330 N 
ATOM     14  C   UNL A   1      39.961  21.894  26.100  1.00  0.00     0.173 C 
ATOM     15  C   UNL A   1      40.592  23.207  26.576  1.00  0.00     0.044 C 
ATOM     16  C   UNL A   1      38.555  22.153  25.522  1.00  0.00     0.294 C 
ATOM     17  C   UNL A   1      39.630  24.033  27.424  1.00  0.00     0.064 C 
ATOM     18  C   UNL A   1      38.285  24.244  26.724  1.00  0.00     0.262 C 
ATOM     19  H   UNL A   1      37.596  22.503  27.304  1.00  0.00     0.348 HD
BRANCH  14  20
ATOM     20  O   UNL A   1      39.903  20.979  27.199  1.00  0.00    -0.372 OA
BRANCH  20  21
ATOM     21  C   UNL A   1      41.053  20.148  27.363  1.00  0.00     0.160 C 
BRANCH  21  22
ATOM     22  C   UNL A   1      41.473  19.396  26.100  1.00  0.00     0.025 C 
ATOM     23  C   UNL A   1      42.645  18.443  26.316  1.00  0.00     0.006 C 
ENDBRANCH  21  22
ENDBRANCH  20  21
ENDBRANCH  14  20
ENDBRANCH   9  13
BRANCH   8  24
ATOM     24  N   UNL A   1      33.699  21.617  25.226  1.00  0.00    -0.336 N 
ATOM     25  C   UNL A   1      32.823  20.575  25.723  1.00  0.00     0.331 C 
ATOM     26  H   UNL A   1      34.620  21.203  25.083  1.00  0.00     0.346 HD
ATOM     27  H   UNL A   1      33.245  21.963  24.381  1.00  0.00     0.346 HD
ENDBRANCH   8  24
ENDBRANCH   5   8
ENDBRANCH   3   4
ENDBRANCH   2   3
ENDBRANCH   1   2
BRANCH   1  28
ATOM     28  C   UNL A   1      31.729  27.866  25.560  1.00  0.00     0.002 C 
BRANCH  28  29
ATOM     29  C   UNL A   1      33.111  28.226  25.011  1.00  0.00     0.021 C 
BRANCH  29  30
ATOM     30  C   UNL A   1      34.051  28.912  25.998  1.00  0.00     0.116 C 
BRANCH  30  31
ATOM     31  N   UNL A   1      33.617  30.258  26.333  1.00  0.00    -0.352 N 
ATOM     32  C   UNL A   1      34.075  31.104  27.311  1.00  0.00     0.251 C 
ATOM     33  H   UNL A   1      32.889  30.615  25.776  1.00  0.00     0.163 HD
ATOM     34  O   UNL A   1      33.473  32.147  27.545  1.00  0.00    -0.269 OA
BRANCH  32  35
ATOM     35  C   UNL A   1      35.279  30.750  28.094  1.00  0.00     0.039 A 
ATOM     36  C   UNL A   1      36.389  31.594  28.024  1.00  0.00     0.014 A 
ATOM     37  C   UNL A   1      35.324  29.591  28.877  1.00  0.00     0.014 A 
ATOM     38  C   UNL A   1      37.530  31.298  28.774  1.00  0.00     0.010 A 
ATOM     39  C   UNL A   1      36.437  29.334  29.675  1.00  0.00     0.010 A 
ATOM     40  C   UNL A   1      37.556  30.179  29.623  1.00  0.00    -0.014 A 
BRANCH  40  41
ATOM     41  C   UNL A   1      38.744  29.912  30.475  1.00  0.00     0.031 A 
ATOM     42  C   UNL A   1      38.887  30.556  31.826  1.00  0.00     0.074 A 
ATOM     43  C   UNL A   1      39.727  29.121  30.001  1.00  0.00     0.049 A 
ATOM     44  N   UNL A   1      39.824  30.381  32.723  1.00  0.00    -0.248 NA
ATOM     45  C   UNL A   1      37.867  31.543  32.212  1.00  0.00     0.031 C 
ATOM     46  C   UNL A   1      39.759  28.527  28.662  1.00  0.00     0.029 A 
ATOM     47  N   UNL A   1      40.893  28.693  30.583  1.00  0.00    -0.354 N 
ATOM     48  C   UNL A   1      39.524  31.252  33.763  1.00  0.00     0.074 A 
ATOM     49  C   UNL A   1      38.338  31.982  33.371  1.00  0.00     0.031 C 
ATOM     50  C   UNL A   1      40.881  27.802  28.531  1.00  0.00     0.029 A 
ATOM     51  C   UNL A   1      41.651  27.886  29.768  1.00  0.00     0.049 A 
ATOM     52  H   UNL A   1      41.161  28.941  31.497  1.00  0.00     0.167 HD
ATOM     53  C   UNL A   1      40.158  31.409  34.950  1.00  0.00     0.034 A 
ATOM     54  C   UNL A   1      42.826  27.269  29.996  1.00  0.00     0.034 A 
ATOM     55  C   UNL A   1      41.311  30.649  35.353  1.00  0.00     0.049 A 
ATOM     56  C   UNL A   1      43.458  27.379  31.356  1.00  0.00     0.074 A 
ATOM     57  C   UNL A   1      41.963  30.654  36.573  1.00  0.00     0.029 A 
ATOM     58  N   UNL A   1      41.992  29.753  34.542  1.00  0.00    -0.354 N 
ATOM     59  N   UNL A   1      43.049  28.056  32.401  1.00  0.00    -0.248 NA
ATOM     60  C   UNL A   1      44.684  26.602  31.584  1.00  0.00     0.031 C 
ATOM     61  C   UNL A   1      43.049  29.773  36.494  1.00  0.00     0.029 A 
ATOM     62  C   UNL A   1      43.060  29.204  35.232  1.00  0.00     0.049 A 
ATOM     63  H   UNL A   1      41.750  29.539  33.612  1.00  0.00     0.167 HD
ATOM     64  C   UNL A   1      43.947  27.763  33.422  1.00  0.00     0.074 A 
ATOM     65  C   UNL A   1      44.907  26.825  32.873  1.00  0.00     0.031 C 
ATOM     66  C   UNL A   1      43.981  28.237  34.691  1.00  0.00     0.034 A 
BRANCH  53  67
ATOM     67  C   UNL A   1      39.579  32.400  35.926  1.00  0.00     0.023 A 
ATOM     68  C   UNL A   1      38.564  31.988  36.814  1.00  0.00     0.012 A 
ATOM     69  C   UNL A   1      40.070  33.718  36.005  1.00  0.00     0.148 A 
ATOM     70  C   UNL A   1      38.020  32.879  37.739  1.00  0.00     0.002 A 
ATOM     71  C   UNL A   1      39.554  34.589  36.959  1.00  0.00     0.091 A 
ATOM     72  F   UNL A   1      41.019  34.102  35.138  1.00  0.00    -0.205 F 
ATOM     73  C   UNL A   1      38.521  34.175  37.817  1.00  0.00     0.022 A 
BRANCH  71  74
ATOM     74  S   UNL A   1      40.190  36.253  37.190  1.00  0.00     0.127 S 
ATOM     75  O   UNL A   1      41.587  35.991  37.531  1.00  0.00    -0.237 OA
ATOM     76  O   UNL A   1      39.987  36.849  35.869  1.00  0.00    -0.237 OA
ATOM     77  O   UNL A   1      39.383  36.844  38.248  1.00  0.00    -0.744 OA
ENDBRANCH  71  74
ENDBRANCH  53  67
BRANCH  54  78
ATOM     78  C   UNL A   1      43.420  26.408  28.934  1.00  0.00     0.023 A 
ATOM     79  C   UNL A   1      43.083  25.041  28.881  1.00  0.00     0.012 A 
ATOM     80  C   UNL A   1      44.263  26.948  27.943  1.00  0.00     0.148 A 
ATOM     81  C   UNL A   1      43.596  24.222  27.876  1.00  0.00     0.002 A 
ATOM     82  C   UNL A   1      44.724  26.139  26.912  1.00  0.00     0.091 A 
ATOM     83  F   UNL A   1      44.578  28.248  28.018  1.00  0.00    -0.205 F 
ATOM     84  C   UNL A   1      44.405  24.771  26.885  1.00  0.00     0.022 A 
BRANCH  82  85
ATOM     85  S   UNL A   1      45.650  26.791  25.519  1.00  0.00     0.127 S 
ATOM     86  O   UNL A   1      44.747  27.821  25.013  1.00  0.00    -0.237 OA
ATOM     87  O   UNL A   1      46.860  27.296  26.167  1.00  0.00    -0.237 OA
ATOM     88  O   UNL A   1      45.877  25.655  24.633  1.00  0.00    -0.744 OA
ENDBRANCH  82  85
ENDBRANCH  54  78
BRANCH  66  89
ATOM     89  C   UNL A   1      45.081  27.736  35.591  1.00  0.00     0.023 A 
ATOM     90  C   UNL A   1      44.927  26.511  36.270  1.00  0.00     0.012 A 
ATOM     91  C   UNL A   1      46.289  28.449  35.718  1.00  0.00     0.148 A 
ATOM     92  C   UNL A   1      45.941  26.023  37.093  1.00  0.00     0.002 A 
ATOM     93  C   UNL A   1      47.315  27.932  36.502  1.00  0.00     0.091 A 
ATOM     94  F   UNL A   1      46.412  29.623  35.083  1.00  0.00    -0.205 F 
ATOM     95  C   UNL A   1      47.139  26.727  37.200  1.00  0.00     0.022 A 
BRANCH  93  96
ATOM     96  S   UNL A   1      48.920  28.731  36.616  1.00  0.00     0.127 S 
ATOM     97  O   UNL A   1      49.574  27.940  37.658  1.00  0.00    -0.237 OA
ATOM     98  O   UNL A   1      49.466  28.539  35.272  1.00  0.00    -0.237 OA
ATOM     99  O   UNL A   1      48.645  30.120  36.957  1.00  0.00    -0.744 OA
ENDBRANCH  93  96
ENDBRANCH  66  89
ENDBRANCH  40  41
ENDBRANCH  32  35
ENDBRANCH  30  31
ENDBRANCH  29  30
ENDBRANCH  28  29
ENDBRANCH   1  28
TORSDOF 21
ENDMDL
MODEL 2
REMARK VINA RESULT:      -9.8      3.079      5.247
REMARK SMILES CCCO[C@@H]1CCC[N@@H+]([C@@H]2CC[C@]([NH2+]C)(C(=O)NCCCCCCNC(=O)c3ccc(-c4c5nc(c(-c6cccc(S(=O)(=O)[O-])c6F)c6ccc([nH]6)c(-c6cccc(S(=O)(=O)[O-])c6F)c6nc(c(-c7cccc(S(=O)(=O)[O-])c7F)c7ccc4[nH]7)C=C6)C=C5)cc3)C2)C1
REMARK SMILES IDX 21 1 20 2 19 3 18 4 16 5 17 6 13 8 10 9 11 10 91 11 12 12
REMARK SMILES IDX 9 13 5 14 6 15 92 16 7 17 8 18 4 20 3 21 2 22 1 23 14 24
REMARK SMILES IDX 15 25 22 28 23 29 24 30 25 31 26 32 27 34 28 35 29 36 90 37
REMARK SMILES IDX 30 38 89 39 31 40 32 41 33 42 83 43 34 44 88 45 82 46 84 47
REMARK SMILES IDX 35 48 87 49 81 50 80 51 36 53 68 54 48 55 67 56 49 57 52 58
REMARK SMILES IDX 66 59 85 60 50 61 51 62 65 64 86 65 53 66 37 67 38 68 46 69
REMARK SMILES IDX 39 70 41 71 47 72 40 73 42 74 43 75 44 76 45 77 69 78 70 79
REMARK SMILES IDX 78 80 71 81 73 82 79 83 72 84 74 85 75 86 76 87 77 88 54 89
REMARK SMILES IDX 55 90 63 91 56 92 58 93 64 94 57 95 59 96 60 97 61 98 62 99
REMARK H PARENT 18 7 9 19 14 26 14 27 25 33 84 52 52 63
REMARK Flexibility Score: inf
ROOT
ATOM      1  C   UNL A   1      34.752  24.915  26.152  1.00  0.00     0.002 C 
ENDROOT
BRANCH   1   2
ATOM      2  C   UNL A   1      36.015  24.242  25.612  1.00  0.00     0.021 C 
BRANCH   2   3
ATOM      3  C   UNL A   1      35.822  23.507  24.288  1.00  0.00     0.116 C 
BRANCH   3   4
ATOM      4  N   UNL A   1      36.176  22.103  24.410  1.00  0.00    -0.351 N 
ATOM      5  C   UNL A   1      35.458  21.013  24.798  1.00  0.00     0.281 C 
ATOM      6  O   UNL A   1      36.104  19.969  24.959  1.00  0.00    -0.268 OA
ATOM      7  H   UNL A   1      37.109  21.904  24.168  1.00  0.00     0.163 HD
BRANCH   5   8
ATOM      8  C   UNL A   1      33.928  21.062  25.076  1.00  0.00     0.181 C 
ATOM      9  C   UNL A   1      32.105  22.659  25.311  1.00  0.00     0.191 C 
ATOM     10  C   UNL A   1      32.572  22.344  26.729  1.00  0.00     0.072 C 
ATOM     11  C   UNL A   1      33.395  22.419  24.524  1.00  0.00     0.144 C 
ATOM     12  C   UNL A   1      33.527  21.157  26.569  1.00  0.00     0.085 C 
BRANCH   9  13
ATOM     13  N   UNL A   1      31.412  23.933  25.099  1.00  0.00    -0.330 N 
ATOM     14  C   UNL A   1      30.182  25.357  23.402  1.00  0.00     0.173 C 
ATOM     15  C   UNL A   1      29.356  25.943  24.552  1.00  0.00     0.044 C 
ATOM     16  C   UNL A   1      30.734  23.971  23.791  1.00  0.00     0.294 C 
ATOM     17  C   UNL A   1      30.072  25.828  25.894  1.00  0.00     0.064 C 
ATOM     18  C   UNL A   1      30.540  24.397  26.172  1.00  0.00     0.262 C 
ATOM     19  H   UNL A   1      32.171  24.616  25.108  1.00  0.00     0.348 HD
BRANCH  14  20
ATOM     20  O   UNL A   1      31.246  26.261  23.085  1.00  0.00    -0.372 OA
BRANCH  20  21
ATOM     21  C   UNL A   1      31.499  26.439  21.691  1.00  0.00     0.160 C 
BRANCH  21  22
ATOM     22  C   UNL A   1      32.596  25.533  21.127  1.00  0.00     0.025 C 
ATOM     23  C   UNL A   1      32.619  25.477  19.603  1.00  0.00     0.006 C 
ENDBRANCH  21  22
ENDBRANCH  20  21
ENDBRANCH  14  20
ENDBRANCH   9  13
BRANCH   8  24
ATOM     24  N   UNL A   1      33.176  20.022  24.320  1.00  0.00    -0.336 N 
ATOM     25  C   UNL A   1      32.569  18.956  25.092  1.00  0.00     0.331 C 
ATOM     26  H   UNL A   1      33.825  19.592  23.660  1.00  0.00     0.346 HD
ATOM     27  H   UNL A   1      32.394  20.518  23.894  1.00  0.00     0.346 HD
ENDBRANCH   8  24
ENDBRANCH   5   8
ENDBRANCH   3   4
ENDBRANCH   2   3
ENDBRANCH   1   2
BRANCH   1  28
ATOM     28  C   UNL A   1      34.235  26.086  25.314  1.00  0.00     0.002 C 
BRANCH  28  29
ATOM     29  C   UNL A   1      33.841  27.336  26.104  1.00  0.00     0.021 C 
BRANCH  29  30
ATOM     30  C   UNL A   1      34.360  28.657  25.543  1.00  0.00     0.116 C 
BRANCH  30  31
ATOM     31  N   UNL A   1      33.845  29.807  26.265  1.00  0.00    -0.352 N 
ATOM     32  C   UNL A   1      34.334  30.421  27.390  1.00  0.00     0.251 C 
ATOM     33  H   UNL A   1      33.024  30.203  25.894  1.00  0.00     0.163 HD
ATOM     34  O   UNL A   1      33.668  31.286  27.950  1.00  0.00    -0.269 OA
BRANCH  32  35
ATOM     35  C   UNL A   1      35.651  30.028  27.937  1.00  0.00     0.039 A 
ATOM     36  C   UNL A   1      35.699  29.466  29.214  1.00  0.00     0.014 A 
ATOM     37  C   UNL A   1      36.830  30.228  27.211  1.00  0.00     0.014 A 
ATOM     38  C   UNL A   1      36.926  29.062  29.745  1.00  0.00     0.010 A 
ATOM     39  C   UNL A   1      38.044  29.764  27.716  1.00  0.00     0.010 A 
ATOM     40  C   UNL A   1      38.106  29.186  28.992  1.00  0.00    -0.014 A 
BRANCH  40  41
ATOM     41  C   UNL A   1      39.396  28.686  29.533  1.00  0.00     0.031 A 
ATOM     42  C   UNL A   1      40.029  29.324  30.739  1.00  0.00     0.074 A 
ATOM     43  C   UNL A   1      40.028  27.680  28.897  1.00  0.00     0.049 A 
ATOM     44  N   UNL A   1      41.115  28.971  31.378  1.00  0.00    -0.248 NA
ATOM     45  C   UNL A   1      39.379  30.526  31.282  1.00  0.00     0.031 C 
ATOM     46  C   UNL A   1      39.575  27.052  27.653  1.00  0.00     0.029 A 
ATOM     47  N   UNL A   1      41.192  27.019  29.197  1.00  0.00    -0.354 N 
ATOM     48  C   UNL A   1      41.294  29.919  32.378  1.00  0.00     0.074 A 
ATOM     49  C   UNL A   1      40.225  30.884  32.238  1.00  0.00     0.031 C 
ATOM     50  C   UNL A   1      40.443  26.090  27.305  1.00  0.00     0.029 A 
ATOM     51  C   UNL A   1      41.518  26.037  28.292  1.00  0.00     0.049 A 
ATOM     52  H   UNL A   1      41.742  27.229  29.987  1.00  0.00     0.167 HD
ATOM     53  C   UNL A   1      42.242  29.966  33.345  1.00  0.00     0.034 A 
ATOM     54  C   UNL A   1      42.555  25.179  28.267  1.00  0.00     0.034 A 
ATOM     55  C   UNL A   1      43.276  28.979  33.507  1.00  0.00     0.049 A 
ATOM     56  C   UNL A   1      43.538  25.187  29.405  1.00  0.00     0.074 A 
ATOM     57  C   UNL A   1      44.219  28.876  34.514  1.00  0.00     0.029 A 
ATOM     58  N   UNL A   1      43.511  27.928  32.632  1.00  0.00    -0.354 N 
ATOM     59  N   UNL A   1      43.576  25.971  30.455  1.00  0.00    -0.248 NA
ATOM     60  C   UNL A   1      44.591  24.161  29.381  1.00  0.00     0.031 C 
ATOM     61  C   UNL A   1      45.035  27.772  34.240  1.00  0.00     0.029 A 
ATOM     62  C   UNL A   1      44.587  27.175  33.073  1.00  0.00     0.049 A 
ATOM     63  H   UNL A   1      42.989  27.745  31.819  1.00  0.00     0.167 HD
ATOM     64  C   UNL A   1      44.633  25.515  31.234  1.00  0.00     0.074 A 
ATOM     65  C   UNL A   1      45.193  24.369  30.545  1.00  0.00     0.031 C 
ATOM     66  C   UNL A   1      45.106  26.009  32.405  1.00  0.00     0.034 A 
BRANCH  53  67
ATOM     67  C   UNL A   1      42.167  31.093  34.343  1.00  0.00     0.023 A 
ATOM     68  C   UNL A   1      41.461  30.904  35.550  1.00  0.00     0.012 A 
ATOM     69  C   UNL A   1      42.833  32.313  34.118  1.00  0.00     0.148 A 
ATOM     70  C   UNL A   1      41.387  31.923  36.499  1.00  0.00     0.002 A 
ATOM     71  C   UNL A   1      42.792  33.309  35.088  1.00  0.00     0.091 A 
ATOM     72  F   UNL A   1      43.480  32.485  32.956  1.00  0.00    -0.205 F 
ATOM     73  C   UNL A   1      42.060  33.120  36.272  1.00  0.00     0.022 A 
BRANCH  71  74
ATOM     74  S   UNL A   1      43.694  34.854  34.922  1.00  0.00     0.127 S 
ATOM     75  O   UNL A   1      43.318  35.272  33.573  1.00  0.00    -0.237 OA
ATOM     76  O   UNL A   1      43.118  35.667  35.995  1.00  0.00    -0.237 OA
ATOM     77  O   UNL A   1      45.098  34.517  35.110  1.00  0.00    -0.744 OA
ENDBRANCH  71  74
ENDBRANCH  53  67
BRANCH  54  78
ATOM     78  C   UNL A   1      42.649  24.173  27.170  1.00  0.00     0.023 A 
ATOM     79  C   UNL A   1      43.427  24.460  26.032  1.00  0.00     0.012 A 
ATOM     80  C   UNL A   1      42.024  22.916  27.278  1.00  0.00     0.148 A 
ATOM     81  C   UNL A   1      43.561  23.522  25.009  1.00  0.00     0.002 A 
ATOM     82  C   UNL A   1      42.208  21.965  26.282  1.00  0.00     0.091 A 
ATOM     83  F   UNL A   1      41.280  22.668  28.365  1.00  0.00    -0.205 F 
ATOM     84  C   UNL A   1      42.962  22.271  25.138  1.00  0.00     0.022 A 
BRANCH  82  85
ATOM     85  S   UNL A   1      41.595  20.284  26.433  1.00  0.00     0.127 S 
ATOM     86  O   UNL A   1      40.156  20.473  26.280  1.00  0.00    -0.237 OA
ATOM     87  O   UNL A   1      42.254  19.618  25.309  1.00  0.00    -0.237 OA
ATOM     88  O   UNL A   1      42.039  19.822  27.744  1.00  0.00    -0.744 OA
ENDBRANCH  82  85
ENDBRANCH  54  78
BRANCH  66  89
ATOM     89  C   UNL A   1      46.278  25.302  33.035  1.00  0.00     0.023 A 
ATOM     90  C   UNL A   1      47.587  25.767  32.796  1.00  0.00     0.012 A 
ATOM     91  C   UNL A   1      46.080  24.213  33.906  1.00  0.00     0.148 A 
ATOM     92  C   UNL A   1      48.682  25.137  33.384  1.00  0.00     0.002 A 
ATOM     93  C   UNL A   1      47.173  23.620  34.526  1.00  0.00     0.091 A 
ATOM     94  F   UNL A   1      44.831  23.769  34.105  1.00  0.00    -0.205 F 
ATOM     95  C   UNL A   1      48.475  24.070  34.258  1.00  0.00     0.022 A 
BRANCH  93  96
ATOM     96  S   UNL A   1      46.983  22.304  35.735  1.00  0.00     0.127 S 
ATOM     97  O   UNL A   1      46.132  22.941  36.739  1.00  0.00    -0.237 OA
ATOM     98  O   UNL A   1      46.326  21.252  34.958  1.00  0.00    -0.237 OA
ATOM     99  O   UNL A   1      48.333  21.972  36.170  1.00  0.00    -0.744 OA
ENDBRANCH  93  96
ENDBRANCH  66  89
ENDBRANCH  40  41
ENDBRANCH  32  35
ENDBRANCH  30  31
ENDBRANCH  29  30
ENDBRANCH  28  29
ENDBRANCH   1  28
TORSDOF 21
ENDMDL
MODEL 3
REMARK VINA RESULT:      -9.6      1.915      2.610
REMARK SMILES CCCO[C@@H]1CCC[N@@H+]([C@@H]2CC[C@]([NH2+]C)(C(=O)NCCCCCCNC(=O)c3ccc(-c4c5nc(c(-c6cccc(S(=O)(=O)[O-])c6F)c6ccc([nH]6)c(-c6cccc(S(=O)(=O)[O-])c6F)c6nc(c(-c7cccc(S(=O)(=O)[O-])c7F)c7ccc4[nH]7)C=C6)C=C5)cc3)C2)C1
REMARK SMILES IDX 21 1 20 2 19 3 18 4 16 5 17 6 13 8 10 9 11 10 91 11 12 12
REMARK SMILES IDX 9 13 5 14 6 15 92 16 7 17 8 18 4 20 3 21 2 22 1 23 14 24
REMARK SMILES IDX 15 25 22 28 23 29 24 30 25 31 26 32 27 34 28 35 29 36 90 37
REMARK SMILES IDX 30 38 89 39 31 40 32 41 33 42 83 43 34 44 88 45 82 46 84 47
REMARK SMILES IDX 35 48 87 49 81 50 80 51 36 53 68 54 48 55 67 56 49 57 52 58
REMARK SMILES IDX 66 59 85 60 50 61 51 62 65 64 86 65 53 66 37 67 38 68 46 69
REMARK SMILES IDX 39 70 41 71 47 72 40 73 42 74 43 75 44 76 45 77 69 78 70 79
REMARK SMILES IDX 78 80 71 81 73 82 79 83 72 84 74 85 75 86 76 87 77 88 54 89
REMARK SMILES IDX 55 90 63 91 56 92 58 93 64 94 57 95 59 96 60 97 61 98 62 99
REMARK H PARENT 18 7 9 19 14 26 14 27 25 33 84 52 52 63
REMARK Flexibility Score: inf
ROOT
ATOM      1  C   UNL A   1      32.551  26.076  26.261  1.00  0.00     0.002 C 
ENDROOT
BRANCH   1   2
ATOM      2  C   UNL A   1      31.369  25.141  25.998  1.00  0.00     0.021 C 
BRANCH   2   3
ATOM      3  C   UNL A   1      31.763  23.723  25.591  1.00  0.00     0.116 C 
BRANCH   3   4
ATOM      4  N   UNL A   1      32.432  23.031  26.679  1.00  0.00    -0.351 N 
ATOM      5  C   UNL A   1      33.673  22.479  26.783  1.00  0.00     0.281 C 
ATOM      6  O   UNL A   1      33.882  21.806  27.800  1.00  0.00    -0.268 OA
ATOM      7  H   UNL A   1      31.886  22.946  27.494  1.00  0.00     0.163 HD
BRANCH   5   8
ATOM      8  C   UNL A   1      34.760  22.629  25.680  1.00  0.00     0.181 C 
ATOM      9  C   UNL A   1      37.173  22.824  25.425  1.00  0.00     0.191 C 
ATOM     10  C   UNL A   1      36.632  24.250  25.390  1.00  0.00     0.072 C 
ATOM     11  C   UNL A   1      36.110  22.133  26.282  1.00  0.00     0.144 C 
ATOM     12  C   UNL A   1      35.112  24.086  25.288  1.00  0.00     0.085 C 
BRANCH   9  13
ATOM     13  N   UNL A   1      38.575  22.647  25.818  1.00  0.00    -0.330 N 
ATOM     14  C   UNL A   1      40.455  23.582  27.235  1.00  0.00     0.173 C 
ATOM     15  C   UNL A   1      41.003  22.158  27.377  1.00  0.00     0.044 C 
ATOM     16  C   UNL A   1      38.945  23.547  26.925  1.00  0.00     0.294 C 
ATOM     17  C   UNL A   1      40.545  21.248  26.242  1.00  0.00     0.064 C 
ATOM     18  C   UNL A   1      39.025  21.281  26.061  1.00  0.00     0.262 C 
ATOM     19  H   UNL A   1      39.088  22.913  24.977  1.00  0.00     0.348 HD
BRANCH  14  20
ATOM     20  O   UNL A   1      41.176  24.257  26.198  1.00  0.00    -0.372 OA
BRANCH  20  21
ATOM     21  C   UNL A   1      40.885  25.649  26.061  1.00  0.00     0.160 C 
BRANCH  21  22
ATOM     22  C   UNL A   1      41.901  26.426  25.222  1.00  0.00     0.025 C 
ATOM     23  C   UNL A   1      41.874  27.931  25.469  1.00  0.00     0.006 C 
ENDBRANCH  21  22
ENDBRANCH  20  21
ENDBRANCH  14  20
ENDBRANCH   9  13
BRANCH   8  24
ATOM     24  N   UNL A   1      34.514  21.739  24.511  1.00  0.00    -0.336 N 
ATOM     25  C   UNL A   1      34.418  20.317  24.774  1.00  0.00     0.331 C 
ATOM     26  H   UNL A   1      35.281  21.878  23.853  1.00  0.00     0.346 HD
ATOM     27  H   UNL A   1      33.594  22.006  24.163  1.00  0.00     0.346 HD
ENDBRANCH   8  24
ENDBRANCH   5   8
ENDBRANCH   3   4
ENDBRANCH   2   3
ENDBRANCH   1   2
BRANCH   1  28
ATOM     28  C   UNL A   1      32.244  27.566  26.099  1.00  0.00     0.002 C 
BRANCH  28  29
ATOM     29  C   UNL A   1      33.358  28.401  25.463  1.00  0.00     0.021 C 
BRANCH  29  30
ATOM     30  C   UNL A   1      34.324  29.061  26.443  1.00  0.00     0.116 C 
BRANCH  30  31
ATOM     31  N   UNL A   1      33.962  30.436  26.737  1.00  0.00    -0.352 N 
ATOM     32  C   UNL A   1      34.493  31.299  27.662  1.00  0.00     0.251 C 
ATOM     33  H   UNL A   1      33.228  30.803  26.194  1.00  0.00     0.163 HD
ATOM     34  O   UNL A   1      33.945  32.376  27.875  1.00  0.00    -0.269 OA
BRANCH  32  35
ATOM     35  C   UNL A   1      35.710  30.924  28.414  1.00  0.00     0.039 A 
ATOM     36  C   UNL A   1      36.801  31.795  28.391  1.00  0.00     0.014 A 
ATOM     37  C   UNL A   1      35.787  29.719  29.122  1.00  0.00     0.014 A 
ATOM     38  C   UNL A   1      37.954  31.478  29.113  1.00  0.00     0.010 A 
ATOM     39  C   UNL A   1      36.912  29.438  29.895  1.00  0.00     0.010 A 
ATOM     40  C   UNL A   1      38.011  30.308  29.890  1.00  0.00    -0.014 A 
BRANCH  40  41
ATOM     41  C   UNL A   1      39.211  30.015  30.715  1.00  0.00     0.031 A 
ATOM     42  C   UNL A   1      39.379  30.624  32.080  1.00  0.00     0.074 A 
ATOM     43  C   UNL A   1      40.183  29.233  30.206  1.00  0.00     0.049 A 
ATOM     44  N   UNL A   1      40.329  30.423  32.957  1.00  0.00    -0.248 NA
ATOM     45  C   UNL A   1      38.369  31.605  32.507  1.00  0.00     0.031 C 
ATOM     46  C   UNL A   1      40.192  28.673  28.852  1.00  0.00     0.029 A 
ATOM     47  N   UNL A   1      41.356  28.785  30.758  1.00  0.00    -0.354 N 
ATOM     48  C   UNL A   1      40.049  31.268  34.024  1.00  0.00     0.074 A 
ATOM     49  C   UNL A   1      38.860  32.013  33.669  1.00  0.00     0.031 C 
ATOM     50  C   UNL A   1      41.308  27.947  28.685  1.00  0.00     0.029 A 
ATOM     51  C   UNL A   1      42.098  27.997  29.911  1.00  0.00     0.049 A 
ATOM     52  H   UNL A   1      41.640  29.009  31.674  1.00  0.00     0.167 HD
ATOM     53  C   UNL A   1      40.702  31.392  35.204  1.00  0.00     0.034 A 
ATOM     54  C   UNL A   1      43.274  27.369  30.104  1.00  0.00     0.034 A 
ATOM     55  C   UNL A   1      41.858  30.617  35.569  1.00  0.00     0.049 A 
ATOM     56  C   UNL A   1      43.928  27.442  31.457  1.00  0.00     0.074 A 
ATOM     57  C   UNL A   1      42.529  30.589  36.779  1.00  0.00     0.029 A 
ATOM     58  N   UNL A   1      42.522  29.740  34.725  1.00  0.00    -0.354 N 
ATOM     59  N   UNL A   1      43.538  28.093  32.526  1.00  0.00    -0.248 NA
ATOM     60  C   UNL A   1      45.154  26.654  31.646  1.00  0.00     0.031 C 
ATOM     61  C   UNL A   1      43.610  29.706  36.660  1.00  0.00     0.029 A 
ATOM     62  C   UNL A   1      43.598  29.169  35.384  1.00  0.00     0.049 A 
ATOM     63  H   UNL A   1      42.265  29.551  33.794  1.00  0.00     0.167 HD
ATOM     64  C   UNL A   1      44.450  27.771  33.524  1.00  0.00     0.074 A 
ATOM     65  C   UNL A   1      45.397  26.844  32.936  1.00  0.00     0.031 C 
ATOM     66  C   UNL A   1      44.507  28.212  34.804  1.00  0.00     0.034 A 
BRANCH  53  67
ATOM     67  C   UNL A   1      40.143  32.360  36.215  1.00  0.00     0.023 A 
ATOM     68  C   UNL A   1      40.684  33.660  36.304  1.00  0.00     0.012 A 
ATOM     69  C   UNL A   1      39.053  32.010  37.036  1.00  0.00     0.148 A 
ATOM     70  C   UNL A   1      40.176  34.582  37.219  1.00  0.00     0.002 A 
ATOM     71  C   UNL A   1      38.524  32.948  37.915  1.00  0.00     0.091 A 
ATOM     72  F   UNL A   1      38.566  30.762  36.956  1.00  0.00    -0.205 F 
ATOM     73  C   UNL A   1      39.091  34.229  38.016  1.00  0.00     0.022 A 
BRANCH  71  74
ATOM     74  S   UNL A   1      37.076  32.613  38.925  1.00  0.00     0.127 S 
ATOM     75  O   UNL A   1      37.238  31.189  39.210  1.00  0.00    -0.237 OA
ATOM     76  O   UNL A   1      37.290  33.493  40.076  1.00  0.00    -0.237 OA
ATOM     77  O   UNL A   1      35.927  32.966  38.103  1.00  0.00    -0.744 OA
ENDBRANCH  71  74
ENDBRANCH  53  67
BRANCH  54  78
ATOM     78  C   UNL A   1      43.847  26.533  29.012  1.00  0.00     0.023 A 
ATOM     79  C   UNL A   1      43.498  25.172  28.925  1.00  0.00     0.012 A 
ATOM     80  C   UNL A   1      44.682  27.093  28.026  1.00  0.00     0.148 A 
ATOM     81  C   UNL A   1      43.990  24.377  27.891  1.00  0.00     0.002 A 
ATOM     82  C   UNL A   1      45.124  26.310  26.967  1.00  0.00     0.091 A 
ATOM     83  F   UNL A   1      45.010  28.388  28.134  1.00  0.00    -0.205 F 
ATOM     84  C   UNL A   1      44.793  24.946  26.906  1.00  0.00     0.022 A 
BRANCH  82  85
ATOM     85  S   UNL A   1      46.039  26.993  25.581  1.00  0.00     0.127 S 
ATOM     86  O   UNL A   1      46.147  25.839  24.694  1.00  0.00    -0.237 OA
ATOM     87  O   UNL A   1      45.140  28.049  25.115  1.00  0.00    -0.237 OA
ATOM     88  O   UNL A   1      47.293  27.482  26.143  1.00  0.00    -0.744 OA
ENDBRANCH  82  85
ENDBRANCH  54  78
BRANCH  66  89
ATOM     89  C   UNL A   1      45.619  27.684  35.673  1.00  0.00     0.023 A 
ATOM     90  C   UNL A   1      46.845  28.375  35.737  1.00  0.00     0.012 A 
ATOM     91  C   UNL A   1      45.430  26.537  36.468  1.00  0.00     0.148 A 
ATOM     92  C   UNL A   1      47.879  27.911  36.549  1.00  0.00     0.002 A 
ATOM     93  C   UNL A   1      46.448  26.107  37.311  1.00  0.00     0.091 A 
ATOM     94  F   UNL A   1      44.265  25.878  36.379  1.00  0.00    -0.205 F 
ATOM     95  C   UNL A   1      47.678  26.784  37.344  1.00  0.00     0.022 A 
BRANCH  93  96
ATOM     96  S   UNL A   1      46.233  24.722  38.435  1.00  0.00     0.127 S 
ATOM     97  O   UNL A   1      46.058  23.607  37.505  1.00  0.00    -0.237 OA
ATOM     98  O   UNL A   1      47.500  24.710  39.169  1.00  0.00    -0.237 OA
ATOM     99  O   UNL A   1      45.073  25.053  39.250  1.00  0.00    -0.744 OA
ENDBRANCH  93  96
ENDBRANCH  66  89
ENDBRANCH  40  41
ENDBRANCH  32  35
ENDBRANCH  30  31
ENDBRANCH  29  30
ENDBRANCH  28  29
ENDBRANCH   1  28
TORSDOF 21
ENDMDL
