MODEL 1
REMARK VINA RESULT:     -10.6      0.000      0.000
REMARK SMILES C[C@@H]([NH2+]C[C@H]1CCC[C@@H]1C(=O)NCCCCCCNC(=O)c1ccc(-c2c3nc(c(-c4cccc(S(=O)(=O)[O-])c4F)c4ccc([nH]4)c(-c4cccc(S(=O)(=O)[O-])c4F)c4nc(c(-c5cccc(S(=O)(=O)[O-])c5F)c5ccc2[nH]5)C=C4)C=C3)cc1)c1cc(F)ccc1O
REMARK SMILES IDX 14 1 13 2 12 3 10 4 11 5 9 7 5 8 6 9 7 10 8 11 4 12 3 13
REMARK SMILES IDX 2 16 1 17 85 18 86 19 91 20 87 21 90 22 88 23 89 24 92 25
REMARK SMILES IDX 15 27 16 28 17 29 18 30 19 31 20 32 21 34 22 35 23 36 84 37
REMARK SMILES IDX 24 38 83 39 25 40 26 41 27 42 77 43 28 44 82 45 76 46 78 47
REMARK SMILES IDX 29 48 81 49 75 50 74 51 30 53 62 54 42 55 61 56 43 57 46 58
REMARK SMILES IDX 60 59 79 60 44 61 45 62 59 64 80 65 47 66 31 67 32 68 40 69
REMARK SMILES IDX 33 70 35 71 41 72 34 73 36 74 37 75 38 76 39 77 63 78 64 79
REMARK SMILES IDX 72 80 65 81 67 82 73 83 66 84 68 85 69 86 70 87 71 88 48 89
REMARK SMILES IDX 49 90 57 91 50 92 52 93 58 94 51 95 53 96 54 97 55 98 56 99
REMARK H PARENT 12 6 3 14 3 15 92 26 19 33 78 52 46 63
REMARK Flexibility Score: inf
ROOT
ATOM      1  C   UNL A   1      30.613  26.801  24.923  1.00  0.00     0.021 C 
ENDROOT
BRANCH   1   2
ATOM      2  C   UNL A   1      30.530  25.423  24.264  1.00  0.00     0.116 C 
BRANCH   2   3
ATOM      3  N   UNL A   1      30.202  24.401  25.245  1.00  0.00    -0.356 N 
ATOM      4  C   UNL A   1      30.939  23.349  25.693  1.00  0.00     0.223 C 
ATOM      5  O   UNL A   1      30.398  22.539  26.447  1.00  0.00    -0.275 OA
ATOM      6  H   UNL A   1      29.308  24.485  25.648  1.00  0.00     0.163 HD
BRANCH   4   7
ATOM      7  C   UNL A   1      32.409  23.254  25.297  1.00  0.00     0.087 C 
ATOM      8  C   UNL A   1      32.878  21.794  25.173  1.00  0.00     0.057 C 
ATOM      9  C   UNL A   1      33.335  21.485  26.612  1.00  0.00     0.010 C 
ATOM     10  C   UNL A   1      33.969  22.773  27.121  1.00  0.00     0.001 C 
ATOM     11  C   UNL A   1      33.278  23.908  26.376  1.00  0.00     0.014 C 
BRANCH   8  12
ATOM     12  C   UNL A   1      34.039  21.534  24.190  1.00  0.00     0.265 C 
BRANCH  12  13
ATOM     13  N   UNL A   1      35.437  21.555  24.636  1.00  0.00    -0.340 N 
ATOM     14  H   UNL A   1      35.428  21.256  25.611  1.00  0.00     0.346 HD
ATOM     15  H   UNL A   1      35.890  20.967  23.937  1.00  0.00     0.346 HD
BRANCH  13  16
ATOM     16  C   UNL A   1      36.265  22.782  24.589  1.00  0.00     0.214 C 
ATOM     17  C   UNL A   1      36.637  22.937  23.093  1.00  0.00     0.081 C 
BRANCH  16  18
ATOM     18  C   UNL A   1      37.472  22.832  25.549  1.00  0.00     0.054 A 
ATOM     19  C   UNL A   1      37.811  24.012  26.240  1.00  0.00     0.053 A 
ATOM     20  C   UNL A   1      38.392  21.779  25.712  1.00  0.00     0.124 A 
ATOM     21  C   UNL A   1      38.967  24.132  27.014  1.00  0.00     0.123 A 
ATOM     22  C   UNL A   1      39.554  21.889  26.494  1.00  0.00     0.050 A 
ATOM     23  F   UNL A   1      39.230  25.299  27.615  1.00  0.00    -0.207 F 
ATOM     24  C   UNL A   1      39.848  23.079  27.146  1.00  0.00     0.043 A 
BRANCH  20  25
ATOM     25  O   UNL A   1      38.217  20.573  25.099  1.00  0.00    -0.507 OA
ATOM     26  H   UNL A   1      38.626  19.806  25.448  1.00  0.00     0.293 HD
ENDBRANCH  20  25
ENDBRANCH  16  18
ENDBRANCH  13  16
ENDBRANCH  12  13
ENDBRANCH   8  12
ENDBRANCH   4   7
ENDBRANCH   2   3
ENDBRANCH   1   2
BRANCH   1  27
ATOM     27  C   UNL A   1      31.004  26.770  26.406  1.00  0.00     0.002 C 
BRANCH  27  28
ATOM     28  C   UNL A   1      32.080  27.781  26.816  1.00  0.00     0.002 C 
BRANCH  28  29
ATOM     29  C   UNL A   1      33.417  27.640  26.082  1.00  0.00     0.021 C 
BRANCH  29  30
ATOM     30  C   UNL A   1      33.908  28.907  25.388  1.00  0.00     0.116 C 
BRANCH  30  31
ATOM     31  N   UNL A   1      33.214  30.097  25.855  1.00  0.00    -0.352 N 
ATOM     32  C   UNL A   1      33.485  30.909  26.928  1.00  0.00     0.251 C 
ATOM     33  H   UNL A   1      32.430  30.359  25.320  1.00  0.00     0.163 HD
ATOM     34  O   UNL A   1      32.672  31.771  27.254  1.00  0.00    -0.269 OA
BRANCH  32  35
ATOM     35  C   UNL A   1      34.735  30.741  27.703  1.00  0.00     0.039 A 
ATOM     36  C   UNL A   1      34.897  29.580  28.462  1.00  0.00     0.014 A 
ATOM     37  C   UNL A   1      35.730  31.724  27.709  1.00  0.00     0.014 A 
ATOM     38  C   UNL A   1      36.077  29.380  29.183  1.00  0.00     0.010 A 
ATOM     39  C   UNL A   1      36.934  31.493  28.374  1.00  0.00     0.010 A 
ATOM     40  C   UNL A   1      37.119  30.320  29.121  1.00  0.00    -0.014 A 
BRANCH  40  41
ATOM     41  C   UNL A   1      38.415  30.059  29.801  1.00  0.00     0.031 A 
ATOM     42  C   UNL A   1      38.709  30.630  31.162  1.00  0.00     0.074 A 
ATOM     43  C   UNL A   1      39.360  29.345  29.157  1.00  0.00     0.049 A 
ATOM     44  N   UNL A   1      39.773  30.474  31.906  1.00  0.00    -0.248 NA
ATOM     45  C   UNL A   1      37.689  31.510  31.754  1.00  0.00     0.031 C 
ATOM     46  C   UNL A   1      39.238  28.818  27.794  1.00  0.00     0.029 A 
ATOM     47  N   UNL A   1      40.614  28.952  29.553  1.00  0.00    -0.354 N 
ATOM     48  C   UNL A   1      39.566  31.251  33.040  1.00  0.00     0.074 A 
ATOM     49  C   UNL A   1      38.288  31.907  32.869  1.00  0.00     0.031 C 
ATOM     50  C   UNL A   1      40.364  28.161  27.475  1.00  0.00     0.029 A 
ATOM     51  C   UNL A   1      41.294  28.233  28.596  1.00  0.00     0.049 A 
ATOM     52  H   UNL A   1      40.991  29.164  30.436  1.00  0.00     0.167 HD
ATOM     53  C   UNL A   1      40.352  31.382  34.136  1.00  0.00     0.034 A 
ATOM     54  C   UNL A   1      42.525  27.687  28.622  1.00  0.00     0.034 A 
ATOM     55  C   UNL A   1      41.604  30.697  34.321  1.00  0.00     0.049 A 
ATOM     56  C   UNL A   1      43.347  27.793  29.876  1.00  0.00     0.074 A 
ATOM     57  C   UNL A   1      42.425  30.691  35.435  1.00  0.00     0.029 A 
ATOM     58  N   UNL A   1      42.223  29.904  33.367  1.00  0.00    -0.354 N 
ATOM     59  N   UNL A   1      43.051  28.382  31.010  1.00  0.00    -0.248 NA
ATOM     60  C   UNL A   1      44.654  27.122  29.871  1.00  0.00     0.031 C 
ATOM     61  C   UNL A   1      43.551  29.910  35.147  1.00  0.00     0.029 A 
ATOM     62  C   UNL A   1      43.420  29.412  33.860  1.00  0.00     0.049 A 
ATOM     63  H   UNL A   1      41.864  29.719  32.469  1.00  0.00     0.167 HD
ATOM     64  C   UNL A   1      44.122  28.131  31.860  1.00  0.00     0.074 A 
ATOM     65  C   UNL A   1      45.056  27.307  31.120  1.00  0.00     0.031 C 
ATOM     66  C   UNL A   1      44.324  28.560  33.130  1.00  0.00     0.034 A 
BRANCH  53  67
ATOM     67  C   UNL A   1      39.848  32.255  35.257  1.00  0.00     0.023 A 
ATOM     68  C   UNL A   1      39.047  31.688  36.270  1.00  0.00     0.012 A 
ATOM     69  C   UNL A   1      40.216  33.612  35.348  1.00  0.00     0.148 A 
ATOM     70  C   UNL A   1      38.594  32.462  37.338  1.00  0.00     0.002 A 
ATOM     71  C   UNL A   1      39.797  34.367  36.438  1.00  0.00     0.091 A 
ATOM     72  F   UNL A   1      40.961  34.140  34.367  1.00  0.00    -0.205 F 
ATOM     73  C   UNL A   1      38.978  33.798  37.427  1.00  0.00     0.022 A 
BRANCH  71  74
ATOM     74  S   UNL A   1      40.299  36.074  36.687  1.00  0.00     0.127 S 
ATOM     75  O   UNL A   1      39.544  36.432  37.887  1.00  0.00    -0.237 OA
ATOM     76  O   UNL A   1      41.741  35.946  36.890  1.00  0.00    -0.237 OA
ATOM     77  O   UNL A   1      39.917  36.785  35.473  1.00  0.00    -0.744 OA
ENDBRANCH  71  74
ENDBRANCH  53  67
BRANCH  54  78
ATOM     78  C   UNL A   1      43.019  26.918  27.444  1.00  0.00     0.023 A 
ATOM     79  C   UNL A   1      43.582  27.609  26.354  1.00  0.00     0.012 A 
ATOM     80  C   UNL A   1      42.965  25.512  27.413  1.00  0.00     0.148 A 
ATOM     81  C   UNL A   1      44.051  26.915  25.238  1.00  0.00     0.002 A 
ATOM     82  C   UNL A   1      43.487  24.824  26.324  1.00  0.00     0.091 A 
ATOM     83  F   UNL A   1      42.413  24.874  28.455  1.00  0.00    -0.205 F 
ATOM     84  C   UNL A   1      44.015  25.523  25.228  1.00  0.00     0.022 A 
BRANCH  82  85
ATOM     85  S   UNL A   1      43.606  23.032  26.291  1.00  0.00     0.127 S 
ATOM     86  O   UNL A   1      45.046  22.829  26.166  1.00  0.00    -0.237 OA
ATOM     87  O   UNL A   1      43.040  22.664  27.590  1.00  0.00    -0.237 OA
ATOM     88  O   UNL A   1      42.803  22.609  25.151  1.00  0.00    -0.744 OA
ENDBRANCH  82  85
ENDBRANCH  54  78
BRANCH  66  89
ATOM     89  C   UNL A   1      45.602  28.137  33.807  1.00  0.00     0.023 A 
ATOM     90  C   UNL A   1      46.742  28.963  33.727  1.00  0.00     0.012 A 
ATOM     91  C   UNL A   1      45.668  26.943  34.553  1.00  0.00     0.148 A 
ATOM     92  C   UNL A   1      47.936  28.588  34.338  1.00  0.00     0.002 A 
ATOM     93  C   UNL A   1      46.849  26.600  35.202  1.00  0.00     0.091 A 
ATOM     94  F   UNL A   1      44.583  26.157  34.604  1.00  0.00    -0.205 F 
ATOM     95  C   UNL A   1      47.988  27.412  35.083  1.00  0.00     0.022 A 
BRANCH  93  96
ATOM     96  S   UNL A   1      46.972  25.151  36.257  1.00  0.00     0.127 S 
ATOM     97  O   UNL A   1      46.881  24.064  35.284  1.00  0.00    -0.237 OA
ATOM     98  O   UNL A   1      48.294  25.315  36.864  1.00  0.00    -0.237 OA
ATOM     99  O   UNL A   1      45.865  25.252  37.198  1.00  0.00    -0.744 OA
ENDBRANCH  93  96
ENDBRANCH  66  89
ENDBRANCH  40  41
ENDBRANCH  32  35
ENDBRANCH  30  31
ENDBRANCH  29  30
ENDBRANCH  28  29
ENDBRANCH  27  28
ENDBRANCH   1  27
TORSDOF 21
ENDMDL
MODEL 2
REMARK VINA RESULT:     -10.4      5.137     10.206
REMARK SMILES C[C@@H]([NH2+]C[C@H]1CCC[C@@H]1C(=O)NCCCCCCNC(=O)c1ccc(-c2c3nc(c(-c4cccc(S(=O)(=O)[O-])c4F)c4ccc([nH]4)c(-c4cccc(S(=O)(=O)[O-])c4F)c4nc(c(-c5cccc(S(=O)(=O)[O-])c5F)c5ccc2[nH]5)C=C4)C=C3)cc1)c1cc(F)ccc1O
REMARK SMILES IDX 14 1 13 2 12 3 10 4 11 5 9 7 5 8 6 9 7 10 8 11 4 12 3 13
REMARK SMILES IDX 2 16 1 17 85 18 86 19 91 20 87 21 90 22 88 23 89 24 92 25
REMARK SMILES IDX 15 27 16 28 17 29 18 30 19 31 20 32 21 34 22 35 23 36 84 37
REMARK SMILES IDX 24 38 83 39 25 40 26 41 27 42 77 43 28 44 82 45 76 46 78 47
REMARK SMILES IDX 29 48 81 49 75 50 74 51 30 53 62 54 42 55 61 56 43 57 46 58
REMARK SMILES IDX 60 59 79 60 44 61 45 62 59 64 80 65 47 66 31 67 32 68 40 69
REMARK SMILES IDX 33 70 35 71 41 72 34 73 36 74 37 75 38 76 39 77 63 78 64 79
REMARK SMILES IDX 72 80 65 81 67 82 73 83 66 84 68 85 69 86 70 87 71 88 48 89
REMARK SMILES IDX 49 90 57 91 50 92 52 93 58 94 51 95 53 96 54 97 55 98 56 99
REMARK H PARENT 12 6 3 14 3 15 92 26 19 33 78 52 46 63
REMARK Flexibility Score: inf
ROOT
ATOM      1  C   UNL A   1      38.137  23.692  26.254  1.00  0.00     0.021 C 
ENDROOT
BRANCH   1   2
ATOM      2  C   UNL A   1      36.731  23.645  25.656  1.00  0.00     0.116 C 
BRANCH   2   3
ATOM      3  N   UNL A   1      35.797  23.021  26.579  1.00  0.00    -0.356 N 
ATOM      4  C   UNL A   1      34.451  22.851  26.483  1.00  0.00     0.223 C 
ATOM      5  O   UNL A   1      33.850  22.396  27.457  1.00  0.00    -0.275 OA
ATOM      6  H   UNL A   1      36.203  22.665  27.402  1.00  0.00     0.163 HD
BRANCH   4   7
ATOM      7  C   UNL A   1      33.758  23.170  25.162  1.00  0.00     0.087 C 
ATOM      8  C   UNL A   1      32.335  23.713  25.375  1.00  0.00     0.057 C 
ATOM      9  C   UNL A   1      31.501  22.418  25.400  1.00  0.00     0.010 C 
ATOM     10  C   UNL A   1      32.153  21.497  24.377  1.00  0.00     0.001 C 
ATOM     11  C   UNL A   1      33.623  21.891  24.328  1.00  0.00     0.014 C 
BRANCH   8  12
ATOM     12  C   UNL A   1      31.797  24.658  24.279  1.00  0.00     0.265 C 
BRANCH  12  13
ATOM     13  N   UNL A   1      32.703  25.361  23.364  1.00  0.00    -0.340 N 
ATOM     14  H   UNL A   1      33.565  24.816  23.345  1.00  0.00     0.346 HD
ATOM     15  H   UNL A   1      32.137  25.432  22.520  1.00  0.00     0.346 HD
BRANCH  13  16
ATOM     16  C   UNL A   1      33.110  26.769  23.580  1.00  0.00     0.214 C 
ATOM     17  C   UNL A   1      33.797  26.763  24.968  1.00  0.00     0.081 C 
BRANCH  16  18
ATOM     18  C   UNL A   1      32.002  27.833  23.428  1.00  0.00     0.054 A 
ATOM     19  C   UNL A   1      31.826  28.849  24.388  1.00  0.00     0.053 A 
ATOM     20  C   UNL A   1      31.017  27.807  22.423  1.00  0.00     0.124 A 
ATOM     21  C   UNL A   1      30.759  29.749  24.352  1.00  0.00     0.123 A 
ATOM     22  C   UNL A   1      29.943  28.712  22.377  1.00  0.00     0.050 A 
ATOM     23  F   UNL A   1      30.648  30.668  25.321  1.00  0.00    -0.207 F 
ATOM     24  C   UNL A   1      29.809  29.688  23.354  1.00  0.00     0.043 A 
BRANCH  20  25
ATOM     25  O   UNL A   1      31.035  26.877  21.426  1.00  0.00    -0.507 OA
ATOM     26  H   UNL A   1      31.182  27.142  20.540  1.00  0.00     0.293 HD
ENDBRANCH  20  25
ENDBRANCH  16  18
ENDBRANCH  13  16
ENDBRANCH  12  13
ENDBRANCH   8  12
ENDBRANCH   4   7
ENDBRANCH   2   3
ENDBRANCH   1   2
BRANCH   1  27
ATOM     27  C   UNL A   1      38.911  22.370  26.158  1.00  0.00     0.002 C 
BRANCH  27  28
ATOM     28  C   UNL A   1      38.300  21.328  25.216  1.00  0.00     0.002 C 
BRANCH  28  29
ATOM     29  C   UNL A   1      38.895  19.921  25.331  1.00  0.00     0.021 C 
BRANCH  29  30
ATOM     30  C   UNL A   1      39.823  19.709  26.524  1.00  0.00     0.116 C 
BRANCH  30  31
ATOM     31  N   UNL A   1      41.120  19.185  26.128  1.00  0.00    -0.352 N 
ATOM     32  C   UNL A   1      42.313  19.839  25.941  1.00  0.00     0.251 C 
ATOM     33  H   UNL A   1      41.147  18.214  25.970  1.00  0.00     0.163 HD
ATOM     34  O   UNL A   1      43.259  19.239  25.437  1.00  0.00    -0.269 OA
BRANCH  32  35
ATOM     35  C   UNL A   1      42.459  21.262  26.324  1.00  0.00     0.039 A 
ATOM     36  C   UNL A   1      42.631  21.574  27.675  1.00  0.00     0.014 A 
ATOM     37  C   UNL A   1      42.403  22.284  25.372  1.00  0.00     0.014 A 
ATOM     38  C   UNL A   1      42.800  22.905  28.064  1.00  0.00     0.010 A 
ATOM     39  C   UNL A   1      42.638  23.606  25.754  1.00  0.00     0.010 A 
ATOM     40  C   UNL A   1      42.835  23.930  27.104  1.00  0.00    -0.014 A 
BRANCH  40  41
ATOM     41  C   UNL A   1      43.120  25.333  27.506  1.00  0.00     0.031 A 
ATOM     42  C   UNL A   1      44.513  25.897  27.427  1.00  0.00     0.074 A 
ATOM     43  C   UNL A   1      42.120  26.088  28.002  1.00  0.00     0.049 A 
ATOM     44  N   UNL A   1      44.927  27.106  27.708  1.00  0.00    -0.248 NA
ATOM     45  C   UNL A   1      45.584  24.982  27.003  1.00  0.00     0.031 C 
ATOM     46  C   UNL A   1      40.745  25.629  28.222  1.00  0.00     0.029 A 
ATOM     47  N   UNL A   1      42.105  27.393  28.425  1.00  0.00    -0.354 N 
ATOM     48  C   UNL A   1      46.304  27.093  27.520  1.00  0.00     0.074 A 
ATOM     49  C   UNL A   1      46.661  25.745  27.135  1.00  0.00     0.031 C 
ATOM     50  C   UNL A   1      40.020  26.640  28.726  1.00  0.00     0.029 A 
ATOM     51  C   UNL A   1      40.876  27.810  28.883  1.00  0.00     0.049 A 
ATOM     52  H   UNL A   1      42.898  27.976  28.405  1.00  0.00     0.167 HD
ATOM     53  C   UNL A   1      47.187  28.116  27.627  1.00  0.00     0.034 A 
ATOM     54  C   UNL A   1      40.481  29.003  29.368  1.00  0.00     0.034 A 
ATOM     55  C   UNL A   1      46.824  29.466  27.972  1.00  0.00     0.049 A 
ATOM     56  C   UNL A   1      41.466  30.138  29.413  1.00  0.00     0.074 A 
ATOM     57  C   UNL A   1      47.630  30.590  28.013  1.00  0.00     0.029 A 
ATOM     58  N   UNL A   1      45.552  29.874  28.344  1.00  0.00    -0.354 N 
ATOM     59  N   UNL A   1      42.727  30.151  29.054  1.00  0.00    -0.248 NA
ATOM     60  C   UNL A   1      40.964  31.435  29.888  1.00  0.00     0.031 C 
ATOM     61  C   UNL A   1      46.849  31.675  28.430  1.00  0.00     0.029 A 
ATOM     62  C   UNL A   1      45.551  31.230  28.627  1.00  0.00     0.049 A 
ATOM     63  H   UNL A   1      44.765  29.286  28.400  1.00  0.00     0.167 HD
ATOM     64  C   UNL A   1      43.161  31.459  29.235  1.00  0.00     0.074 A 
ATOM     65  C   UNL A   1      42.017  32.216  29.702  1.00  0.00     0.031 C 
ATOM     66  C   UNL A   1      44.399  31.982  29.052  1.00  0.00     0.034 A 
BRANCH  53  67
ATOM     67  C   UNL A   1      48.631  27.830  27.304  1.00  0.00     0.023 A 
ATOM     68  C   UNL A   1      49.512  27.459  28.341  1.00  0.00     0.012 A 
ATOM     69  C   UNL A   1      49.103  27.863  25.977  1.00  0.00     0.148 A 
ATOM     70  C   UNL A   1      50.845  27.155  28.069  1.00  0.00     0.002 A 
ATOM     71  C   UNL A   1      50.423  27.517  25.708  1.00  0.00     0.091 A 
ATOM     72  F   UNL A   1      48.258  28.238  25.006  1.00  0.00    -0.205 F 
ATOM     73  C   UNL A   1      51.297  27.174  26.752  1.00  0.00     0.022 A 
BRANCH  71  74
ATOM     74  S   UNL A   1      51.083  27.435  24.038  1.00  0.00     0.127 S 
ATOM     75  O   UNL A   1      50.012  26.734  23.332  1.00  0.00    -0.237 OA
ATOM     76  O   UNL A   1      51.220  28.849  23.690  1.00  0.00    -0.237 OA
ATOM     77  O   UNL A   1      52.343  26.710  24.141  1.00  0.00    -0.744 OA
ENDBRANCH  71  74
ENDBRANCH  53  67
BRANCH  54  78
ATOM     78  C   UNL A   1      39.060  29.206  29.771  1.00  0.00     0.023 A 
ATOM     79  C   UNL A   1      38.662  28.888  31.084  1.00  0.00     0.012 A 
ATOM     80  C   UNL A   1      38.114  29.740  28.876  1.00  0.00     0.148 A 
ATOM     81  C   UNL A   1      37.339  29.065  31.489  1.00  0.00     0.002 A 
ATOM     82  C   UNL A   1      36.811  29.968  29.303  1.00  0.00     0.091 A 
ATOM     83  F   UNL A   1      38.510  30.023  27.627  1.00  0.00    -0.205 F 
ATOM     84  C   UNL A   1      36.417  29.616  30.603  1.00  0.00     0.022 A 
BRANCH  82  85
ATOM     85  S   UNL A   1      35.598  30.800  28.273  1.00  0.00     0.127 S 
ATOM     86  O   UNL A   1      35.162  29.722  27.391  1.00  0.00    -0.237 OA
ATOM     87  O   UNL A   1      34.605  31.231  29.258  1.00  0.00    -0.237 OA
ATOM     88  O   UNL A   1      36.315  31.894  27.632  1.00  0.00    -0.744 OA
ENDBRANCH  82  85
ENDBRANCH  54  78
BRANCH  66  89
ATOM     89  C   UNL A   1      44.579  33.450  29.347  1.00  0.00     0.023 A 
ATOM     90  C   UNL A   1      45.022  33.856  30.622  1.00  0.00     0.012 A 
ATOM     91  C   UNL A   1      44.346  34.424  28.356  1.00  0.00     0.148 A 
ATOM     92  C   UNL A   1      45.188  35.207  30.920  1.00  0.00     0.002 A 
ATOM     93  C   UNL A   1      44.561  35.766  28.645  1.00  0.00     0.091 A 
ATOM     94  F   UNL A   1      43.905  34.024  27.155  1.00  0.00    -0.205 F 
ATOM     95  C   UNL A   1      44.966  36.162  29.930  1.00  0.00     0.022 A 
BRANCH  93  96
ATOM     96  S   UNL A   1      44.389  37.051  27.401  1.00  0.00     0.127 S 
ATOM     97  O   UNL A   1      45.557  36.809  26.557  1.00  0.00    -0.237 OA
ATOM     98  O   UNL A   1      43.107  36.716  26.778  1.00  0.00    -0.237 OA
ATOM     99  O   UNL A   1      44.387  38.311  28.133  1.00  0.00    -0.744 OA
ENDBRANCH  93  96
ENDBRANCH  66  89
ENDBRANCH  40  41
ENDBRANCH  32  35
ENDBRANCH  30  31
ENDBRANCH  29  30
ENDBRANCH  28  29
ENDBRANCH  27  28
ENDBRANCH   1  27
TORSDOF 21
ENDMDL
MODEL 3
REMARK VINA RESULT:     -10.4      5.372      8.773
REMARK SMILES C[C@@H]([NH2+]C[C@H]1CCC[C@@H]1C(=O)NCCCCCCNC(=O)c1ccc(-c2c3nc(c(-c4cccc(S(=O)(=O)[O-])c4F)c4ccc([nH]4)c(-c4cccc(S(=O)(=O)[O-])c4F)c4nc(c(-c5cccc(S(=O)(=O)[O-])c5F)c5ccc2[nH]5)C=C4)C=C3)cc1)c1cc(F)ccc1O
REMARK SMILES IDX 14 1 13 2 12 3 10 4 11 5 9 7 5 8 6 9 7 10 8 11 4 12 3 13
REMARK SMILES IDX 2 16 1 17 85 18 86 19 91 20 87 21 90 22 88 23 89 24 92 25
REMARK SMILES IDX 15 27 16 28 17 29 18 30 19 31 20 32 21 34 22 35 23 36 84 37
REMARK SMILES IDX 24 38 83 39 25 40 26 41 27 42 77 43 28 44 82 45 76 46 78 47
REMARK SMILES IDX 29 48 81 49 75 50 74 51 30 53 62 54 42 55 61 56 43 57 46 58
REMARK SMILES IDX 60 59 79 60 44 61 45 62 59 64 80 65 47 66 31 67 32 68 40 69
REMARK SMILES IDX 33 70 35 71 41 72 34 73 36 74 37 75 38 76 39 77 63 78 64 79
REMARK SMILES IDX 72 80 65 81 67 82 73 83 66 84 68 85 69 86 70 87 71 88 48 89
REMARK SMILES IDX 49 90 57 91 50 92 52 93 58 94 51 95 53 96 54 97 55 98 56 99
REMARK H PARENT 12 6 3 14 3 15 92 26 19 33 78 52 46 63
REMARK Flexibility Score: inf
ROOT
ATOM      1  C   UNL A   1      37.722  23.644  25.644  1.00  0.00     0.021 C 
ENDROOT
BRANCH   1   2
ATOM      2  C   UNL A   1      36.498  23.847  24.749  1.00  0.00     0.116 C 
BRANCH   2   3
ATOM      3  N   UNL A   1      35.277  23.857  25.539  1.00  0.00    -0.356 N 
ATOM      4  C   UNL A   1      33.984  24.025  25.151  1.00  0.00     0.223 C 
ATOM      5  O   UNL A   1      33.122  24.116  26.025  1.00  0.00    -0.275 OA
ATOM      6  H   UNL A   1      35.407  23.719  26.505  1.00  0.00     0.163 HD
BRANCH   4   7
ATOM      7  C   UNL A   1      33.654  24.030  23.662  1.00  0.00     0.087 C 
ATOM      8  C   UNL A   1      32.437  24.916  23.346  1.00  0.00     0.057 C 
ATOM      9  C   UNL A   1      31.270  23.923  23.512  1.00  0.00     0.010 C 
ATOM     10  C   UNL A   1      31.792  22.592  22.985  1.00  0.00     0.001 C 
ATOM     11  C   UNL A   1      33.299  22.610  23.207  1.00  0.00     0.014 C 
BRANCH   8  12
ATOM     12  C   UNL A   1      32.395  25.535  21.932  1.00  0.00     0.265 C 
BRANCH  12  13
ATOM     13  N   UNL A   1      32.546  26.979  21.726  1.00  0.00    -0.340 N 
ATOM     14  H   UNL A   1      33.537  27.138  21.546  1.00  0.00     0.346 HD
ATOM     15  H   UNL A   1      31.868  27.158  20.986  1.00  0.00     0.346 HD
BRANCH  13  16
ATOM     16  C   UNL A   1      32.149  27.971  22.753  1.00  0.00     0.214 C 
ATOM     17  C   UNL A   1      32.826  27.470  24.052  1.00  0.00     0.081 C 
BRANCH  16  18
ATOM     18  C   UNL A   1      30.637  28.244  22.893  1.00  0.00     0.054 A 
ATOM     19  C   UNL A   1      29.784  27.328  23.542  1.00  0.00     0.053 A 
ATOM     20  C   UNL A   1      29.973  29.329  22.290  1.00  0.00     0.124 A 
ATOM     21  C   UNL A   1      28.396  27.479  23.576  1.00  0.00     0.123 A 
ATOM     22  C   UNL A   1      28.577  29.490  22.325  1.00  0.00     0.050 A 
ATOM     23  F   UNL A   1      27.655  26.547  24.189  1.00  0.00    -0.207 F 
ATOM     24  C   UNL A   1      27.781  28.553  22.968  1.00  0.00     0.043 A 
BRANCH  20  25
ATOM     25  O   UNL A   1      30.652  30.297  21.612  1.00  0.00    -0.507 OA
ATOM     26  H   UNL A   1      31.572  30.409  21.749  1.00  0.00     0.293 HD
ENDBRANCH  20  25
ENDBRANCH  16  18
ENDBRANCH  13  16
ENDBRANCH  12  13
ENDBRANCH   8  12
ENDBRANCH   4   7
ENDBRANCH   2   3
ENDBRANCH   1   2
BRANCH   1  27
ATOM     27  C   UNL A   1      38.040  22.175  25.957  1.00  0.00     0.002 C 
BRANCH  27  28
ATOM     28  C   UNL A   1      37.700  21.185  24.839  1.00  0.00     0.002 C 
BRANCH  28  29
ATOM     29  C   UNL A   1      38.447  19.849  24.906  1.00  0.00     0.021 C 
BRANCH  29  30
ATOM     30  C   UNL A   1      39.065  19.523  26.263  1.00  0.00     0.116 C 
BRANCH  30  31
ATOM     31  N   UNL A   1      40.334  18.823  26.137  1.00  0.00    -0.352 N 
ATOM     32  C   UNL A   1      41.611  19.323  26.080  1.00  0.00     0.251 C 
ATOM     33  H   UNL A   1      40.266  17.843  26.085  1.00  0.00     0.163 HD
ATOM     34  O   UNL A   1      42.542  18.572  25.799  1.00  0.00    -0.269 OA
BRANCH  32  35
ATOM     35  C   UNL A   1      41.871  20.758  26.334  1.00  0.00     0.039 A 
ATOM     36  C   UNL A   1      42.424  21.128  27.562  1.00  0.00     0.014 A 
ATOM     37  C   UNL A   1      41.551  21.738  25.389  1.00  0.00     0.014 A 
ATOM     38  C   UNL A   1      42.706  22.471  27.821  1.00  0.00     0.010 A 
ATOM     39  C   UNL A   1      41.894  23.070  25.622  1.00  0.00     0.010 A 
ATOM     40  C   UNL A   1      42.472  23.451  26.841  1.00  0.00    -0.014 A 
BRANCH  40  41
ATOM     41  C   UNL A   1      42.870  24.865  27.075  1.00  0.00     0.031 A 
ATOM     42  C   UNL A   1      41.928  25.841  27.726  1.00  0.00     0.074 A 
ATOM     43  C   UNL A   1      44.076  25.286  26.643  1.00  0.00     0.049 A 
ATOM     44  N   UNL A   1      42.127  27.096  28.031  1.00  0.00    -0.248 NA
ATOM     45  C   UNL A   1      40.579  25.353  28.055  1.00  0.00     0.031 C 
ATOM     46  C   UNL A   1      45.043  24.465  25.910  1.00  0.00     0.029 A 
ATOM     47  N   UNL A   1      44.687  26.510  26.741  1.00  0.00    -0.354 N 
ATOM     48  C   UNL A   1      40.928  27.557  28.563  1.00  0.00     0.074 A 
ATOM     49  C   UNL A   1      39.994  26.455  28.506  1.00  0.00     0.031 C 
ATOM     50  C   UNL A   1      46.130  25.204  25.637  1.00  0.00     0.029 A 
ATOM     51  C   UNL A   1      45.932  26.553  26.158  1.00  0.00     0.049 A 
ATOM     52  H   UNL A   1      44.275  27.285  27.187  1.00  0.00     0.167 HD
ATOM     53  C   UNL A   1      40.641  28.777  29.080  1.00  0.00     0.034 A 
ATOM     54  C   UNL A   1      46.819  27.562  26.059  1.00  0.00     0.034 A 
ATOM     55  C   UNL A   1      41.583  29.861  29.172  1.00  0.00     0.049 A 
ATOM     56  C   UNL A   1      46.499  28.884  26.699  1.00  0.00     0.074 A 
ATOM     57  C   UNL A   1      41.415  31.100  29.765  1.00  0.00     0.029 A 
ATOM     58  N   UNL A   1      42.868  29.840  28.650  1.00  0.00    -0.354 N 
ATOM     59  N   UNL A   1      45.425  29.241  27.362  1.00  0.00    -0.248 NA
ATOM     60  C   UNL A   1      47.530  29.928  26.618  1.00  0.00     0.031 C 
ATOM     61  C   UNL A   1      42.591  31.837  29.583  1.00  0.00     0.029 A 
ATOM     62  C   UNL A   1      43.500  31.047  28.896  1.00  0.00     0.049 A 
ATOM     63  H   UNL A   1      43.270  29.079  28.173  1.00  0.00     0.167 HD
ATOM     64  C   UNL A   1      45.662  30.540  27.798  1.00  0.00     0.074 A 
ATOM     65  C   UNL A   1      46.995  30.891  27.353  1.00  0.00     0.031 C 
ATOM     66  C   UNL A   1      44.842  31.373  28.485  1.00  0.00     0.034 A 
BRANCH  53  67
ATOM     67  C   UNL A   1      39.261  28.986  29.650  1.00  0.00     0.023 A 
ATOM     68  C   UNL A   1      39.010  28.654  30.997  1.00  0.00     0.012 A 
ATOM     69  C   UNL A   1      38.234  29.570  28.881  1.00  0.00     0.148 A 
ATOM     70  C   UNL A   1      37.754  28.869  31.562  1.00  0.00     0.002 A 
ATOM     71  C   UNL A   1      36.996  29.820  29.464  1.00  0.00     0.091 A 
ATOM     72  F   UNL A   1      38.483  29.860  27.596  1.00  0.00    -0.205 F 
ATOM     73  C   UNL A   1      36.751  29.461  30.798  1.00  0.00     0.022 A 
BRANCH  71  74
ATOM     74  S   UNL A   1      35.662  30.649  28.589  1.00  0.00     0.127 S 
ATOM     75  O   UNL A   1      35.019  31.393  29.671  1.00  0.00    -0.237 OA
ATOM     76  O   UNL A   1      36.390  31.477  27.628  1.00  0.00    -0.237 OA
ATOM     77  O   UNL A   1      34.857  29.591  27.993  1.00  0.00    -0.744 OA
ENDBRANCH  71  74
ENDBRANCH  53  67
BRANCH  54  78
ATOM     78  C   UNL A   1      48.133  27.332  25.393  1.00  0.00     0.023 A 
ATOM     79  C   UNL A   1      49.232  26.904  26.161  1.00  0.00     0.012 A 
ATOM     80  C   UNL A   1      48.289  27.502  24.004  1.00  0.00     0.148 A 
ATOM     81  C   UNL A   1      50.474  26.682  25.565  1.00  0.00     0.002 A 
ATOM     82  C   UNL A   1      49.513  27.224  23.407  1.00  0.00     0.091 A 
ATOM     83  F   UNL A   1      47.234  27.923  23.292  1.00  0.00    -0.205 F 
ATOM     84  C   UNL A   1      50.611  26.830  24.187  1.00  0.00     0.022 A 
BRANCH  82  85
ATOM     85  S   UNL A   1      49.739  27.255  21.626  1.00  0.00     0.127 S 
ATOM     86  O   UNL A   1      49.542  28.669  21.323  1.00  0.00    -0.237 OA
ATOM     87  O   UNL A   1      51.117  26.779  21.485  1.00  0.00    -0.237 OA
ATOM     88  O   UNL A   1      48.737  26.344  21.090  1.00  0.00    -0.744 OA
ENDBRANCH  82  85
ENDBRANCH  54  78
BRANCH  66  89
ATOM     89  C   UNL A   1      45.370  32.748  28.809  1.00  0.00     0.023 A 
ATOM     90  C   UNL A   1      46.017  32.974  30.041  1.00  0.00     0.012 A 
ATOM     91  C   UNL A   1      45.261  33.805  27.884  1.00  0.00     0.148 A 
ATOM     92  C   UNL A   1      46.506  34.238  30.365  1.00  0.00     0.002 A 
ATOM     93  C   UNL A   1      45.794  35.050  28.194  1.00  0.00     0.091 A 
ATOM     94  F   UNL A   1      44.624  33.580  26.725  1.00  0.00    -0.205 F 
ATOM     95  C   UNL A   1      46.403  35.273  29.439  1.00  0.00     0.022 A 
BRANCH  93  96
ATOM     96  S   UNL A   1      45.787  36.412  27.021  1.00  0.00     0.127 S 
ATOM     97  O   UNL A   1      44.357  36.595  26.785  1.00  0.00    -0.237 OA
ATOM     98  O   UNL A   1      46.422  37.488  27.784  1.00  0.00    -0.237 OA
ATOM     99  O   UNL A   1      46.563  35.951  25.877  1.00  0.00    -0.744 OA
ENDBRANCH  93  96
ENDBRANCH  66  89
ENDBRANCH  40  41
ENDBRANCH  32  35
ENDBRANCH  30  31
ENDBRANCH  29  30
ENDBRANCH  28  29
ENDBRANCH  27  28
ENDBRANCH   1  27
TORSDOF 21
ENDMDL
