MODEL 1
REMARK VINA RESULT:     -10.4      0.000      0.000
REMARK SMILES CC[C@H](NC(=O)N1CCO[C@@H](CC(=O)NCCCCCCNC(=O)c2ccc(-c3c4nc(c(-c5cccc(S(=O)(=O)[O-])c5F)c5ccc([nH]5)c(-c5cccc(S(=O)(=O)[O-])c5F)c5nc(c(-c6cccc(S(=O)(=O)[O-])c6F)c6ccc3[nH]6)C=C5)C=C4)cc2)C1)c1cccs1
REMARK SMILES IDX 18 1 17 2 16 3 15 4 13 5 14 6 12 8 11 9 7 10 8 11 88 12 9 13
REMARK SMILES IDX 10 14 5 15 4 16 6 18 3 19 2 20 1 21 89 22 90 23 93 24 91 25
REMARK SMILES IDX 92 26 19 27 20 28 21 29 22 30 23 31 24 33 25 34 26 35 87 36
REMARK SMILES IDX 27 37 86 38 28 39 29 40 30 41 80 42 31 43 85 44 79 45 81 46
REMARK SMILES IDX 32 47 84 48 78 49 77 50 33 52 65 53 45 54 64 55 46 56 49 57
REMARK SMILES IDX 63 58 82 59 47 60 48 61 62 63 83 64 50 65 34 66 35 67 43 68
REMARK SMILES IDX 36 69 38 70 44 71 37 72 39 73 40 74 41 75 42 76 66 77 67 78
REMARK SMILES IDX 75 79 68 80 70 81 76 82 69 83 71 84 72 85 73 86 74 87 51 88
REMARK SMILES IDX 52 89 60 90 53 91 55 92 61 93 54 94 56 95 57 96 58 97 59 98
REMARK H PARENT 15 7 4 17 22 32 81 51 49 62
REMARK Flexibility Score: inf
ROOT
ATOM      1  C   UNL A   1      34.147  30.587  27.632  1.00  0.00     0.002 C 
ENDROOT
BRANCH   1   2
ATOM      2  C   UNL A   1      34.943  29.435  27.027  1.00  0.00     0.021 C 
BRANCH   2   3
ATOM      3  C   UNL A   1      34.095  28.417  26.253  1.00  0.00     0.116 C 
BRANCH   3   4
ATOM      4  N   UNL A   1      34.047  28.775  24.840  1.00  0.00    -0.356 N 
ATOM      5  C   UNL A   1      33.226  28.330  23.843  1.00  0.00     0.222 C 
ATOM      6  O   UNL A   1      33.492  28.639  22.681  1.00  0.00    -0.275 OA
ATOM      7  H   UNL A   1      34.712  29.444  24.560  1.00  0.00     0.163 HD
BRANCH   5   8
ATOM      8  C   UNL A   1      32.007  27.496  24.168  1.00  0.00     0.133 C 
BRANCH   8   9
ATOM      9  C   UNL A   1      32.186  25.979  24.028  1.00  0.00     0.147 C 
ATOM     10  N   UNL A   1      31.933  23.833  25.332  1.00  0.00    -0.320 N 
ATOM     11  C   UNL A   1      30.789  23.516  24.488  1.00  0.00     0.150 C 
ATOM     12  C   UNL A   1      32.147  25.268  25.387  1.00  0.00     0.154 C 
ATOM     13  C   UNL A   1      30.988  24.119  23.101  1.00  0.00     0.182 C 
ATOM     14  O   UNL A   1      31.097  25.547  23.174  1.00  0.00    -0.374 OA
BRANCH  10  15
ATOM     15  C   UNL A   1      32.022  23.218  26.556  1.00  0.00     0.318 C 
ATOM     16  N   UNL A   1      32.801  22.118  26.664  1.00  0.00    -0.330 N 
ATOM     17  H   UNL A   1      33.052  21.909  27.593  1.00  0.00     0.166 HD
ATOM     18  O   UNL A   1      31.532  23.703  27.576  1.00  0.00    -0.249 OA
BRANCH  16  19
ATOM     19  C   UNL A   1      33.346  21.175  25.695  1.00  0.00     0.124 C 
BRANCH  19  20
ATOM     20  C   UNL A   1      32.240  20.478  24.877  1.00  0.00     0.027 C 
ATOM     21  C   UNL A   1      32.692  19.431  23.871  1.00  0.00     0.006 C 
ENDBRANCH  19  20
BRANCH  19  22
ATOM     22  C   UNL A   1      34.526  21.700  24.913  1.00  0.00     0.027 A 
ATOM     23  C   UNL A   1      34.578  22.629  23.888  1.00  0.00     0.017 A 
ATOM     24  S   UNL A   1      36.099  21.057  25.225  1.00  0.00    -0.147 S 
ATOM     25  C   UNL A   1      35.908  22.888  23.441  1.00  0.00     0.012 A 
ATOM     26  C   UNL A   1      36.833  22.117  24.105  1.00  0.00     0.065 A 
ENDBRANCH  19  22
ENDBRANCH  16  19
ENDBRANCH  10  15
ENDBRANCH   8   9
ENDBRANCH   5   8
ENDBRANCH   3   4
ENDBRANCH   2   3
ENDBRANCH   1   2
BRANCH   1  27
ATOM     27  C   UNL A   1      32.661  30.584  27.262  1.00  0.00     0.002 C 
BRANCH  27  28
ATOM     28  C   UNL A   1      31.999  31.964  27.184  1.00  0.00     0.021 C 
BRANCH  28  29
ATOM     29  C   UNL A   1      32.948  33.117  26.861  1.00  0.00     0.116 C 
BRANCH  29  30
ATOM     30  N   UNL A   1      32.729  34.252  27.748  1.00  0.00    -0.352 N 
ATOM     31  C   UNL A   1      33.260  34.504  28.985  1.00  0.00     0.251 C 
ATOM     32  H   UNL A   1      32.109  34.939  27.408  1.00  0.00     0.163 HD
ATOM     33  O   UNL A   1      32.759  35.372  29.706  1.00  0.00    -0.269 OA
BRANCH  31  34
ATOM     34  C   UNL A   1      34.431  33.741  29.457  1.00  0.00     0.039 A 
ATOM     35  C   UNL A   1      35.701  34.059  28.967  1.00  0.00     0.014 A 
ATOM     36  C   UNL A   1      34.272  32.691  30.368  1.00  0.00     0.014 A 
ATOM     37  C   UNL A   1      36.816  33.356  29.427  1.00  0.00     0.010 A 
ATOM     38  C   UNL A   1      35.391  32.043  30.880  1.00  0.00     0.010 A 
ATOM     39  C   UNL A   1      36.673  32.359  30.407  1.00  0.00    -0.014 A 
BRANCH  39  40
ATOM     40  C   UNL A   1      37.850  31.637  30.951  1.00  0.00     0.031 A 
ATOM     41  C   UNL A   1      38.410  32.004  32.298  1.00  0.00     0.074 A 
ATOM     42  C   UNL A   1      38.468  30.709  30.194  1.00  0.00     0.049 A 
ATOM     43  N   UNL A   1      39.456  31.521  32.916  1.00  0.00    -0.248 NA
ATOM     44  C   UNL A   1      37.722  33.077  33.034  1.00  0.00     0.031 C 
ATOM     45  C   UNL A   1      38.066  30.318  28.842  1.00  0.00     0.029 A 
ATOM     46  N   UNL A   1      39.580  29.943  30.445  1.00  0.00    -0.354 N 
ATOM     47  C   UNL A   1      39.571  32.250  34.095  1.00  0.00     0.074 A 
ATOM     48  C   UNL A   1      38.511  33.235  34.085  1.00  0.00     0.031 C 
ATOM     49  C   UNL A   1      38.911  29.379  28.386  1.00  0.00     0.029 A 
ATOM     50  C   UNL A   1      39.930  29.123  29.399  1.00  0.00     0.049 A 
ATOM     51  H   UNL A   1      40.077  29.979  31.293  1.00  0.00     0.167 HD
ATOM     52  C   UNL A   1      40.457  32.095  35.108  1.00  0.00     0.034 A 
ATOM     53  C   UNL A   1      40.958  28.263  29.269  1.00  0.00     0.034 A 
ATOM     54  C   UNL A   1      41.487  31.090  35.126  1.00  0.00     0.049 A 
ATOM     55  C   UNL A   1      41.914  28.087  30.417  1.00  0.00     0.074 A 
ATOM     56  C   UNL A   1      42.382  30.793  36.139  1.00  0.00     0.029 A 
ATOM     57  N   UNL A   1      41.769  30.227  34.079  1.00  0.00    -0.354 N 
ATOM     58  N   UNL A   1      41.912  28.675  31.590  1.00  0.00    -0.248 NA
ATOM     59  C   UNL A   1      42.992  27.104  30.240  1.00  0.00     0.031 C 
ATOM     60  C   UNL A   1      43.222  29.767  35.692  1.00  0.00     0.029 A 
ATOM     61  C   UNL A   1      42.832  29.404  34.414  1.00  0.00     0.049 A 
ATOM     62  H   UNL A   1      41.285  30.202  33.222  1.00  0.00     0.167 HD
ATOM     63  C   UNL A   1      42.963  28.108  32.302  1.00  0.00     0.074 A 
ATOM     64  C   UNL A   1      43.568  27.118  31.435  1.00  0.00     0.031 C 
ATOM     65  C   UNL A   1      43.395  28.390  33.557  1.00  0.00     0.034 A 
BRANCH  52  66
ATOM     66  C   UNL A   1      40.315  33.007  36.300  1.00  0.00     0.023 A 
ATOM     67  C   UNL A   1      41.035  34.220  36.337  1.00  0.00     0.012 A 
ATOM     68  C   UNL A   1      39.455  32.685  37.368  1.00  0.00     0.148 A 
ATOM     69  C   UNL A   1      40.941  35.072  37.437  1.00  0.00     0.002 A 
ATOM     70  C   UNL A   1      39.330  33.562  38.440  1.00  0.00     0.091 A 
ATOM     71  F   UNL A   1      38.794  31.519  37.330  1.00  0.00    -0.205 F 
ATOM     72  C   UNL A   1      40.082  34.747  38.483  1.00  0.00     0.022 A 
BRANCH  70  73
ATOM     73  S   UNL A   1      38.189  33.270  39.797  1.00  0.00     0.127 S 
ATOM     74  O   UNL A   1      38.326  34.505  40.568  1.00  0.00    -0.237 OA
ATOM     75  O   UNL A   1      36.910  33.125  39.101  1.00  0.00    -0.237 OA
ATOM     76  O   UNL A   1      38.658  32.060  40.459  1.00  0.00    -0.744 OA
ENDBRANCH  70  73
ENDBRANCH  52  66
BRANCH  53  77
ATOM     77  C   UNL A   1      41.083  27.440  28.032  1.00  0.00     0.023 A 
ATOM     78  C   UNL A   1      41.654  28.016  26.880  1.00  0.00     0.012 A 
ATOM     79  C   UNL A   1      40.688  26.089  28.002  1.00  0.00     0.148 A 
ATOM     80  C   UNL A   1      41.807  27.268  25.712  1.00  0.00     0.002 A 
ATOM     81  C   UNL A   1      40.892  25.335  26.852  1.00  0.00     0.091 A 
ATOM     82  F   UNL A   1      40.141  25.563  29.107  1.00  0.00    -0.205 F 
ATOM     83  C   UNL A   1      41.436  25.927  25.701  1.00  0.00     0.022 A 
BRANCH  81  84
ATOM     84  S   UNL A   1      40.563  23.570  26.781  1.00  0.00     0.127 S 
ATOM     85  O   UNL A   1      41.460  23.142  25.710  1.00  0.00    -0.237 OA
ATOM     86  O   UNL A   1      40.956  23.139  28.123  1.00  0.00    -0.237 OA
ATOM     87  O   UNL A   1      39.140  23.442  26.500  1.00  0.00    -0.744 OA
ENDBRANCH  81  84
ENDBRANCH  53  77
BRANCH  65  88
ATOM     88  C   UNL A   1      44.560  27.596  34.089  1.00  0.00     0.023 A 
ATOM     89  C   UNL A   1      45.869  28.106  33.973  1.00  0.00     0.012 A 
ATOM     90  C   UNL A   1      44.349  26.381  34.770  1.00  0.00     0.148 A 
ATOM     91  C   UNL A   1      46.952  27.402  34.496  1.00  0.00     0.002 A 
ATOM     92  C   UNL A   1      45.428  25.710  35.333  1.00  0.00     0.091 A 
ATOM     93  F   UNL A   1      43.099  25.904  34.855  1.00  0.00    -0.205 F 
ATOM     94  C   UNL A   1      46.731  26.212  35.186  1.00  0.00     0.022 A 
BRANCH  92  95
ATOM     95  S   UNL A   1      45.229  24.224  36.324  1.00  0.00     0.127 S 
ATOM     96  O   UNL A   1      44.310  23.439  35.501  1.00  0.00    -0.237 OA
ATOM     97  O   UNL A   1      46.595  23.704  36.381  1.00  0.00    -0.237 OA
ATOM     98  O   UNL A   1      44.696  24.666  37.606  1.00  0.00    -0.744 OA
ENDBRANCH  92  95
ENDBRANCH  65  88
ENDBRANCH  39  40
ENDBRANCH  31  34
ENDBRANCH  29  30
ENDBRANCH  28  29
ENDBRANCH  27  28
ENDBRANCH   1  27
TORSDOF 21
ENDMDL
MODEL 2
REMARK VINA RESULT:     -10.2      2.075      2.424
REMARK SMILES CC[C@H](NC(=O)N1CCO[C@@H](CC(=O)NCCCCCCNC(=O)c2ccc(-c3c4nc(c(-c5cccc(S(=O)(=O)[O-])c5F)c5ccc([nH]5)c(-c5cccc(S(=O)(=O)[O-])c5F)c5nc(c(-c6cccc(S(=O)(=O)[O-])c6F)c6ccc3[nH]6)C=C5)C=C4)cc2)C1)c1cccs1
REMARK SMILES IDX 18 1 17 2 16 3 15 4 13 5 14 6 12 8 11 9 7 10 8 11 88 12 9 13
REMARK SMILES IDX 10 14 5 15 4 16 6 18 3 19 2 20 1 21 89 22 90 23 93 24 91 25
REMARK SMILES IDX 92 26 19 27 20 28 21 29 22 30 23 31 24 33 25 34 26 35 87 36
REMARK SMILES IDX 27 37 86 38 28 39 29 40 30 41 80 42 31 43 85 44 79 45 81 46
REMARK SMILES IDX 32 47 84 48 78 49 77 50 33 52 65 53 45 54 64 55 46 56 49 57
REMARK SMILES IDX 63 58 82 59 47 60 48 61 62 63 83 64 50 65 34 66 35 67 43 68
REMARK SMILES IDX 36 69 38 70 44 71 37 72 39 73 40 74 41 75 42 76 66 77 67 78
REMARK SMILES IDX 75 79 68 80 70 81 76 82 69 83 71 84 72 85 73 86 74 87 51 88
REMARK SMILES IDX 52 89 60 90 53 91 55 92 61 93 54 94 56 95 57 96 58 97 59 98
REMARK H PARENT 15 7 4 17 22 32 81 51 49 62
REMARK Flexibility Score: inf
ROOT
ATOM      1  C   UNL A   1      35.177  31.807  28.048  1.00  0.00     0.002 C 
ENDROOT
BRANCH   1   2
ATOM      2  C   UNL A   1      35.486  30.372  27.632  1.00  0.00     0.021 C 
BRANCH   2   3
ATOM      3  C   UNL A   1      34.259  29.561  27.198  1.00  0.00     0.116 C 
BRANCH   3   4
ATOM      4  N   UNL A   1      34.026  29.729  25.769  1.00  0.00    -0.356 N 
ATOM      5  C   UNL A   1      33.201  29.045  24.921  1.00  0.00     0.222 C 
ATOM      6  O   UNL A   1      33.307  29.243  23.710  1.00  0.00    -0.275 OA
ATOM      7  H   UNL A   1      34.544  30.451  25.347  1.00  0.00     0.163 HD
BRANCH   5   8
ATOM      8  C   UNL A   1      32.168  28.083  25.466  1.00  0.00     0.133 C 
BRANCH   8   9
ATOM      9  C   UNL A   1      32.290  26.634  24.976  1.00  0.00     0.147 C 
ATOM     10  N   UNL A   1      31.484  24.300  25.498  1.00  0.00    -0.320 N 
ATOM     11  C   UNL A   1      30.670  24.367  24.293  1.00  0.00     0.150 C 
ATOM     12  C   UNL A   1      31.755  25.632  26.008  1.00  0.00     0.154 C 
ATOM     13  C   UNL A   1      31.357  25.249  23.254  1.00  0.00     0.182 C 
ATOM     14  O   UNL A   1      31.524  26.585  23.747  1.00  0.00    -0.374 OA
BRANCH  10  15
ATOM     15  C   UNL A   1      31.121  23.404  26.473  1.00  0.00     0.318 C 
ATOM     16  N   UNL A   1      31.900  22.315  26.662  1.00  0.00    -0.330 N 
ATOM     17  H   UNL A   1      31.762  21.885  27.537  1.00  0.00     0.166 HD
ATOM     18  O   UNL A   1      30.200  23.621  27.260  1.00  0.00    -0.249 OA
BRANCH  16  19
ATOM     19  C   UNL A   1      32.901  21.641  25.842  1.00  0.00     0.124 C 
BRANCH  19  20
ATOM     20  C   UNL A   1      32.275  20.951  24.614  1.00  0.00     0.027 C 
ATOM     21  C   UNL A   1      32.623  19.486  24.403  1.00  0.00     0.006 C 
ENDBRANCH  19  20
BRANCH  19  22
ATOM     22  C   UNL A   1      34.147  22.454  25.590  1.00  0.00     0.027 A 
ATOM     23  C   UNL A   1      34.930  23.188  26.465  1.00  0.00     0.017 A 
ATOM     24  S   UNL A   1      34.740  22.611  23.975  1.00  0.00    -0.147 S 
ATOM     25  C   UNL A   1      36.062  23.782  25.833  1.00  0.00     0.012 A 
ATOM     26  C   UNL A   1      36.091  23.523  24.483  1.00  0.00     0.065 A 
ENDBRANCH  19  22
ENDBRANCH  16  19
ENDBRANCH  10  15
ENDBRANCH   8   9
ENDBRANCH   5   8
ENDBRANCH   3   4
ENDBRANCH   2   3
ENDBRANCH   1   2
BRANCH   1  27
ATOM     27  C   UNL A   1      33.690  32.085  28.282  1.00  0.00     0.002 C 
BRANCH  27  28
ATOM     28  C   UNL A   1      33.176  33.421  27.733  1.00  0.00     0.021 C 
BRANCH  28  29
ATOM     29  C   UNL A   1      33.937  34.653  28.219  1.00  0.00     0.116 C 
BRANCH  29  30
ATOM     30  N   UNL A   1      33.335  35.211  29.423  1.00  0.00    -0.352 N 
ATOM     31  C   UNL A   1      33.557  34.889  30.735  1.00  0.00     0.251 C 
ATOM     32  H   UNL A   1      32.671  35.923  29.271  1.00  0.00     0.163 HD
ATOM     33  O   UNL A   1      32.767  35.268  31.606  1.00  0.00    -0.269 OA
BRANCH  31  34
ATOM     34  C   UNL A   1      34.740  34.091  31.112  1.00  0.00     0.039 A 
ATOM     35  C   UNL A   1      36.011  34.526  30.728  1.00  0.00     0.014 A 
ATOM     36  C   UNL A   1      34.591  32.897  31.825  1.00  0.00     0.014 A 
ATOM     37  C   UNL A   1      37.137  33.788  31.101  1.00  0.00     0.010 A 
ATOM     38  C   UNL A   1      35.716  32.204  32.258  1.00  0.00     0.010 A 
ATOM     39  C   UNL A   1      37.000  32.634  31.891  1.00  0.00    -0.014 A 
BRANCH  39  40
ATOM     40  C   UNL A   1      38.185  31.864  32.345  1.00  0.00     0.031 A 
ATOM     41  C   UNL A   1      38.861  32.209  33.644  1.00  0.00     0.074 A 
ATOM     42  C   UNL A   1      38.705  30.913  31.545  1.00  0.00     0.049 A 
ATOM     43  N   UNL A   1      39.931  31.683  34.182  1.00  0.00    -0.248 NA
ATOM     44  C   UNL A   1      38.275  33.308  34.428  1.00  0.00     0.031 C 
ATOM     45  C   UNL A   1      38.185  30.539  30.229  1.00  0.00     0.029 A 
ATOM     46  N   UNL A   1      39.801  30.103  31.712  1.00  0.00    -0.354 N 
ATOM     47  C   UNL A   1      40.165  32.406  35.346  1.00  0.00     0.074 A 
ATOM     48  C   UNL A   1      39.149  33.433  35.415  1.00  0.00     0.031 C 
ATOM     49  C   UNL A   1      38.954  29.567  29.712  1.00  0.00     0.029 A 
ATOM     50  C   UNL A   1      40.036  29.269  30.645  1.00  0.00     0.049 A 
ATOM     51  H   UNL A   1      40.363  30.117  32.520  1.00  0.00     0.167 HD
ATOM     52  C   UNL A   1      41.120  32.215  36.289  1.00  0.00     0.034 A 
ATOM     53  C   UNL A   1      41.016  28.368  30.439  1.00  0.00     0.034 A 
ATOM     54  C   UNL A   1      42.107  31.169  36.231  1.00  0.00     0.049 A 
ATOM     55  C   UNL A   1      42.048  28.153  31.511  1.00  0.00     0.074 A 
ATOM     56  C   UNL A   1      43.064  30.836  37.173  1.00  0.00     0.029 A 
ATOM     57  N   UNL A   1      42.272  30.295  35.167  1.00  0.00    -0.354 N 
ATOM     58  N   UNL A   1      42.161  28.740  32.679  1.00  0.00    -0.248 NA
ATOM     59  C   UNL A   1      43.070  27.127  31.254  1.00  0.00     0.031 C 
ATOM     60  C   UNL A   1      43.824  29.776  36.666  1.00  0.00     0.029 A 
ATOM     61  C   UNL A   1      43.323  29.430  35.422  1.00  0.00     0.049 A 
ATOM     62  H   UNL A   1      41.723  30.291  34.350  1.00  0.00     0.167 HD
ATOM     63  C   UNL A   1      43.239  28.131  33.310  1.00  0.00     0.074 A 
ATOM     64  C   UNL A   1      43.735  27.117  32.401  1.00  0.00     0.031 C 
ATOM     65  C   UNL A   1      43.777  28.395  34.528  1.00  0.00     0.034 A 
BRANCH  52  66
ATOM     66  C   UNL A   1      41.107  33.131  37.486  1.00  0.00     0.023 A 
ATOM     67  C   UNL A   1      40.190  32.897  38.532  1.00  0.00     0.012 A 
ATOM     68  C   UNL A   1      42.014  34.204  37.594  1.00  0.00     0.148 A 
ATOM     69  C   UNL A   1      40.140  33.741  39.640  1.00  0.00     0.002 A 
ATOM     70  C   UNL A   1      41.990  35.014  38.725  1.00  0.00     0.091 A 
ATOM     71  F   UNL A   1      42.866  34.428  36.583  1.00  0.00    -0.205 F 
ATOM     72  C   UNL A   1      41.046  34.793  39.741  1.00  0.00     0.022 A 
BRANCH  70  73
ATOM     73  S   UNL A   1      43.169  36.345  38.983  1.00  0.00     0.127 S 
ATOM     74  O   UNL A   1      42.547  37.439  38.240  1.00  0.00    -0.237 OA
ATOM     75  O   UNL A   1      43.142  36.504  40.437  1.00  0.00    -0.237 OA
ATOM     76  O   UNL A   1      44.437  35.864  38.451  1.00  0.00    -0.744 OA
ENDBRANCH  70  73
ENDBRANCH  52  66
BRANCH  53  77
ATOM     77  C   UNL A   1      41.012  27.542  29.198  1.00  0.00     0.023 A 
ATOM     78  C   UNL A   1      40.110  26.465  29.093  1.00  0.00     0.012 A 
ATOM     79  C   UNL A   1      41.855  27.842  28.111  1.00  0.00     0.148 A 
ATOM     80  C   UNL A   1      40.064  25.686  27.937  1.00  0.00     0.002 A 
ATOM     81  C   UNL A   1      41.767  27.095  26.941  1.00  0.00     0.091 A 
ATOM     82  F   UNL A   1      42.710  28.866  28.234  1.00  0.00    -0.205 F 
ATOM     83  C   UNL A   1      40.883  26.007  26.858  1.00  0.00     0.022 A 
BRANCH  81  84
ATOM     84  S   UNL A   1      42.689  27.508  25.456  1.00  0.00     0.127 S 
ATOM     85  O   UNL A   1      44.055  27.600  25.969  1.00  0.00    -0.237 OA
ATOM     86  O   UNL A   1      42.427  26.345  24.607  1.00  0.00    -0.237 OA
ATOM     87  O   UNL A   1      42.116  28.753  24.967  1.00  0.00    -0.744 OA
ENDBRANCH  81  84
ENDBRANCH  53  77
BRANCH  65  88
ATOM     88  C   UNL A   1      44.947  27.554  34.970  1.00  0.00     0.023 A 
ATOM     89  C   UNL A   1      46.262  27.984  34.706  1.00  0.00     0.012 A 
ATOM     90  C   UNL A   1      44.742  26.374  35.715  1.00  0.00     0.148 A 
ATOM     91  C   UNL A   1      47.354  27.238  35.145  1.00  0.00     0.002 A 
ATOM     92  C   UNL A   1      45.835  25.663  36.193  1.00  0.00     0.091 A 
ATOM     93  F   UNL A   1      43.483  25.972  35.941  1.00  0.00    -0.205 F 
ATOM     94  C   UNL A   1      47.141  26.085  35.898  1.00  0.00     0.022 A 
BRANCH  92  95
ATOM     95  S   UNL A   1      45.659  24.223  37.254  1.00  0.00     0.127 S 
ATOM     96  O   UNL A   1      44.604  24.656  38.170  1.00  0.00    -0.237 OA
ATOM     97  O   UNL A   1      45.255  23.185  36.305  1.00  0.00    -0.237 OA
ATOM     98  O   UNL A   1      46.965  24.011  37.862  1.00  0.00    -0.744 OA
ENDBRANCH  92  95
ENDBRANCH  65  88
ENDBRANCH  39  40
ENDBRANCH  31  34
ENDBRANCH  29  30
ENDBRANCH  28  29
ENDBRANCH  27  28
ENDBRANCH   1  27
TORSDOF 21
ENDMDL
MODEL 3
REMARK VINA RESULT:      -9.5      1.761      2.292
REMARK SMILES CC[C@H](NC(=O)N1CCO[C@@H](CC(=O)NCCCCCCNC(=O)c2ccc(-c3c4nc(c(-c5cccc(S(=O)(=O)[O-])c5F)c5ccc([nH]5)c(-c5cccc(S(=O)(=O)[O-])c5F)c5nc(c(-c6cccc(S(=O)(=O)[O-])c6F)c6ccc3[nH]6)C=C5)C=C4)cc2)C1)c1cccs1
REMARK SMILES IDX 18 1 17 2 16 3 15 4 13 5 14 6 12 8 11 9 7 10 8 11 88 12 9 13
REMARK SMILES IDX 10 14 5 15 4 16 6 18 3 19 2 20 1 21 89 22 90 23 93 24 91 25
REMARK SMILES IDX 92 26 19 27 20 28 21 29 22 30 23 31 24 33 25 34 26 35 87 36
REMARK SMILES IDX 27 37 86 38 28 39 29 40 30 41 80 42 31 43 85 44 79 45 81 46
REMARK SMILES IDX 32 47 84 48 78 49 77 50 33 52 65 53 45 54 64 55 46 56 49 57
REMARK SMILES IDX 63 58 82 59 47 60 48 61 62 63 83 64 50 65 34 66 35 67 43 68
REMARK SMILES IDX 36 69 38 70 44 71 37 72 39 73 40 74 41 75 42 76 66 77 67 78
REMARK SMILES IDX 75 79 68 80 70 81 76 82 69 83 71 84 72 85 73 86 74 87 51 88
REMARK SMILES IDX 52 89 60 90 53 91 55 92 61 93 54 94 56 95 57 96 58 97 59 98
REMARK H PARENT 15 7 4 17 22 32 81 51 49 62
REMARK Flexibility Score: inf
ROOT
ATOM      1  C   UNL A   1      35.496  32.240  27.943  1.00  0.00     0.002 C 
ENDROOT
BRANCH   1   2
ATOM      2  C   UNL A   1      35.849  30.791  27.623  1.00  0.00     0.021 C 
BRANCH   2   3
ATOM      3  C   UNL A   1      34.637  29.858  27.496  1.00  0.00     0.116 C 
BRANCH   3   4
ATOM      4  N   UNL A   1      34.046  29.982  26.169  1.00  0.00    -0.356 N 
ATOM      5  C   UNL A   1      33.217  29.135  25.489  1.00  0.00     0.222 C 
ATOM      6  O   UNL A   1      32.991  29.363  24.300  1.00  0.00    -0.275 OA
ATOM      7  H   UNL A   1      34.281  30.806  25.686  1.00  0.00     0.163 HD
BRANCH   5   8
ATOM      8  C   UNL A   1      32.577  27.958  26.193  1.00  0.00     0.133 C 
BRANCH   8   9
ATOM      9  C   UNL A   1      32.495  26.663  25.375  1.00  0.00     0.147 C 
ATOM     10  N   UNL A   1      32.077  24.188  25.635  1.00  0.00    -0.320 N 
ATOM     11  C   UNL A   1      30.798  24.386  24.967  1.00  0.00     0.150 C 
ATOM     12  C   UNL A   1      32.520  25.417  26.269  1.00  0.00     0.154 C 
ATOM     13  C   UNL A   1      30.909  25.536  23.971  1.00  0.00     0.182 C 
ATOM     14  O   UNL A   1      31.251  26.759  24.637  1.00  0.00    -0.374 OA
BRANCH  10  15
ATOM     15  C   UNL A   1      32.225  23.077  26.429  1.00  0.00     0.318 C 
ATOM     16  N   UNL A   1      33.018  22.076  25.985  1.00  0.00    -0.330 N 
ATOM     17  H   UNL A   1      33.312  21.467  26.701  1.00  0.00     0.166 HD
ATOM     18  O   UNL A   1      31.777  23.019  27.573  1.00  0.00    -0.249 OA
BRANCH  16  19
ATOM     19  C   UNL A   1      33.528  21.706  24.670  1.00  0.00     0.124 C 
BRANCH  19  20
ATOM     20  C   UNL A   1      34.700  22.605  24.229  1.00  0.00     0.027 C 
ATOM     21  C   UNL A   1      36.031  21.916  23.974  1.00  0.00     0.006 C 
ENDBRANCH  19  20
BRANCH  19  22
ATOM     22  C   UNL A   1      33.713  20.221  24.470  1.00  0.00     0.027 A 
ATOM     23  C   UNL A   1      34.759  19.392  24.839  1.00  0.00     0.017 A 
ATOM     24  S   UNL A   1      32.517  19.331  23.599  1.00  0.00    -0.147 S 
ATOM     25  C   UNL A   1      34.528  18.025  24.504  1.00  0.00     0.012 A 
ATOM     26  C   UNL A   1      33.331  17.851  23.849  1.00  0.00     0.065 A 
ENDBRANCH  19  22
ENDBRANCH  16  19
ENDBRANCH  10  15
ENDBRANCH   8   9
ENDBRANCH   5   8
ENDBRANCH   3   4
ENDBRANCH   2   3
ENDBRANCH   1   2
BRANCH   1  27
ATOM     27  C   UNL A   1      34.080  32.434  28.488  1.00  0.00     0.002 C 
BRANCH  27  28
ATOM     28  C   UNL A   1      33.363  33.708  28.023  1.00  0.00     0.021 C 
BRANCH  28  29
ATOM     29  C   UNL A   1      33.962  35.011  28.547  1.00  0.00     0.116 C 
BRANCH  29  30
ATOM     30  N   UNL A   1      33.305  35.444  29.774  1.00  0.00    -0.352 N 
ATOM     31  C   UNL A   1      33.492  35.011  31.059  1.00  0.00     0.251 C 
ATOM     32  H   UNL A   1      32.628  36.152  29.663  1.00  0.00     0.163 HD
ATOM     33  O   UNL A   1      32.664  35.291  31.931  1.00  0.00    -0.269 OA
BRANCH  31  34
ATOM     34  C   UNL A   1      34.683  34.210  31.405  1.00  0.00     0.039 A 
ATOM     35  C   UNL A   1      35.949  34.665  31.028  1.00  0.00     0.014 A 
ATOM     36  C   UNL A   1      34.545  32.994  32.082  1.00  0.00     0.014 A 
ATOM     37  C   UNL A   1      37.081  33.924  31.372  1.00  0.00     0.010 A 
ATOM     38  C   UNL A   1      35.678  32.295  32.487  1.00  0.00     0.010 A 
ATOM     39  C   UNL A   1      36.957  32.746  32.127  1.00  0.00    -0.014 A 
BRANCH  39  40
ATOM     40  C   UNL A   1      38.150  31.971  32.551  1.00  0.00     0.031 A 
ATOM     41  C   UNL A   1      38.848  32.299  33.842  1.00  0.00     0.074 A 
ATOM     42  C   UNL A   1      38.656  31.030  31.731  1.00  0.00     0.049 A 
ATOM     43  N   UNL A   1      39.927  31.767  34.355  1.00  0.00    -0.248 NA
ATOM     44  C   UNL A   1      38.275  33.388  34.651  1.00  0.00     0.031 C 
ATOM     45  C   UNL A   1      38.114  30.672  30.419  1.00  0.00     0.029 A 
ATOM     46  N   UNL A   1      39.755  30.218  31.869  1.00  0.00    -0.354 N 
ATOM     47  C   UNL A   1      40.181  32.475  35.524  1.00  0.00     0.074 A 
ATOM     48  C   UNL A   1      39.165  33.501  35.624  1.00  0.00     0.031 C 
ATOM     49  C   UNL A   1      38.874  29.707  29.876  1.00  0.00     0.029 A 
ATOM     50  C   UNL A   1      39.972  29.398  30.786  1.00  0.00     0.049 A 
ATOM     51  H   UNL A   1      40.331  30.223  32.667  1.00  0.00     0.167 HD
ATOM     52  C   UNL A   1      41.151  32.273  36.448  1.00  0.00     0.034 A 
ATOM     53  C   UNL A   1      40.948  28.500  30.553  1.00  0.00     0.034 A 
ATOM     54  C   UNL A   1      42.137  31.228  36.360  1.00  0.00     0.049 A 
ATOM     55  C   UNL A   1      41.999  28.272  31.604  1.00  0.00     0.074 A 
ATOM     56  C   UNL A   1      43.110  30.883  37.281  1.00  0.00     0.029 A 
ATOM     57  N   UNL A   1      42.285  30.368  35.283  1.00  0.00    -0.354 N 
ATOM     58  N   UNL A   1      42.131  28.844  32.777  1.00  0.00    -0.248 NA
ATOM     59  C   UNL A   1      43.016  27.250  31.317  1.00  0.00     0.031 C 
ATOM     60  C   UNL A   1      43.862  29.830  36.748  1.00  0.00     0.029 A 
ATOM     61  C   UNL A   1      43.340  29.500  35.508  1.00  0.00     0.049 A 
ATOM     62  H   UNL A   1      41.722  30.374  34.476  1.00  0.00     0.167 HD
ATOM     63  C   UNL A   1      43.220  28.228  33.382  1.00  0.00     0.074 A 
ATOM     64  C   UNL A   1      43.701  27.225  32.452  1.00  0.00     0.031 C 
ATOM     65  C   UNL A   1      43.779  28.476  34.594  1.00  0.00     0.034 A 
BRANCH  52  66
ATOM     66  C   UNL A   1      41.159  33.174  37.657  1.00  0.00     0.023 A 
ATOM     67  C   UNL A   1      42.126  34.196  37.757  1.00  0.00     0.012 A 
ATOM     68  C   UNL A   1      40.199  33.034  38.678  1.00  0.00     0.148 A 
ATOM     69  C   UNL A   1      42.171  35.030  38.873  1.00  0.00     0.002 A 
ATOM     70  C   UNL A   1      40.220  33.900  39.766  1.00  0.00     0.091 A 
ATOM     71  F   UNL A   1      39.298  32.045  38.581  1.00  0.00    -0.205 F 
ATOM     72  C   UNL A   1      41.213  34.887  39.873  1.00  0.00     0.022 A 
BRANCH  70  73
ATOM     73  S   UNL A   1      38.980  33.847  41.066  1.00  0.00     0.127 S 
ATOM     74  O   UNL A   1      39.330  32.608  41.758  1.00  0.00    -0.237 OA
ATOM     75  O   UNL A   1      39.270  35.068  41.819  1.00  0.00    -0.237 OA
ATOM     76  O   UNL A   1      37.691  33.847  40.387  1.00  0.00    -0.744 OA
ENDBRANCH  70  73
ENDBRANCH  52  66
BRANCH  53  77
ATOM     77  C   UNL A   1      40.923  27.690  29.302  1.00  0.00     0.023 A 
ATOM     78  C   UNL A   1      39.964  26.667  29.165  1.00  0.00     0.012 A 
ATOM     79  C   UNL A   1      41.803  27.955  28.235  1.00  0.00     0.148 A 
ATOM     80  C   UNL A   1      39.898  25.905  27.999  1.00  0.00     0.002 A 
ATOM     81  C   UNL A   1      41.697  27.227  27.055  1.00  0.00     0.091 A 
ATOM     82  F   UNL A   1      42.712  28.927  28.388  1.00  0.00    -0.205 F 
ATOM     83  C   UNL A   1      40.757  26.191  26.940  1.00  0.00     0.022 A 
BRANCH  81  84
ATOM     84  S   UNL A   1      42.672  27.605  25.594  1.00  0.00     0.127 S 
ATOM     85  O   UNL A   1      41.998  28.797  25.085  1.00  0.00    -0.237 OA
ATOM     86  O   UNL A   1      43.996  27.845  26.171  1.00  0.00    -0.237 OA
ATOM     87  O   UNL A   1      42.591  26.425  24.745  1.00  0.00    -0.744 OA
ENDBRANCH  81  84
ENDBRANCH  53  77
BRANCH  65  88
ATOM     88  C   UNL A   1      44.956  27.630  35.006  1.00  0.00     0.023 A 
ATOM     89  C   UNL A   1      46.267  28.084  34.761  1.00  0.00     0.012 A 
ATOM     90  C   UNL A   1      44.761  26.421  35.703  1.00  0.00     0.148 A 
ATOM     91  C   UNL A   1      47.366  27.331  35.172  1.00  0.00     0.002 A 
ATOM     92  C   UNL A   1      45.861  25.702  36.156  1.00  0.00     0.091 A 
ATOM     93  F   UNL A   1      43.507  25.998  35.912  1.00  0.00    -0.205 F 
ATOM     94  C   UNL A   1      47.163  26.148  35.880  1.00  0.00     0.022 A 
BRANCH  92  95
ATOM     95  S   UNL A   1      45.697  24.221  37.160  1.00  0.00     0.127 S 
ATOM     96  O   UNL A   1      44.891  23.362  36.293  1.00  0.00    -0.237 OA
ATOM     97  O   UNL A   1      47.089  23.797  37.317  1.00  0.00    -0.237 OA
ATOM     98  O   UNL A   1      45.052  24.644  38.396  1.00  0.00    -0.744 OA
ENDBRANCH  92  95
ENDBRANCH  65  88
ENDBRANCH  39  40
ENDBRANCH  31  34
ENDBRANCH  29  30
ENDBRANCH  28  29
ENDBRANCH  27  28
ENDBRANCH   1  27
TORSDOF 21
ENDMDL
