MODEL 1
REMARK VINA RESULT:     -11.3      0.000      0.000
REMARK SMILES CN(C(=O)N1Cc2nc[nH]c2C[C@@H]1C(=O)NCCCCCCNC(=O)c1ccc(-c2c3nc(c(-c4cccc(S(=O)(=O)[O-])c4F)c4ccc([nH]4)c(-c4cccc(S(=O)(=O)[O-])c4F)c4nc(c(-c5cccc(S(=O)(=O)[O-])c5F)c5ccc2[nH]5)C=C4)C=C3)cc1)C1CC1
REMARK SMILES IDX 19 1 18 2 17 3 16 4 14 5 15 6 13 8 5 9 6 10 7 11 12 12 8 13
REMARK SMILES IDX 11 14 9 15 10 16 3 18 4 19 2 20 1 21 89 22 90 23 91 24 20 25
REMARK SMILES IDX 21 26 22 27 23 28 24 29 25 31 26 32 27 33 88 34 28 35 87 36
REMARK SMILES IDX 29 37 30 38 31 39 81 40 32 41 86 42 80 43 82 44 33 45 85 46
REMARK SMILES IDX 79 47 78 48 34 50 66 51 46 52 65 53 47 54 50 55 64 56 83 57
REMARK SMILES IDX 48 58 49 59 63 61 84 62 51 63 35 64 36 65 44 66 37 67 39 68
REMARK SMILES IDX 45 69 38 70 40 71 41 72 42 73 43 74 67 75 68 76 76 77 69 78
REMARK SMILES IDX 71 79 77 80 70 81 72 82 73 83 74 84 75 85 52 86 53 87 61 88
REMARK SMILES IDX 54 89 56 90 62 91 55 92 57 93 58 94 59 95 60 96
REMARK H PARENT 16 7 10 17 23 30 82 49 50 60
REMARK Flexibility Score: inf
ROOT
ATOM      1  C   UNL A   1      37.088  23.047  25.982  1.00  0.00     0.002 C 
ENDROOT
BRANCH   1   2
ATOM      2  C   UNL A   1      36.616  24.477  25.796  1.00  0.00     0.021 C 
BRANCH   2   3
ATOM      3  C   UNL A   1      35.191  24.598  25.155  1.00  0.00     0.116 C 
BRANCH   3   4
ATOM      4  N   UNL A   1      34.013  24.395  26.031  1.00  0.00    -0.354 N 
ATOM      5  C   UNL A   1      33.138  23.330  26.079  1.00  0.00     0.243 C 
ATOM      6  O   UNL A   1      32.074  23.420  26.702  1.00  0.00    -0.273 OA
ATOM      7  H   UNL A   1      33.829  25.123  26.667  1.00  0.00     0.163 HD
BRANCH   5   8
ATOM      8  C   UNL A   1      33.404  22.083  25.236  1.00  0.00     0.182 C 
ATOM      9  N   UNL A   1      32.458  21.964  24.079  1.00  0.00    -0.306 N 
ATOM     10  C   UNL A   1      32.207  20.571  23.535  1.00  0.00     0.180 C 
ATOM     11  C   UNL A   1      32.471  19.466  24.532  1.00  0.00     0.081 A 
ATOM     12  C   UNL A   1      33.425  20.944  26.324  1.00  0.00     0.091 C 
ATOM     13  N   UNL A   1      32.214  18.118  24.355  1.00  0.00    -0.240 NA
ATOM     14  C   UNL A   1      33.024  19.653  25.769  1.00  0.00     0.042 A 
ATOM     15  C   UNL A   1      32.521  17.539  25.502  1.00  0.00     0.197 A 
ATOM     16  N   UNL A   1      33.009  18.444  26.406  1.00  0.00    -0.348 N 
ATOM     17  H   UNL A   1      33.293  18.262  27.331  1.00  0.00     0.167 HD
BRANCH   9  18
ATOM     18  C   UNL A   1      31.934  23.080  23.329  1.00  0.00     0.321 C 
ATOM     19  O   UNL A   1      30.731  23.348  23.373  1.00  0.00    -0.248 OA
BRANCH  18  20
ATOM     20  N   UNL A   1      32.847  23.876  22.528  1.00  0.00    -0.325 N 
ATOM     21  C   UNL A   1      33.250  23.269  21.279  1.00  0.00     0.149 C 
BRANCH  20  22
ATOM     22  C   UNL A   1      32.711  25.383  22.350  1.00  0.00     0.086 C 
ATOM     23  C   UNL A   1      31.420  26.242  22.300  1.00  0.00     0.027 C 
ATOM     24  C   UNL A   1      32.272  26.305  23.495  1.00  0.00     0.027 C 
ENDBRANCH  20  22
ENDBRANCH  18  20
ENDBRANCH   9  18
ENDBRANCH   5   8
ENDBRANCH   3   4
ENDBRANCH   2   3
ENDBRANCH   1   2
BRANCH   1  25
ATOM     25  C   UNL A   1      37.069  21.725  25.175  1.00  0.00     0.002 C 
BRANCH  25  26
ATOM     26  C   UNL A   1      37.958  20.489  25.106  1.00  0.00     0.021 C 
BRANCH  26  27
ATOM     27  C   UNL A   1      39.266  20.756  25.878  1.00  0.00     0.116 C 
BRANCH  27  28
ATOM     28  N   UNL A   1      40.250  19.642  25.898  1.00  0.00    -0.352 N 
ATOM     29  C   UNL A   1      41.630  19.780  25.869  1.00  0.00     0.251 C 
ATOM     30  H   UNL A   1      39.891  18.726  25.934  1.00  0.00     0.163 HD
ATOM     31  O   UNL A   1      42.388  18.879  25.494  1.00  0.00    -0.269 OA
BRANCH  29  32
ATOM     32  C   UNL A   1      42.172  21.031  26.412  1.00  0.00     0.039 A 
ATOM     33  C   UNL A   1      42.315  22.197  25.660  1.00  0.00     0.014 A 
ATOM     34  C   UNL A   1      42.341  21.023  27.797  1.00  0.00     0.014 A 
ATOM     35  C   UNL A   1      42.553  23.385  26.346  1.00  0.00     0.010 A 
ATOM     36  C   UNL A   1      42.380  22.210  28.472  1.00  0.00     0.010 A 
ATOM     37  C   UNL A   1      42.554  23.382  27.756  1.00  0.00    -0.014 A 
BRANCH  37  38
ATOM     38  C   UNL A   1      42.533  24.620  28.523  1.00  0.00     0.031 A 
ATOM     39  C   UNL A   1      41.271  25.384  28.336  1.00  0.00     0.074 A 
ATOM     40  C   UNL A   1      43.483  24.942  29.432  1.00  0.00     0.049 A 
ATOM     41  N   UNL A   1      41.121  26.411  27.570  1.00  0.00    -0.248 NA
ATOM     42  C   UNL A   1      39.998  24.836  28.836  1.00  0.00     0.031 C 
ATOM     43  C   UNL A   1      44.615  24.134  29.909  1.00  0.00     0.029 A 
ATOM     44  N   UNL A   1      43.588  26.054  30.207  1.00  0.00    -0.354 N 
ATOM     45  C   UNL A   1      39.802  26.817  27.738  1.00  0.00     0.074 A 
ATOM     46  C   UNL A   1      39.115  25.694  28.315  1.00  0.00     0.031 C 
ATOM     47  C   UNL A   1      45.122  24.677  31.042  1.00  0.00     0.029 A 
ATOM     48  C   UNL A   1      44.472  25.951  31.281  1.00  0.00     0.049 A 
ATOM     49  H   UNL A   1      43.076  26.874  30.023  1.00  0.00     0.167 HD
ATOM     50  C   UNL A   1      39.482  28.138  27.650  1.00  0.00     0.034 A 
ATOM     51  C   UNL A   1      44.642  26.847  32.292  1.00  0.00     0.034 A 
ATOM     52  C   UNL A   1      40.593  28.891  27.113  1.00  0.00     0.049 A 
ATOM     53  C   UNL A   1      44.133  28.146  31.797  1.00  0.00     0.074 A 
ATOM     54  C   UNL A   1      41.307  28.868  25.931  1.00  0.00     0.029 A 
ATOM     55  N   UNL A   1      41.396  29.516  28.038  1.00  0.00    -0.354 N 
ATOM     56  N   UNL A   1      44.701  28.795  30.820  1.00  0.00    -0.248 NA
ATOM     57  C   UNL A   1      42.731  28.449  32.028  1.00  0.00     0.031 C 
ATOM     58  C   UNL A   1      42.666  29.047  26.325  1.00  0.00     0.029 A 
ATOM     59  C   UNL A   1      42.702  29.284  27.701  1.00  0.00     0.049 A 
ATOM     60  H   UNL A   1      41.086  30.042  28.810  1.00  0.00     0.167 HD
ATOM     61  C   UNL A   1      43.637  29.177  30.014  1.00  0.00     0.074 A 
ATOM     62  C   UNL A   1      42.446  29.020  30.853  1.00  0.00     0.031 C 
ATOM     63  C   UNL A   1      43.785  29.273  28.660  1.00  0.00     0.034 A 
BRANCH  50  64
ATOM     64  C   UNL A   1      38.382  28.837  28.416  1.00  0.00     0.023 A 
ATOM     65  C   UNL A   1      37.515  29.665  27.665  1.00  0.00     0.012 A 
ATOM     66  C   UNL A   1      38.330  28.963  29.822  1.00  0.00     0.148 A 
ATOM     67  C   UNL A   1      36.691  30.614  28.277  1.00  0.00     0.002 A 
ATOM     68  C   UNL A   1      37.463  29.864  30.430  1.00  0.00     0.091 A 
ATOM     69  F   UNL A   1      39.201  28.301  30.586  1.00  0.00    -0.205 F 
ATOM     70  C   UNL A   1      36.664  30.714  29.661  1.00  0.00     0.022 A 
BRANCH  68  71
ATOM     71  S   UNL A   1      37.359  30.032  32.217  1.00  0.00     0.127 S 
ATOM     72  O   UNL A   1      36.235  30.954  32.362  1.00  0.00    -0.237 OA
ATOM     73  O   UNL A   1      37.088  28.655  32.626  1.00  0.00    -0.237 OA
ATOM     74  O   UNL A   1      38.655  30.544  32.646  1.00  0.00    -0.744 OA
ENDBRANCH  68  71
ENDBRANCH  50  64
BRANCH  51  75
ATOM     75  C   UNL A   1      44.931  26.639  33.737  1.00  0.00     0.023 A 
ATOM     76  C   UNL A   1      46.179  27.020  34.278  1.00  0.00     0.012 A 
ATOM     77  C   UNL A   1      43.877  26.376  34.639  1.00  0.00     0.148 A 
ATOM     78  C   UNL A   1      46.359  27.166  35.664  1.00  0.00     0.002 A 
ATOM     79  C   UNL A   1      44.056  26.531  36.013  1.00  0.00     0.091 A 
ATOM     80  F   UNL A   1      42.672  26.069  34.141  1.00  0.00    -0.205 F 
ATOM     81  C   UNL A   1      45.294  26.935  36.529  1.00  0.00     0.022 A 
BRANCH  79  82
ATOM     82  S   UNL A   1      42.710  26.303  37.185  1.00  0.00     0.127 S 
ATOM     83  O   UNL A   1      42.291  24.931  36.903  1.00  0.00    -0.237 OA
ATOM     84  O   UNL A   1      43.388  26.484  38.467  1.00  0.00    -0.237 OA
ATOM     85  O   UNL A   1      41.714  27.315  36.856  1.00  0.00    -0.744 OA
ENDBRANCH  79  82
ENDBRANCH  51  75
BRANCH  63  86
ATOM     86  C   UNL A   1      45.180  29.184  28.092  1.00  0.00     0.023 A 
ATOM     87  C   UNL A   1      46.108  30.248  28.128  1.00  0.00     0.012 A 
ATOM     88  C   UNL A   1      45.612  27.923  27.655  1.00  0.00     0.148 A 
ATOM     89  C   UNL A   1      47.432  30.056  27.716  1.00  0.00     0.002 A 
ATOM     90  C   UNL A   1      46.935  27.725  27.291  1.00  0.00     0.091 A 
ATOM     91  F   UNL A   1      44.717  26.925  27.634  1.00  0.00    -0.205 F 
ATOM     92  C   UNL A   1      47.849  28.790  27.309  1.00  0.00     0.022 A 
BRANCH  90  93
ATOM     93  S   UNL A   1      47.548  26.093  26.875  1.00  0.00     0.127 S 
ATOM     94  O   UNL A   1      48.948  26.366  26.560  1.00  0.00    -0.237 OA
ATOM     95  O   UNL A   1      47.331  25.352  28.118  1.00  0.00    -0.237 OA
ATOM     96  O   UNL A   1      46.734  25.630  25.757  1.00  0.00    -0.744 OA
ENDBRANCH  90  93
ENDBRANCH  63  86
ENDBRANCH  37  38
ENDBRANCH  29  32
ENDBRANCH  27  28
ENDBRANCH  26  27
ENDBRANCH  25  26
ENDBRANCH   1  25
TORSDOF 19
ENDMDL
MODEL 2
REMARK VINA RESULT:     -11.1      2.836      7.390
REMARK SMILES CN(C(=O)N1Cc2nc[nH]c2C[C@@H]1C(=O)NCCCCCCNC(=O)c1ccc(-c2c3nc(c(-c4cccc(S(=O)(=O)[O-])c4F)c4ccc([nH]4)c(-c4cccc(S(=O)(=O)[O-])c4F)c4nc(c(-c5cccc(S(=O)(=O)[O-])c5F)c5ccc2[nH]5)C=C4)C=C3)cc1)C1CC1
REMARK SMILES IDX 19 1 18 2 17 3 16 4 14 5 15 6 13 8 5 9 6 10 7 11 12 12 8 13
REMARK SMILES IDX 11 14 9 15 10 16 3 18 4 19 2 20 1 21 89 22 90 23 91 24 20 25
REMARK SMILES IDX 21 26 22 27 23 28 24 29 25 31 26 32 27 33 88 34 28 35 87 36
REMARK SMILES IDX 29 37 30 38 31 39 81 40 32 41 86 42 80 43 82 44 33 45 85 46
REMARK SMILES IDX 79 47 78 48 34 50 66 51 46 52 65 53 47 54 50 55 64 56 83 57
REMARK SMILES IDX 48 58 49 59 63 61 84 62 51 63 35 64 36 65 44 66 37 67 39 68
REMARK SMILES IDX 45 69 38 70 40 71 41 72 42 73 43 74 67 75 68 76 76 77 69 78
REMARK SMILES IDX 71 79 77 80 70 81 72 82 73 83 74 84 75 85 52 86 53 87 61 88
REMARK SMILES IDX 54 89 56 90 62 91 55 92 57 93 58 94 59 95 60 96
REMARK H PARENT 16 7 10 17 23 30 82 49 50 60
REMARK Flexibility Score: inf
ROOT
ATOM      1  C   UNL A   1      34.004  28.903  26.116  1.00  0.00     0.002 C 
ENDROOT
BRANCH   1   2
ATOM      2  C   UNL A   1      32.804  28.032  25.795  1.00  0.00     0.021 C 
BRANCH   2   3
ATOM      3  C   UNL A   1      32.998  26.520  26.158  1.00  0.00     0.116 C 
BRANCH   3   4
ATOM      4  N   UNL A   1      31.827  25.770  26.666  1.00  0.00    -0.354 N 
ATOM      5  C   UNL A   1      31.437  24.475  26.394  1.00  0.00     0.243 C 
ATOM      6  O   UNL A   1      30.311  24.078  26.713  1.00  0.00    -0.273 OA
ATOM      7  H   UNL A   1      31.243  26.265  27.285  1.00  0.00     0.163 HD
BRANCH   5   8
ATOM      8  C   UNL A   1      32.338  23.565  25.558  1.00  0.00     0.182 C 
ATOM      9  N   UNL A   1      31.804  23.351  24.173  1.00  0.00    -0.306 N 
ATOM     10  C   UNL A   1      32.225  22.078  23.463  1.00  0.00     0.180 C 
ATOM     11  C   UNL A   1      32.639  20.963  24.396  1.00  0.00     0.081 A 
ATOM     12  C   UNL A   1      32.525  22.321  26.505  1.00  0.00     0.091 C 
ATOM     13  N   UNL A   1      32.950  19.664  24.037  1.00  0.00    -0.240 NA
ATOM     14  C   UNL A   1      32.775  21.094  25.750  1.00  0.00     0.042 A 
ATOM     15  C   UNL A   1      33.173  19.021  25.170  1.00  0.00     0.197 A 
ATOM     16  N   UNL A   1      33.062  19.856  26.249  1.00  0.00    -0.348 N 
ATOM     17  H   UNL A   1      33.168  19.613  27.198  1.00  0.00     0.167 HD
BRANCH   9  18
ATOM     18  C   UNL A   1      31.094  24.343  23.403  1.00  0.00     0.321 C 
ATOM     19  O   UNL A   1      29.934  24.136  23.041  1.00  0.00    -0.248 OA
BRANCH  18  20
ATOM     20  N   UNL A   1      31.770  25.585  23.070  1.00  0.00    -0.325 N 
ATOM     21  C   UNL A   1      33.092  25.427  22.506  1.00  0.00     0.149 C 
BRANCH  20  22
ATOM     22  C   UNL A   1      31.070  26.772  22.420  1.00  0.00     0.086 C 
ATOM     23  C   UNL A   1      30.287  27.927  23.099  1.00  0.00     0.027 C 
ATOM     24  C   UNL A   1      31.614  28.203  22.533  1.00  0.00     0.027 C 
ENDBRANCH  20  22
ENDBRANCH  18  20
ENDBRANCH   9  18
ENDBRANCH   5   8
ENDBRANCH   3   4
ENDBRANCH   2   3
ENDBRANCH   1   2
BRANCH   1  25
ATOM     25  C   UNL A   1      34.321  30.121  27.019  1.00  0.00     0.002 C 
BRANCH  25  26
ATOM     26  C   UNL A   1      33.510  31.269  27.608  1.00  0.00     0.021 C 
BRANCH  26  27
ATOM     27  C   UNL A   1      34.466  32.399  28.045  1.00  0.00     0.116 C 
BRANCH  27  28
ATOM     28  N   UNL A   1      34.527  32.672  29.505  1.00  0.00    -0.352 N 
ATOM     29  C   UNL A   1      35.307  31.985  30.425  1.00  0.00     0.251 C 
ATOM     30  H   UNL A   1      33.965  33.403  29.849  1.00  0.00     0.163 HD
ATOM     31  O   UNL A   1      35.053  31.959  31.633  1.00  0.00    -0.269 OA
BRANCH  29  32
ATOM     32  C   UNL A   1      36.531  31.364  29.907  1.00  0.00     0.039 A 
ATOM     33  C   UNL A   1      37.718  32.066  29.695  1.00  0.00     0.014 A 
ATOM     34  C   UNL A   1      36.477  29.972  29.840  1.00  0.00     0.014 A 
ATOM     35  C   UNL A   1      38.881  31.325  29.492  1.00  0.00     0.010 A 
ATOM     36  C   UNL A   1      37.641  29.258  29.835  1.00  0.00     0.010 A 
ATOM     37  C   UNL A   1      38.833  29.920  29.594  1.00  0.00    -0.014 A 
BRANCH  37  38
ATOM     38  C   UNL A   1      40.046  29.116  29.654  1.00  0.00     0.031 A 
ATOM     39  C   UNL A   1      40.487  28.856  31.050  1.00  0.00     0.074 A 
ATOM     40  C   UNL A   1      40.601  28.533  28.565  1.00  0.00     0.049 A 
ATOM     41  N   UNL A   1      41.434  29.477  31.667  1.00  0.00    -0.248 NA
ATOM     42  C   UNL A   1      39.664  28.015  31.937  1.00  0.00     0.031 C 
ATOM     43  C   UNL A   1      40.092  28.481  27.187  1.00  0.00     0.029 A 
ATOM     44  N   UNL A   1      41.720  27.768  28.479  1.00  0.00    -0.354 N 
ATOM     45  C   UNL A   1      41.521  28.883  32.920  1.00  0.00     0.074 A 
ATOM     46  C   UNL A   1      40.280  28.185  33.113  1.00  0.00     0.031 C 
ATOM     47  C   UNL A   1      40.761  27.534  26.486  1.00  0.00     0.029 A 
ATOM     48  C   UNL A   1      41.851  27.032  27.302  1.00  0.00     0.049 A 
ATOM     49  H   UNL A   1      42.394  27.736  29.197  1.00  0.00     0.167 HD
ATOM     50  C   UNL A   1      42.728  28.792  33.546  1.00  0.00     0.034 A 
ATOM     51  C   UNL A   1      42.781  26.075  27.030  1.00  0.00     0.034 A 
ATOM     52  C   UNL A   1      43.710  29.606  32.868  1.00  0.00     0.049 A 
ATOM     53  C   UNL A   1      43.914  26.312  27.954  1.00  0.00     0.074 A 
ATOM     54  C   UNL A   1      43.833  30.951  32.580  1.00  0.00     0.029 A 
ATOM     55  N   UNL A   1      44.525  28.945  31.978  1.00  0.00    -0.354 N 
ATOM     56  N   UNL A   1      44.658  27.380  27.890  1.00  0.00    -0.248 NA
ATOM     57  C   UNL A   1      43.882  25.638  29.240  1.00  0.00     0.031 C 
ATOM     58  C   UNL A   1      44.335  30.992  31.246  1.00  0.00     0.029 A 
ATOM     59  C   UNL A   1      44.601  29.685  30.830  1.00  0.00     0.049 A 
ATOM     60  H   UNL A   1      44.978  28.085  32.140  1.00  0.00     0.167 HD
ATOM     61  C   UNL A   1      44.763  27.790  29.212  1.00  0.00     0.074 A 
ATOM     62  C   UNL A   1      44.346  26.632  30.006  1.00  0.00     0.031 C 
ATOM     63  C   UNL A   1      44.864  29.115  29.528  1.00  0.00     0.034 A 
BRANCH  50  64
ATOM     64  C   UNL A   1      43.163  27.682  34.477  1.00  0.00     0.023 A 
ATOM     65  C   UNL A   1      43.569  28.068  35.776  1.00  0.00     0.012 A 
ATOM     66  C   UNL A   1      43.470  26.363  34.073  1.00  0.00     0.148 A 
ATOM     67  C   UNL A   1      44.301  27.211  36.602  1.00  0.00     0.002 A 
ATOM     68  C   UNL A   1      44.144  25.493  34.923  1.00  0.00     0.091 A 
ATOM     69  F   UNL A   1      43.224  25.972  32.822  1.00  0.00    -0.205 F 
ATOM     70  C   UNL A   1      44.589  25.921  36.177  1.00  0.00     0.022 A 
BRANCH  68  71
ATOM     71  S   UNL A   1      44.532  23.803  34.446  1.00  0.00     0.127 S 
ATOM     72  O   UNL A   1      43.236  23.327  33.968  1.00  0.00    -0.237 OA
ATOM     73  O   UNL A   1      45.538  24.015  33.407  1.00  0.00    -0.237 OA
ATOM     74  O   UNL A   1      45.037  23.155  35.650  1.00  0.00    -0.744 OA
ENDBRANCH  68  71
ENDBRANCH  50  64
BRANCH  51  75
ATOM     75  C   UNL A   1      42.676  24.808  26.259  1.00  0.00     0.023 A 
ATOM     76  C   UNL A   1      43.688  24.442  25.343  1.00  0.00     0.012 A 
ATOM     77  C   UNL A   1      41.761  23.810  26.658  1.00  0.00     0.148 A 
ATOM     78  C   UNL A   1      43.803  23.125  24.870  1.00  0.00     0.002 A 
ATOM     79  C   UNL A   1      41.883  22.501  26.195  1.00  0.00     0.091 A 
ATOM     80  F   UNL A   1      40.830  24.124  27.569  1.00  0.00    -0.205 F 
ATOM     81  C   UNL A   1      42.909  22.151  25.307  1.00  0.00     0.022 A 
BRANCH  79  82
ATOM     82  S   UNL A   1      40.798  21.180  26.759  1.00  0.00     0.127 S 
ATOM     83  O   UNL A   1      41.518  19.987  26.316  1.00  0.00    -0.237 OA
ATOM     84  O   UNL A   1      40.791  21.389  28.205  1.00  0.00    -0.237 OA
ATOM     85  O   UNL A   1      39.521  21.394  26.090  1.00  0.00    -0.744 OA
ENDBRANCH  79  82
ENDBRANCH  51  75
BRANCH  63  86
ATOM     86  C   UNL A   1      45.095  30.094  28.403  1.00  0.00     0.023 A 
ATOM     87  C   UNL A   1      44.054  30.769  27.728  1.00  0.00     0.012 A 
ATOM     88  C   UNL A   1      46.423  30.460  28.138  1.00  0.00     0.148 A 
ATOM     89  C   UNL A   1      44.340  31.772  26.794  1.00  0.00     0.002 A 
ATOM     90  C   UNL A   1      46.701  31.486  27.247  1.00  0.00     0.091 A 
ATOM     91  F   UNL A   1      47.396  29.812  28.794  1.00  0.00    -0.205 F 
ATOM     92  C   UNL A   1      45.664  32.140  26.563  1.00  0.00     0.022 A 
BRANCH  90  93
ATOM     93  S   UNL A   1      48.376  32.074  27.004  1.00  0.00     0.127 S 
ATOM     94  O   UNL A   1      48.768  32.441  28.363  1.00  0.00    -0.237 OA
ATOM     95  O   UNL A   1      49.049  30.890  26.469  1.00  0.00    -0.237 OA
ATOM     96  O   UNL A   1      48.282  33.181  26.060  1.00  0.00    -0.744 OA
ENDBRANCH  90  93
ENDBRANCH  63  86
ENDBRANCH  37  38
ENDBRANCH  29  32
ENDBRANCH  27  28
ENDBRANCH  26  27
ENDBRANCH  25  26
ENDBRANCH   1  25
TORSDOF 19
ENDMDL
MODEL 3
REMARK VINA RESULT:     -11.0      1.682      2.426
REMARK SMILES CN(C(=O)N1Cc2nc[nH]c2C[C@@H]1C(=O)NCCCCCCNC(=O)c1ccc(-c2c3nc(c(-c4cccc(S(=O)(=O)[O-])c4F)c4ccc([nH]4)c(-c4cccc(S(=O)(=O)[O-])c4F)c4nc(c(-c5cccc(S(=O)(=O)[O-])c5F)c5ccc2[nH]5)C=C4)C=C3)cc1)C1CC1
REMARK SMILES IDX 19 1 18 2 17 3 16 4 14 5 15 6 13 8 5 9 6 10 7 11 12 12 8 13
REMARK SMILES IDX 11 14 9 15 10 16 3 18 4 19 2 20 1 21 89 22 90 23 91 24 20 25
REMARK SMILES IDX 21 26 22 27 23 28 24 29 25 31 26 32 27 33 88 34 28 35 87 36
REMARK SMILES IDX 29 37 30 38 31 39 81 40 32 41 86 42 80 43 82 44 33 45 85 46
REMARK SMILES IDX 79 47 78 48 34 50 66 51 46 52 65 53 47 54 50 55 64 56 83 57
REMARK SMILES IDX 48 58 49 59 63 61 84 62 51 63 35 64 36 65 44 66 37 67 39 68
REMARK SMILES IDX 45 69 38 70 40 71 41 72 42 73 43 74 67 75 68 76 76 77 69 78
REMARK SMILES IDX 71 79 77 80 70 81 72 82 73 83 74 84 75 85 52 86 53 87 61 88
REMARK SMILES IDX 54 89 56 90 62 91 55 92 57 93 58 94 59 95 60 96
REMARK H PARENT 16 7 10 17 23 30 82 49 50 60
REMARK Flexibility Score: inf
ROOT
ATOM      1  C   UNL A   1      36.132  23.019  24.629  1.00  0.00     0.002 C 
ENDROOT
BRANCH   1   2
ATOM      2  C   UNL A   1      35.027  23.120  23.595  1.00  0.00     0.021 C 
BRANCH   2   3
ATOM      3  C   UNL A   1      34.116  24.385  23.758  1.00  0.00     0.116 C 
BRANCH   3   4
ATOM      4  N   UNL A   1      33.637  25.061  22.530  1.00  0.00    -0.354 N 
ATOM      5  C   UNL A   1      32.366  25.492  22.214  1.00  0.00     0.243 C 
ATOM      6  O   UNL A   1      32.085  25.824  21.057  1.00  0.00    -0.273 OA
ATOM      7  H   UNL A   1      34.321  25.223  21.842  1.00  0.00     0.163 HD
BRANCH   5   8
ATOM      8  C   UNL A   1      31.251  25.418  23.258  1.00  0.00     0.182 C 
ATOM      9  N   UNL A   1      31.427  26.428  24.353  1.00  0.00    -0.306 N 
ATOM     10  C   UNL A   1      30.792  26.107  25.692  1.00  0.00     0.180 C 
ATOM     11  C   UNL A   1      30.565  24.631  25.927  1.00  0.00     0.081 A 
ATOM     12  C   UNL A   1      31.242  23.887  23.627  1.00  0.00     0.091 C 
ATOM     13  N   UNL A   1      30.120  24.043  27.097  1.00  0.00    -0.240 NA
ATOM     14  C   UNL A   1      30.764  23.657  24.989  1.00  0.00     0.042 A 
ATOM     15  C   UNL A   1      30.147  22.740  26.879  1.00  0.00     0.197 A 
ATOM     16  N   UNL A   1      30.551  22.455  25.602  1.00  0.00    -0.348 N 
ATOM     17  H   UNL A   1      30.665  21.561  25.204  1.00  0.00     0.167 HD
BRANCH   9  18
ATOM     18  C   UNL A   1      31.975  27.750  24.171  1.00  0.00     0.321 C 
ATOM     19  O   UNL A   1      31.254  28.674  23.786  1.00  0.00    -0.248 OA
BRANCH  18  20
ATOM     20  N   UNL A   1      33.383  27.968  24.451  1.00  0.00    -0.325 N 
ATOM     21  C   UNL A   1      34.134  28.567  23.370  1.00  0.00     0.149 C 
BRANCH  20  22
ATOM     22  C   UNL A   1      33.902  28.483  25.788  1.00  0.00     0.086 C 
ATOM     23  C   UNL A   1      33.577  29.819  26.506  1.00  0.00     0.027 C 
ATOM     24  C   UNL A   1      33.009  28.571  27.032  1.00  0.00     0.027 C 
ENDBRANCH  20  22
ENDBRANCH  18  20
ENDBRANCH   9  18
ENDBRANCH   5   8
ENDBRANCH   3   4
ENDBRANCH   2   3
ENDBRANCH   1   2
BRANCH   1  25
ATOM     25  C   UNL A   1      36.902  21.897  25.372  1.00  0.00     0.002 C 
BRANCH  25  26
ATOM     26  C   UNL A   1      37.946  20.860  24.977  1.00  0.00     0.021 C 
BRANCH  26  27
ATOM     27  C   UNL A   1      39.155  20.963  25.930  1.00  0.00     0.116 C 
BRANCH  27  28
ATOM     28  N   UNL A   1      40.132  19.845  25.865  1.00  0.00    -0.352 N 
ATOM     29  C   UNL A   1      41.512  19.978  25.807  1.00  0.00     0.251 C 
ATOM     30  H   UNL A   1      39.769  18.930  25.863  1.00  0.00     0.163 HD
ATOM     31  O   UNL A   1      42.254  19.095  25.365  1.00  0.00    -0.269 OA
BRANCH  29  32
ATOM     32  C   UNL A   1      42.075  21.196  26.400  1.00  0.00     0.039 A 
ATOM     33  C   UNL A   1      42.357  22.349  25.666  1.00  0.00     0.014 A 
ATOM     34  C   UNL A   1      42.113  21.184  27.795  1.00  0.00     0.014 A 
ATOM     35  C   UNL A   1      42.601  23.523  26.374  1.00  0.00     0.010 A 
ATOM     36  C   UNL A   1      42.160  22.369  28.472  1.00  0.00     0.010 A 
ATOM     37  C   UNL A   1      42.470  23.526  27.778  1.00  0.00    -0.014 A 
BRANCH  37  38
ATOM     38  C   UNL A   1      42.453  24.766  28.542  1.00  0.00     0.031 A 
ATOM     39  C   UNL A   1      41.205  25.547  28.328  1.00  0.00     0.074 A 
ATOM     40  C   UNL A   1      43.390  25.077  29.468  1.00  0.00     0.049 A 
ATOM     41  N   UNL A   1      41.085  26.574  27.558  1.00  0.00    -0.248 NA
ATOM     42  C   UNL A   1      39.916  25.018  28.805  1.00  0.00     0.031 C 
ATOM     43  C   UNL A   1      44.501  24.254  29.968  1.00  0.00     0.029 A 
ATOM     44  N   UNL A   1      43.495  26.188  30.243  1.00  0.00    -0.354 N 
ATOM     45  C   UNL A   1      39.769  27.000  27.700  1.00  0.00     0.074 A 
ATOM     46  C   UNL A   1      39.054  25.888  28.266  1.00  0.00     0.031 C 
ATOM     47  C   UNL A   1      44.994  24.792  31.109  1.00  0.00     0.029 A 
ATOM     48  C   UNL A   1      44.357  26.076  31.334  1.00  0.00     0.049 A 
ATOM     49  H   UNL A   1      42.999  27.016  30.047  1.00  0.00     0.167 HD
ATOM     50  C   UNL A   1      39.470  28.325  27.603  1.00  0.00     0.034 A 
ATOM     51  C   UNL A   1      44.520  26.971  32.346  1.00  0.00     0.034 A 
ATOM     52  C   UNL A   1      40.600  29.060  27.085  1.00  0.00     0.049 A 
ATOM     53  C   UNL A   1      44.040  28.277  31.838  1.00  0.00     0.074 A 
ATOM     54  C   UNL A   1      41.337  29.025  25.917  1.00  0.00     0.029 A 
ATOM     55  N   UNL A   1      41.395  29.676  28.024  1.00  0.00    -0.354 N 
ATOM     56  N   UNL A   1      44.636  28.915  30.870  1.00  0.00    -0.248 NA
ATOM     57  C   UNL A   1      42.638  28.600  32.042  1.00  0.00     0.031 C 
ATOM     58  C   UNL A   1      42.690  29.185  26.336  1.00  0.00     0.029 A 
ATOM     59  C   UNL A   1      42.704  29.424  27.713  1.00  0.00     0.049 A 
ATOM     60  H   UNL A   1      41.077  30.208  28.789  1.00  0.00     0.167 HD
ATOM     61  C   UNL A   1      43.593  29.311  30.044  1.00  0.00     0.074 A 
ATOM     62  C   UNL A   1      42.384  29.172  30.860  1.00  0.00     0.031 C 
ATOM     63  C   UNL A   1      43.768  29.401  28.692  1.00  0.00     0.034 A 
BRANCH  50  64
ATOM     64  C   UNL A   1      38.364  29.041  28.345  1.00  0.00     0.023 A 
ATOM     65  C   UNL A   1      37.530  29.886  27.578  1.00  0.00     0.012 A 
ATOM     66  C   UNL A   1      38.283  29.164  29.751  1.00  0.00     0.148 A 
ATOM     67  C   UNL A   1      36.709  30.848  28.174  1.00  0.00     0.002 A 
ATOM     68  C   UNL A   1      37.419  30.079  30.341  1.00  0.00     0.091 A 
ATOM     69  F   UNL A   1      39.126  28.485  30.532  1.00  0.00    -0.205 F 
ATOM     70  C   UNL A   1      36.653  30.945  29.557  1.00  0.00     0.022 A 
BRANCH  68  71
ATOM     71  S   UNL A   1      37.278  30.244  32.127  1.00  0.00     0.127 S 
ATOM     72  O   UNL A   1      36.155  31.170  32.249  1.00  0.00    -0.237 OA
ATOM     73  O   UNL A   1      36.994  28.867  32.527  1.00  0.00    -0.237 OA
ATOM     74  O   UNL A   1      38.566  30.751  32.583  1.00  0.00    -0.744 OA
ENDBRANCH  68  71
ENDBRANCH  50  64
BRANCH  51  75
ATOM     75  C   UNL A   1      44.778  26.763  33.796  1.00  0.00     0.023 A 
ATOM     76  C   UNL A   1      45.989  27.204  34.377  1.00  0.00     0.012 A 
ATOM     77  C   UNL A   1      43.715  26.435  34.664  1.00  0.00     0.148 A 
ATOM     78  C   UNL A   1      46.121  27.344  35.768  1.00  0.00     0.002 A 
ATOM     79  C   UNL A   1      43.846  26.583  36.044  1.00  0.00     0.091 A 
ATOM     80  F   UNL A   1      42.543  26.070  34.128  1.00  0.00    -0.205 F 
ATOM     81  C   UNL A   1      45.046  27.046  36.600  1.00  0.00     0.022 A 
BRANCH  79  82
ATOM     82  S   UNL A   1      42.481  26.271  37.175  1.00  0.00     0.127 S 
ATOM     83  O   UNL A   1      42.109  24.899  36.829  1.00  0.00    -0.237 OA
ATOM     84  O   UNL A   1      43.125  26.420  38.478  1.00  0.00    -0.237 OA
ATOM     85  O   UNL A   1      41.464  27.267  36.862  1.00  0.00    -0.744 OA
ENDBRANCH  79  82
ENDBRANCH  51  75
BRANCH  63  86
ATOM     86  C   UNL A   1      45.172  29.290  28.152  1.00  0.00     0.023 A 
ATOM     87  C   UNL A   1      46.128  30.326  28.241  1.00  0.00     0.012 A 
ATOM     88  C   UNL A   1      45.579  28.032  27.683  1.00  0.00     0.148 A 
ATOM     89  C   UNL A   1      47.455  30.110  27.851  1.00  0.00     0.002 A 
ATOM     90  C   UNL A   1      46.904  27.809  27.341  1.00  0.00     0.091 A 
ATOM     91  F   UNL A   1      44.657  27.061  27.611  1.00  0.00    -0.205 F 
ATOM     92  C   UNL A   1      47.846  28.847  27.413  1.00  0.00     0.022 A 
BRANCH  90  93
ATOM     93  S   UNL A   1      47.480  26.174  26.885  1.00  0.00     0.127 S 
ATOM     94  O   UNL A   1      47.626  26.297  25.437  1.00  0.00    -0.237 OA
ATOM     95  O   UNL A   1      48.740  26.070  27.623  1.00  0.00    -0.237 OA
ATOM     96  O   UNL A   1      46.451  25.244  27.334  1.00  0.00    -0.744 OA
ENDBRANCH  90  93
ENDBRANCH  63  86
ENDBRANCH  37  38
ENDBRANCH  29  32
ENDBRANCH  27  28
ENDBRANCH  26  27
ENDBRANCH  25  26
ENDBRANCH   1  25
TORSDOF 19
ENDMDL
