MODEL 1
REMARK VINA RESULT:     -11.5      0.000      0.000
REMARK SMILES COc1ccc(CCNc2ncnc3sc(C(=O)NCCCCCCNC(=O)c4ccc(-c5c6nc(c(-c7cccc(S(=O)(=O)[O-])c7F)c7ccc([nH]7)c(-c7cccc(S(=O)(=O)[O-])c7F)c7nc(c(-c8cccc(S(=O)(=O)[O-])c8F)c8ccc5[nH]8)C=C7)C=C6)cc4)c(C)c23)cc1OC
REMARK SMILES IDX 21 1 20 2 19 3 17 4 18 5 16 7 10 8 11 9 94 10 12 11 14 12
REMARK SMILES IDX 92 13 13 14 15 15 93 16 9 17 8 19 7 20 6 21 3 22 4 23 96 24
REMARK SMILES IDX 5 25 95 26 2 27 1 28 97 29 98 30 22 31 23 32 24 33 25 34
REMARK SMILES IDX 26 35 27 36 28 38 29 39 30 40 91 41 31 42 90 43 32 44 33 45
REMARK SMILES IDX 34 46 84 47 35 48 89 49 83 50 85 51 36 52 88 53 82 54 81 55
REMARK SMILES IDX 37 57 69 58 49 59 68 60 50 61 53 62 67 63 86 64 51 65 52 66
REMARK SMILES IDX 66 68 87 69 54 70 38 71 39 72 47 73 40 74 42 75 48 76 41 77
REMARK SMILES IDX 43 78 44 79 45 80 46 81 70 82 71 83 79 84 72 85 74 86 80 87
REMARK SMILES IDX 73 88 75 89 76 90 77 91 78 92 55 93 56 94 64 95 57 96 59 97
REMARK SMILES IDX 65 98 58 99 60 100 61 101 62 102 63 103
REMARK H PARENT 19 6 9 18 26 37 85 56 53 67
REMARK Flexibility Score: inf
ROOT
ATOM      1  C   UNL A   1      31.890  29.696  24.695  1.00  0.00     0.021 C 
ENDROOT
BRANCH   1   2
ATOM      2  C   UNL A   1      30.515  29.588  24.047  1.00  0.00     0.116 C 
BRANCH   2   3
ATOM      3  N   UNL A   1      30.531  28.590  23.008  1.00  0.00    -0.351 N 
ATOM      4  C   UNL A   1      30.945  27.290  22.942  1.00  0.00     0.261 C 
ATOM      5  O   UNL A   1      30.845  26.832  21.796  1.00  0.00    -0.268 OA
ATOM      6  H   UNL A   1      30.163  28.918  22.155  1.00  0.00     0.163 HD
BRANCH   4   7
ATOM      7  C   UNL A   1      31.372  26.480  24.089  1.00  0.00     0.098 A 
ATOM      8  C   UNL A   1      33.787  24.375  26.072  1.00  0.00     0.138 A 
ATOM      9  N   UNL A   1      33.480  23.454  27.011  1.00  0.00    -0.219 NA
ATOM     10  C   UNL A   1      32.744  25.130  25.487  1.00  0.00     0.057 A 
ATOM     11  C   UNL A   1      32.206  23.359  27.422  1.00  0.00     0.225 A 
ATOM     12  C   UNL A   1      31.487  24.914  26.012  1.00  0.00     0.129 A 
ATOM     13  C   UNL A   1      32.679  26.072  24.371  1.00  0.00    -0.014 A 
ATOM     14  N   UNL A   1      31.155  24.043  26.976  1.00  0.00    -0.225 NA
ATOM     15  S   UNL A   1      30.324  25.911  25.311  1.00  0.00    -0.110 S 
ATOM     16  C   UNL A   1      33.883  26.464  23.587  1.00  0.00     0.047 C 
BRANCH   8  17
ATOM     17  N   UNL A   1      35.102  24.561  25.706  1.00  0.00    -0.369 N 
ATOM     18  H   UNL A   1      35.358  25.418  25.296  1.00  0.00     0.162 HD
BRANCH  17  19
ATOM     19  C   UNL A   1      36.122  23.552  25.900  1.00  0.00     0.119 C 
BRANCH  19  20
ATOM     20  C   UNL A   1      36.230  22.662  24.642  1.00  0.00     0.057 C 
BRANCH  20  21
ATOM     21  C   UNL A   1      35.190  21.564  24.532  1.00  0.00    -0.042 A 
ATOM     22  C   UNL A   1      33.239  19.522  24.423  1.00  0.00     0.160 A 
ATOM     23  C   UNL A   1      34.539  19.230  24.826  1.00  0.00     0.051 A 
ATOM     24  C   UNL A   1      32.909  20.830  24.041  1.00  0.00     0.160 A 
ATOM     25  C   UNL A   1      35.495  20.241  24.850  1.00  0.00     0.008 A 
ATOM     26  C   UNL A   1      33.888  21.838  24.104  1.00  0.00     0.054 A 
BRANCH  22  27
ATOM     27  O   UNL A   1      32.286  18.547  24.537  1.00  0.00    -0.493 OA
ATOM     28  C   UNL A   1      32.593  17.588  25.548  1.00  0.00     0.278 C 
ENDBRANCH  22  27
BRANCH  24  29
ATOM     29  O   UNL A   1      31.692  21.293  23.613  1.00  0.00    -0.493 OA
ATOM     30  C   UNL A   1      31.652  22.606  23.077  1.00  0.00     0.278 C 
ENDBRANCH  24  29
ENDBRANCH  20  21
ENDBRANCH  19  20
ENDBRANCH  17  19
ENDBRANCH   8  17
ENDBRANCH   4   7
ENDBRANCH   2   3
ENDBRANCH   1   2
BRANCH   1  31
ATOM     31  C   UNL A   1      31.817  29.885  26.215  1.00  0.00     0.002 C 
BRANCH  31  32
ATOM     32  C   UNL A   1      32.412  28.736  27.046  1.00  0.00     0.002 C 
BRANCH  32  33
ATOM     33  C   UNL A   1      33.795  28.991  27.669  1.00  0.00     0.021 C 
BRANCH  33  34
ATOM     34  C   UNL A   1      34.449  30.268  27.175  1.00  0.00     0.116 C 
BRANCH  34  35
ATOM     35  N   UNL A   1      34.260  31.366  28.125  1.00  0.00    -0.352 N 
ATOM     36  C   UNL A   1      34.903  31.596  29.327  1.00  0.00     0.251 C 
ATOM     37  H   UNL A   1      33.580  32.033  27.874  1.00  0.00     0.163 HD
ATOM     38  O   UNL A   1      34.403  32.313  30.177  1.00  0.00    -0.269 OA
BRANCH  36  39
ATOM     39  C   UNL A   1      36.220  30.971  29.542  1.00  0.00     0.039 A 
ATOM     40  C   UNL A   1      36.358  29.611  29.835  1.00  0.00     0.014 A 
ATOM     41  C   UNL A   1      37.334  31.793  29.428  1.00  0.00     0.014 A 
ATOM     42  C   UNL A   1      37.641  29.086  29.961  1.00  0.00     0.010 A 
ATOM     43  C   UNL A   1      38.572  31.237  29.319  1.00  0.00     0.010 A 
ATOM     44  C   UNL A   1      38.740  29.914  29.696  1.00  0.00    -0.014 A 
BRANCH  44  45
ATOM     45  C   UNL A   1      40.109  29.420  29.685  1.00  0.00     0.031 A 
ATOM     46  C   UNL A   1      40.670  29.246  31.047  1.00  0.00     0.074 A 
ATOM     47  C   UNL A   1      40.657  28.911  28.557  1.00  0.00     0.049 A 
ATOM     48  N   UNL A   1      41.605  29.938  31.607  1.00  0.00    -0.248 NA
ATOM     49  C   UNL A   1      39.971  28.336  31.976  1.00  0.00     0.031 C 
ATOM     50  C   UNL A   1      40.012  28.739  27.244  1.00  0.00     0.029 A 
ATOM     51  N   UNL A   1      41.846  28.275  28.379  1.00  0.00    -0.354 N 
ATOM     52  C   UNL A   1      41.802  29.338  32.849  1.00  0.00     0.074 A 
ATOM     53  C   UNL A   1      40.609  28.587  33.120  1.00  0.00     0.031 C 
ATOM     54  C   UNL A   1      40.696  27.827  26.518  1.00  0.00     0.029 A 
ATOM     55  C   UNL A   1      41.903  27.472  27.237  1.00  0.00     0.049 A 
ATOM     56  H   UNL A   1      42.602  28.373  29.002  1.00  0.00     0.167 HD
ATOM     57  C   UNL A   1      43.053  29.229  33.377  1.00  0.00     0.034 A 
ATOM     58  C   UNL A   1      42.845  26.540  26.942  1.00  0.00     0.034 A 
ATOM     59  C   UNL A   1      43.982  30.078  32.667  1.00  0.00     0.049 A 
ATOM     60  C   UNL A   1      44.020  26.831  27.794  1.00  0.00     0.074 A 
ATOM     61  C   UNL A   1      44.058  31.427  32.384  1.00  0.00     0.029 A 
ATOM     62  N   UNL A   1      44.810  29.449  31.767  1.00  0.00    -0.354 N 
ATOM     63  N   UNL A   1      44.739  27.911  27.678  1.00  0.00    -0.248 NA
ATOM     64  C   UNL A   1      44.106  26.152  29.077  1.00  0.00     0.031 C 
ATOM     65  C   UNL A   1      44.555  31.492  31.049  1.00  0.00     0.029 A 
ATOM     66  C   UNL A   1      44.844  30.195  30.621  1.00  0.00     0.049 A 
ATOM     67  H   UNL A   1      45.296  28.607  31.922  1.00  0.00     0.167 HD
ATOM     68  C   UNL A   1      44.962  28.309  28.989  1.00  0.00     0.074 A 
ATOM     69  C   UNL A   1      44.653  27.133  29.801  1.00  0.00     0.031 C 
ATOM     70  C   UNL A   1      45.067  29.633  29.306  1.00  0.00     0.034 A 
BRANCH  57  71
ATOM     71  C   UNL A   1      43.551  28.068  34.219  1.00  0.00     0.023 A 
ATOM     72  C   UNL A   1      44.187  28.400  35.437  1.00  0.00     0.012 A 
ATOM     73  C   UNL A   1      43.690  26.732  33.775  1.00  0.00     0.148 A 
ATOM     74  C   UNL A   1      44.980  27.479  36.131  1.00  0.00     0.002 A 
ATOM     75  C   UNL A   1      44.415  25.799  34.508  1.00  0.00     0.091 A 
ATOM     76  F   UNL A   1      43.239  26.366  32.576  1.00  0.00    -0.205 F 
ATOM     77  C   UNL A   1      45.093  26.176  35.667  1.00  0.00     0.022 A 
BRANCH  75  78
ATOM     78  S   UNL A   1      44.561  24.086  33.975  1.00  0.00     0.127 S 
ATOM     79  O   UNL A   1      44.786  24.246  32.541  1.00  0.00    -0.237 OA
ATOM     80  O   UNL A   1      45.722  23.636  34.741  1.00  0.00    -0.237 OA
ATOM     81  O   UNL A   1      43.308  23.445  34.357  1.00  0.00    -0.744 OA
ENDBRANCH  75  78
ENDBRANCH  57  71
BRANCH  58  82
ATOM     82  C   UNL A   1      42.740  25.266  26.185  1.00  0.00     0.023 A 
ATOM     83  C   UNL A   1      43.714  24.943  25.216  1.00  0.00     0.012 A 
ATOM     84  C   UNL A   1      41.865  24.242  26.610  1.00  0.00     0.148 A 
ATOM     85  C   UNL A   1      43.839  23.637  24.721  1.00  0.00     0.002 A 
ATOM     86  C   UNL A   1      41.989  22.948  26.111  1.00  0.00     0.091 A 
ATOM     87  F   UNL A   1      40.976  24.515  27.573  1.00  0.00    -0.205 F 
ATOM     88  C   UNL A   1      42.983  22.638  25.176  1.00  0.00     0.022 A 
BRANCH  86  89
ATOM     89  S   UNL A   1      40.944  21.598  26.679  1.00  0.00     0.127 S 
ATOM     90  O   UNL A   1      41.709  20.425  26.256  1.00  0.00    -0.237 OA
ATOM     91  O   UNL A   1      40.915  21.824  28.120  1.00  0.00    -0.237 OA
ATOM     92  O   UNL A   1      39.670  21.763  25.988  1.00  0.00    -0.744 OA
ENDBRANCH  86  89
ENDBRANCH  58  82
BRANCH  70  93
ATOM     93  C   UNL A   1      45.209  30.624  28.177  1.00  0.00     0.023 A 
ATOM     94  C   UNL A   1      44.105  31.177  27.493  1.00  0.00     0.012 A 
ATOM     95  C   UNL A   1      46.490  31.137  27.922  1.00  0.00     0.148 A 
ATOM     96  C   UNL A   1      44.281  32.206  26.563  1.00  0.00     0.002 A 
ATOM     97  C   UNL A   1      46.656  32.190  27.035  1.00  0.00     0.091 A 
ATOM     98  F   UNL A   1      47.527  30.600  28.583  1.00  0.00    -0.205 F 
ATOM     99  C   UNL A   1      45.556  32.723  26.345  1.00  0.00     0.022 A 
BRANCH  97 100
ATOM    100  S   UNL A   1      48.252  32.976  26.814  1.00  0.00     0.127 S 
ATOM    101  O   UNL A   1      48.486  33.564  28.130  1.00  0.00    -0.237 OA
ATOM    102  O   UNL A   1      49.118  31.844  26.485  1.00  0.00    -0.237 OA
ATOM    103  O   UNL A   1      48.083  33.929  25.723  1.00  0.00    -0.744 OA
ENDBRANCH  97 100
ENDBRANCH  70  93
ENDBRANCH  44  45
ENDBRANCH  36  39
ENDBRANCH  34  35
ENDBRANCH  33  34
ENDBRANCH  32  33
ENDBRANCH  31  32
ENDBRANCH   1  31
TORSDOF 22
ENDMDL
MODEL 2
REMARK VINA RESULT:     -10.8      2.371      2.883
REMARK SMILES COc1ccc(CCNc2ncnc3sc(C(=O)NCCCCCCNC(=O)c4ccc(-c5c6nc(c(-c7cccc(S(=O)(=O)[O-])c7F)c7ccc([nH]7)c(-c7cccc(S(=O)(=O)[O-])c7F)c7nc(c(-c8cccc(S(=O)(=O)[O-])c8F)c8ccc5[nH]8)C=C7)C=C6)cc4)c(C)c23)cc1OC
REMARK SMILES IDX 21 1 20 2 19 3 17 4 18 5 16 7 10 8 11 9 94 10 12 11 14 12
REMARK SMILES IDX 92 13 13 14 15 15 93 16 9 17 8 19 7 20 6 21 3 22 4 23 96 24
REMARK SMILES IDX 5 25 95 26 2 27 1 28 97 29 98 30 22 31 23 32 24 33 25 34
REMARK SMILES IDX 26 35 27 36 28 38 29 39 30 40 91 41 31 42 90 43 32 44 33 45
REMARK SMILES IDX 34 46 84 47 35 48 89 49 83 50 85 51 36 52 88 53 82 54 81 55
REMARK SMILES IDX 37 57 69 58 49 59 68 60 50 61 53 62 67 63 86 64 51 65 52 66
REMARK SMILES IDX 66 68 87 69 54 70 38 71 39 72 47 73 40 74 42 75 48 76 41 77
REMARK SMILES IDX 43 78 44 79 45 80 46 81 70 82 71 83 79 84 72 85 74 86 80 87
REMARK SMILES IDX 73 88 75 89 76 90 77 91 78 92 55 93 56 94 64 95 57 96 59 97
REMARK SMILES IDX 65 98 58 99 60 100 61 101 62 102 63 103
REMARK H PARENT 19 6 9 18 26 37 85 56 53 67
REMARK Flexibility Score: inf
ROOT
ATOM      1  C   UNL A   1      32.915  30.128  25.631  1.00  0.00     0.021 C 
ENDROOT
BRANCH   1   2
ATOM      2  C   UNL A   1      31.410  30.149  25.392  1.00  0.00     0.116 C 
BRANCH   2   3
ATOM      3  N   UNL A   1      31.084  29.401  24.205  1.00  0.00    -0.351 N 
ATOM      4  C   UNL A   1      31.188  28.087  23.848  1.00  0.00     0.261 C 
ATOM      5  O   UNL A   1      30.857  27.901  22.669  1.00  0.00    -0.268 OA
ATOM      6  H   UNL A   1      30.702  29.963  23.491  1.00  0.00     0.163 HD
BRANCH   4   7
ATOM      7  C   UNL A   1      31.554  26.992  24.754  1.00  0.00     0.098 A 
ATOM      8  C   UNL A   1      33.696  24.145  25.978  1.00  0.00     0.138 A 
ATOM      9  N   UNL A   1      33.305  23.108  26.750  1.00  0.00    -0.219 NA
ATOM     10  C   UNL A   1      32.765  25.169  25.684  1.00  0.00     0.057 A 
ATOM     11  C   UNL A   1      32.076  23.138  27.287  1.00  0.00     0.225 A 
ATOM     12  C   UNL A   1      31.540  25.054  26.306  1.00  0.00     0.129 A 
ATOM     13  C   UNL A   1      32.781  26.324  24.790  1.00  0.00    -0.014 A 
ATOM     14  N   UNL A   1      31.135  24.065  27.115  1.00  0.00    -0.225 NA
ATOM     15  S   UNL A   1      30.527  26.355  25.961  1.00  0.00    -0.110 S 
ATOM     16  C   UNL A   1      33.965  26.672  23.955  1.00  0.00     0.047 C 
BRANCH   8  17
ATOM     17  N   UNL A   1      34.986  24.186  25.498  1.00  0.00    -0.369 N 
ATOM     18  H   UNL A   1      35.194  24.810  24.766  1.00  0.00     0.162 HD
BRANCH  17  19
ATOM     19  C   UNL A   1      36.047  23.352  26.022  1.00  0.00     0.119 C 
BRANCH  19  20
ATOM     20  C   UNL A   1      36.586  22.422  24.913  1.00  0.00     0.057 C 
BRANCH  20  21
ATOM     21  C   UNL A   1      35.867  21.094  24.773  1.00  0.00    -0.042 A 
ATOM     22  C   UNL A   1      34.527  18.611  24.610  1.00  0.00     0.160 A 
ATOM     23  C   UNL A   1      35.896  18.654  24.858  1.00  0.00     0.051 A 
ATOM     24  C   UNL A   1      33.820  19.806  24.410  1.00  0.00     0.160 A 
ATOM     25  C   UNL A   1      36.546  19.884  24.911  1.00  0.00     0.008 A 
ATOM     26  C   UNL A   1      34.498  21.035  24.499  1.00  0.00     0.054 A 
BRANCH  22  27
ATOM     27  O   UNL A   1      33.886  17.406  24.698  1.00  0.00    -0.493 OA
ATOM     28  C   UNL A   1      34.167  16.547  23.594  1.00  0.00     0.278 C 
ENDBRANCH  22  27
BRANCH  24  29
ATOM     29  O   UNL A   1      32.482  19.951  24.150  1.00  0.00    -0.493 OA
ATOM     30  C   UNL A   1      31.994  21.274  23.992  1.00  0.00     0.278 C 
ENDBRANCH  24  29
ENDBRANCH  20  21
ENDBRANCH  19  20
ENDBRANCH  17  19
ENDBRANCH   8  17
ENDBRANCH   4   7
ENDBRANCH   2   3
ENDBRANCH   1   2
BRANCH   1  31
ATOM     31  C   UNL A   1      33.299  29.429  26.940  1.00  0.00     0.002 C 
BRANCH  31  32
ATOM     32  C   UNL A   1      34.714  28.826  26.969  1.00  0.00     0.002 C 
BRANCH  32  33
ATOM     33  C   UNL A   1      35.636  29.308  28.103  1.00  0.00     0.021 C 
BRANCH  33  34
ATOM     34  C   UNL A   1      36.353  30.606  27.783  1.00  0.00     0.116 C 
BRANCH  34  35
ATOM     35  N   UNL A   1      36.155  31.600  28.840  1.00  0.00    -0.352 N 
ATOM     36  C   UNL A   1      36.614  31.585  30.143  1.00  0.00     0.251 C 
ATOM     37  H   UNL A   1      35.620  32.387  28.588  1.00  0.00     0.163 HD
ATOM     38  O   UNL A   1      36.079  32.264  31.003  1.00  0.00    -0.269 OA
BRANCH  36  39
ATOM     39  C   UNL A   1      37.783  30.746  30.460  1.00  0.00     0.039 A 
ATOM     40  C   UNL A   1      37.655  29.414  30.866  1.00  0.00     0.014 A 
ATOM     41  C   UNL A   1      39.036  31.332  30.324  1.00  0.00     0.014 A 
ATOM     42  C   UNL A   1      38.812  28.672  31.084  1.00  0.00     0.010 A 
ATOM     43  C   UNL A   1      40.148  30.548  30.309  1.00  0.00     0.010 A 
ATOM     44  C   UNL A   1      40.054  29.254  30.797  1.00  0.00    -0.014 A 
BRANCH  44  45
ATOM     45  C   UNL A   1      41.304  28.515  30.879  1.00  0.00     0.031 A 
ATOM     46  C   UNL A   1      41.797  28.369  32.271  1.00  0.00     0.074 A 
ATOM     47  C   UNL A   1      41.766  27.806  29.823  1.00  0.00     0.049 A 
ATOM     48  N   UNL A   1      42.837  28.925  32.798  1.00  0.00    -0.248 NA
ATOM     49  C   UNL A   1      40.923  27.700  33.253  1.00  0.00     0.031 C 
ATOM     50  C   UNL A   1      41.123  27.633  28.508  1.00  0.00     0.029 A 
ATOM     51  N   UNL A   1      42.815  26.945  29.745  1.00  0.00    -0.354 N 
ATOM     52  C   UNL A   1      42.894  28.421  34.096  1.00  0.00     0.074 A 
ATOM     53  C   UNL A   1      41.575  27.936  34.392  1.00  0.00     0.031 C 
ATOM     54  C   UNL A   1      41.635  26.544  27.893  1.00  0.00     0.029 A 
ATOM     55  C   UNL A   1      42.740  26.040  28.684  1.00  0.00     0.049 A 
ATOM     56  H   UNL A   1      43.565  26.959  30.383  1.00  0.00     0.167 HD
ATOM     57  C   UNL A   1      44.092  28.131  34.676  1.00  0.00     0.034 A 
ATOM     58  C   UNL A   1      43.493  24.924  28.508  1.00  0.00     0.034 A 
ATOM     59  C   UNL A   1      45.178  28.719  33.926  1.00  0.00     0.049 A 
ATOM     60  C   UNL A   1      44.686  25.071  29.372  1.00  0.00     0.074 A 
ATOM     61  C   UNL A   1      45.513  29.996  33.524  1.00  0.00     0.029 A 
ATOM     62  N   UNL A   1      45.888  27.863  33.116  1.00  0.00    -0.354 N 
ATOM     63  N   UNL A   1      45.599  25.981  29.183  1.00  0.00    -0.248 NA
ATOM     64  C   UNL A   1      44.619  24.514  30.713  1.00  0.00     0.031 C 
ATOM     65  C   UNL A   1      46.037  29.840  32.208  1.00  0.00     0.029 A 
ATOM     66  C   UNL A   1      46.083  28.476  31.909  1.00  0.00     0.049 A 
ATOM     67  H   UNL A   1      46.202  26.964  33.364  1.00  0.00     0.167 HD
ATOM     68  C   UNL A   1      45.870  26.454  30.460  1.00  0.00     0.074 A 
ATOM     69  C   UNL A   1      45.329  25.440  31.365  1.00  0.00     0.031 C 
ATOM     70  C   UNL A   1      46.218  27.760  30.660  1.00  0.00     0.034 A 
BRANCH  57  71
ATOM     71  C   UNL A   1      44.346  26.984  35.637  1.00  0.00     0.023 A 
ATOM     72  C   UNL A   1      43.887  25.709  35.232  1.00  0.00     0.012 A 
ATOM     73  C   UNL A   1      44.734  27.117  36.991  1.00  0.00     0.148 A 
ATOM     74  C   UNL A   1      43.746  24.653  36.140  1.00  0.00     0.002 A 
ATOM     75  C   UNL A   1      44.667  26.042  37.871  1.00  0.00     0.091 A 
ATOM     76  F   UNL A   1      45.052  28.310  37.491  1.00  0.00    -0.205 F 
ATOM     77  C   UNL A   1      44.138  24.819  37.460  1.00  0.00     0.022 A 
BRANCH  75  78
ATOM     78  S   UNL A   1      45.200  26.189  39.584  1.00  0.00     0.127 S 
ATOM     79  O   UNL A   1      44.083  26.922  40.174  1.00  0.00    -0.237 OA
ATOM     80  O   UNL A   1      45.304  24.786  39.982  1.00  0.00    -0.237 OA
ATOM     81  O   UNL A   1      46.475  26.894  39.541  1.00  0.00    -0.744 OA
ENDBRANCH  75  78
ENDBRANCH  57  71
BRANCH  58  82
ATOM     82  C   UNL A   1      43.162  23.626  27.867  1.00  0.00     0.023 A 
ATOM     83  C   UNL A   1      41.861  23.093  27.993  1.00  0.00     0.012 A 
ATOM     84  C   UNL A   1      44.017  23.059  26.897  1.00  0.00     0.148 A 
ATOM     85  C   UNL A   1      41.416  22.061  27.155  1.00  0.00     0.002 A 
ATOM     86  C   UNL A   1      43.572  22.030  26.070  1.00  0.00     0.091 A 
ATOM     87  F   UNL A   1      45.232  23.593  26.721  1.00  0.00    -0.205 F 
ATOM     88  C   UNL A   1      42.268  21.536  26.187  1.00  0.00     0.022 A 
BRANCH  86  89
ATOM     89  S   UNL A   1      44.604  21.329  24.773  1.00  0.00     0.127 S 
ATOM     90  O   UNL A   1      45.910  21.262  25.429  1.00  0.00    -0.237 OA
ATOM     91  O   UNL A   1      43.966  20.037  24.545  1.00  0.00    -0.237 OA
ATOM     92  O   UNL A   1      44.540  22.271  23.661  1.00  0.00    -0.744 OA
ENDBRANCH  86  89
ENDBRANCH  58  82
BRANCH  70  93
ATOM     93  C   UNL A   1      46.566  28.593  29.451  1.00  0.00     0.023 A 
ATOM     94  C   UNL A   1      47.800  28.492  28.774  1.00  0.00     0.012 A 
ATOM     95  C   UNL A   1      45.545  29.373  28.887  1.00  0.00     0.148 A 
ATOM     96  C   UNL A   1      48.013  29.170  27.569  1.00  0.00     0.002 A 
ATOM     97  C   UNL A   1      45.743  30.005  27.667  1.00  0.00     0.091 A 
ATOM     98  F   UNL A   1      44.378  29.456  29.544  1.00  0.00    -0.205 F 
ATOM     99  C   UNL A   1      46.979  29.915  27.008  1.00  0.00     0.022 A 
BRANCH  97 100
ATOM    100  S   UNL A   1      44.407  30.869  26.841  1.00  0.00     0.127 S 
ATOM    101  O   UNL A   1      45.098  31.491  25.714  1.00  0.00    -0.237 OA
ATOM    102  O   UNL A   1      43.503  29.777  26.479  1.00  0.00    -0.237 OA
ATOM    103  O   UNL A   1      43.857  31.793  27.825  1.00  0.00    -0.744 OA
ENDBRANCH  97 100
ENDBRANCH  70  93
ENDBRANCH  44  45
ENDBRANCH  36  39
ENDBRANCH  34  35
ENDBRANCH  33  34
ENDBRANCH  32  33
ENDBRANCH  31  32
ENDBRANCH   1  31
TORSDOF 22
ENDMDL
MODEL 3
REMARK VINA RESULT:     -10.4      2.784      7.616
REMARK SMILES COc1ccc(CCNc2ncnc3sc(C(=O)NCCCCCCNC(=O)c4ccc(-c5c6nc(c(-c7cccc(S(=O)(=O)[O-])c7F)c7ccc([nH]7)c(-c7cccc(S(=O)(=O)[O-])c7F)c7nc(c(-c8cccc(S(=O)(=O)[O-])c8F)c8ccc5[nH]8)C=C7)C=C6)cc4)c(C)c23)cc1OC
REMARK SMILES IDX 21 1 20 2 19 3 17 4 18 5 16 7 10 8 11 9 94 10 12 11 14 12
REMARK SMILES IDX 92 13 13 14 15 15 93 16 9 17 8 19 7 20 6 21 3 22 4 23 96 24
REMARK SMILES IDX 5 25 95 26 2 27 1 28 97 29 98 30 22 31 23 32 24 33 25 34
REMARK SMILES IDX 26 35 27 36 28 38 29 39 30 40 91 41 31 42 90 43 32 44 33 45
REMARK SMILES IDX 34 46 84 47 35 48 89 49 83 50 85 51 36 52 88 53 82 54 81 55
REMARK SMILES IDX 37 57 69 58 49 59 68 60 50 61 53 62 67 63 86 64 51 65 52 66
REMARK SMILES IDX 66 68 87 69 54 70 38 71 39 72 47 73 40 74 42 75 48 76 41 77
REMARK SMILES IDX 43 78 44 79 45 80 46 81 70 82 71 83 79 84 72 85 74 86 80 87
REMARK SMILES IDX 73 88 75 89 76 90 77 91 78 92 55 93 56 94 64 95 57 96 59 97
REMARK SMILES IDX 65 98 58 99 60 100 61 101 62 102 63 103
REMARK H PARENT 19 6 9 18 26 37 85 56 53 67
REMARK Flexibility Score: inf
ROOT
ATOM      1  C   UNL A   1      33.372  29.061  24.860  1.00  0.00     0.021 C 
ENDROOT
BRANCH   1   2
ATOM      2  C   UNL A   1      31.968  29.651  24.796  1.00  0.00     0.116 C 
BRANCH   2   3
ATOM      3  N   UNL A   1      31.270  29.154  23.639  1.00  0.00    -0.351 N 
ATOM      4  C   UNL A   1      30.949  27.907  23.182  1.00  0.00     0.261 C 
ATOM      5  O   UNL A   1      30.405  27.948  22.070  1.00  0.00    -0.268 OA
ATOM      6  H   UNL A   1      30.956  29.872  23.042  1.00  0.00     0.163 HD
BRANCH   4   7
ATOM      7  C   UNL A   1      31.129  26.660  23.935  1.00  0.00     0.098 A 
ATOM      8  C   UNL A   1      32.452  23.180  24.511  1.00  0.00     0.138 A 
ATOM      9  N   UNL A   1      31.923  22.233  25.315  1.00  0.00    -0.219 NA
ATOM     10  C   UNL A   1      31.859  24.464  24.484  1.00  0.00     0.057 A 
ATOM     11  C   UNL A   1      30.913  22.575  26.130  1.00  0.00     0.225 A 
ATOM     12  C   UNL A   1      30.825  24.660  25.374  1.00  0.00     0.129 A 
ATOM     13  C   UNL A   1      32.054  25.651  23.654  1.00  0.00    -0.014 A 
ATOM     14  N   UNL A   1      30.306  23.757  26.219  1.00  0.00    -0.225 NA
ATOM     15  S   UNL A   1      30.234  26.237  25.327  1.00  0.00    -0.110 S 
ATOM     16  C   UNL A   1      33.080  25.712  22.576  1.00  0.00     0.047 C 
BRANCH   8  17
ATOM     17  N   UNL A   1      33.553  22.879  23.741  1.00  0.00    -0.369 N 
ATOM     18  H   UNL A   1      33.531  23.106  22.783  1.00  0.00     0.162 HD
BRANCH  17  19
ATOM     19  C   UNL A   1      34.739  22.246  24.278  1.00  0.00     0.119 C 
BRANCH  19  20
ATOM     20  C   UNL A   1      35.905  23.259  24.322  1.00  0.00     0.057 C 
BRANCH  20  21
ATOM     21  C   UNL A   1      37.132  22.803  25.089  1.00  0.00    -0.042 A 
ATOM     22  C   UNL A   1      39.466  21.947  26.433  1.00  0.00     0.160 A 
ATOM     23  C   UNL A   1      38.667  21.027  25.760  1.00  0.00     0.051 A 
ATOM     24  C   UNL A   1      39.090  23.298  26.468  1.00  0.00     0.160 A 
ATOM     25  C   UNL A   1      37.507  21.460  25.124  1.00  0.00     0.008 A 
ATOM     26  C   UNL A   1      37.928  23.711  25.791  1.00  0.00     0.054 A 
BRANCH  22  27
ATOM     27  O   UNL A   1      40.668  21.524  26.932  1.00  0.00    -0.493 OA
ATOM     28  C   UNL A   1      41.762  21.819  26.066  1.00  0.00     0.278 C 
ENDBRANCH  22  27
BRANCH  24  29
ATOM     29  O   UNL A   1      39.747  24.331  27.083  1.00  0.00    -0.493 OA
ATOM     30  C   UNL A   1      39.053  25.014  28.116  1.00  0.00     0.278 C 
ENDBRANCH  24  29
ENDBRANCH  20  21
ENDBRANCH  19  20
ENDBRANCH  17  19
ENDBRANCH   8  17
ENDBRANCH   4   7
ENDBRANCH   2   3
ENDBRANCH   1   2
BRANCH   1  31
ATOM     31  C   UNL A   1      33.647  28.322  26.175  1.00  0.00     0.002 C 
BRANCH  31  32
ATOM     32  C   UNL A   1      34.251  29.185  27.296  1.00  0.00     0.002 C 
BRANCH  32  33
ATOM     33  C   UNL A   1      35.783  29.328  27.294  1.00  0.00     0.021 C 
BRANCH  33  34
ATOM     34  C   UNL A   1      36.265  30.629  27.909  1.00  0.00     0.116 C 
BRANCH  34  35
ATOM     35  N   UNL A   1      35.910  30.712  29.327  1.00  0.00    -0.352 N 
ATOM     36  C   UNL A   1      36.508  30.097  30.410  1.00  0.00     0.251 C 
ATOM     37  H   UNL A   1      35.137  31.284  29.539  1.00  0.00     0.163 HD
ATOM     38  O   UNL A   1      35.905  29.950  31.459  1.00  0.00    -0.269 OA
BRANCH  36  39
ATOM     39  C   UNL A   1      37.905  29.647  30.271  1.00  0.00     0.039 A 
ATOM     40  C   UNL A   1      38.949  30.538  30.003  1.00  0.00     0.014 A 
ATOM     41  C   UNL A   1      38.150  28.289  30.434  1.00  0.00     0.014 A 
ATOM     42  C   UNL A   1      40.248  30.041  29.951  1.00  0.00     0.010 A 
ATOM     43  C   UNL A   1      39.426  27.852  30.615  1.00  0.00     0.010 A 
ATOM     44  C   UNL A   1      40.470  28.693  30.263  1.00  0.00    -0.014 A 
BRANCH  44  45
ATOM     45  C   UNL A   1      41.804  28.119  30.352  1.00  0.00     0.031 A 
ATOM     46  C   UNL A   1      42.174  27.330  29.150  1.00  0.00     0.074 A 
ATOM     47  C   UNL A   1      42.679  28.529  31.301  1.00  0.00     0.049 A 
ATOM     48  N   UNL A   1      42.328  26.051  29.066  1.00  0.00    -0.248 NA
ATOM     49  C   UNL A   1      42.167  28.012  27.842  1.00  0.00     0.031 C 
ATOM     50  C   UNL A   1      42.475  29.576  32.316  1.00  0.00     0.029 A 
ATOM     51  N   UNL A   1      43.996  28.230  31.457  1.00  0.00    -0.354 N 
ATOM     52  C   UNL A   1      42.731  25.823  27.752  1.00  0.00     0.074 A 
ATOM     53  C   UNL A   1      42.332  26.985  27.008  1.00  0.00     0.031 C 
ATOM     54  C   UNL A   1      43.672  30.000  32.777  1.00  0.00     0.029 A 
ATOM     55  C   UNL A   1      44.710  29.157  32.219  1.00  0.00     0.049 A 
ATOM     56  H   UNL A   1      44.410  27.427  31.066  1.00  0.00     0.167 HD
ATOM     57  C   UNL A   1      43.658  24.867  27.466  1.00  0.00     0.034 A 
ATOM     58  C   UNL A   1      46.060  29.257  32.329  1.00  0.00     0.034 A 
ATOM     59  C   UNL A   1      43.849  23.987  28.596  1.00  0.00     0.049 A 
ATOM     60  C   UNL A   1      46.624  27.965  31.877  1.00  0.00     0.074 A 
ATOM     61  C   UNL A   1      43.030  23.177  29.357  1.00  0.00     0.029 A 
ATOM     62  N   UNL A   1      44.981  24.202  29.346  1.00  0.00    -0.354 N 
ATOM     63  N   UNL A   1      46.437  26.842  32.510  1.00  0.00    -0.248 NA
ATOM     64  C   UNL A   1      46.994  27.845  30.476  1.00  0.00     0.031 C 
ATOM     65  C   UNL A   1      43.504  23.331  30.693  1.00  0.00     0.029 A 
ATOM     66  C   UNL A   1      44.637  24.147  30.669  1.00  0.00     0.049 A 
ATOM     67  H   UNL A   1      45.885  24.367  28.992  1.00  0.00     0.167 HD
ATOM     68  C   UNL A   1      46.180  25.926  31.499  1.00  0.00     0.074 A 
ATOM     69  C   UNL A   1      46.651  26.570  30.273  1.00  0.00     0.031 C 
ATOM     70  C   UNL A   1      45.330  24.878  31.708  1.00  0.00     0.034 A 
BRANCH  57  71
ATOM     71  C   UNL A   1      44.705  24.961  26.371  1.00  0.00     0.023 A 
ATOM     72  C   UNL A   1      44.880  23.811  25.566  1.00  0.00     0.012 A 
ATOM     73  C   UNL A   1      45.696  25.965  26.266  1.00  0.00     0.148 A 
ATOM     74  C   UNL A   1      46.015  23.637  24.766  1.00  0.00     0.002 A 
ATOM     75  C   UNL A   1      46.783  25.821  25.410  1.00  0.00     0.091 A 
ATOM     76  F   UNL A   1      45.683  27.018  27.082  1.00  0.00    -0.205 F 
ATOM     77  C   UNL A   1      46.966  24.644  24.686  1.00  0.00     0.022 A 
BRANCH  75  78
ATOM     78  S   UNL A   1      48.025  27.112  25.236  1.00  0.00     0.127 S 
ATOM     79  O   UNL A   1      48.962  26.489  24.306  1.00  0.00    -0.237 OA
ATOM     80  O   UNL A   1      47.234  28.210  24.683  1.00  0.00    -0.237 OA
ATOM     81  O   UNL A   1      48.530  27.358  26.582  1.00  0.00    -0.744 OA
ENDBRANCH  75  78
ENDBRANCH  57  71
BRANCH  58  82
ATOM     82  C   UNL A   1      46.926  30.444  32.539  1.00  0.00     0.023 A 
ATOM     83  C   UNL A   1      47.947  30.404  33.513  1.00  0.00     0.012 A 
ATOM     84  C   UNL A   1      46.951  31.498  31.599  1.00  0.00     0.148 A 
ATOM     85  C   UNL A   1      48.977  31.356  33.523  1.00  0.00     0.002 A 
ATOM     86  C   UNL A   1      47.973  32.444  31.616  1.00  0.00     0.091 A 
ATOM     87  F   UNL A   1      46.026  31.516  30.630  1.00  0.00    -0.205 F 
ATOM     88  C   UNL A   1      48.996  32.369  32.569  1.00  0.00     0.022 A 
BRANCH  86  89
ATOM     89  S   UNL A   1      48.082  33.759  30.394  1.00  0.00     0.127 S 
ATOM     90  O   UNL A   1      46.834  34.488  30.621  1.00  0.00    -0.237 OA
ATOM     91  O   UNL A   1      49.288  34.464  30.815  1.00  0.00    -0.237 OA
ATOM     92  O   UNL A   1      48.159  33.093  29.098  1.00  0.00    -0.744 OA
ENDBRANCH  86  89
ENDBRANCH  58  82
BRANCH  70  93
ATOM     93  C   UNL A   1      44.899  24.586  33.124  1.00  0.00     0.023 A 
ATOM     94  C   UNL A   1      45.607  23.718  33.982  1.00  0.00     0.012 A 
ATOM     95  C   UNL A   1      43.845  25.349  33.651  1.00  0.00     0.148 A 
ATOM     96  C   UNL A   1      45.257  23.603  35.331  1.00  0.00     0.002 A 
ATOM     97  C   UNL A   1      43.533  25.269  35.000  1.00  0.00     0.091 A 
ATOM     98  F   UNL A   1      43.185  26.171  32.820  1.00  0.00    -0.205 F 
ATOM     99  C   UNL A   1      44.229  24.391  35.844  1.00  0.00     0.022 A 
BRANCH  97 100
ATOM    100  S   UNL A   1      42.307  26.351  35.736  1.00  0.00     0.127 S 
ATOM    101  O   UNL A   1      43.038  27.611  35.841  1.00  0.00    -0.237 OA
ATOM    102  O   UNL A   1      41.239  26.343  34.735  1.00  0.00    -0.237 OA
ATOM    103  O   UNL A   1      41.936  25.734  37.003  1.00  0.00    -0.744 OA
ENDBRANCH  97 100
ENDBRANCH  70  93
ENDBRANCH  44  45
ENDBRANCH  36  39
ENDBRANCH  34  35
ENDBRANCH  33  34
ENDBRANCH  32  33
ENDBRANCH  31  32
ENDBRANCH   1  31
TORSDOF 22
ENDMDL
