MODEL 1
REMARK VINA RESULT:     -12.8      0.000      0.000
REMARK SMILES Cc1c(C(=O)Nc2ccc(C(=O)Nc3ccccc3C(=O)NCCCCCCNC(=O)c3ccc(-c4c5nc(c(-c6cccc(S(=O)(=O)[O-])c6F)c6ccc([nH]6)c(-c6cccc(S(=O)(=O)[O-])c6F)c6nc(c(-c7cccc(S(=O)(=O)[O-])c7F)c7ccc4[nH]7)C=C6)C=C5)cc3)cc2)cccc1[N+](=O)[O-]
REMARK SMILES IDX 24 1 23 2 22 3 20 4 21 5 19 7 14 8 15 9 16 10 18 11 17 12
REMARK SMILES IDX 13 13 11 14 12 15 10 17 7 18 8 19 96 20 9 21 95 22 6 23 4 24
REMARK SMILES IDX 5 25 3 27 1 28 2 29 100 30 97 31 99 32 98 33 101 34 102 35
REMARK SMILES IDX 103 36 25 37 26 38 27 39 28 40 29 41 30 42 31 44 32 45 33 46
REMARK SMILES IDX 94 47 34 48 93 49 35 50 36 51 37 52 87 53 38 54 92 55 86 56
REMARK SMILES IDX 88 57 39 58 91 59 85 60 84 61 40 63 72 64 52 65 71 66 53 67
REMARK SMILES IDX 56 68 70 69 89 70 54 71 55 72 69 74 90 75 57 76 41 77 42 78
REMARK SMILES IDX 50 79 43 80 45 81 51 82 44 83 46 84 47 85 48 86 49 87 73 88
REMARK SMILES IDX 74 89 82 90 75 91 77 92 83 93 76 94 78 95 79 96 80 97 81 98
REMARK SMILES IDX 58 99 59 100 67 101 60 102 62 103 68 104 61 105 63 106
REMARK SMILES IDX 64 107 65 108 66 109
REMARK H PARENT 22 6 13 16 6 26 29 43 88 62 56 73
REMARK Flexibility Score: inf
ROOT
ATOM      1  C   UNL A   1      37.035  17.714  25.602  1.00  0.00     0.021 C 
ENDROOT
BRANCH   1   2
ATOM      2  C   UNL A   1      36.034  16.775  24.925  1.00  0.00     0.116 C 
BRANCH   2   3
ATOM      3  N   UNL A   1      34.866  16.418  25.708  1.00  0.00    -0.352 N 
ATOM      4  C   UNL A   1      33.527  16.683  25.507  1.00  0.00     0.253 C 
ATOM      5  O   UNL A   1      32.703  16.147  26.244  1.00  0.00    -0.269 OA
ATOM      6  H   UNL A   1      35.061  15.898  26.522  1.00  0.00     0.163 HD
BRANCH   4   7
ATOM      7  C   UNL A   1      33.063  17.626  24.451  1.00  0.00     0.063 A 
ATOM      8  C   UNL A   1      32.815  18.990  24.734  1.00  0.00     0.054 A 
ATOM      9  C   UNL A   1      32.343  19.829  23.709  1.00  0.00     0.027 A 
ATOM     10  C   UNL A   1      32.208  19.357  22.403  1.00  0.00     0.002 A 
ATOM     11  C   UNL A   1      32.822  17.147  23.152  1.00  0.00     0.016 A 
ATOM     12  C   UNL A   1      32.445  18.016  22.125  1.00  0.00     0.001 A 
BRANCH   8  13
ATOM     13  N   UNL A   1      33.094  19.656  25.947  1.00  0.00    -0.321 N 
ATOM     14  C   UNL A   1      33.382  20.979  26.222  1.00  0.00     0.255 C 
ATOM     15  O   UNL A   1      33.751  21.277  27.361  1.00  0.00    -0.269 OA
ATOM     16  H   UNL A   1      33.079  19.073  26.740  1.00  0.00     0.170 HD
BRANCH  14  17
ATOM     17  C   UNL A   1      33.074  22.081  25.262  1.00  0.00     0.040 A 
ATOM     18  C   UNL A   1      32.379  23.887  23.216  1.00  0.00     0.041 A 
ATOM     19  C   UNL A   1      33.701  23.531  23.424  1.00  0.00     0.027 A 
ATOM     20  C   UNL A   1      31.417  23.475  24.142  1.00  0.00     0.027 A 
ATOM     21  C   UNL A   1      34.019  22.558  24.358  1.00  0.00     0.016 A 
ATOM     22  C   UNL A   1      31.766  22.574  25.164  1.00  0.00     0.016 A 
BRANCH  18  23
ATOM     23  N   UNL A   1      31.975  24.533  22.039  1.00  0.00    -0.322 N 
ATOM     24  C   UNL A   1      31.882  25.883  21.731  1.00  0.00     0.256 C 
ATOM     25  O   UNL A   1      31.405  26.211  20.647  1.00  0.00    -0.269 OA
ATOM     26  H   UNL A   1      31.712  23.927  21.309  1.00  0.00     0.170 HD
BRANCH  24  27
ATOM     27  C   UNL A   1      32.342  26.974  22.652  1.00  0.00     0.049 A 
ATOM     28  C   UNL A   1      30.224  27.031  24.064  1.00  0.00     0.053 C 
ATOM     29  C   UNL A   1      31.527  27.635  23.605  1.00  0.00     0.039 A 
ATOM     30  C   UNL A   1      32.014  28.853  24.137  1.00  0.00     0.273 A 
ATOM     31  C   UNL A   1      33.689  27.355  22.508  1.00  0.00     0.014 A 
ATOM     32  C   UNL A   1      33.355  29.237  23.969  1.00  0.00     0.086 A 
ATOM     33  C   UNL A   1      34.206  28.447  23.204  1.00  0.00     0.008 A 
BRANCH  30  34
ATOM     34  N   UNL A   1      31.117  29.832  24.776  1.00  0.00     0.063 N 
ATOM     35  O   UNL A   1      31.451  30.289  25.878  1.00  0.00    -0.258 OA
ATOM     36  O   UNL A   1      30.118  30.206  24.143  1.00  0.00    -0.258 OA
ENDBRANCH  30  34
ENDBRANCH  24  27
ENDBRANCH  18  23
ENDBRANCH  14  17
ENDBRANCH   8  13
ENDBRANCH   4   7
ENDBRANCH   2   3
ENDBRANCH   1   2
BRANCH   1  37
ATOM     37  C   UNL A   1      37.536  18.929  24.821  1.00  0.00     0.002 C 
BRANCH  37  38
ATOM     38  C   UNL A   1      36.840  20.267  25.087  1.00  0.00     0.002 C 
BRANCH  38  39
ATOM     39  C   UNL A   1      37.612  21.524  24.696  1.00  0.00     0.021 C 
BRANCH  39  40
ATOM     40  C   UNL A   1      37.806  22.522  25.822  1.00  0.00     0.116 C 
BRANCH  40  41
ATOM     41  N   UNL A   1      39.074  22.365  26.493  1.00  0.00    -0.352 N 
ATOM     42  C   UNL A   1      40.064  23.313  26.655  1.00  0.00     0.251 C 
ATOM     43  H   UNL A   1      39.254  21.479  26.881  1.00  0.00     0.163 HD
ATOM     44  O   UNL A   1      41.235  22.940  26.698  1.00  0.00    -0.269 OA
BRANCH  42  45
ATOM     45  C   UNL A   1      39.683  24.711  26.983  1.00  0.00     0.039 A 
ATOM     46  C   UNL A   1      40.427  25.722  26.359  1.00  0.00     0.014 A 
ATOM     47  C   UNL A   1      38.879  25.018  28.078  1.00  0.00     0.014 A 
ATOM     48  C   UNL A   1      40.583  26.952  26.987  1.00  0.00     0.010 A 
ATOM     49  C   UNL A   1      39.098  26.194  28.750  1.00  0.00     0.010 A 
ATOM     50  C   UNL A   1      40.007  27.121  28.238  1.00  0.00    -0.014 A 
BRANCH  50  51
ATOM     51  C   UNL A   1      40.216  28.261  29.103  1.00  0.00     0.031 A 
ATOM     52  C   UNL A   1      39.300  29.401  28.986  1.00  0.00     0.074 A 
ATOM     53  C   UNL A   1      41.057  28.111  30.147  1.00  0.00     0.049 A 
ATOM     54  N   UNL A   1      39.498  30.547  29.530  1.00  0.00    -0.248 NA
ATOM     55  C   UNL A   1      38.073  29.331  28.202  1.00  0.00     0.031 C 
ATOM     56  C   UNL A   1      41.096  28.889  31.376  1.00  0.00     0.029 A 
ATOM     57  N   UNL A   1      42.200  27.308  30.216  1.00  0.00    -0.354 N 
ATOM     58  C   UNL A   1      38.320  31.257  29.428  1.00  0.00     0.074 A 
ATOM     59  C   UNL A   1      37.509  30.503  28.504  1.00  0.00     0.031 C 
ATOM     60  C   UNL A   1      42.311  28.754  31.930  1.00  0.00     0.029 A 
ATOM     61  C   UNL A   1      43.134  28.043  30.966  1.00  0.00     0.049 A 
ATOM     62  H   UNL A   1      42.326  26.415  29.820  1.00  0.00     0.167 HD
ATOM     63  C   UNL A   1      38.130  32.314  30.267  1.00  0.00     0.034 A 
ATOM     64  C   UNL A   1      44.310  28.503  30.444  1.00  0.00     0.034 A 
ATOM     65  C   UNL A   1      39.341  32.541  31.073  1.00  0.00     0.049 A 
ATOM     66  C   UNL A   1      44.425  30.019  30.499  1.00  0.00     0.074 A 
ATOM     67  C   UNL A   1      39.707  32.160  32.354  1.00  0.00     0.029 A 
ATOM     68  N   UNL A   1      40.504  32.967  30.443  1.00  0.00    -0.354 N 
ATOM     69  N   UNL A   1      43.445  30.822  30.813  1.00  0.00    -0.248 NA
ATOM     70  C   UNL A   1      45.652  30.750  30.204  1.00  0.00     0.031 C 
ATOM     71  C   UNL A   1      41.119  32.291  32.464  1.00  0.00     0.029 A 
ATOM     72  C   UNL A   1      41.606  32.786  31.266  1.00  0.00     0.049 A 
ATOM     73  H   UNL A   1      40.541  33.346  29.535  1.00  0.00     0.167 HD
ATOM     74  C   UNL A   1      43.834  32.131  30.678  1.00  0.00     0.074 A 
ATOM     75  C   UNL A   1      45.250  32.025  30.362  1.00  0.00     0.031 C 
ATOM     76  C   UNL A   1      42.938  33.166  30.794  1.00  0.00     0.034 A 
BRANCH  63  77
ATOM     77  C   UNL A   1      36.795  32.970  30.593  1.00  0.00     0.023 A 
ATOM     78  C   UNL A   1      36.277  32.745  31.890  1.00  0.00     0.012 A 
ATOM     79  C   UNL A   1      35.973  33.735  29.732  1.00  0.00     0.148 A 
ATOM     80  C   UNL A   1      35.001  33.166  32.281  1.00  0.00     0.002 A 
ATOM     81  C   UNL A   1      34.678  34.116  30.102  1.00  0.00     0.091 A 
ATOM     82  F   UNL A   1      36.449  34.170  28.566  1.00  0.00    -0.205 F 
ATOM     83  C   UNL A   1      34.186  33.828  31.377  1.00  0.00     0.022 A 
BRANCH  81  84
ATOM     84  S   UNL A   1      33.541  34.939  28.967  1.00  0.00     0.127 S 
ATOM     85  O   UNL A   1      32.603  35.585  29.888  1.00  0.00    -0.237 OA
ATOM     86  O   UNL A   1      34.422  35.861  28.252  1.00  0.00    -0.237 OA
ATOM     87  O   UNL A   1      32.943  33.890  28.150  1.00  0.00    -0.744 OA
ENDBRANCH  81  84
ENDBRANCH  63  77
BRANCH  64  88
ATOM     88  C   UNL A   1      44.872  27.612  29.383  1.00  0.00     0.023 A 
ATOM     89  C   UNL A   1      45.187  26.287  29.779  1.00  0.00     0.012 A 
ATOM     90  C   UNL A   1      44.682  27.881  28.016  1.00  0.00     0.148 A 
ATOM     91  C   UNL A   1      45.136  25.234  28.864  1.00  0.00     0.002 A 
ATOM     92  C   UNL A   1      44.644  26.823  27.107  1.00  0.00     0.091 A 
ATOM     93  F   UNL A   1      44.456  29.145  27.637  1.00  0.00    -0.205 F 
ATOM     94  C   UNL A   1      44.820  25.497  27.538  1.00  0.00     0.022 A 
BRANCH  92  95
ATOM     95  S   UNL A   1      44.237  27.078  25.374  1.00  0.00     0.127 S 
ATOM     96  O   UNL A   1      45.549  27.367  24.805  1.00  0.00    -0.237 OA
ATOM     97  O   UNL A   1      43.673  25.785  24.988  1.00  0.00    -0.237 OA
ATOM     98  O   UNL A   1      43.277  28.172  25.372  1.00  0.00    -0.744 OA
ENDBRANCH  92  95
ENDBRANCH  64  88
BRANCH  76  99
ATOM     99  C   UNL A   1      43.183  34.638  30.459  1.00  0.00     0.023 A 
ATOM    100  C   UNL A   1      43.532  35.598  31.424  1.00  0.00     0.012 A 
ATOM    101  C   UNL A   1      43.198  35.085  29.106  1.00  0.00     0.148 A 
ATOM    102  C   UNL A   1      43.852  36.921  31.084  1.00  0.00     0.002 A 
ATOM    103  C   UNL A   1      43.639  36.360  28.763  1.00  0.00     0.091 A 
ATOM    104  F   UNL A   1      42.751  34.288  28.125  1.00  0.00    -0.205 F 
ATOM    105  C   UNL A   1      43.940  37.294  29.751  1.00  0.00     0.022 A 
BRANCH 103 106
ATOM    106  S   UNL A   1      43.997  36.789  27.052  1.00  0.00     0.127 S 
ATOM    107  O   UNL A   1      44.891  35.707  26.647  1.00  0.00    -0.237 OA
ATOM    108  O   UNL A   1      42.669  36.746  26.435  1.00  0.00    -0.237 OA
ATOM    109  O   UNL A   1      44.582  38.122  27.111  1.00  0.00    -0.744 OA
ENDBRANCH 103 106
ENDBRANCH  76  99
ENDBRANCH  50  51
ENDBRANCH  42  45
ENDBRANCH  40  41
ENDBRANCH  39  40
ENDBRANCH  38  39
ENDBRANCH  37  38
ENDBRANCH   1  37
TORSDOF 21
ENDMDL
MODEL 2
REMARK VINA RESULT:     -12.7      1.165      1.992
REMARK SMILES Cc1c(C(=O)Nc2ccc(C(=O)Nc3ccccc3C(=O)NCCCCCCNC(=O)c3ccc(-c4c5nc(c(-c6cccc(S(=O)(=O)[O-])c6F)c6ccc([nH]6)c(-c6cccc(S(=O)(=O)[O-])c6F)c6nc(c(-c7cccc(S(=O)(=O)[O-])c7F)c7ccc4[nH]7)C=C6)C=C5)cc3)cc2)cccc1[N+](=O)[O-]
REMARK SMILES IDX 24 1 23 2 22 3 20 4 21 5 19 7 14 8 15 9 16 10 18 11 17 12
REMARK SMILES IDX 13 13 11 14 12 15 10 17 7 18 8 19 96 20 9 21 95 22 6 23 4 24
REMARK SMILES IDX 5 25 3 27 1 28 2 29 100 30 97 31 99 32 98 33 101 34 102 35
REMARK SMILES IDX 103 36 25 37 26 38 27 39 28 40 29 41 30 42 31 44 32 45 33 46
REMARK SMILES IDX 94 47 34 48 93 49 35 50 36 51 37 52 87 53 38 54 92 55 86 56
REMARK SMILES IDX 88 57 39 58 91 59 85 60 84 61 40 63 72 64 52 65 71 66 53 67
REMARK SMILES IDX 56 68 70 69 89 70 54 71 55 72 69 74 90 75 57 76 41 77 42 78
REMARK SMILES IDX 50 79 43 80 45 81 51 82 44 83 46 84 47 85 48 86 49 87 73 88
REMARK SMILES IDX 74 89 82 90 75 91 77 92 83 93 76 94 78 95 79 96 80 97 81 98
REMARK SMILES IDX 58 99 59 100 67 101 60 102 62 103 68 104 61 105 63 106
REMARK SMILES IDX 64 107 65 108 66 109
REMARK H PARENT 22 6 13 16 6 26 29 43 88 62 56 73
REMARK Flexibility Score: inf
ROOT
ATOM      1  C   UNL A   1      36.750  17.978  25.116  1.00  0.00     0.021 C 
ENDROOT
BRANCH   1   2
ATOM      2  C   UNL A   1      35.417  17.787  24.387  1.00  0.00     0.116 C 
BRANCH   2   3
ATOM      3  N   UNL A   1      34.243  17.655  25.230  1.00  0.00    -0.352 N 
ATOM      4  C   UNL A   1      33.035  18.321  25.209  1.00  0.00     0.253 C 
ATOM      5  O   UNL A   1      32.133  17.930  25.945  1.00  0.00    -0.269 OA
ATOM      6  H   UNL A   1      34.322  16.975  25.938  1.00  0.00     0.163 HD
BRANCH   4   7
ATOM      7  C   UNL A   1      32.814  19.518  24.349  1.00  0.00     0.063 A 
ATOM      8  C   UNL A   1      33.055  20.828  24.827  1.00  0.00     0.054 A 
ATOM      9  C   UNL A   1      32.794  21.924  23.986  1.00  0.00     0.027 A 
ATOM     10  C   UNL A   1      32.393  21.732  22.664  1.00  0.00     0.002 A 
ATOM     11  C   UNL A   1      32.312  19.352  23.047  1.00  0.00     0.016 A 
ATOM     12  C   UNL A   1      32.151  20.447  22.195  1.00  0.00     0.001 A 
BRANCH   8  13
ATOM     13  N   UNL A   1      33.646  21.171  26.061  1.00  0.00    -0.321 N 
ATOM     14  C   UNL A   1      33.522  22.294  26.858  1.00  0.00     0.255 C 
ATOM     15  O   UNL A   1      34.281  22.418  27.822  1.00  0.00    -0.269 OA
ATOM     16  H   UNL A   1      34.256  20.486  26.421  1.00  0.00     0.170 HD
BRANCH  14  17
ATOM     17  C   UNL A   1      32.385  23.252  26.717  1.00  0.00     0.040 A 
ATOM     18  C   UNL A   1      30.216  24.937  26.096  1.00  0.00     0.041 A 
ATOM     19  C   UNL A   1      31.508  25.432  26.126  1.00  0.00     0.027 A 
ATOM     20  C   UNL A   1      29.983  23.634  26.545  1.00  0.00     0.027 A 
ATOM     21  C   UNL A   1      32.577  24.573  26.322  1.00  0.00     0.016 A 
ATOM     22  C   UNL A   1      31.067  22.794  26.856  1.00  0.00     0.016 A 
BRANCH  18  23
ATOM     23  N   UNL A   1      29.171  25.662  25.506  1.00  0.00    -0.322 N 
ATOM     24  C   UNL A   1      29.168  26.534  24.426  1.00  0.00     0.256 C 
ATOM     25  O   UNL A   1      28.128  27.129  24.149  1.00  0.00    -0.269 OA
ATOM     26  H   UNL A   1      28.291  25.530  25.929  1.00  0.00     0.170 HD
BRANCH  24  27
ATOM     27  C   UNL A   1      30.369  26.788  23.566  1.00  0.00     0.049 A 
ATOM     28  C   UNL A   1      30.543  24.416  22.656  1.00  0.00     0.053 C 
ATOM     29  C   UNL A   1      31.118  25.788  22.895  1.00  0.00     0.039 A 
ATOM     30  C   UNL A   1      32.401  26.154  22.420  1.00  0.00     0.273 A 
ATOM     31  C   UNL A   1      30.762  28.136  23.462  1.00  0.00     0.014 A 
ATOM     32  C   UNL A   1      32.793  27.500  22.342  1.00  0.00     0.086 A 
ATOM     33  C   UNL A   1      31.939  28.493  22.808  1.00  0.00     0.008 A 
BRANCH  30  34
ATOM     34  N   UNL A   1      33.427  25.142  22.109  1.00  0.00     0.063 N 
ATOM     35  O   UNL A   1      34.290  24.911  22.968  1.00  0.00    -0.258 OA
ATOM     36  O   UNL A   1      33.327  24.519  21.042  1.00  0.00    -0.258 OA
ENDBRANCH  30  34
ENDBRANCH  24  27
ENDBRANCH  18  23
ENDBRANCH  14  17
ENDBRANCH   8  13
ENDBRANCH   4   7
ENDBRANCH   2   3
ENDBRANCH   1   2
BRANCH   1  37
ATOM     37  C   UNL A   1      37.568  19.234  24.818  1.00  0.00     0.002 C 
BRANCH  37  38
ATOM     38  C   UNL A   1      36.859  20.582  24.966  1.00  0.00     0.002 C 
BRANCH  38  39
ATOM     39  C   UNL A   1      37.730  21.827  24.833  1.00  0.00     0.021 C 
BRANCH  39  40
ATOM     40  C   UNL A   1      37.901  22.620  26.116  1.00  0.00     0.116 C 
BRANCH  40  41
ATOM     41  N   UNL A   1      39.204  22.444  26.710  1.00  0.00    -0.352 N 
ATOM     42  C   UNL A   1      40.243  23.352  26.744  1.00  0.00     0.251 C 
ATOM     43  H   UNL A   1      39.372  21.575  27.142  1.00  0.00     0.163 HD
ATOM     44  O   UNL A   1      41.397  22.927  26.733  1.00  0.00    -0.269 OA
BRANCH  42  45
ATOM     45  C   UNL A   1      39.947  24.783  27.006  1.00  0.00     0.039 A 
ATOM     46  C   UNL A   1      40.849  25.714  26.470  1.00  0.00     0.014 A 
ATOM     47  C   UNL A   1      39.042  25.182  27.986  1.00  0.00     0.014 A 
ATOM     48  C   UNL A   1      41.032  26.939  27.100  1.00  0.00     0.010 A 
ATOM     49  C   UNL A   1      39.277  26.349  28.667  1.00  0.00     0.010 A 
ATOM     50  C   UNL A   1      40.320  27.184  28.265  1.00  0.00    -0.014 A 
BRANCH  50  51
ATOM     51  C   UNL A   1      40.517  28.321  29.137  1.00  0.00     0.031 A 
ATOM     52  C   UNL A   1      39.601  29.460  29.014  1.00  0.00     0.074 A 
ATOM     53  C   UNL A   1      41.345  28.167  30.191  1.00  0.00     0.049 A 
ATOM     54  N   UNL A   1      39.790  30.604  29.565  1.00  0.00    -0.248 NA
ATOM     55  C   UNL A   1      38.383  29.392  28.215  1.00  0.00     0.031 C 
ATOM     56  C   UNL A   1      41.368  28.941  31.423  1.00  0.00     0.029 A 
ATOM     57  N   UNL A   1      42.489  27.366  30.270  1.00  0.00    -0.354 N 
ATOM     58  C   UNL A   1      38.613  31.313  29.451  1.00  0.00     0.074 A 
ATOM     59  C   UNL A   1      37.814  30.562  28.515  1.00  0.00     0.031 C 
ATOM     60  C   UNL A   1      42.577  28.805  31.992  1.00  0.00     0.029 A 
ATOM     61  C   UNL A   1      43.412  28.099  31.035  1.00  0.00     0.049 A 
ATOM     62  H   UNL A   1      42.620  26.475  29.872  1.00  0.00     0.167 HD
ATOM     63  C   UNL A   1      38.411  32.366  30.292  1.00  0.00     0.034 A 
ATOM     64  C   UNL A   1      44.594  28.563  30.529  1.00  0.00     0.034 A 
ATOM     65  C   UNL A   1      39.612  32.592  31.114  1.00  0.00     0.049 A 
ATOM     66  C   UNL A   1      44.706  30.078  30.591  1.00  0.00     0.074 A 
ATOM     67  C   UNL A   1      39.962  32.206  32.398  1.00  0.00     0.029 A 
ATOM     68  N   UNL A   1      40.782  33.022  30.500  1.00  0.00    -0.354 N 
ATOM     69  N   UNL A   1      43.721  30.879  30.897  1.00  0.00    -0.248 NA
ATOM     70  C   UNL A   1      45.936  30.813  30.314  1.00  0.00     0.031 C 
ATOM     71  C   UNL A   1      41.374  32.339  32.526  1.00  0.00     0.029 A 
ATOM     72  C   UNL A   1      41.875  32.839  31.335  1.00  0.00     0.049 A 
ATOM     73  H   UNL A   1      40.829  33.404  29.594  1.00  0.00     0.167 HD
ATOM     74  C   UNL A   1      44.110  32.189  30.772  1.00  0.00     0.074 A 
ATOM     75  C   UNL A   1      45.530  32.087  30.473  1.00  0.00     0.031 C 
ATOM     76  C   UNL A   1      43.211  33.223  30.882  1.00  0.00     0.034 A 
BRANCH  63  77
ATOM     77  C   UNL A   1      37.071  33.019  30.605  1.00  0.00     0.023 A 
ATOM     78  C   UNL A   1      36.648  32.985  31.954  1.00  0.00     0.012 A 
ATOM     79  C   UNL A   1      36.163  33.609  29.695  1.00  0.00     0.148 A 
ATOM     80  C   UNL A   1      35.381  33.418  32.363  1.00  0.00     0.002 A 
ATOM     81  C   UNL A   1      34.878  33.999  30.091  1.00  0.00     0.091 A 
ATOM     82  F   UNL A   1      36.543  33.869  28.444  1.00  0.00    -0.205 F 
ATOM     83  C   UNL A   1      34.482  33.900  31.425  1.00  0.00     0.022 A 
BRANCH  81  84
ATOM     84  S   UNL A   1      33.635  34.592  28.923  1.00  0.00     0.127 S 
ATOM     85  O   UNL A   1      34.317  35.730  28.302  1.00  0.00    -0.237 OA
ATOM     86  O   UNL A   1      33.454  33.439  28.044  1.00  0.00    -0.237 OA
ATOM     87  O   UNL A   1      32.468  34.960  29.715  1.00  0.00    -0.744 OA
ENDBRANCH  81  84
ENDBRANCH  63  77
BRANCH  64  88
ATOM     88  C   UNL A   1      45.170  27.677  29.471  1.00  0.00     0.023 A 
ATOM     89  C   UNL A   1      45.369  26.320  29.830  1.00  0.00     0.012 A 
ATOM     90  C   UNL A   1      45.095  28.011  28.107  1.00  0.00     0.148 A 
ATOM     91  C   UNL A   1      45.314  25.308  28.870  1.00  0.00     0.002 A 
ATOM     92  C   UNL A   1      45.052  26.993  27.154  1.00  0.00     0.091 A 
ATOM     93  F   UNL A   1      44.979  29.301  27.769  1.00  0.00    -0.205 F 
ATOM     94  C   UNL A   1      45.111  25.642  27.538  1.00  0.00     0.022 A 
BRANCH  92  95
ATOM     95  S   UNL A   1      44.785  27.342  25.409  1.00  0.00     0.127 S 
ATOM     96  O   UNL A   1      43.512  28.052  25.444  1.00  0.00    -0.237 OA
ATOM     97  O   UNL A   1      45.941  28.172  25.073  1.00  0.00    -0.237 OA
ATOM     98  O   UNL A   1      44.779  26.037  24.764  1.00  0.00    -0.744 OA
ENDBRANCH  92  95
ENDBRANCH  64  88
BRANCH  76  99
ATOM     99  C   UNL A   1      43.458  34.696  30.556  1.00  0.00     0.023 A 
ATOM    100  C   UNL A   1      43.901  35.631  31.508  1.00  0.00     0.012 A 
ATOM    101  C   UNL A   1      43.377  35.169  29.214  1.00  0.00     0.148 A 
ATOM    102  C   UNL A   1      44.219  36.953  31.168  1.00  0.00     0.002 A 
ATOM    103  C   UNL A   1      43.815  36.443  28.861  1.00  0.00     0.091 A 
ATOM    104  F   UNL A   1      42.839  34.401  28.256  1.00  0.00    -0.205 F 
ATOM    105  C   UNL A   1      44.209  37.352  29.839  1.00  0.00     0.022 A 
BRANCH 103 106
ATOM    106  S   UNL A   1      44.046  36.900  27.135  1.00  0.00     0.127 S 
ATOM    107  O   UNL A   1      44.343  38.327  27.235  1.00  0.00    -0.237 OA
ATOM    108  O   UNL A   1      45.183  36.066  26.741  1.00  0.00    -0.237 OA
ATOM    109  O   UNL A   1      42.793  36.546  26.480  1.00  0.00    -0.744 OA
ENDBRANCH 103 106
ENDBRANCH  76  99
ENDBRANCH  50  51
ENDBRANCH  42  45
ENDBRANCH  40  41
ENDBRANCH  39  40
ENDBRANCH  38  39
ENDBRANCH  37  38
ENDBRANCH   1  37
TORSDOF 21
ENDMDL
MODEL 3
REMARK VINA RESULT:     -11.7      2.773      3.970
REMARK SMILES Cc1c(C(=O)Nc2ccc(C(=O)Nc3ccccc3C(=O)NCCCCCCNC(=O)c3ccc(-c4c5nc(c(-c6cccc(S(=O)(=O)[O-])c6F)c6ccc([nH]6)c(-c6cccc(S(=O)(=O)[O-])c6F)c6nc(c(-c7cccc(S(=O)(=O)[O-])c7F)c7ccc4[nH]7)C=C6)C=C5)cc3)cc2)cccc1[N+](=O)[O-]
REMARK SMILES IDX 24 1 23 2 22 3 20 4 21 5 19 7 14 8 15 9 16 10 18 11 17 12
REMARK SMILES IDX 13 13 11 14 12 15 10 17 7 18 8 19 96 20 9 21 95 22 6 23 4 24
REMARK SMILES IDX 5 25 3 27 1 28 2 29 100 30 97 31 99 32 98 33 101 34 102 35
REMARK SMILES IDX 103 36 25 37 26 38 27 39 28 40 29 41 30 42 31 44 32 45 33 46
REMARK SMILES IDX 94 47 34 48 93 49 35 50 36 51 37 52 87 53 38 54 92 55 86 56
REMARK SMILES IDX 88 57 39 58 91 59 85 60 84 61 40 63 72 64 52 65 71 66 53 67
REMARK SMILES IDX 56 68 70 69 89 70 54 71 55 72 69 74 90 75 57 76 41 77 42 78
REMARK SMILES IDX 50 79 43 80 45 81 51 82 44 83 46 84 47 85 48 86 49 87 73 88
REMARK SMILES IDX 74 89 82 90 75 91 77 92 83 93 76 94 78 95 79 96 80 97 81 98
REMARK SMILES IDX 58 99 59 100 67 101 60 102 62 103 68 104 61 105 63 106
REMARK SMILES IDX 64 107 65 108 66 109
REMARK H PARENT 22 6 13 16 6 26 29 43 88 62 56 73
REMARK Flexibility Score: inf
ROOT
ATOM      1  C   UNL A   1      38.872  24.258  26.477  1.00  0.00     0.021 C 
ENDROOT
BRANCH   1   2
ATOM      2  C   UNL A   1      37.487  23.990  25.884  1.00  0.00     0.116 C 
BRANCH   2   3
ATOM      3  N   UNL A   1      36.511  23.400  26.782  1.00  0.00    -0.352 N 
ATOM      4  C   UNL A   1      35.300  22.790  26.527  1.00  0.00     0.253 C 
ATOM      5  O   UNL A   1      34.713  22.237  27.454  1.00  0.00    -0.269 OA
ATOM      6  H   UNL A   1      36.755  23.443  27.736  1.00  0.00     0.163 HD
BRANCH   4   7
ATOM      7  C   UNL A   1      34.675  22.820  25.175  1.00  0.00     0.063 A 
ATOM      8  C   UNL A   1      33.288  22.606  24.996  1.00  0.00     0.054 A 
ATOM      9  C   UNL A   1      32.756  22.608  23.694  1.00  0.00     0.027 A 
ATOM     10  C   UNL A   1      33.558  22.910  22.594  1.00  0.00     0.002 A 
ATOM     11  C   UNL A   1      35.484  23.021  24.043  1.00  0.00     0.016 A 
ATOM     12  C   UNL A   1      34.922  23.115  22.767  1.00  0.00     0.001 A 
BRANCH   8  13
ATOM     13  N   UNL A   1      32.322  22.488  26.018  1.00  0.00    -0.321 N 
ATOM     14  C   UNL A   1      31.346  23.358  26.464  1.00  0.00     0.255 C 
ATOM     15  O   UNL A   1      30.729  23.074  27.493  1.00  0.00    -0.269 OA
ATOM     16  H   UNL A   1      32.348  21.629  26.500  1.00  0.00     0.170 HD
BRANCH  14  17
ATOM     17  C   UNL A   1      30.874  24.517  25.647  1.00  0.00     0.040 A 
ATOM     18  C   UNL A   1      30.313  26.672  23.923  1.00  0.00     0.041 A 
ATOM     19  C   UNL A   1      30.746  26.898  25.218  1.00  0.00     0.027 A 
ATOM     20  C   UNL A   1      29.993  25.366  23.538  1.00  0.00     0.027 A 
ATOM     21  C   UNL A   1      31.126  25.834  26.019  1.00  0.00     0.016 A 
ATOM     22  C   UNL A   1      30.273  24.292  24.401  1.00  0.00     0.016 A 
BRANCH  18  23
ATOM     23  N   UNL A   1      30.316  27.694  22.964  1.00  0.00    -0.322 N 
ATOM     24  C   UNL A   1      30.795  28.995  23.026  1.00  0.00     0.256 C 
ATOM     25  O   UNL A   1      30.597  29.744  22.071  1.00  0.00    -0.269 OA
ATOM     26  H   UNL A   1      29.912  27.447  22.100  1.00  0.00     0.170 HD
BRANCH  24  27
ATOM     27  C   UNL A   1      31.551  29.542  24.199  1.00  0.00     0.049 A 
ATOM     28  C   UNL A   1      33.776  28.458  23.601  1.00  0.00     0.053 C 
ATOM     29  C   UNL A   1      32.863  29.158  24.575  1.00  0.00     0.039 A 
ATOM     30  C   UNL A   1      33.288  29.505  25.880  1.00  0.00     0.273 A 
ATOM     31  C   UNL A   1      30.858  30.492  24.973  1.00  0.00     0.014 A 
ATOM     32  C   UNL A   1      32.577  30.436  26.655  1.00  0.00     0.086 A 
ATOM     33  C   UNL A   1      31.392  30.976  26.166  1.00  0.00     0.008 A 
BRANCH  30  34
ATOM     34  N   UNL A   1      34.413  28.815  26.536  1.00  0.00     0.063 N 
ATOM     35  O   UNL A   1      35.371  29.503  26.914  1.00  0.00    -0.258 OA
ATOM     36  O   UNL A   1      34.306  27.598  26.748  1.00  0.00    -0.258 OA
ENDBRANCH  30  34
ENDBRANCH  24  27
ENDBRANCH  18  23
ENDBRANCH  14  17
ENDBRANCH   8  13
ENDBRANCH   4   7
ENDBRANCH   2   3
ENDBRANCH   1   2
BRANCH   1  37
ATOM     37  C   UNL A   1      39.663  23.077  27.040  1.00  0.00     0.002 C 
BRANCH  37  38
ATOM     38  C   UNL A   1      40.066  21.974  26.057  1.00  0.00     0.002 C 
BRANCH  38  39
ATOM     39  C   UNL A   1      40.748  20.747  26.655  1.00  0.00     0.021 C 
BRANCH  39  40
ATOM     40  C   UNL A   1      42.244  20.893  26.861  1.00  0.00     0.116 C 
BRANCH  40  41
ATOM     41  N   UNL A   1      42.946  21.206  25.639  1.00  0.00    -0.352 N 
ATOM     42  C   UNL A   1      43.343  22.450  25.192  1.00  0.00     0.251 C 
ATOM     43  H   UNL A   1      43.168  20.444  25.057  1.00  0.00     0.163 HD
ATOM     44  O   UNL A   1      43.383  22.655  23.980  1.00  0.00    -0.269 OA
BRANCH  42  45
ATOM     45  C   UNL A   1      43.909  23.423  26.162  1.00  0.00     0.039 A 
ATOM     46  C   UNL A   1      43.482  23.296  27.492  1.00  0.00     0.014 A 
ATOM     47  C   UNL A   1      44.552  24.587  25.749  1.00  0.00     0.014 A 
ATOM     48  C   UNL A   1      43.445  24.416  28.314  1.00  0.00     0.010 A 
ATOM     49  C   UNL A   1      44.436  25.715  26.521  1.00  0.00     0.010 A 
ATOM     50  C   UNL A   1      43.816  25.636  27.768  1.00  0.00    -0.014 A 
BRANCH  50  51
ATOM     51  C   UNL A   1      43.670  26.918  28.421  1.00  0.00     0.031 A 
ATOM     52  C   UNL A   1      42.397  27.633  28.274  1.00  0.00     0.074 A 
ATOM     53  C   UNL A   1      44.592  27.262  29.343  1.00  0.00     0.049 A 
ATOM     54  N   UNL A   1      42.210  28.857  28.614  1.00  0.00    -0.248 NA
ATOM     55  C   UNL A   1      41.217  27.002  27.695  1.00  0.00     0.031 C 
ATOM     56  C   UNL A   1      44.449  28.221  30.429  1.00  0.00     0.029 A 
ATOM     57  N   UNL A   1      45.950  26.928  29.360  1.00  0.00    -0.354 N 
ATOM     58  C   UNL A   1      40.851  29.088  28.582  1.00  0.00     0.074 A 
ATOM     59  C   UNL A   1      40.294  27.944  27.904  1.00  0.00     0.031 C 
ATOM     60  C   UNL A   1      45.673  28.616  30.814  1.00  0.00     0.029 A 
ATOM     61  C   UNL A   1      46.614  28.064  29.854  1.00  0.00     0.049 A 
ATOM     62  H   UNL A   1      46.357  26.075  29.083  1.00  0.00     0.167 HD
ATOM     63  C   UNL A   1      40.362  30.152  29.279  1.00  0.00     0.034 A 
ATOM     64  C   UNL A   1      47.495  28.794  29.106  1.00  0.00     0.034 A 
ATOM     65  C   UNL A   1      41.471  30.926  29.861  1.00  0.00     0.049 A 
ATOM     66  C   UNL A   1      47.057  30.239  28.926  1.00  0.00     0.074 A 
ATOM     67  C   UNL A   1      42.056  30.938  31.117  1.00  0.00     0.029 A 
ATOM     68  N   UNL A   1      42.344  31.600  29.015  1.00  0.00    -0.354 N 
ATOM     69  N   UNL A   1      45.882  30.701  29.260  1.00  0.00    -0.248 NA
ATOM     70  C   UNL A   1      47.906  31.279  28.354  1.00  0.00     0.031 C 
ATOM     71  C   UNL A   1      43.329  31.564  31.001  1.00  0.00     0.029 A 
ATOM     72  C   UNL A   1      43.501  31.964  29.686  1.00  0.00     0.049 A 
ATOM     73  H   UNL A   1      42.164  31.793  28.066  1.00  0.00     0.167 HD
ATOM     74  C   UNL A   1      45.757  32.015  28.883  1.00  0.00     0.074 A 
ATOM     75  C   UNL A   1      47.083  32.344  28.384  1.00  0.00     0.031 C 
ATOM     76  C   UNL A   1      44.560  32.683  28.978  1.00  0.00     0.034 A 
BRANCH  63  77
ATOM     77  C   UNL A   1      38.912  30.359  29.698  1.00  0.00     0.023 A 
ATOM     78  C   UNL A   1      38.312  29.319  30.444  1.00  0.00     0.012 A 
ATOM     79  C   UNL A   1      38.067  31.448  29.379  1.00  0.00     0.148 A 
ATOM     80  C   UNL A   1      36.952  29.309  30.774  1.00  0.00     0.002 A 
ATOM     81  C   UNL A   1      36.697  31.421  29.666  1.00  0.00     0.091 A 
ATOM     82  F   UNL A   1      38.580  32.562  28.856  1.00  0.00    -0.205 F 
ATOM     83  C   UNL A   1      36.135  30.348  30.360  1.00  0.00     0.022 A 
BRANCH  81  84
ATOM     84  S   UNL A   1      35.560  32.712  29.119  1.00  0.00     0.127 S 
ATOM     85  O   UNL A   1      36.112  33.902  29.773  1.00  0.00    -0.237 OA
ATOM     86  O   UNL A   1      35.726  32.685  27.668  1.00  0.00    -0.237 OA
ATOM     87  O   UNL A   1      34.239  32.329  29.602  1.00  0.00    -0.744 OA
ENDBRANCH  81  84
ENDBRANCH  63  77
BRANCH  64  88
ATOM     88  C   UNL A   1      48.250  27.969  28.115  1.00  0.00     0.023 A 
ATOM     89  C   UNL A   1      48.904  26.819  28.624  1.00  0.00     0.012 A 
ATOM     90  C   UNL A   1      47.974  28.034  26.737  1.00  0.00     0.148 A 
ATOM     91  C   UNL A   1      49.112  25.696  27.821  1.00  0.00     0.002 A 
ATOM     92  C   UNL A   1      48.196  26.911  25.940  1.00  0.00     0.091 A 
ATOM     93  F   UNL A   1      47.422  29.151  26.246  1.00  0.00    -0.205 F 
ATOM     94  C   UNL A   1      48.717  25.727  26.490  1.00  0.00     0.022 A 
BRANCH  92  95
ATOM     95  S   UNL A   1      47.707  26.868  24.209  1.00  0.00     0.127 S 
ATOM     96  O   UNL A   1      48.738  27.697  23.594  1.00  0.00    -0.237 OA
ATOM     97  O   UNL A   1      47.796  25.444  23.890  1.00  0.00    -0.237 OA
ATOM     98  O   UNL A   1      46.353  27.401  24.189  1.00  0.00    -0.744 OA
ENDBRANCH  92  95
ENDBRANCH  64  88
BRANCH  76  99
ATOM     99  C   UNL A   1      44.226  34.060  28.403  1.00  0.00     0.023 A 
ATOM    100  C   UNL A   1      43.416  34.244  27.269  1.00  0.00     0.012 A 
ATOM    101  C   UNL A   1      44.622  35.249  29.082  1.00  0.00     0.148 A 
ATOM    102  C   UNL A   1      43.039  35.517  26.817  1.00  0.00     0.002 A 
ATOM    103  C   UNL A   1      44.141  36.500  28.705  1.00  0.00     0.091 A 
ATOM    104  F   UNL A   1      45.503  35.191  30.091  1.00  0.00    -0.205 F 
ATOM    105  C   UNL A   1      43.372  36.644  27.554  1.00  0.00     0.022 A 
BRANCH 103 106
ATOM    106  S   UNL A   1      44.349  37.934  29.772  1.00  0.00     0.127 S 
ATOM    107  O   UNL A   1      43.548  38.944  29.084  1.00  0.00    -0.237 OA
ATOM    108  O   UNL A   1      43.783  37.467  31.039  1.00  0.00    -0.237 OA
ATOM    109  O   UNL A   1      45.787  38.169  29.813  1.00  0.00    -0.744 OA
ENDBRANCH 103 106
ENDBRANCH  76  99
ENDBRANCH  50  51
ENDBRANCH  42  45
ENDBRANCH  40  41
ENDBRANCH  39  40
ENDBRANCH  38  39
ENDBRANCH  37  38
ENDBRANCH   1  37
TORSDOF 21
ENDMDL
