MODEL 1
REMARK VINA RESULT:     -12.8      0.000      0.000
REMARK SMILES O=C(NCCCCCCNC(=O)[C@@H]1CCCC[C@@H]1NS(=O)(=O)c1ccc2ccccc2c1)c1ccc(-c2c3nc(c(-c4cccc(S(=O)(=O)[O-])c4F)c4ccc([nH]4)c(-c4cccc(S(=O)(=O)[O-])c4F)c4nc(c(-c5cccc(S(=O)(=O)[O-])c5F)c5ccc2[nH]5)C=C4)C=C3)cc1
REMARK SMILES IDX 6 1 5 2 4 3 3 4 1 5 2 6 33 8 34 9 95 10 35 11 94 12 36 13
REMARK SMILES IDX 37 14 38 15 88 16 39 17 93 18 87 19 89 20 40 21 92 22 86 23
REMARK SMILES IDX 85 24 41 26 73 27 53 28 72 29 54 30 57 31 71 32 90 33 55 34
REMARK SMILES IDX 56 35 70 37 91 38 58 39 42 40 43 41 51 42 44 43 46 44 52 45
REMARK SMILES IDX 45 46 47 47 48 48 49 49 50 50 74 51 75 52 83 53 76 54 78 55
REMARK SMILES IDX 84 56 77 57 79 58 80 59 81 60 82 61 59 62 60 63 68 64 61 65
REMARK SMILES IDX 63 66 69 67 62 68 64 69 65 70 66 71 67 72 7 73 8 74 9 75
REMARK SMILES IDX 10 76 11 77 12 79 13 80 14 81 18 82 15 83 17 84 16 85 19 86
REMARK SMILES IDX 20 88 21 89 22 90 23 91 24 92 32 93 25 94 31 95 26 96 30 97
REMARK SMILES IDX 27 98 29 99 28 100
REMARK H PARENT 3 7 89 25 57 36 10 78 19 87
REMARK Flexibility Score: inf
ROOT
ATOM      1  C   UNL A   1      31.742  30.679  26.482  1.00  0.00     0.002 C 
ENDROOT
BRANCH   1   2
ATOM      2  C   UNL A   1      31.626  32.183  26.734  1.00  0.00     0.021 C 
BRANCH   2   3
ATOM      3  C   UNL A   1      32.901  32.821  27.274  1.00  0.00     0.116 C 
BRANCH   3   4
ATOM      4  N   UNL A   1      32.663  34.186  27.711  1.00  0.00    -0.352 N 
ATOM      5  O   UNL A   1      32.680  35.886  29.188  1.00  0.00    -0.269 OA
ATOM      6  C   UNL A   1      33.175  34.830  28.809  1.00  0.00     0.251 C 
ATOM      7  H   UNL A   1      32.054  34.716  27.148  1.00  0.00     0.163 HD
BRANCH   6   8
ATOM      8  C   UNL A   1      34.320  34.234  29.533  1.00  0.00     0.039 A 
ATOM      9  C   UNL A   1      34.104  33.426  30.654  1.00  0.00     0.014 A 
ATOM     10  C   UNL A   1      35.617  34.460  29.066  1.00  0.00     0.014 A 
ATOM     11  C   UNL A   1      35.189  32.915  31.358  1.00  0.00     0.010 A 
ATOM     12  C   UNL A   1      36.704  33.894  29.738  1.00  0.00     0.010 A 
ATOM     13  C   UNL A   1      36.499  33.127  30.896  1.00  0.00    -0.014 A 
BRANCH  13  14
ATOM     14  C   UNL A   1      37.627  32.442  31.570  1.00  0.00     0.031 A 
ATOM     15  C   UNL A   1      38.359  31.305  30.918  1.00  0.00     0.074 A 
ATOM     16  C   UNL A   1      37.976  32.856  32.805  1.00  0.00     0.049 A 
ATOM     17  N   UNL A   1      39.385  30.628  31.364  1.00  0.00    -0.248 NA
ATOM     18  C   UNL A   1      37.879  30.863  29.598  1.00  0.00     0.031 C 
ATOM     19  C   UNL A   1      37.294  33.913  33.558  1.00  0.00     0.029 A 
ATOM     20  N   UNL A   1      38.978  32.444  33.644  1.00  0.00    -0.354 N 
ATOM     21  C   UNL A   1      39.654  29.660  30.405  1.00  0.00     0.074 A 
ATOM     22  C   UNL A   1      38.680  29.835  29.348  1.00  0.00     0.031 C 
ATOM     23  C   UNL A   1      37.908  34.077  34.738  1.00  0.00     0.029 A 
ATOM     24  C   UNL A   1      39.002  33.119  34.842  1.00  0.00     0.049 A 
ATOM     25  H   UNL A   1      39.618  31.732  33.413  1.00  0.00     0.167 HD
ATOM     26  C   UNL A   1      40.633  28.725  30.402  1.00  0.00     0.034 A 
ATOM     27  C   UNL A   1      39.811  32.980  35.910  1.00  0.00     0.034 A 
ATOM     28  C   UNL A   1      41.623  28.587  31.438  1.00  0.00     0.049 A 
ATOM     29  C   UNL A   1      40.916  31.965  35.853  1.00  0.00     0.074 A 
ATOM     30  C   UNL A   1      42.702  27.720  31.487  1.00  0.00     0.029 A 
ATOM     31  N   UNL A   1      41.656  29.330  32.608  1.00  0.00    -0.354 N 
ATOM     32  N   UNL A   1      41.246  31.163  34.870  1.00  0.00    -0.248 NA
ATOM     33  C   UNL A   1      41.778  31.855  37.037  1.00  0.00     0.031 C 
ATOM     34  C   UNL A   1      43.382  27.934  32.690  1.00  0.00     0.029 A 
ATOM     35  C   UNL A   1      42.730  28.938  33.389  1.00  0.00     0.049 A 
ATOM     36  H   UNL A   1      41.009  30.033  32.848  1.00  0.00     0.167 HD
ATOM     37  C   UNL A   1      42.361  30.463  35.310  1.00  0.00     0.074 A 
ATOM     38  C   UNL A   1      42.671  30.961  36.636  1.00  0.00     0.031 C 
ATOM     39  C   UNL A   1      43.052  29.479  34.684  1.00  0.00     0.034 A 
BRANCH  26  40
ATOM     40  C   UNL A   1      40.730  27.806  29.214  1.00  0.00     0.023 A 
ATOM     41  C   UNL A   1      39.864  26.698  29.130  1.00  0.00     0.012 A 
ATOM     42  C   UNL A   1      41.602  28.088  28.144  1.00  0.00     0.148 A 
ATOM     43  C   UNL A   1      39.872  25.875  28.004  1.00  0.00     0.002 A 
ATOM     44  C   UNL A   1      41.584  27.279  27.012  1.00  0.00     0.091 A 
ATOM     45  F   UNL A   1      42.433  29.134  28.254  1.00  0.00    -0.205 F 
ATOM     46  C   UNL A   1      40.723  26.171  26.943  1.00  0.00     0.022 A 
BRANCH  44  47
ATOM     47  S   UNL A   1      42.595  27.616  25.565  1.00  0.00     0.127 S 
ATOM     48  O   UNL A   1      42.301  26.455  24.726  1.00  0.00    -0.237 OA
ATOM     49  O   UNL A   1      42.033  28.876  25.078  1.00  0.00    -0.237 OA
ATOM     50  O   UNL A   1      43.965  27.711  26.049  1.00  0.00    -0.744 OA
ENDBRANCH  44  47
ENDBRANCH  26  40
BRANCH  27  51
ATOM     51  C   UNL A   1      39.636  33.874  37.087  1.00  0.00     0.023 A 
ATOM     52  C   UNL A   1      40.001  35.230  36.983  1.00  0.00     0.012 A 
ATOM     53  C   UNL A   1      39.052  33.409  38.280  1.00  0.00     0.148 A 
ATOM     54  C   UNL A   1      39.806  36.102  38.056  1.00  0.00     0.002 A 
ATOM     55  C   UNL A   1      38.808  34.295  39.323  1.00  0.00     0.091 A 
ATOM     56  F   UNL A   1      38.731  32.111  38.372  1.00  0.00    -0.205 F 
ATOM     57  C   UNL A   1      39.195  35.639  39.220  1.00  0.00     0.022 A 
BRANCH  55  58
ATOM     58  S   UNL A   1      37.889  33.787  40.780  1.00  0.00     0.127 S 
ATOM     59  O   UNL A   1      37.807  35.033  41.537  1.00  0.00    -0.237 OA
ATOM     60  O   UNL A   1      36.619  33.330  40.211  1.00  0.00    -0.237 OA
ATOM     61  O   UNL A   1      38.688  32.722  41.372  1.00  0.00    -0.744 OA
ENDBRANCH  55  58
ENDBRANCH  27  51
BRANCH  39  62
ATOM     62  C   UNL A   1      44.214  28.876  35.423  1.00  0.00     0.023 A 
ATOM     63  C   UNL A   1      45.498  29.434  35.262  1.00  0.00     0.012 A 
ATOM     64  C   UNL A   1      44.029  27.806  36.320  1.00  0.00     0.148 A 
ATOM     65  C   UNL A   1      46.586  28.920  35.965  1.00  0.00     0.002 A 
ATOM     66  C   UNL A   1      45.112  27.325  37.047  1.00  0.00     0.091 A 
ATOM     67  F   UNL A   1      42.805  27.274  36.441  1.00  0.00    -0.205 F 
ATOM     68  C   UNL A   1      46.391  27.874  36.865  1.00  0.00     0.022 A 
BRANCH  66  69
ATOM     69  S   UNL A   1      44.926  26.037  38.285  1.00  0.00     0.127 S 
ATOM     70  O   UNL A   1      44.017  26.668  39.240  1.00  0.00    -0.237 OA
ATOM     71  O   UNL A   1      44.337  24.940  37.517  1.00  0.00    -0.237 OA
ATOM     72  O   UNL A   1      46.272  25.768  38.775  1.00  0.00    -0.744 OA
ENDBRANCH  66  69
ENDBRANCH  39  62
ENDBRANCH  13  14
ENDBRANCH   6   8
ENDBRANCH   3   4
ENDBRANCH   2   3
ENDBRANCH   1   2
BRANCH   1  73
ATOM     73  C   UNL A   1      33.077  30.057  26.912  1.00  0.00     0.002 C 
BRANCH  73  74
ATOM     74  C   UNL A   1      32.973  28.620  27.444  1.00  0.00     0.021 C 
BRANCH  74  75
ATOM     75  C   UNL A   1      31.524  28.178  27.659  1.00  0.00     0.116 C 
BRANCH  75  76
ATOM     76  N   UNL A   1      31.330  26.879  27.058  1.00  0.00    -0.356 N 
ATOM     77  C   UNL A   1      30.782  26.529  25.866  1.00  0.00     0.224 C 
ATOM     78  H   UNL A   1      31.645  26.122  27.604  1.00  0.00     0.163 HD
ATOM     79  O   UNL A   1      30.548  25.324  25.715  1.00  0.00    -0.275 OA
BRANCH  77  80
ATOM     80  C   UNL A   1      30.666  27.521  24.702  1.00  0.00     0.096 C 
ATOM     81  C   UNL A   1      29.596  27.381  23.614  1.00  0.00     0.015 C 
ATOM     82  C   UNL A   1      32.060  27.782  24.094  1.00  0.00     0.082 C 
ATOM     83  C   UNL A   1      29.562  28.625  22.725  1.00  0.00     0.001 C 
ATOM     84  C   UNL A   1      32.068  28.907  23.058  1.00  0.00     0.021 C 
ATOM     85  C   UNL A   1      30.906  28.896  22.072  1.00  0.00     0.002 C 
BRANCH  82  86
ATOM     86  N   UNL A   1      32.895  26.607  23.720  1.00  0.00    -0.207 NA
ATOM     87  H   UNL A   1      32.760  25.954  24.493  1.00  0.00     0.141 HD
BRANCH  86  88
ATOM     88  S   UNL A   1      32.859  25.632  22.357  1.00  0.00     0.240 S 
ATOM     89  O   UNL A   1      31.457  25.379  22.092  1.00  0.00    -0.207 OA
ATOM     90  O   UNL A   1      33.708  26.197  21.339  1.00  0.00    -0.207 OA
BRANCH  88  91
ATOM     91  C   UNL A   1      33.534  24.093  22.909  1.00  0.00     0.083 A 
ATOM     92  C   UNL A   1      34.767  24.058  23.563  1.00  0.00     0.022 A 
ATOM     93  C   UNL A   1      32.747  22.945  22.793  1.00  0.00     0.030 A 
ATOM     94  C   UNL A   1      35.167  22.877  24.194  1.00  0.00     0.010 A 
ATOM     95  C   UNL A   1      33.124  21.771  23.452  1.00  0.00    -0.017 A 
ATOM     96  C   UNL A   1      34.337  21.741  24.183  1.00  0.00    -0.018 A 
ATOM     97  C   UNL A   1      32.288  20.647  23.445  1.00  0.00     0.009 A 
ATOM     98  C   UNL A   1      34.661  20.585  24.910  1.00  0.00     0.009 A 
ATOM     99  C   UNL A   1      32.622  19.510  24.180  1.00  0.00     0.001 A 
ATOM    100  C   UNL A   1      33.804  19.482  24.917  1.00  0.00     0.001 A 
ENDBRANCH  88  91
ENDBRANCH  86  88
ENDBRANCH  82  86
ENDBRANCH  77  80
ENDBRANCH  75  76
ENDBRANCH  74  75
ENDBRANCH  73  74
ENDBRANCH   1  73
TORSDOF 19
ENDMDL
MODEL 2
REMARK VINA RESULT:     -12.5      1.821      2.273
REMARK SMILES O=C(NCCCCCCNC(=O)[C@@H]1CCCC[C@@H]1NS(=O)(=O)c1ccc2ccccc2c1)c1ccc(-c2c3nc(c(-c4cccc(S(=O)(=O)[O-])c4F)c4ccc([nH]4)c(-c4cccc(S(=O)(=O)[O-])c4F)c4nc(c(-c5cccc(S(=O)(=O)[O-])c5F)c5ccc2[nH]5)C=C4)C=C3)cc1
REMARK SMILES IDX 6 1 5 2 4 3 3 4 1 5 2 6 33 8 34 9 95 10 35 11 94 12 36 13
REMARK SMILES IDX 37 14 38 15 88 16 39 17 93 18 87 19 89 20 40 21 92 22 86 23
REMARK SMILES IDX 85 24 41 26 73 27 53 28 72 29 54 30 57 31 71 32 90 33 55 34
REMARK SMILES IDX 56 35 70 37 91 38 58 39 42 40 43 41 51 42 44 43 46 44 52 45
REMARK SMILES IDX 45 46 47 47 48 48 49 49 50 50 74 51 75 52 83 53 76 54 78 55
REMARK SMILES IDX 84 56 77 57 79 58 80 59 81 60 82 61 59 62 60 63 68 64 61 65
REMARK SMILES IDX 63 66 69 67 62 68 64 69 65 70 66 71 67 72 7 73 8 74 9 75
REMARK SMILES IDX 10 76 11 77 12 79 13 80 14 81 18 82 15 83 17 84 16 85 19 86
REMARK SMILES IDX 20 88 21 89 22 90 23 91 24 92 32 93 25 94 31 95 26 96 30 97
REMARK SMILES IDX 27 98 29 99 28 100
REMARK H PARENT 3 7 89 25 57 36 10 78 19 87
REMARK Flexibility Score: inf
ROOT
ATOM      1  C   UNL A   1      31.733  30.144  25.790  1.00  0.00     0.002 C 
ENDROOT
BRANCH   1   2
ATOM      2  C   UNL A   1      31.492  31.584  26.248  1.00  0.00     0.021 C 
BRANCH   2   3
ATOM      3  C   UNL A   1      32.354  32.009  27.432  1.00  0.00     0.116 C 
BRANCH   3   4
ATOM      4  N   UNL A   1      32.645  33.432  27.386  1.00  0.00    -0.352 N 
ATOM      5  O   UNL A   1      33.613  35.339  28.091  1.00  0.00    -0.269 OA
ATOM      6  C   UNL A   1      33.654  34.116  28.015  1.00  0.00     0.251 C 
ATOM      7  H   UNL A   1      32.039  33.975  26.832  1.00  0.00     0.163 HD
BRANCH   6   8
ATOM      8  C   UNL A   1      34.782  33.363  28.608  1.00  0.00     0.039 A 
ATOM      9  C   UNL A   1      36.083  33.872  28.542  1.00  0.00     0.014 A 
ATOM     10  C   UNL A   1      34.530  32.156  29.264  1.00  0.00     0.014 A 
ATOM     11  C   UNL A   1      37.143  33.131  29.055  1.00  0.00     0.010 A 
ATOM     12  C   UNL A   1      35.588  31.442  29.834  1.00  0.00     0.010 A 
ATOM     13  C   UNL A   1      36.903  31.919  29.724  1.00  0.00    -0.014 A 
BRANCH  13  14
ATOM     14  C   UNL A   1      38.027  31.227  30.399  1.00  0.00     0.031 A 
ATOM     15  C   UNL A   1      38.840  30.178  29.697  1.00  0.00     0.074 A 
ATOM     16  C   UNL A   1      38.298  31.553  31.679  1.00  0.00     0.049 A 
ATOM     17  N   UNL A   1      39.872  29.509  30.140  1.00  0.00    -0.248 NA
ATOM     18  C   UNL A   1      38.443  29.826  28.323  1.00  0.00     0.031 C 
ATOM     19  C   UNL A   1      37.534  32.516  32.477  1.00  0.00     0.029 A 
ATOM     20  N   UNL A   1      39.275  31.114  32.533  1.00  0.00    -0.354 N 
ATOM     21  C   UNL A   1      40.229  28.634  29.123  1.00  0.00     0.074 A 
ATOM     22  C   UNL A   1      39.301  28.855  28.034  1.00  0.00     0.031 C 
ATOM     23  C   UNL A   1      38.083  32.609  33.697  1.00  0.00     0.029 A 
ATOM     24  C   UNL A   1      39.211  31.690  33.780  1.00  0.00     0.049 A 
ATOM     25  H   UNL A   1      39.957  30.451  32.279  1.00  0.00     0.167 HD
ATOM     26  C   UNL A   1      41.249  27.743  29.096  1.00  0.00     0.034 A 
ATOM     27  C   UNL A   1      39.974  31.497  34.874  1.00  0.00     0.034 A 
ATOM     28  C   UNL A   1      42.193  27.561  30.167  1.00  0.00     0.049 A 
ATOM     29  C   UNL A   1      41.124  30.536  34.794  1.00  0.00     0.074 A 
ATOM     30  C   UNL A   1      43.305  26.738  30.202  1.00  0.00     0.029 A 
ATOM     31  N   UNL A   1      42.136  28.207  31.392  1.00  0.00    -0.354 N 
ATOM     32  N   UNL A   1      41.537  29.831  33.769  1.00  0.00    -0.248 NA
ATOM     33  C   UNL A   1      41.932  30.364  36.009  1.00  0.00     0.031 C 
ATOM     34  C   UNL A   1      43.917  26.880  31.452  1.00  0.00     0.029 A 
ATOM     35  C   UNL A   1      43.188  27.796  32.194  1.00  0.00     0.049 A 
ATOM     36  H   UNL A   1      41.448  28.861  31.654  1.00  0.00     0.167 HD
ATOM     37  C   UNL A   1      42.660  29.143  34.209  1.00  0.00     0.074 A 
ATOM     38  C   UNL A   1      42.883  29.543  35.584  1.00  0.00     0.031 C 
ATOM     39  C   UNL A   1      43.423  28.243  33.543  1.00  0.00     0.034 A 
BRANCH  26  40
ATOM     40  C   UNL A   1      41.443  26.929  27.844  1.00  0.00     0.023 A 
ATOM     41  C   UNL A   1      42.021  27.537  26.712  1.00  0.00     0.012 A 
ATOM     42  C   UNL A   1      41.147  25.552  27.817  1.00  0.00     0.148 A 
ATOM     43  C   UNL A   1      42.288  26.791  25.565  1.00  0.00     0.002 A 
ATOM     44  C   UNL A   1      41.445  24.808  26.680  1.00  0.00     0.091 A 
ATOM     45  F   UNL A   1      40.579  24.998  28.898  1.00  0.00    -0.205 F 
ATOM     46  C   UNL A   1      42.010  25.426  25.552  1.00  0.00     0.022 A 
BRANCH  44  47
ATOM     47  S   UNL A   1      41.185  23.032  26.590  1.00  0.00     0.127 S 
ATOM     48  O   UNL A   1      41.781  22.584  27.847  1.00  0.00    -0.237 OA
ATOM     49  O   UNL A   1      39.726  22.933  26.538  1.00  0.00    -0.237 OA
ATOM     50  O   UNL A   1      41.865  22.590  25.380  1.00  0.00    -0.744 OA
ENDBRANCH  44  47
ENDBRANCH  26  40
BRANCH  27  51
ATOM     51  C   UNL A   1      39.703  32.285  36.108  1.00  0.00     0.023 A 
ATOM     52  C   UNL A   1      40.412  33.480  36.333  1.00  0.00     0.012 A 
ATOM     53  C   UNL A   1      38.706  31.894  37.023  1.00  0.00     0.148 A 
ATOM     54  C   UNL A   1      40.145  34.262  37.458  1.00  0.00     0.002 A 
ATOM     55  C   UNL A   1      38.407  32.707  38.110  1.00  0.00     0.091 A 
ATOM     56  F   UNL A   1      38.056  30.742  36.807  1.00  0.00    -0.205 F 
ATOM     57  C   UNL A   1      39.133  33.885  38.339  1.00  0.00     0.022 A 
BRANCH  55  58
ATOM     58  S   UNL A   1      37.014  32.347  39.186  1.00  0.00     0.127 S 
ATOM     59  O   UNL A   1      35.879  32.695  38.337  1.00  0.00    -0.237 OA
ATOM     60  O   UNL A   1      37.173  30.914  39.442  1.00  0.00    -0.237 OA
ATOM     61  O   UNL A   1      37.225  33.183  40.360  1.00  0.00    -0.744 OA
ENDBRANCH  55  58
ENDBRANCH  27  51
BRANCH  39  62
ATOM     62  C   UNL A   1      44.573  27.629  34.291  1.00  0.00     0.023 A 
ATOM     63  C   UNL A   1      45.849  28.220  34.198  1.00  0.00     0.012 A 
ATOM     64  C   UNL A   1      44.384  26.513  35.129  1.00  0.00     0.148 A 
ATOM     65  C   UNL A   1      46.925  27.695  34.912  1.00  0.00     0.002 A 
ATOM     66  C   UNL A   1      45.453  26.020  35.867  1.00  0.00     0.091 A 
ATOM     67  F   UNL A   1      43.168  25.950  35.183  1.00  0.00    -0.205 F 
ATOM     68  C   UNL A   1      46.725  26.603  35.754  1.00  0.00     0.022 A 
BRANCH  66  69
ATOM     69  S   UNL A   1      45.256  24.670  37.036  1.00  0.00     0.127 S 
ATOM     70  O   UNL A   1      46.604  24.553  37.588  1.00  0.00    -0.237 OA
ATOM     71  O   UNL A   1      44.260  25.199  37.968  1.00  0.00    -0.237 OA
ATOM     72  O   UNL A   1      44.795  23.535  36.248  1.00  0.00    -0.744 OA
ENDBRANCH  66  69
ENDBRANCH  39  62
ENDBRANCH  13  14
ENDBRANCH   6   8
ENDBRANCH   3   4
ENDBRANCH   2   3
ENDBRANCH   1   2
BRANCH   1  73
ATOM     73  C   UNL A   1      32.031  29.152  26.921  1.00  0.00     0.002 C 
BRANCH  73  74
ATOM     74  C   UNL A   1      32.191  27.693  26.469  1.00  0.00     0.021 C 
BRANCH  74  75
ATOM     75  C   UNL A   1      30.921  26.869  26.686  1.00  0.00     0.116 C 
BRANCH  75  76
ATOM     76  N   UNL A   1      30.764  25.941  25.589  1.00  0.00    -0.356 N 
ATOM     77  C   UNL A   1      30.153  26.090  24.386  1.00  0.00     0.224 C 
ATOM     78  H   UNL A   1      31.164  25.054  25.741  1.00  0.00     0.163 HD
ATOM     79  O   UNL A   1      29.983  25.050  23.737  1.00  0.00    -0.275 OA
BRANCH  77  80
ATOM     80  C   UNL A   1      29.892  27.471  23.771  1.00  0.00     0.096 C 
ATOM     81  C   UNL A   1      28.544  27.843  23.145  1.00  0.00     0.015 C 
ATOM     82  C   UNL A   1      31.070  27.870  22.859  1.00  0.00     0.082 C 
ATOM     83  C   UNL A   1      28.488  29.339  22.831  1.00  0.00     0.001 C 
ATOM     84  C   UNL A   1      30.987  29.314  22.360  1.00  0.00     0.021 C 
ATOM     85  C   UNL A   1      29.608  29.769  21.900  1.00  0.00     0.002 C 
BRANCH  82  86
ATOM     86  N   UNL A   1      31.520  26.897  21.826  1.00  0.00    -0.207 NA
ATOM     87  H   UNL A   1      31.185  27.296  20.949  1.00  0.00     0.141 HD
BRANCH  86  88
ATOM     88  S   UNL A   1      33.055  26.335  21.451  1.00  0.00     0.240 S 
ATOM     89  O   UNL A   1      32.912  25.600  20.211  1.00  0.00    -0.207 OA
ATOM     90  O   UNL A   1      34.002  27.416  21.559  1.00  0.00    -0.207 OA
BRANCH  88  91
ATOM     91  C   UNL A   1      33.388  25.125  22.698  1.00  0.00     0.083 A 
ATOM     92  C   UNL A   1      33.893  25.513  23.940  1.00  0.00     0.022 A 
ATOM     93  C   UNL A   1      33.010  23.802  22.455  1.00  0.00     0.030 A 
ATOM     94  C   UNL A   1      33.925  24.581  24.981  1.00  0.00     0.010 A 
ATOM     95  C   UNL A   1      33.006  22.875  23.500  1.00  0.00    -0.017 A 
ATOM     96  C   UNL A   1      33.445  23.272  24.787  1.00  0.00    -0.018 A 
ATOM     97  C   UNL A   1      32.517  21.576  23.302  1.00  0.00     0.009 A 
ATOM     98  C   UNL A   1      33.355  22.356  25.847  1.00  0.00     0.009 A 
ATOM     99  C   UNL A   1      32.428  20.682  24.369  1.00  0.00     0.001 A 
ATOM    100  C   UNL A   1      32.839  21.074  25.640  1.00  0.00     0.001 A 
ENDBRANCH  88  91
ENDBRANCH  86  88
ENDBRANCH  82  86
ENDBRANCH  77  80
ENDBRANCH  75  76
ENDBRANCH  74  75
ENDBRANCH  73  74
ENDBRANCH   1  73
TORSDOF 19
ENDMDL
MODEL 3
REMARK VINA RESULT:     -12.5      5.667      9.079
REMARK SMILES O=C(NCCCCCCNC(=O)[C@@H]1CCCC[C@@H]1NS(=O)(=O)c1ccc2ccccc2c1)c1ccc(-c2c3nc(c(-c4cccc(S(=O)(=O)[O-])c4F)c4ccc([nH]4)c(-c4cccc(S(=O)(=O)[O-])c4F)c4nc(c(-c5cccc(S(=O)(=O)[O-])c5F)c5ccc2[nH]5)C=C4)C=C3)cc1
REMARK SMILES IDX 6 1 5 2 4 3 3 4 1 5 2 6 33 8 34 9 95 10 35 11 94 12 36 13
REMARK SMILES IDX 37 14 38 15 88 16 39 17 93 18 87 19 89 20 40 21 92 22 86 23
REMARK SMILES IDX 85 24 41 26 73 27 53 28 72 29 54 30 57 31 71 32 90 33 55 34
REMARK SMILES IDX 56 35 70 37 91 38 58 39 42 40 43 41 51 42 44 43 46 44 52 45
REMARK SMILES IDX 45 46 47 47 48 48 49 49 50 50 74 51 75 52 83 53 76 54 78 55
REMARK SMILES IDX 84 56 77 57 79 58 80 59 81 60 82 61 59 62 60 63 68 64 61 65
REMARK SMILES IDX 63 66 69 67 62 68 64 69 65 70 66 71 67 72 7 73 8 74 9 75
REMARK SMILES IDX 10 76 11 77 12 79 13 80 14 81 18 82 15 83 17 84 16 85 19 86
REMARK SMILES IDX 20 88 21 89 22 90 23 91 24 92 32 93 25 94 31 95 26 96 30 97
REMARK SMILES IDX 27 98 29 99 28 100
REMARK H PARENT 3 7 89 25 57 36 10 78 19 87
REMARK Flexibility Score: inf
ROOT
ATOM      1  C   UNL A   1      36.008  22.998  26.253  1.00  0.00     0.002 C 
ENDROOT
BRANCH   1   2
ATOM      2  C   UNL A   1      36.523  21.686  25.657  1.00  0.00     0.021 C 
BRANCH   2   3
ATOM      3  C   UNL A   1      37.973  21.745  25.191  1.00  0.00     0.116 C 
BRANCH   3   4
ATOM      4  N   UNL A   1      38.779  20.732  25.851  1.00  0.00    -0.352 N 
ATOM      5  O   UNL A   1      40.649  19.914  26.802  1.00  0.00    -0.269 OA
ATOM      6  C   UNL A   1      39.961  20.891  26.529  1.00  0.00     0.251 C 
ATOM      7  H   UNL A   1      38.432  19.812  25.805  1.00  0.00     0.163 HD
BRANCH   6   8
ATOM      8  C   UNL A   1      40.398  22.251  26.916  1.00  0.00     0.039 A 
ATOM      9  C   UNL A   1      41.314  22.429  27.958  1.00  0.00     0.014 A 
ATOM     10  C   UNL A   1      39.913  23.353  26.209  1.00  0.00     0.014 A 
ATOM     11  C   UNL A   1      41.678  23.713  28.349  1.00  0.00     0.010 A 
ATOM     12  C   UNL A   1      40.327  24.641  26.562  1.00  0.00     0.010 A 
ATOM     13  C   UNL A   1      41.204  24.831  27.642  1.00  0.00    -0.014 A 
BRANCH  13  14
ATOM     14  C   UNL A   1      41.728  26.177  27.975  1.00  0.00     0.031 A 
ATOM     15  C   UNL A   1      43.125  26.588  27.611  1.00  0.00     0.074 A 
ATOM     16  C   UNL A   1      40.918  27.030  28.634  1.00  0.00     0.049 A 
ATOM     17  N   UNL A   1      43.717  27.739  27.804  1.00  0.00    -0.248 NA
ATOM     18  C   UNL A   1      43.974  25.581  26.953  1.00  0.00     0.031 C 
ATOM     19  C   UNL A   1      39.561  26.713  29.089  1.00  0.00     0.029 A 
ATOM     20  N   UNL A   1      41.111  28.325  29.039  1.00  0.00    -0.354 N 
ATOM     21  C   UNL A   1      45.013  27.589  27.327  1.00  0.00     0.074 A 
ATOM     22  C   UNL A   1      45.125  26.232  26.836  1.00  0.00     0.031 C 
ATOM     23  C   UNL A   1      39.038  27.790  29.693  1.00  0.00     0.029 A 
ATOM     24  C   UNL A   1      40.030  28.858  29.701  1.00  0.00     0.049 A 
ATOM     25  H   UNL A   1      41.943  28.824  28.873  1.00  0.00     0.167 HD
ATOM     26  C   UNL A   1      46.008  28.506  27.290  1.00  0.00     0.034 A 
ATOM     27  C   UNL A   1      39.856  30.073  30.258  1.00  0.00     0.034 A 
ATOM     28  C   UNL A   1      45.873  29.866  27.741  1.00  0.00     0.049 A 
ATOM     29  C   UNL A   1      40.964  31.081  30.156  1.00  0.00     0.074 A 
ATOM     30  C   UNL A   1      46.801  30.891  27.674  1.00  0.00     0.029 A 
ATOM     31  N   UNL A   1      44.743  30.391  28.350  1.00  0.00    -0.354 N 
ATOM     32  N   UNL A   1      42.128  30.966  29.564  1.00  0.00    -0.248 NA
ATOM     33  C   UNL A   1      40.726  32.393  30.771  1.00  0.00     0.031 C 
ATOM     34  C   UNL A   1      46.235  32.034  28.247  1.00  0.00     0.029 A 
ATOM     35  C   UNL A   1      44.951  31.722  28.669  1.00  0.00     0.049 A 
ATOM     36  H   UNL A   1      43.915  29.890  28.528  1.00  0.00     0.167 HD
ATOM     37  C   UNL A   1      42.756  32.194  29.722  1.00  0.00     0.074 A 
ATOM     38  C   UNL A   1      41.829  33.049  30.436  1.00  0.00     0.031 C 
ATOM     39  C   UNL A   1      43.998  32.572  29.334  1.00  0.00     0.034 A 
BRANCH  26  40
ATOM     40  C   UNL A   1      47.324  28.096  26.684  1.00  0.00     0.023 A 
ATOM     41  C   UNL A   1      48.397  27.764  27.535  1.00  0.00     0.012 A 
ATOM     42  C   UNL A   1      47.471  27.949  25.291  1.00  0.00     0.148 A 
ATOM     43  C   UNL A   1      49.603  27.303  27.007  1.00  0.00     0.002 A 
ATOM     44  C   UNL A   1      48.667  27.460  24.775  1.00  0.00     0.091 A 
ATOM     45  F   UNL A   1      46.445  28.291  24.499  1.00  0.00    -0.205 F 
ATOM     46  C   UNL A   1      49.735  27.141  25.631  1.00  0.00     0.022 A 
BRANCH  44  47
ATOM     47  S   UNL A   1      48.912  27.155  23.020  1.00  0.00     0.127 S 
ATOM     48  O   UNL A   1      48.217  25.881  22.845  1.00  0.00    -0.237 OA
ATOM     49  O   UNL A   1      48.242  28.303  22.408  1.00  0.00    -0.237 OA
ATOM     50  O   UNL A   1      50.354  27.117  22.819  1.00  0.00    -0.744 OA
ENDBRANCH  44  47
ENDBRANCH  26  40
BRANCH  27  51
ATOM     51  C   UNL A   1      38.555  30.409  30.898  1.00  0.00     0.023 A 
ATOM     52  C   UNL A   1      38.353  30.097  32.255  1.00  0.00     0.012 A 
ATOM     53  C   UNL A   1      37.546  31.091  30.192  1.00  0.00     0.148 A 
ATOM     54  C   UNL A   1      37.161  30.442  32.894  1.00  0.00     0.002 A 
ATOM     55  C   UNL A   1      36.384  31.482  30.849  1.00  0.00     0.091 A 
ATOM     56  F   UNL A   1      37.743  31.361  28.894  1.00  0.00    -0.205 F 
ATOM     57  C   UNL A   1      36.183  31.148  32.196  1.00  0.00     0.022 A 
BRANCH  55  58
ATOM     58  S   UNL A   1      35.164  32.523  30.041  1.00  0.00     0.127 S 
ATOM     59  O   UNL A   1      34.208  32.762  31.119  1.00  0.00    -0.237 OA
ATOM     60  O   UNL A   1      35.953  33.693  29.650  1.00  0.00    -0.237 OA
ATOM     61  O   UNL A   1      34.686  31.731  28.916  1.00  0.00    -0.744 OA
ENDBRANCH  55  58
ENDBRANCH  27  51
BRANCH  39  62
ATOM     62  C   UNL A   1      44.428  33.973  29.670  1.00  0.00     0.023 A 
ATOM     63  C   UNL A   1      45.033  34.228  30.917  1.00  0.00     0.012 A 
ATOM     64  C   UNL A   1      44.293  35.019  28.737  1.00  0.00     0.148 A 
ATOM     65  C   UNL A   1      45.477  35.509  31.239  1.00  0.00     0.002 A 
ATOM     66  C   UNL A   1      44.773  36.285  29.050  1.00  0.00     0.091 A 
ATOM     67  F   UNL A   1      43.692  34.762  27.566  1.00  0.00    -0.205 F 
ATOM     68  C   UNL A   1      45.357  36.534  30.303  1.00  0.00     0.022 A 
BRANCH  66  69
ATOM     69  S   UNL A   1      44.732  37.636  27.867  1.00  0.00     0.127 S 
ATOM     70  O   UNL A   1      43.297  37.788  27.636  1.00  0.00    -0.237 OA
ATOM     71  O   UNL A   1      45.348  38.733  28.614  1.00  0.00    -0.237 OA
ATOM     72  O   UNL A   1      45.512  37.179  26.724  1.00  0.00    -0.744 OA
ENDBRANCH  66  69
ENDBRANCH  39  62
ENDBRANCH  13  14
ENDBRANCH   6   8
ENDBRANCH   3   4
ENDBRANCH   2   3
ENDBRANCH   1   2
BRANCH   1  73
ATOM     73  C   UNL A   1      35.100  23.812  25.322  1.00  0.00     0.002 C 
BRANCH  73  74
ATOM     74  C   UNL A   1      35.683  24.074  23.925  1.00  0.00     0.021 C 
BRANCH  74  75
ATOM     75  C   UNL A   1      34.954  23.294  22.830  1.00  0.00     0.116 C 
BRANCH  75  76
ATOM     76  N   UNL A   1      33.530  23.502  22.967  1.00  0.00    -0.356 N 
ATOM     77  C   UNL A   1      32.522  22.615  23.166  1.00  0.00     0.224 C 
ATOM     78  H   UNL A   1      33.245  24.443  22.904  1.00  0.00     0.163 HD
ATOM     79  O   UNL A   1      31.377  23.061  23.022  1.00  0.00    -0.275 OA
BRANCH  77  80
ATOM     80  C   UNL A   1      32.771  21.217  23.745  1.00  0.00     0.096 C 
ATOM     81  C   UNL A   1      32.133  19.959  23.144  1.00  0.00     0.015 C 
ATOM     82  C   UNL A   1      32.620  21.250  25.280  1.00  0.00     0.082 C 
ATOM     83  C   UNL A   1      32.737  18.698  23.764  1.00  0.00     0.001 C 
ATOM     84  C   UNL A   1      33.044  19.946  25.959  1.00  0.00     0.021 C 
ATOM     85  C   UNL A   1      32.573  18.670  25.274  1.00  0.00     0.002 C 
BRANCH  82  86
ATOM     86  N   UNL A   1      31.387  21.859  25.852  1.00  0.00    -0.207 NA
ATOM     87  H   UNL A   1      30.851  21.059  26.189  1.00  0.00     0.141 HD
BRANCH  86  88
ATOM     88  S   UNL A   1      31.195  23.008  27.057  1.00  0.00     0.240 S 
ATOM     89  O   UNL A   1      29.817  22.898  27.488  1.00  0.00    -0.207 OA
ATOM     90  O   UNL A   1      32.273  22.893  28.007  1.00  0.00    -0.207 OA
BRANCH  88  91
ATOM     91  C   UNL A   1      31.317  24.553  26.204  1.00  0.00     0.083 A 
ATOM     92  C   UNL A   1      30.185  25.130  25.626  1.00  0.00     0.022 A 
ATOM     93  C   UNL A   1      32.535  25.236  26.241  1.00  0.00     0.030 A 
ATOM     94  C   UNL A   1      30.255  26.449  25.169  1.00  0.00     0.010 A 
ATOM     95  C   UNL A   1      32.602  26.566  25.818  1.00  0.00    -0.017 A 
ATOM     96  C   UNL A   1      31.443  27.191  25.298  1.00  0.00    -0.018 A 
ATOM     97  C   UNL A   1      33.786  27.302  25.959  1.00  0.00     0.009 A 
ATOM     98  C   UNL A   1      31.502  28.552  24.957  1.00  0.00     0.009 A 
ATOM     99  C   UNL A   1      33.824  28.655  25.623  1.00  0.00     0.001 A 
ATOM    100  C   UNL A   1      32.681  29.281  25.130  1.00  0.00     0.001 A 
ENDBRANCH  88  91
ENDBRANCH  86  88
ENDBRANCH  82  86
ENDBRANCH  77  80
ENDBRANCH  75  76
ENDBRANCH  74  75
ENDBRANCH  73  74
ENDBRANCH   1  73
TORSDOF 19
ENDMDL
