MODEL 1
REMARK VINA RESULT:     -11.2      0.000      0.000
REMARK SMILES C[C@@H]1CCC[C@H](NC(=O)N(C)CC(=O)NCCCCCCNC(=O)c2ccc(-c3c4nc(c(-c5cccc(S(=O)(=O)[O-])c5F)c5ccc([nH]5)c(-c5cccc(S(=O)(=O)[O-])c5F)c5nc(c(-c6cccc(S(=O)(=O)[O-])c6F)c6ccc3[nH]6)C=C5)C=C4)cc2)C1
REMARK SMILES IDX 18 1 17 2 16 3 15 4 13 5 14 6 12 8 10 9 11 10 8 11 7 12 9 14
REMARK SMILES IDX 6 15 1 16 2 17 3 18 88 19 4 20 5 21 19 22 20 23 21 24 22 25
REMARK SMILES IDX 23 26 24 28 25 29 26 30 87 31 27 32 86 33 28 34 29 35 30 36
REMARK SMILES IDX 80 37 31 38 85 39 79 40 81 41 32 42 84 43 78 44 77 45 33 47
REMARK SMILES IDX 65 48 45 49 64 50 46 51 49 52 63 53 82 54 47 55 48 56 62 58
REMARK SMILES IDX 83 59 50 60 34 61 35 62 43 63 36 64 38 65 44 66 37 67 39 68
REMARK SMILES IDX 40 69 41 70 42 71 66 72 67 73 75 74 68 75 70 76 76 77 69 78
REMARK SMILES IDX 71 79 72 80 73 81 74 82 51 83 52 84 60 85 53 86 55 87 61 88
REMARK SMILES IDX 54 89 56 90 57 91 58 92 59 93
REMARK H PARENT 15 7 7 13 22 27 81 46 49 57
REMARK Flexibility Score: inf
ROOT
ATOM      1  C   UNL A   1      32.925  30.050  26.731  1.00  0.00     0.002 C 
ENDROOT
BRANCH   1   2
ATOM      2  C   UNL A   1      33.486  29.093  25.671  1.00  0.00     0.021 C 
BRANCH   2   3
ATOM      3  C   UNL A   1      33.810  27.702  26.208  1.00  0.00     0.116 C 
BRANCH   3   4
ATOM      4  N   UNL A   1      32.615  27.007  26.630  1.00  0.00    -0.355 N 
ATOM      5  C   UNL A   1      31.640  26.425  25.875  1.00  0.00     0.239 C 
ATOM      6  O   UNL A   1      30.816  25.719  26.467  1.00  0.00    -0.273 OA
ATOM      7  H   UNL A   1      32.487  26.944  27.605  1.00  0.00     0.163 HD
BRANCH   5   8
ATOM      8  C   UNL A   1      31.713  26.440  24.338  1.00  0.00     0.220 C 
BRANCH   8   9
ATOM      9  N   UNL A   1      31.917  25.164  23.634  1.00  0.00    -0.319 N 
ATOM     10  C   UNL A   1      30.718  24.515  23.127  1.00  0.00     0.149 C 
BRANCH   9  11
ATOM     11  C   UNL A   1      33.193  24.914  23.217  1.00  0.00     0.317 C 
ATOM     12  N   UNL A   1      34.084  24.230  23.956  1.00  0.00    -0.335 N 
ATOM     13  H   UNL A   1      34.891  24.007  23.437  1.00  0.00     0.165 HD
ATOM     14  O   UNL A   1      33.611  25.318  22.128  1.00  0.00    -0.249 OA
BRANCH  12  15
ATOM     15  C   UNL A   1      34.169  23.729  25.326  1.00  0.00     0.084 C 
ATOM     16  C   UNL A   1      36.919  22.646  23.808  1.00  0.00     0.008 C 
ATOM     17  C   UNL A   1      36.416  22.415  25.235  1.00  0.00    -0.012 C 
ATOM     18  C   UNL A   1      35.614  21.112  25.354  1.00  0.00     0.003 C 
ATOM     19  C   UNL A   1      35.627  23.609  25.798  1.00  0.00     0.028 C 
ATOM     20  C   UNL A   1      34.194  21.230  24.804  1.00  0.00     0.002 C 
ATOM     21  C   UNL A   1      33.431  22.390  25.444  1.00  0.00     0.025 C 
ENDBRANCH  12  15
ENDBRANCH   9  11
ENDBRANCH   8   9
ENDBRANCH   5   8
ENDBRANCH   3   4
ENDBRANCH   2   3
ENDBRANCH   1   2
BRANCH   1  22
ATOM     22  C   UNL A   1      31.574  30.686  26.386  1.00  0.00     0.002 C 
BRANCH  22  23
ATOM     23  C   UNL A   1      31.491  32.196  26.619  1.00  0.00     0.021 C 
BRANCH  23  24
ATOM     24  C   UNL A   1      32.648  32.773  27.427  1.00  0.00     0.116 C 
BRANCH  24  25
ATOM     25  N   UNL A   1      32.470  34.192  27.695  1.00  0.00    -0.352 N 
ATOM     26  C   UNL A   1      33.074  34.980  28.645  1.00  0.00     0.251 C 
ATOM     27  H   UNL A   1      31.823  34.654  27.113  1.00  0.00     0.163 HD
ATOM     28  O   UNL A   1      32.649  36.108  28.870  1.00  0.00    -0.269 OA
BRANCH  26  29
ATOM     29  C   UNL A   1      34.232  34.455  29.401  1.00  0.00     0.039 A 
ATOM     30  C   UNL A   1      34.017  33.873  30.652  1.00  0.00     0.014 A 
ATOM     31  C   UNL A   1      35.523  34.539  28.875  1.00  0.00     0.014 A 
ATOM     32  C   UNL A   1      35.094  33.322  31.350  1.00  0.00     0.010 A 
ATOM     33  C   UNL A   1      36.580  33.921  29.535  1.00  0.00     0.010 A 
ATOM     34  C   UNL A   1      36.379  33.311  30.783  1.00  0.00    -0.014 A 
BRANCH  34  35
ATOM     35  C   UNL A   1      37.521  32.658  31.472  1.00  0.00     0.031 A 
ATOM     36  C   UNL A   1      38.244  31.508  30.824  1.00  0.00     0.074 A 
ATOM     37  C   UNL A   1      37.852  33.045  32.720  1.00  0.00     0.049 A 
ATOM     38  N   UNL A   1      39.222  30.779  31.295  1.00  0.00    -0.248 NA
ATOM     39  C   UNL A   1      37.792  31.107  29.481  1.00  0.00     0.031 C 
ATOM     40  C   UNL A   1      37.179  34.096  33.488  1.00  0.00     0.029 A 
ATOM     41  N   UNL A   1      38.822  32.582  33.575  1.00  0.00    -0.354 N 
ATOM     42  C   UNL A   1      39.479  29.815  30.326  1.00  0.00     0.074 A 
ATOM     43  C   UNL A   1      38.530  30.030  29.257  1.00  0.00     0.031 C 
ATOM     44  C   UNL A   1      37.758  34.201  34.693  1.00  0.00     0.029 A 
ATOM     45  C   UNL A   1      38.819  33.204  34.802  1.00  0.00     0.049 A 
ATOM     46  H   UNL A   1      39.459  31.871  33.333  1.00  0.00     0.167 HD
ATOM     47  C   UNL A   1      40.435  28.857  30.316  1.00  0.00     0.034 A 
ATOM     48  C   UNL A   1      39.575  32.989  35.896  1.00  0.00     0.034 A 
ATOM     49  C   UNL A   1      41.399  28.669  31.367  1.00  0.00     0.049 A 
ATOM     50  C   UNL A   1      40.647  31.934  35.848  1.00  0.00     0.074 A 
ATOM     51  C   UNL A   1      42.460  27.782  31.411  1.00  0.00     0.029 A 
ATOM     52  N   UNL A   1      41.413  29.370  32.564  1.00  0.00    -0.354 N 
ATOM     53  N   UNL A   1      40.974  31.133  34.861  1.00  0.00    -0.248 NA
ATOM     54  C   UNL A   1      41.479  31.776  37.049  1.00  0.00     0.031 C 
ATOM     55  C   UNL A   1      43.094  27.921  32.650  1.00  0.00     0.029 A 
ATOM     56  C   UNL A   1      42.454  28.925  33.359  1.00  0.00     0.049 A 
ATOM     57  H   UNL A   1      40.776  30.079  32.809  1.00  0.00     0.167 HD
ATOM     58  C   UNL A   1      42.071  30.406  35.308  1.00  0.00     0.074 A 
ATOM     59  C   UNL A   1      42.365  30.875  36.647  1.00  0.00     0.031 C 
ATOM     60  C   UNL A   1      42.766  29.432  34.671  1.00  0.00     0.034 A 
BRANCH  47  61
ATOM     61  C   UNL A   1      40.514  27.959  29.108  1.00  0.00     0.023 A 
ATOM     62  C   UNL A   1      39.619  26.877  28.980  1.00  0.00     0.012 A 
ATOM     63  C   UNL A   1      41.431  28.221  28.071  1.00  0.00     0.148 A 
ATOM     64  C   UNL A   1      39.660  26.047  27.861  1.00  0.00     0.002 A 
ATOM     65  C   UNL A   1      41.433  27.419  26.935  1.00  0.00     0.091 A 
ATOM     66  F   UNL A   1      42.287  29.243  28.216  1.00  0.00    -0.205 F 
ATOM     67  C   UNL A   1      40.559  26.324  26.836  1.00  0.00     0.022 A 
BRANCH  65  68
ATOM     68  S   UNL A   1      42.495  27.740  25.522  1.00  0.00     0.127 S 
ATOM     69  O   UNL A   1      42.278  26.542  24.712  1.00  0.00    -0.237 OA
ATOM     70  O   UNL A   1      41.911  28.963  24.972  1.00  0.00    -0.237 OA
ATOM     71  O   UNL A   1      43.840  27.895  26.056  1.00  0.00    -0.744 OA
ENDBRANCH  65  68
ENDBRANCH  47  61
BRANCH  48  72
ATOM     72  C   UNL A   1      39.380  33.825  37.114  1.00  0.00     0.023 A 
ATOM     73  C   UNL A   1      39.846  35.154  37.125  1.00  0.00     0.012 A 
ATOM     74  C   UNL A   1      38.721  33.318  38.251  1.00  0.00     0.148 A 
ATOM     75  C   UNL A   1      39.692  35.952  38.260  1.00  0.00     0.002 A 
ATOM     76  C   UNL A   1      38.519  34.136  39.355  1.00  0.00     0.091 A 
ATOM     77  F   UNL A   1      38.293  32.048  38.223  1.00  0.00    -0.205 F 
ATOM     78  C   UNL A   1      39.020  35.447  39.370  1.00  0.00     0.022 A 
BRANCH  76  79
ATOM     79  S   UNL A   1      37.553  33.614  40.776  1.00  0.00     0.127 S 
ATOM     80  O   UNL A   1      37.414  34.863  41.520  1.00  0.00    -0.237 OA
ATOM     81  O   UNL A   1      36.325  33.131  40.144  1.00  0.00    -0.237 OA
ATOM     82  O   UNL A   1      38.339  32.575  41.429  1.00  0.00    -0.744 OA
ENDBRANCH  76  79
ENDBRANCH  48  72
BRANCH  60  83
ATOM     83  C   UNL A   1      43.947  28.831  35.389  1.00  0.00     0.023 A 
ATOM     84  C   UNL A   1      45.232  29.385  35.225  1.00  0.00     0.012 A 
ATOM     85  C   UNL A   1      43.766  27.757  36.284  1.00  0.00     0.148 A 
ATOM     86  C   UNL A   1      46.324  28.857  35.914  1.00  0.00     0.002 A 
ATOM     87  C   UNL A   1      44.848  27.272  37.007  1.00  0.00     0.091 A 
ATOM     88  F   UNL A   1      42.539  27.233  36.413  1.00  0.00    -0.205 F 
ATOM     89  C   UNL A   1      46.131  27.811  36.813  1.00  0.00     0.022 A 
BRANCH  87  90
ATOM     90  S   UNL A   1      44.677  25.996  38.260  1.00  0.00     0.127 S 
ATOM     91  O   UNL A   1      44.105  26.750  39.375  1.00  0.00    -0.237 OA
ATOM     92  O   UNL A   1      43.754  25.058  37.621  1.00  0.00    -0.237 OA
ATOM     93  O   UNL A   1      46.016  25.470  38.485  1.00  0.00    -0.744 OA
ENDBRANCH  87  90
ENDBRANCH  60  83
ENDBRANCH  34  35
ENDBRANCH  26  29
ENDBRANCH  24  25
ENDBRANCH  23  24
ENDBRANCH  22  23
ENDBRANCH   1  22
TORSDOF 19
ENDMDL
MODEL 2
REMARK VINA RESULT:     -11.1      3.773      9.046
REMARK SMILES C[C@@H]1CCC[C@H](NC(=O)N(C)CC(=O)NCCCCCCNC(=O)c2ccc(-c3c4nc(c(-c5cccc(S(=O)(=O)[O-])c5F)c5ccc([nH]5)c(-c5cccc(S(=O)(=O)[O-])c5F)c5nc(c(-c6cccc(S(=O)(=O)[O-])c6F)c6ccc3[nH]6)C=C5)C=C4)cc2)C1
REMARK SMILES IDX 18 1 17 2 16 3 15 4 13 5 14 6 12 8 10 9 11 10 8 11 7 12 9 14
REMARK SMILES IDX 6 15 1 16 2 17 3 18 88 19 4 20 5 21 19 22 20 23 21 24 22 25
REMARK SMILES IDX 23 26 24 28 25 29 26 30 87 31 27 32 86 33 28 34 29 35 30 36
REMARK SMILES IDX 80 37 31 38 85 39 79 40 81 41 32 42 84 43 78 44 77 45 33 47
REMARK SMILES IDX 65 48 45 49 64 50 46 51 49 52 63 53 82 54 47 55 48 56 62 58
REMARK SMILES IDX 83 59 50 60 34 61 35 62 43 63 36 64 38 65 44 66 37 67 39 68
REMARK SMILES IDX 40 69 41 70 42 71 66 72 67 73 75 74 68 75 70 76 76 77 69 78
REMARK SMILES IDX 71 79 72 80 73 81 74 82 51 83 52 84 60 85 53 86 55 87 61 88
REMARK SMILES IDX 54 89 56 90 57 91 58 92 59 93
REMARK H PARENT 15 7 7 13 22 27 81 46 49 57
REMARK Flexibility Score: inf
ROOT
ATOM      1  C   UNL A   1      32.025  25.849  25.850  1.00  0.00     0.002 C 
ENDROOT
BRANCH   1   2
ATOM      2  C   UNL A   1      32.238  26.214  24.375  1.00  0.00     0.021 C 
BRANCH   2   3
ATOM      3  C   UNL A   1      32.328  25.005  23.448  1.00  0.00     0.116 C 
BRANCH   3   4
ATOM      4  N   UNL A   1      33.702  24.623  23.211  1.00  0.00    -0.355 N 
ATOM      5  C   UNL A   1      34.278  23.389  23.263  1.00  0.00     0.239 C 
ATOM      6  O   UNL A   1      35.430  23.286  22.828  1.00  0.00    -0.273 OA
ATOM      7  H   UNL A   1      34.310  25.362  22.978  1.00  0.00     0.163 HD
BRANCH   5   8
ATOM      8  C   UNL A   1      33.446  22.140  23.608  1.00  0.00     0.220 C 
BRANCH   8   9
ATOM      9  N   UNL A   1      33.358  21.723  25.017  1.00  0.00    -0.319 N 
ATOM     10  C   UNL A   1      32.131  22.077  25.712  1.00  0.00     0.149 C 
BRANCH   9  11
ATOM     11  C   UNL A   1      34.244  20.761  25.407  1.00  0.00     0.317 C 
ATOM     12  N   UNL A   1      33.960  19.447  25.375  1.00  0.00    -0.335 N 
ATOM     13  H   UNL A   1      34.762  18.898  25.534  1.00  0.00     0.165 HD
ATOM     14  O   UNL A   1      35.368  21.047  25.829  1.00  0.00    -0.249 OA
BRANCH  12  15
ATOM     15  C   UNL A   1      32.773  18.621  25.163  1.00  0.00     0.084 C 
ATOM     16  C   UNL A   1      35.319  16.494  25.366  1.00  0.00     0.008 C 
ATOM     17  C   UNL A   1      33.831  16.241  25.108  1.00  0.00    -0.012 C 
ATOM     18  C   UNL A   1      33.513  16.176  23.609  1.00  0.00     0.003 C 
ATOM     19  C   UNL A   1      32.914  17.243  25.831  1.00  0.00     0.028 C 
ATOM     20  C   UNL A   1      33.459  17.552  22.948  1.00  0.00     0.002 C 
ATOM     21  C   UNL A   1      32.484  18.488  23.663  1.00  0.00     0.025 C 
ENDBRANCH  12  15
ENDBRANCH   9  11
ENDBRANCH   8   9
ENDBRANCH   5   8
ENDBRANCH   3   4
ENDBRANCH   2   3
ENDBRANCH   1   2
BRANCH   1  22
ATOM     22  C   UNL A   1      31.833  27.041  26.795  1.00  0.00     0.002 C 
BRANCH  22  23
ATOM     23  C   UNL A   1      32.393  28.369  26.282  1.00  0.00     0.021 C 
BRANCH  23  24
ATOM     24  C   UNL A   1      33.707  28.792  26.931  1.00  0.00     0.116 C 
BRANCH  24  25
ATOM     25  N   UNL A   1      33.717  30.207  27.267  1.00  0.00    -0.352 N 
ATOM     26  C   UNL A   1      34.623  30.915  28.018  1.00  0.00     0.251 C 
ATOM     27  H   UNL A   1      32.968  30.733  26.904  1.00  0.00     0.163 HD
ATOM     28  O   UNL A   1      34.364  32.059  28.378  1.00  0.00    -0.269 OA
BRANCH  26  29
ATOM     29  C   UNL A   1      35.906  30.287  28.400  1.00  0.00     0.039 A 
ATOM     30  C   UNL A   1      37.003  30.408  27.543  1.00  0.00     0.014 A 
ATOM     31  C   UNL A   1      36.025  29.582  29.600  1.00  0.00     0.014 A 
ATOM     32  C   UNL A   1      38.235  29.869  27.920  1.00  0.00     0.010 A 
ATOM     33  C   UNL A   1      37.270  29.115  30.008  1.00  0.00     0.010 A 
ATOM     34  C   UNL A   1      38.388  29.247  29.170  1.00  0.00    -0.014 A 
BRANCH  34  35
ATOM     35  C   UNL A   1      39.708  28.740  29.623  1.00  0.00     0.031 A 
ATOM     36  C   UNL A   1      40.461  29.451  30.715  1.00  0.00     0.074 A 
ATOM     37  C   UNL A   1      40.268  27.689  28.992  1.00  0.00     0.049 A 
ATOM     38  N   UNL A   1      41.647  29.191  31.201  1.00  0.00    -0.248 NA
ATOM     39  C   UNL A   1      39.809  30.623  31.323  1.00  0.00     0.031 C 
ATOM     40  C   UNL A   1      39.673  26.962  27.868  1.00  0.00     0.029 A 
ATOM     41  N   UNL A   1      41.475  27.065  29.186  1.00  0.00    -0.354 N 
ATOM     42  C   UNL A   1      41.897  30.183  32.143  1.00  0.00     0.074 A 
ATOM     43  C   UNL A   1      40.756  31.070  32.134  1.00  0.00     0.031 C 
ATOM     44  C   UNL A   1      40.512  25.989  27.479  1.00  0.00     0.029 A 
ATOM     45  C   UNL A   1      41.719  26.045  28.298  1.00  0.00     0.049 A 
ATOM     46  H   UNL A   1      42.107  27.325  29.896  1.00  0.00     0.167 HD
ATOM     47  C   UNL A   1      42.967  30.325  32.961  1.00  0.00     0.034 A 
ATOM     48  C   UNL A   1      42.797  25.251  28.148  1.00  0.00     0.034 A 
ATOM     49  C   UNL A   1      44.085  29.421  32.990  1.00  0.00     0.049 A 
ATOM     50  C   UNL A   1      43.962  25.415  29.086  1.00  0.00     0.074 A 
ATOM     51  C   UNL A   1      45.177  29.432  33.840  1.00  0.00     0.029 A 
ATOM     52  N   UNL A   1      44.263  28.352  32.124  1.00  0.00    -0.354 N 
ATOM     53  N   UNL A   1      44.113  26.266  30.074  1.00  0.00    -0.248 NA
ATOM     54  C   UNL A   1      45.090  24.489  28.914  1.00  0.00     0.031 C 
ATOM     55  C   UNL A   1      46.033  28.391  33.465  1.00  0.00     0.029 A 
ATOM     56  C   UNL A   1      45.452  27.706  32.409  1.00  0.00     0.049 A 
ATOM     57  H   UNL A   1      43.634  28.093  31.413  1.00  0.00     0.167 HD
ATOM     58  C   UNL A   1      45.332  25.952  30.664  1.00  0.00     0.074 A 
ATOM     59  C   UNL A   1      45.869  24.821  29.935  1.00  0.00     0.031 C 
ATOM     60  C   UNL A   1      45.954  26.551  31.708  1.00  0.00     0.034 A 
BRANCH  47  61
ATOM     61  C   UNL A   1      42.963  31.485  33.924  1.00  0.00     0.023 A 
ATOM     62  C   UNL A   1      43.495  32.729  33.525  1.00  0.00     0.012 A 
ATOM     63  C   UNL A   1      42.380  31.363  35.200  1.00  0.00     0.148 A 
ATOM     64  C   UNL A   1      43.482  33.820  34.392  1.00  0.00     0.002 A 
ATOM     65  C   UNL A   1      42.326  32.469  36.041  1.00  0.00     0.091 A 
ATOM     66  F   UNL A   1      41.895  30.169  35.571  1.00  0.00    -0.205 F 
ATOM     67  C   UNL A   1      42.889  33.693  35.644  1.00  0.00     0.022 A 
BRANCH  65  68
ATOM     68  S   UNL A   1      41.510  32.432  37.642  1.00  0.00     0.127 S 
ATOM     69  O   UNL A   1      41.595  33.835  38.047  1.00  0.00    -0.237 OA
ATOM     70  O   UNL A   1      40.165  31.978  37.290  1.00  0.00    -0.237 OA
ATOM     71  O   UNL A   1      42.273  31.500  38.460  1.00  0.00    -0.744 OA
ENDBRANCH  65  68
ENDBRANCH  47  61
BRANCH  48  72
ATOM     72  C   UNL A   1      42.804  24.192  27.099  1.00  0.00     0.023 A 
ATOM     73  C   UNL A   1      43.492  24.418  25.890  1.00  0.00     0.012 A 
ATOM     74  C   UNL A   1      42.153  22.960  27.298  1.00  0.00     0.148 A 
ATOM     75  C   UNL A   1      43.500  23.450  24.884  1.00  0.00     0.002 A 
ATOM     76  C   UNL A   1      42.213  21.979  26.316  1.00  0.00     0.091 A 
ATOM     77  F   UNL A   1      41.497  22.769  28.451  1.00  0.00    -0.205 F 
ATOM     78  C   UNL A   1      42.868  22.228  25.102  1.00  0.00     0.022 A 
BRANCH  76  79
ATOM     79  S   UNL A   1      41.542  20.331  26.560  1.00  0.00     0.127 S 
ATOM     80  O   UNL A   1      40.105  20.587  26.549  1.00  0.00    -0.237 OA
ATOM     81  O   UNL A   1      42.053  19.621  25.388  1.00  0.00    -0.237 OA
ATOM     82  O   UNL A   1      42.090  19.864  27.828  1.00  0.00    -0.744 OA
ENDBRANCH  76  79
ENDBRANCH  48  72
BRANCH  60  83
ATOM     83  C   UNL A   1      47.269  25.974  32.165  1.00  0.00     0.023 A 
ATOM     84  C   UNL A   1      48.475  26.421  31.590  1.00  0.00     0.012 A 
ATOM     85  C   UNL A   1      47.310  25.039  33.219  1.00  0.00     0.148 A 
ATOM     86  C   UNL A   1      49.700  25.918  32.032  1.00  0.00     0.002 A 
ATOM     87  C   UNL A   1      48.535  24.585  33.690  1.00  0.00     0.091 A 
ATOM     88  F   UNL A   1      46.151  24.615  33.742  1.00  0.00    -0.205 F 
ATOM     89  C   UNL A   1      49.730  25.011  33.088  1.00  0.00     0.022 A 
BRANCH  87  90
ATOM     90  S   UNL A   1      48.677  23.495  35.111  1.00  0.00     0.127 S 
ATOM     91  O   UNL A   1      50.095  23.141  35.073  1.00  0.00    -0.237 OA
ATOM     92  O   UNL A   1      48.297  24.376  36.216  1.00  0.00    -0.237 OA
ATOM     93  O   UNL A   1      47.754  22.395  34.869  1.00  0.00    -0.744 OA
ENDBRANCH  87  90
ENDBRANCH  60  83
ENDBRANCH  34  35
ENDBRANCH  26  29
ENDBRANCH  24  25
ENDBRANCH  23  24
ENDBRANCH  22  23
ENDBRANCH   1  22
TORSDOF 19
ENDMDL
MODEL 3
REMARK VINA RESULT:     -11.0      3.888      9.023
REMARK SMILES C[C@@H]1CCC[C@H](NC(=O)N(C)CC(=O)NCCCCCCNC(=O)c2ccc(-c3c4nc(c(-c5cccc(S(=O)(=O)[O-])c5F)c5ccc([nH]5)c(-c5cccc(S(=O)(=O)[O-])c5F)c5nc(c(-c6cccc(S(=O)(=O)[O-])c6F)c6ccc3[nH]6)C=C5)C=C4)cc2)C1
REMARK SMILES IDX 18 1 17 2 16 3 15 4 13 5 14 6 12 8 10 9 11 10 8 11 7 12 9 14
REMARK SMILES IDX 6 15 1 16 2 17 3 18 88 19 4 20 5 21 19 22 20 23 21 24 22 25
REMARK SMILES IDX 23 26 24 28 25 29 26 30 87 31 27 32 86 33 28 34 29 35 30 36
REMARK SMILES IDX 80 37 31 38 85 39 79 40 81 41 32 42 84 43 78 44 77 45 33 47
REMARK SMILES IDX 65 48 45 49 64 50 46 51 49 52 63 53 82 54 47 55 48 56 62 58
REMARK SMILES IDX 83 59 50 60 34 61 35 62 43 63 36 64 38 65 44 66 37 67 39 68
REMARK SMILES IDX 40 69 41 70 42 71 66 72 67 73 75 74 68 75 70 76 76 77 69 78
REMARK SMILES IDX 71 79 72 80 73 81 74 82 51 83 52 84 60 85 53 86 55 87 61 88
REMARK SMILES IDX 54 89 56 90 57 91 58 92 59 93
REMARK H PARENT 15 7 7 13 22 27 81 46 49 57
REMARK Flexibility Score: inf
ROOT
ATOM      1  C   UNL A   1      31.100  28.868  24.694  1.00  0.00     0.002 C 
ENDROOT
BRANCH   1   2
ATOM      2  C   UNL A   1      30.461  27.789  23.810  1.00  0.00     0.021 C 
BRANCH   2   3
ATOM      3  C   UNL A   1      29.798  26.663  24.597  1.00  0.00     0.116 C 
BRANCH   3   4
ATOM      4  N   UNL A   1      29.731  25.445  23.822  1.00  0.00    -0.355 N 
ATOM      5  C   UNL A   1      30.682  24.486  23.634  1.00  0.00     0.239 C 
ATOM      6  O   UNL A   1      30.324  23.437  23.087  1.00  0.00    -0.273 OA
ATOM      7  H   UNL A   1      28.875  25.284  23.362  1.00  0.00     0.163 HD
BRANCH   5   8
ATOM      8  C   UNL A   1      32.066  24.601  24.297  1.00  0.00     0.220 C 
BRANCH   8   9
ATOM      9  N   UNL A   1      32.425  23.633  25.345  1.00  0.00    -0.319 N 
ATOM     10  C   UNL A   1      31.794  23.830  26.640  1.00  0.00     0.149 C 
BRANCH   9  11
ATOM     11  C   UNL A   1      33.001  22.474  24.909  1.00  0.00     0.317 C 
ATOM     12  N   UNL A   1      34.255  22.415  24.428  1.00  0.00    -0.335 N 
ATOM     13  H   UNL A   1      34.558  21.485  24.315  1.00  0.00     0.165 HD
ATOM     14  O   UNL A   1      32.390  21.402  24.921  1.00  0.00    -0.249 OA
BRANCH  12  15
ATOM     15  C   UNL A   1      35.287  23.370  24.029  1.00  0.00     0.084 C 
ATOM     16  C   UNL A   1      36.920  20.640  24.990  1.00  0.00     0.008 C 
ATOM     17  C   UNL A   1      37.446  21.993  24.506  1.00  0.00    -0.012 C 
ATOM     18  C   UNL A   1      37.746  22.941  25.675  1.00  0.00     0.003 C 
ATOM     19  C   UNL A   1      36.530  22.661  23.467  1.00  0.00     0.028 C 
ATOM     20  C   UNL A   1      36.489  23.571  26.273  1.00  0.00     0.002 C 
ATOM     21  C   UNL A   1      35.648  24.279  25.211  1.00  0.00     0.025 C 
ENDBRANCH  12  15
ENDBRANCH   9  11
ENDBRANCH   8   9
ENDBRANCH   5   8
ENDBRANCH   3   4
ENDBRANCH   2   3
ENDBRANCH   1   2
BRANCH   1  22
ATOM     22  C   UNL A   1      31.699  28.361  26.011  1.00  0.00     0.002 C 
BRANCH  22  23
ATOM     23  C   UNL A   1      33.034  27.626  25.873  1.00  0.00     0.021 C 
BRANCH  23  24
ATOM     24  C   UNL A   1      34.261  28.489  26.148  1.00  0.00     0.116 C 
BRANCH  24  25
ATOM     25  N   UNL A   1      33.897  29.818  26.614  1.00  0.00    -0.352 N 
ATOM     26  C   UNL A   1      34.493  30.595  27.578  1.00  0.00     0.251 C 
ATOM     27  H   UNL A   1      33.111  30.219  26.176  1.00  0.00     0.163 HD
ATOM     28  O   UNL A   1      33.928  31.601  27.994  1.00  0.00    -0.269 OA
BRANCH  26  29
ATOM     29  C   UNL A   1      35.812  30.203  28.120  1.00  0.00     0.039 A 
ATOM     30  C   UNL A   1      35.885  29.674  29.411  1.00  0.00     0.014 A 
ATOM     31  C   UNL A   1      36.970  30.358  27.355  1.00  0.00     0.014 A 
ATOM     32  C   UNL A   1      37.117  29.247  29.911  1.00  0.00     0.010 A 
ATOM     33  C   UNL A   1      38.182  29.861  27.825  1.00  0.00     0.010 A 
ATOM     34  C   UNL A   1      38.270  29.306  29.111  1.00  0.00    -0.014 A 
BRANCH  34  35
ATOM     35  C   UNL A   1      39.572  28.781  29.595  1.00  0.00     0.031 A 
ATOM     36  C   UNL A   1      40.310  29.484  30.703  1.00  0.00     0.074 A 
ATOM     37  C   UNL A   1      40.132  27.721  28.980  1.00  0.00     0.049 A 
ATOM     38  N   UNL A   1      41.481  29.209  31.217  1.00  0.00    -0.248 NA
ATOM     39  C   UNL A   1      39.661  30.667  31.293  1.00  0.00     0.031 C 
ATOM     40  C   UNL A   1      39.553  26.999  27.844  1.00  0.00     0.029 A 
ATOM     41  N   UNL A   1      41.326  27.081  29.204  1.00  0.00    -0.354 N 
ATOM     42  C   UNL A   1      41.723  30.200  32.162  1.00  0.00     0.074 A 
ATOM     43  C   UNL A   1      40.594  31.103  32.125  1.00  0.00     0.031 C 
ATOM     44  C   UNL A   1      40.387  26.014  27.476  1.00  0.00     0.029 A 
ATOM     45  C   UNL A   1      41.576  26.055  28.323  1.00  0.00     0.049 A 
ATOM     46  H   UNL A   1      41.945  27.333  29.927  1.00  0.00     0.167 HD
ATOM     47  C   UNL A   1      42.775  30.330  33.004  1.00  0.00     0.034 A 
ATOM     48  C   UNL A   1      42.646  25.246  28.200  1.00  0.00     0.034 A 
ATOM     49  C   UNL A   1      43.880  29.410  33.061  1.00  0.00     0.049 A 
ATOM     50  C   UNL A   1      43.791  25.397  29.164  1.00  0.00     0.074 A 
ATOM     51  C   UNL A   1      44.952  29.408  33.936  1.00  0.00     0.029 A 
ATOM     52  N   UNL A   1      44.062  28.337  32.203  1.00  0.00    -0.354 N 
ATOM     53  N   UNL A   1      43.931  26.247  30.153  1.00  0.00    -0.248 NA
ATOM     54  C   UNL A   1      44.909  24.454  29.021  1.00  0.00     0.031 C 
ATOM     55  C   UNL A   1      45.802  28.354  33.583  1.00  0.00     0.029 A 
ATOM     56  C   UNL A   1      45.236  27.674  32.516  1.00  0.00     0.049 A 
ATOM     57  H   UNL A   1      43.446  28.084  31.477  1.00  0.00     0.167 HD
ATOM     58  C   UNL A   1      45.131  25.918  30.773  1.00  0.00     0.074 A 
ATOM     59  C   UNL A   1      45.670  24.777  30.059  1.00  0.00     0.031 C 
ATOM     60  C   UNL A   1      45.737  26.511  31.830  1.00  0.00     0.034 A 
BRANCH  47  61
ATOM     61  C   UNL A   1      42.765  31.492  33.964  1.00  0.00     0.023 A 
ATOM     62  C   UNL A   1      43.344  32.720  33.583  1.00  0.00     0.012 A 
ATOM     63  C   UNL A   1      42.132  31.388  35.218  1.00  0.00     0.148 A 
ATOM     64  C   UNL A   1      43.326  33.814  34.447  1.00  0.00     0.002 A 
ATOM     65  C   UNL A   1      42.075  32.497  36.055  1.00  0.00     0.091 A 
ATOM     66  F   UNL A   1      41.604  30.208  35.573  1.00  0.00    -0.205 F 
ATOM     67  C   UNL A   1      42.684  33.705  35.677  1.00  0.00     0.022 A 
BRANCH  65  68
ATOM     68  S   UNL A   1      41.200  32.486  37.624  1.00  0.00     0.127 S 
ATOM     69  O   UNL A   1      42.022  31.568  38.412  1.00  0.00    -0.237 OA
ATOM     70  O   UNL A   1      41.287  33.887  38.033  1.00  0.00    -0.237 OA
ATOM     71  O   UNL A   1      39.853  32.019  37.330  1.00  0.00    -0.744 OA
ENDBRANCH  65  68
ENDBRANCH  47  61
BRANCH  48  72
ATOM     72  C   UNL A   1      42.662  24.184  27.154  1.00  0.00     0.023 A 
ATOM     73  C   UNL A   1      43.333  24.420  25.937  1.00  0.00     0.012 A 
ATOM     74  C   UNL A   1      42.036  22.940  27.363  1.00  0.00     0.148 A 
ATOM     75  C   UNL A   1      43.349  23.450  24.934  1.00  0.00     0.002 A 
ATOM     76  C   UNL A   1      42.105  21.958  26.383  1.00  0.00     0.091 A 
ATOM     77  F   UNL A   1      41.396  22.740  28.523  1.00  0.00    -0.205 F 
ATOM     78  C   UNL A   1      42.743  22.216  25.161  1.00  0.00     0.022 A 
BRANCH  76  79
ATOM     79  S   UNL A   1      41.469  20.298  26.639  1.00  0.00     0.127 S 
ATOM     80  O   UNL A   1      41.977  19.598  25.463  1.00  0.00    -0.237 OA
ATOM     81  O   UNL A   1      42.102  19.924  27.903  1.00  0.00    -0.237 OA
ATOM     82  O   UNL A   1      40.020  20.437  26.713  1.00  0.00    -0.744 OA
ENDBRANCH  76  79
ENDBRANCH  48  72
BRANCH  60  83
ATOM     83  C   UNL A   1      47.034  25.917  32.318  1.00  0.00     0.023 A 
ATOM     84  C   UNL A   1      47.047  25.091  33.459  1.00  0.00     0.012 A 
ATOM     85  C   UNL A   1      48.228  26.123  31.598  1.00  0.00     0.148 A 
ATOM     86  C   UNL A   1      48.236  24.508  33.897  1.00  0.00     0.002 A 
ATOM     87  C   UNL A   1      49.397  25.495  32.009  1.00  0.00     0.091 A 
ATOM     88  F   UNL A   1      48.198  26.926  30.525  1.00  0.00    -0.205 F 
ATOM     89  C   UNL A   1      49.407  24.699  33.167  1.00  0.00     0.022 A 
BRANCH  87  90
ATOM     90  S   UNL A   1      50.928  25.601  31.076  1.00  0.00     0.127 S 
ATOM     91  O   UNL A   1      51.770  24.632  31.776  1.00  0.00    -0.237 OA
ATOM     92  O   UNL A   1      50.503  25.187  29.738  1.00  0.00    -0.237 OA
ATOM     93  O   UNL A   1      51.362  26.988  31.171  1.00  0.00    -0.744 OA
ENDBRANCH  87  90
ENDBRANCH  60  83
ENDBRANCH  34  35
ENDBRANCH  26  29
ENDBRANCH  24  25
ENDBRANCH  23  24
ENDBRANCH  22  23
ENDBRANCH   1  22
TORSDOF 19
ENDMDL
