MODEL 1
REMARK VINA RESULT:     -10.4      0.000      0.000
REMARK SMILES CN(C)c1ccc(F)c(C(=O)NCCCCCCNC(=O)c2ccc(-c3c4nc(c(-c5cccc(S(=O)(=O)[O-])c5F)c5ccc([nH]5)c(-c5cccc(S(=O)(=O)[O-])c5F)c5nc(c(-c6cccc(S(=O)(=O)[O-])c6F)c6ccc3[nH]6)C=C5)C=C4)cc2)c1
REMARK SMILES IDX 16 1 15 2 14 3 13 4 12 5 10 6 11 7 9 9 4 10 5 11 85 12 6 13
REMARK SMILES IDX 7 14 8 15 2 16 1 17 3 18 17 19 18 20 19 21 20 22 21 24 22 25
REMARK SMILES IDX 23 26 84 27 24 28 83 29 25 30 26 31 27 32 77 33 28 34 82 35
REMARK SMILES IDX 76 36 78 37 29 38 81 39 75 40 74 41 30 43 62 44 42 45 61 46
REMARK SMILES IDX 43 47 46 48 60 49 79 50 44 51 45 52 59 54 80 55 47 56 31 57
REMARK SMILES IDX 32 58 40 59 33 60 35 61 41 62 34 63 36 64 37 65 38 66 39 67
REMARK SMILES IDX 63 68 64 69 72 70 65 71 67 72 73 73 66 74 68 75 69 76 70 77
REMARK SMILES IDX 71 78 48 79 49 80 57 81 50 82 52 83 58 84 51 85 53 86 54 87
REMARK SMILES IDX 55 88 56 89
REMARK H PARENT 12 8 19 23 78 42 46 53
REMARK Flexibility Score: inf
ROOT
ATOM      1  C   UNL A   1      33.458  27.174  23.036  1.00  0.00     0.002 C 
ENDROOT
BRANCH   1   2
ATOM      2  C   UNL A   1      32.361  26.199  22.601  1.00  0.00     0.002 C 
BRANCH   2   3
ATOM      3  C   UNL A   1      31.096  26.162  23.460  1.00  0.00     0.021 C 
BRANCH   3   4
ATOM      4  C   UNL A   1      30.517  24.784  23.765  1.00  0.00     0.116 C 
BRANCH   4   5
ATOM      5  N   UNL A   1      30.418  24.496  25.183  1.00  0.00    -0.352 N 
ATOM      6  C   UNL A   1      31.371  24.095  26.088  1.00  0.00     0.254 C 
ATOM      7  O   UNL A   1      31.010  23.897  27.251  1.00  0.00    -0.269 OA
ATOM      8  H   UNL A   1      29.514  24.605  25.560  1.00  0.00     0.163 HD
BRANCH   6   9
ATOM      9  C   UNL A   1      32.789  23.833  25.731  1.00  0.00     0.077 A 
ATOM     10  C   UNL A   1      34.452  22.129  25.077  1.00  0.00     0.037 A 
ATOM     11  C   UNL A   1      35.414  23.151  25.050  1.00  0.00     0.029 A 
ATOM     12  C   UNL A   1      33.133  22.509  25.379  1.00  0.00     0.042 A 
ATOM     13  C   UNL A   1      35.099  24.461  25.414  1.00  0.00     0.042 A 
ATOM     14  C   UNL A   1      33.805  24.779  25.806  1.00  0.00     0.136 A 
ATOM     15  F   UNL A   1      33.594  26.009  26.293  1.00  0.00    -0.206 F 
BRANCH  10  16
ATOM     16  N   UNL A   1      34.814  20.807  24.846  1.00  0.00    -0.378 N 
ATOM     17  C   UNL A   1      36.217  20.434  25.006  1.00  0.00     0.143 C 
ATOM     18  C   UNL A   1      33.822  19.745  24.802  1.00  0.00     0.143 C 
ENDBRANCH  10  16
ENDBRANCH   6   9
ENDBRANCH   4   5
ENDBRANCH   3   4
ENDBRANCH   2   3
ENDBRANCH   1   2
BRANCH   1  19
ATOM     19  C   UNL A   1      32.994  28.556  23.504  1.00  0.00     0.021 C 
BRANCH  19  20
ATOM     20  C   UNL A   1      33.537  29.017  24.853  1.00  0.00     0.116 C 
BRANCH  20  21
ATOM     21  N   UNL A   1      32.842  30.183  25.370  1.00  0.00    -0.352 N 
ATOM     22  C   UNL A   1      33.049  30.877  26.539  1.00  0.00     0.251 C 
ATOM     23  H   UNL A   1      32.117  30.528  24.800  1.00  0.00     0.163 HD
ATOM     24  O   UNL A   1      32.254  31.745  26.883  1.00  0.00    -0.269 OA
BRANCH  22  25
ATOM     25  C   UNL A   1      34.218  30.563  27.393  1.00  0.00     0.039 A 
ATOM     26  C   UNL A   1      34.299  29.301  27.988  1.00  0.00     0.014 A 
ATOM     27  C   UNL A   1      35.225  31.507  27.616  1.00  0.00     0.014 A 
ATOM     28  C   UNL A   1      35.416  28.967  28.759  1.00  0.00     0.010 A 
ATOM     29  C   UNL A   1      36.371  31.147  28.323  1.00  0.00     0.010 A 
ATOM     30  C   UNL A   1      36.478  29.875  28.905  1.00  0.00    -0.014 A 
BRANCH  30  31
ATOM     31  C   UNL A   1      37.710  29.506  29.652  1.00  0.00     0.031 A 
ATOM     32  C   UNL A   1      37.966  30.074  31.024  1.00  0.00     0.074 A 
ATOM     33  C   UNL A   1      38.630  28.710  29.069  1.00  0.00     0.049 A 
ATOM     34  N   UNL A   1      39.008  29.915  31.797  1.00  0.00    -0.248 NA
ATOM     35  C   UNL A   1      36.927  30.947  31.598  1.00  0.00     0.031 C 
ATOM     36  C   UNL A   1      38.525  28.142  27.723  1.00  0.00     0.029 A 
ATOM     37  N   UNL A   1      39.844  28.255  29.524  1.00  0.00    -0.354 N 
ATOM     38  C   UNL A   1      38.765  30.682  32.930  1.00  0.00     0.074 A 
ATOM     39  C   UNL A   1      37.490  31.335  32.734  1.00  0.00     0.031 C 
ATOM     40  C   UNL A   1      39.618  27.405  27.468  1.00  0.00     0.029 A 
ATOM     41  C   UNL A   1      40.522  27.477  28.612  1.00  0.00     0.049 A 
ATOM     42  H   UNL A   1      40.197  28.464  30.419  1.00  0.00     0.167 HD
ATOM     43  C   UNL A   1      39.518  30.804  34.048  1.00  0.00     0.034 A 
ATOM     44  C   UNL A   1      41.736  26.895  28.684  1.00  0.00     0.034 A 
ATOM     45  C   UNL A   1      40.762  30.116  34.262  1.00  0.00     0.049 A 
ATOM     46  C   UNL A   1      42.545  27.044  29.946  1.00  0.00     0.074 A 
ATOM     47  C   UNL A   1      41.564  30.130  35.390  1.00  0.00     0.029 A 
ATOM     48  N   UNL A   1      41.383  29.290  33.339  1.00  0.00    -0.354 N 
ATOM     49  N   UNL A   1      42.235  27.672  31.054  1.00  0.00    -0.248 NA
ATOM     50  C   UNL A   1      43.857  26.382  29.982  1.00  0.00     0.031 C 
ATOM     51  C   UNL A   1      42.682  29.333  35.141  1.00  0.00     0.029 A 
ATOM     52  C   UNL A   1      42.559  28.793  33.871  1.00  0.00     0.049 A 
ATOM     53  H   UNL A   1      41.037  29.088  32.439  1.00  0.00     0.167 HD
ATOM     54  C   UNL A   1      43.289  27.443  31.930  1.00  0.00     0.074 A 
ATOM     55  C   UNL A   1      44.239  26.603  31.232  1.00  0.00     0.031 C 
ATOM     56  C   UNL A   1      43.461  27.900  33.193  1.00  0.00     0.034 A 
BRANCH  43  57
ATOM     57  C   UNL A   1      39.000  31.654  35.177  1.00  0.00     0.023 A 
ATOM     58  C   UNL A   1      38.159  31.071  36.146  1.00  0.00     0.012 A 
ATOM     59  C   UNL A   1      39.464  32.972  35.365  1.00  0.00     0.148 A 
ATOM     60  C   UNL A   1      37.784  31.786  37.283  1.00  0.00     0.002 A 
ATOM     61  C   UNL A   1      39.122  33.661  36.522  1.00  0.00     0.091 A 
ATOM     62  F   UNL A   1      40.254  33.509  34.423  1.00  0.00    -0.205 F 
ATOM     63  C   UNL A   1      38.278  33.073  37.478  1.00  0.00     0.022 A 
BRANCH  61  64
ATOM     64  S   UNL A   1      39.776  35.288  36.916  1.00  0.00     0.127 S 
ATOM     65  O   UNL A   1      39.278  36.085  35.795  1.00  0.00    -0.237 OA
ATOM     66  O   UNL A   1      39.135  35.572  38.199  1.00  0.00    -0.237 OA
ATOM     67  O   UNL A   1      41.224  35.142  36.969  1.00  0.00    -0.744 OA
ENDBRANCH  61  64
ENDBRANCH  43  57
BRANCH  44  68
ATOM     68  C   UNL A   1      42.240  26.060  27.553  1.00  0.00     0.023 A 
ATOM     69  C   UNL A   1      43.075  26.647  26.582  1.00  0.00     0.012 A 
ATOM     70  C   UNL A   1      41.907  24.697  27.437  1.00  0.00     0.148 A 
ATOM     71  C   UNL A   1      43.536  25.903  25.495  1.00  0.00     0.002 A 
ATOM     72  C   UNL A   1      42.420  23.946  26.384  1.00  0.00     0.091 A 
ATOM     73  F   UNL A   1      41.099  24.158  28.360  1.00  0.00    -0.205 F 
ATOM     74  C   UNL A   1      43.217  24.552  25.400  1.00  0.00     0.022 A 
BRANCH  72  75
ATOM     75  S   UNL A   1      42.173  22.171  26.260  1.00  0.00     0.127 S 
ATOM     76  O   UNL A   1      40.723  22.080  26.111  1.00  0.00    -0.237 OA
ATOM     77  O   UNL A   1      42.938  21.842  25.057  1.00  0.00    -0.237 OA
ATOM     78  O   UNL A   1      42.721  21.613  27.490  1.00  0.00    -0.744 OA
ENDBRANCH  72  75
ENDBRANCH  44  68
BRANCH  56  79
ATOM     79  C   UNL A   1      44.697  27.475  33.945  1.00  0.00     0.023 A 
ATOM     80  C   UNL A   1      45.837  28.300  33.940  1.00  0.00     0.012 A 
ATOM     81  C   UNL A   1      44.677  26.322  34.754  1.00  0.00     0.148 A 
ATOM     82  C   UNL A   1      46.950  27.972  34.715  1.00  0.00     0.002 A 
ATOM     83  C   UNL A   1      45.767  26.031  35.565  1.00  0.00     0.091 A 
ATOM     84  F   UNL A   1      43.584  25.544  34.733  1.00  0.00    -0.205 F 
ATOM     85  C   UNL A   1      46.908  26.849  35.537  1.00  0.00     0.022 A 
BRANCH  83  86
ATOM     86  S   UNL A   1      45.764  24.671  36.738  1.00  0.00     0.127 S 
ATOM     87  O   UNL A   1      45.829  23.512  35.849  1.00  0.00    -0.237 OA
ATOM     88  O   UNL A   1      46.986  24.921  37.503  1.00  0.00    -0.237 OA
ATOM     89  O   UNL A   1      44.532  24.798  37.503  1.00  0.00    -0.744 OA
ENDBRANCH  83  86
ENDBRANCH  56  79
ENDBRANCH  30  31
ENDBRANCH  22  25
ENDBRANCH  20  21
ENDBRANCH  19  20
ENDBRANCH   1  19
TORSDOF 17
ENDMDL
MODEL 2
REMARK VINA RESULT:     -10.3      1.529      7.863
REMARK SMILES CN(C)c1ccc(F)c(C(=O)NCCCCCCNC(=O)c2ccc(-c3c4nc(c(-c5cccc(S(=O)(=O)[O-])c5F)c5ccc([nH]5)c(-c5cccc(S(=O)(=O)[O-])c5F)c5nc(c(-c6cccc(S(=O)(=O)[O-])c6F)c6ccc3[nH]6)C=C5)C=C4)cc2)c1
REMARK SMILES IDX 16 1 15 2 14 3 13 4 12 5 10 6 11 7 9 9 4 10 5 11 85 12 6 13
REMARK SMILES IDX 7 14 8 15 2 16 1 17 3 18 17 19 18 20 19 21 20 22 21 24 22 25
REMARK SMILES IDX 23 26 84 27 24 28 83 29 25 30 26 31 27 32 77 33 28 34 82 35
REMARK SMILES IDX 76 36 78 37 29 38 81 39 75 40 74 41 30 43 62 44 42 45 61 46
REMARK SMILES IDX 43 47 46 48 60 49 79 50 44 51 45 52 59 54 80 55 47 56 31 57
REMARK SMILES IDX 32 58 40 59 33 60 35 61 41 62 34 63 36 64 37 65 38 66 39 67
REMARK SMILES IDX 63 68 64 69 72 70 65 71 67 72 73 73 66 74 68 75 69 76 70 77
REMARK SMILES IDX 71 78 48 79 49 80 57 81 50 82 52 83 58 84 51 85 53 86 54 87
REMARK SMILES IDX 55 88 56 89
REMARK H PARENT 12 8 19 23 78 42 46 53
REMARK Flexibility Score: inf
ROOT
ATOM      1  C   UNL A   1      31.495  28.077  24.390  1.00  0.00     0.002 C 
ENDROOT
BRANCH   1   2
ATOM      2  C   UNL A   1      30.255  27.811  23.535  1.00  0.00     0.002 C 
BRANCH   2   3
ATOM      3  C   UNL A   1      29.486  26.519  23.823  1.00  0.00     0.021 C 
BRANCH   3   4
ATOM      4  C   UNL A   1      30.322  25.260  24.035  1.00  0.00     0.116 C 
BRANCH   4   5
ATOM      5  N   UNL A   1      30.229  24.720  25.378  1.00  0.00    -0.352 N 
ATOM      6  C   UNL A   1      31.190  24.184  26.200  1.00  0.00     0.254 C 
ATOM      7  O   UNL A   1      30.834  23.772  27.307  1.00  0.00    -0.269 OA
ATOM      8  H   UNL A   1      29.323  24.741  25.765  1.00  0.00     0.163 HD
BRANCH   6   9
ATOM      9  C   UNL A   1      32.614  24.020  25.806  1.00  0.00     0.077 A 
ATOM     10  C   UNL A   1      34.376  22.432  25.118  1.00  0.00     0.037 A 
ATOM     11  C   UNL A   1      35.261  23.520  25.059  1.00  0.00     0.029 A 
ATOM     12  C   UNL A   1      33.041  22.721  25.453  1.00  0.00     0.042 A 
ATOM     13  C   UNL A   1      34.864  24.808  25.424  1.00  0.00     0.042 A 
ATOM     14  C   UNL A   1      33.562  25.036  25.848  1.00  0.00     0.136 A 
ATOM     15  F   UNL A   1      33.277  26.251  26.333  1.00  0.00    -0.206 F 
BRANCH  10  16
ATOM     16  N   UNL A   1      34.825  21.137  24.885  1.00  0.00    -0.378 N 
ATOM     17  C   UNL A   1      36.253  20.866  25.015  1.00  0.00     0.143 C 
ATOM     18  C   UNL A   1      33.909  20.009  24.871  1.00  0.00     0.143 C 
ENDBRANCH  10  16
ENDBRANCH   6   9
ENDBRANCH   4   5
ENDBRANCH   3   4
ENDBRANCH   2   3
ENDBRANCH   1   2
BRANCH   1  19
ATOM     19  C   UNL A   1      31.360  29.155  25.468  1.00  0.00     0.021 C 
BRANCH  19  20
ATOM     20  C   UNL A   1      32.592  30.026  25.694  1.00  0.00     0.116 C 
BRANCH  20  21
ATOM     21  N   UNL A   1      32.258  31.367  26.141  1.00  0.00    -0.352 N 
ATOM     22  C   UNL A   1      32.859  32.142  27.106  1.00  0.00     0.251 C 
ATOM     23  H   UNL A   1      31.490  31.783  25.687  1.00  0.00     0.163 HD
ATOM     24  O   UNL A   1      32.337  33.194  27.458  1.00  0.00    -0.269 OA
BRANCH  22  25
ATOM     25  C   UNL A   1      34.126  31.698  27.733  1.00  0.00     0.039 A 
ATOM     26  C   UNL A   1      35.143  32.635  27.934  1.00  0.00     0.014 A 
ATOM     27  C   UNL A   1      34.317  30.366  28.111  1.00  0.00     0.014 A 
ATOM     28  C   UNL A   1      36.327  32.248  28.567  1.00  0.00     0.010 A 
ATOM     29  C   UNL A   1      35.469  29.999  28.806  1.00  0.00     0.010 A 
ATOM     30  C   UNL A   1      36.487  30.935  29.039  1.00  0.00    -0.014 A 
BRANCH  30  31
ATOM     31  C   UNL A   1      37.707  30.528  29.788  1.00  0.00     0.031 A 
ATOM     32  C   UNL A   1      38.701  29.583  29.164  1.00  0.00     0.074 A 
ATOM     33  C   UNL A   1      37.887  30.959  31.054  1.00  0.00     0.049 A 
ATOM     34  N   UNL A   1      39.786  29.071  29.686  1.00  0.00    -0.248 NA
ATOM     35  C   UNL A   1      38.438  29.140  27.784  1.00  0.00     0.031 C 
ATOM     36  C   UNL A   1      36.968  31.832  31.789  1.00  0.00     0.029 A 
ATOM     37  N   UNL A   1      38.893  30.707  31.955  1.00  0.00    -0.354 N 
ATOM     38  C   UNL A   1      40.318  28.233  28.714  1.00  0.00     0.074 A 
ATOM     39  C   UNL A   1      39.422  28.275  27.580  1.00  0.00     0.031 C 
ATOM     40  C   UNL A   1      37.458  32.054  33.018  1.00  0.00     0.029 A 
ATOM     41  C   UNL A   1      38.705  31.310  33.179  1.00  0.00     0.049 A 
ATOM     42  H   UNL A   1      39.676  30.149  31.746  1.00  0.00     0.167 HD
ATOM     43  C   UNL A   1      41.468  27.519  28.750  1.00  0.00     0.034 A 
ATOM     44  C   UNL A   1      39.445  31.264  34.304  1.00  0.00     0.034 A 
ATOM     45  C   UNL A   1      42.381  27.515  29.859  1.00  0.00     0.049 A 
ATOM     46  C   UNL A   1      40.723  30.466  34.307  1.00  0.00     0.074 A 
ATOM     47  C   UNL A   1      43.602  26.871  29.959  1.00  0.00     0.029 A 
ATOM     48  N   UNL A   1      42.184  28.187  31.054  1.00  0.00    -0.354 N 
ATOM     49  N   UNL A   1      41.269  29.783  33.331  1.00  0.00    -0.248 NA
ATOM     50  C   UNL A   1      41.502  30.456  35.553  1.00  0.00     0.031 C 
ATOM     51  C   UNL A   1      44.132  27.133  31.223  1.00  0.00     0.029 A 
ATOM     52  C   UNL A   1      43.258  27.970  31.898  1.00  0.00     0.049 A 
ATOM     53  H   UNL A   1      41.397  28.738  31.270  1.00  0.00     0.167 HD
ATOM     54  C   UNL A   1      42.473  29.301  33.831  1.00  0.00     0.074 A 
ATOM     55  C   UNL A   1      42.587  29.785  35.190  1.00  0.00     0.031 C 
ATOM     56  C   UNL A   1      43.394  28.515  33.222  1.00  0.00     0.034 A 
BRANCH  43  57
ATOM     57  C   UNL A   1      41.863  26.729  27.530  1.00  0.00     0.023 A 
ATOM     58  C   UNL A   1      42.625  27.356  26.523  1.00  0.00     0.012 A 
ATOM     59  C   UNL A   1      41.619  25.343  27.454  1.00  0.00     0.148 A 
ATOM     60  C   UNL A   1      43.134  26.617  25.456  1.00  0.00     0.002 A 
ATOM     61  C   UNL A   1      42.169  24.606  26.411  1.00  0.00     0.091 A 
ATOM     62  F   UNL A   1      40.883  24.772  28.417  1.00  0.00    -0.205 F 
ATOM     63  C   UNL A   1      42.921  25.242  25.410  1.00  0.00     0.022 A 
BRANCH  61  64
ATOM     64  S   UNL A   1      42.032  22.818  26.303  1.00  0.00     0.127 S 
ATOM     65  O   UNL A   1      42.715  22.546  25.039  1.00  0.00    -0.237 OA
ATOM     66  O   UNL A   1      42.758  22.383  27.496  1.00  0.00    -0.237 OA
ATOM     67  O   UNL A   1      40.607  22.519  26.307  1.00  0.00    -0.744 OA
ENDBRANCH  61  64
ENDBRANCH  43  57
BRANCH  44  68
ATOM     68  C   UNL A   1      39.037  32.047  35.509  1.00  0.00     0.023 A 
ATOM     69  C   UNL A   1      39.333  33.423  35.571  1.00  0.00     0.012 A 
ATOM     70  C   UNL A   1      38.355  31.444  36.583  1.00  0.00     0.148 A 
ATOM     71  C   UNL A   1      38.994  34.175  36.697  1.00  0.00     0.002 A 
ATOM     72  C   UNL A   1      37.966  32.212  37.675  1.00  0.00     0.091 A 
ATOM     73  F   UNL A   1      38.094  30.131  36.515  1.00  0.00    -0.205 F 
ATOM     74  C   UNL A   1      38.303  33.573  37.744  1.00  0.00     0.022 A 
BRANCH  72  75
ATOM     75  S   UNL A   1      36.953  31.551  39.004  1.00  0.00     0.127 S 
ATOM     76  O   UNL A   1      35.876  32.535  39.076  1.00  0.00    -0.237 OA
ATOM     77  O   UNL A   1      36.563  30.247  38.468  1.00  0.00    -0.237 OA
ATOM     78  O   UNL A   1      37.829  31.483  40.166  1.00  0.00    -0.744 OA
ENDBRANCH  72  75
ENDBRANCH  44  68
BRANCH  56  79
ATOM     79  C   UNL A   1      44.642  28.154  33.987  1.00  0.00     0.023 A 
ATOM     80  C   UNL A   1      45.759  29.010  33.947  1.00  0.00     0.012 A 
ATOM     81  C   UNL A   1      44.656  27.033  34.841  1.00  0.00     0.148 A 
ATOM     82  C   UNL A   1      46.882  28.743  34.731  1.00  0.00     0.002 A 
ATOM     83  C   UNL A   1      45.755  26.805  35.660  1.00  0.00     0.091 A 
ATOM     84  F   UNL A   1      43.585  26.226  34.852  1.00  0.00    -0.205 F 
ATOM     85  C   UNL A   1      46.873  27.653  35.597  1.00  0.00     0.022 A 
BRANCH  83  86
ATOM     86  S   UNL A   1      45.791  25.492  36.885  1.00  0.00     0.127 S 
ATOM     87  O   UNL A   1      44.589  25.782  37.666  1.00  0.00    -0.237 OA
ATOM     88  O   UNL A   1      45.702  24.292  36.053  1.00  0.00    -0.237 OA
ATOM     89  O   UNL A   1      47.049  25.641  37.602  1.00  0.00    -0.744 OA
ENDBRANCH  83  86
ENDBRANCH  56  79
ENDBRANCH  30  31
ENDBRANCH  22  25
ENDBRANCH  20  21
ENDBRANCH  19  20
ENDBRANCH   1  19
TORSDOF 17
ENDMDL
MODEL 3
REMARK VINA RESULT:     -10.2      4.982     10.067
REMARK SMILES CN(C)c1ccc(F)c(C(=O)NCCCCCCNC(=O)c2ccc(-c3c4nc(c(-c5cccc(S(=O)(=O)[O-])c5F)c5ccc([nH]5)c(-c5cccc(S(=O)(=O)[O-])c5F)c5nc(c(-c6cccc(S(=O)(=O)[O-])c6F)c6ccc3[nH]6)C=C5)C=C4)cc2)c1
REMARK SMILES IDX 16 1 15 2 14 3 13 4 12 5 10 6 11 7 9 9 4 10 5 11 85 12 6 13
REMARK SMILES IDX 7 14 8 15 2 16 1 17 3 18 17 19 18 20 19 21 20 22 21 24 22 25
REMARK SMILES IDX 23 26 84 27 24 28 83 29 25 30 26 31 27 32 77 33 28 34 82 35
REMARK SMILES IDX 76 36 78 37 29 38 81 39 75 40 74 41 30 43 62 44 42 45 61 46
REMARK SMILES IDX 43 47 46 48 60 49 79 50 44 51 45 52 59 54 80 55 47 56 31 57
REMARK SMILES IDX 32 58 40 59 33 60 35 61 41 62 34 63 36 64 37 65 38 66 39 67
REMARK SMILES IDX 63 68 64 69 72 70 65 71 67 72 73 73 66 74 68 75 69 76 70 77
REMARK SMILES IDX 71 78 48 79 49 80 57 81 50 82 52 83 58 84 51 85 53 86 54 87
REMARK SMILES IDX 55 88 56 89
REMARK H PARENT 12 8 19 23 78 42 46 53
REMARK Flexibility Score: inf
ROOT
ATOM      1  C   UNL A   1      35.297  20.563  24.820  1.00  0.00     0.002 C 
ENDROOT
BRANCH   1   2
ATOM      2  C   UNL A   1      33.786  20.786  24.723  1.00  0.00     0.002 C 
BRANCH   2   3
ATOM      3  C   UNL A   1      33.325  22.112  24.114  1.00  0.00     0.021 C 
BRANCH   3   4
ATOM      4  C   UNL A   1      31.824  22.381  24.118  1.00  0.00     0.116 C 
BRANCH   4   5
ATOM      5  N   UNL A   1      31.277  22.606  25.443  1.00  0.00    -0.352 N 
ATOM      6  C   UNL A   1      31.286  23.725  26.240  1.00  0.00     0.254 C 
ATOM      7  O   UNL A   1      30.757  23.641  27.352  1.00  0.00    -0.269 OA
ATOM      8  H   UNL A   1      30.824  21.826  25.837  1.00  0.00     0.163 HD
BRANCH   6   9
ATOM      9  C   UNL A   1      31.946  25.002  25.863  1.00  0.00     0.077 A 
ATOM     10  C   UNL A   1      31.671  27.207  24.787  1.00  0.00     0.037 A 
ATOM     11  C   UNL A   1      33.024  27.455  25.066  1.00  0.00     0.029 A 
ATOM     12  C   UNL A   1      31.145  25.984  25.240  1.00  0.00     0.042 A 
ATOM     13  C   UNL A   1      33.837  26.490  25.661  1.00  0.00     0.042 A 
ATOM     14  C   UNL A   1      33.307  25.253  26.002  1.00  0.00     0.136 A 
ATOM     15  F   UNL A   1      34.161  24.312  26.425  1.00  0.00    -0.206 F 
BRANCH  10  16
ATOM     16  N   UNL A   1      30.913  28.126  24.069  1.00  0.00    -0.378 N 
ATOM     17  C   UNL A   1      29.873  27.620  23.178  1.00  0.00     0.143 C 
ATOM     18  C   UNL A   1      30.881  29.532  24.435  1.00  0.00     0.143 C 
ENDBRANCH  10  16
ENDBRANCH   6   9
ENDBRANCH   4   5
ENDBRANCH   3   4
ENDBRANCH   2   3
ENDBRANCH   1   2
BRANCH   1  19
ATOM     19  C   UNL A   1      36.064  21.502  25.755  1.00  0.00     0.021 C 
BRANCH  19  20
ATOM     20  C   UNL A   1      37.493  21.833  25.335  1.00  0.00     0.116 C 
BRANCH  20  21
ATOM     21  N   UNL A   1      38.459  20.853  25.803  1.00  0.00    -0.352 N 
ATOM     22  C   UNL A   1      39.679  21.048  26.405  1.00  0.00     0.251 C 
ATOM     23  H   UNL A   1      38.201  19.912  25.669  1.00  0.00     0.163 HD
ATOM     24  O   UNL A   1      40.429  20.095  26.588  1.00  0.00    -0.269 OA
BRANCH  22  25
ATOM     25  C   UNL A   1      40.096  22.408  26.816  1.00  0.00     0.039 A 
ATOM     26  C   UNL A   1      41.021  22.545  27.855  1.00  0.00     0.014 A 
ATOM     27  C   UNL A   1      39.574  23.545  26.192  1.00  0.00     0.014 A 
ATOM     28  C   UNL A   1      41.464  23.817  28.227  1.00  0.00     0.010 A 
ATOM     29  C   UNL A   1      40.071  24.806  26.515  1.00  0.00     0.010 A 
ATOM     30  C   UNL A   1      41.020  24.957  27.538  1.00  0.00    -0.014 A 
BRANCH  30  31
ATOM     31  C   UNL A   1      41.543  26.310  27.866  1.00  0.00     0.031 A 
ATOM     32  C   UNL A   1      42.970  26.671  27.545  1.00  0.00     0.074 A 
ATOM     33  C   UNL A   1      40.752  27.192  28.512  1.00  0.00     0.049 A 
ATOM     34  N   UNL A   1      43.617  27.776  27.811  1.00  0.00    -0.248 NA
ATOM     35  C   UNL A   1      43.784  25.657  26.852  1.00  0.00     0.031 C 
ATOM     36  C   UNL A   1      39.370  26.942  28.928  1.00  0.00     0.029 A 
ATOM     37  N   UNL A   1      41.000  28.470  28.950  1.00  0.00    -0.354 N 
ATOM     38  C   UNL A   1      44.911  27.584  27.343  1.00  0.00     0.074 A 
ATOM     39  C   UNL A   1      44.972  26.243  26.805  1.00  0.00     0.031 C 
ATOM     40  C   UNL A   1      38.890  28.033  29.545  1.00  0.00     0.029 A 
ATOM     41  C   UNL A   1      39.937  29.048  29.607  1.00  0.00     0.049 A 
ATOM     42  H   UNL A   1      41.858  28.932  28.806  1.00  0.00     0.167 HD
ATOM     43  C   UNL A   1      45.945  28.457  27.332  1.00  0.00     0.034 A 
ATOM     44  C   UNL A   1      39.820  30.254  30.199  1.00  0.00     0.034 A 
ATOM     45  C   UNL A   1      45.869  29.805  27.824  1.00  0.00     0.049 A 
ATOM     46  C   UNL A   1      40.988  31.203  30.161  1.00  0.00     0.074 A 
ATOM     47  C   UNL A   1      46.849  30.783  27.796  1.00  0.00     0.029 A 
ATOM     48  N   UNL A   1      44.757  30.371  28.425  1.00  0.00    -0.354 N 
ATOM     49  N   UNL A   1      42.162  31.044  29.600  1.00  0.00    -0.248 NA
ATOM     50  C   UNL A   1      40.808  32.511  30.809  1.00  0.00     0.031 C 
ATOM     51  C   UNL A   1      46.337  31.931  28.402  1.00  0.00     0.029 A 
ATOM     52  C   UNL A   1      45.027  31.681  28.776  1.00  0.00     0.049 A 
ATOM     53  H   UNL A   1      43.901  29.908  28.579  1.00  0.00     0.167 HD
ATOM     54  C   UNL A   1      42.840  32.243  29.788  1.00  0.00     0.074 A 
ATOM     55  C   UNL A   1      41.942  33.126  30.499  1.00  0.00     0.031 C 
ATOM     56  C   UNL A   1      44.101  32.574  29.419  1.00  0.00     0.034 A 
BRANCH  43  57
ATOM     57  C   UNL A   1      47.244  28.027  26.702  1.00  0.00     0.023 A 
ATOM     58  C   UNL A   1      48.247  27.461  27.515  1.00  0.00     0.012 A 
ATOM     59  C   UNL A   1      47.409  28.037  25.302  1.00  0.00     0.148 A 
ATOM     60  C   UNL A   1      49.397  26.916  26.945  1.00  0.00     0.002 A 
ATOM     61  C   UNL A   1      48.536  27.451  24.740  1.00  0.00     0.091 A 
ATOM     62  F   UNL A   1      46.446  28.591  24.552  1.00  0.00    -0.205 F 
ATOM     63  C   UNL A   1      49.533  26.896  25.559  1.00  0.00     0.022 A 
BRANCH  61  64
ATOM     64  S   UNL A   1      48.770  27.290  22.966  1.00  0.00     0.127 S 
ATOM     65  O   UNL A   1      48.252  25.944  22.721  1.00  0.00    -0.237 OA
ATOM     66  O   UNL A   1      47.930  28.370  22.449  1.00  0.00    -0.237 OA
ATOM     67  O   UNL A   1      50.197  27.452  22.728  1.00  0.00    -0.744 OA
ENDBRANCH  61  64
ENDBRANCH  43  57
BRANCH  44  68
ATOM     68  C   UNL A   1      38.528  30.663  30.826  1.00  0.00     0.023 A 
ATOM     69  C   UNL A   1      38.297  30.372  32.185  1.00  0.00     0.012 A 
ATOM     70  C   UNL A   1      37.535  31.341  30.093  1.00  0.00     0.148 A 
ATOM     71  C   UNL A   1      37.088  30.712  32.792  1.00  0.00     0.002 A 
ATOM     72  C   UNL A   1      36.356  31.731  30.720  1.00  0.00     0.091 A 
ATOM     73  F   UNL A   1      37.763  31.597  28.797  1.00  0.00    -0.205 F 
ATOM     74  C   UNL A   1      36.121  31.399  32.063  1.00  0.00     0.022 A 
BRANCH  72  75
ATOM     75  S   UNL A   1      35.117  32.739  29.896  1.00  0.00     0.127 S 
ATOM     76  O   UNL A   1      35.919  33.856  29.405  1.00  0.00    -0.237 OA
ATOM     77  O   UNL A   1      34.626  31.830  28.861  1.00  0.00    -0.237 OA
ATOM     78  O   UNL A   1      34.135  33.066  30.922  1.00  0.00    -0.744 OA
ENDBRANCH  72  75
ENDBRANCH  44  68
BRANCH  56  79
ATOM     79  C   UNL A   1      44.591  33.966  29.723  1.00  0.00     0.023 A 
ATOM     80  C   UNL A   1      45.304  34.213  30.911  1.00  0.00     0.012 A 
ATOM     81  C   UNL A   1      44.452  34.995  28.770  1.00  0.00     0.148 A 
ATOM     82  C   UNL A   1      45.854  35.471  31.158  1.00  0.00     0.002 A 
ATOM     83  C   UNL A   1      45.049  36.230  28.997  1.00  0.00     0.091 A 
ATOM     84  F   UNL A   1      43.757  34.741  27.651  1.00  0.00    -0.205 F 
ATOM     85  C   UNL A   1      45.741  36.471  30.195  1.00  0.00     0.022 A 
BRANCH  83  86
ATOM     86  S   UNL A   1      45.052  37.542  27.771  1.00  0.00     0.127 S 
ATOM     87  O   UNL A   1      43.620  37.763  27.570  1.00  0.00    -0.237 OA
ATOM     88  O   UNL A   1      45.741  38.622  28.477  1.00  0.00    -0.237 OA
ATOM     89  O   UNL A   1      45.767  37.017  26.617  1.00  0.00    -0.744 OA
ENDBRANCH  83  86
ENDBRANCH  56  79
ENDBRANCH  30  31
ENDBRANCH  22  25
ENDBRANCH  20  21
ENDBRANCH  19  20
ENDBRANCH   1  19
TORSDOF 17
ENDMDL
