MODEL 1
REMARK VINA RESULT:     -11.8      0.000      0.000
REMARK SMILES C[C@@H]1CCC[C@H]1NC(=O)c1csc(/C=C/C(=O)NCCCCCCNC(=O)c2ccc(-c3c4nc(c(-c5cccc(S(=O)(=O)[O-])c5F)c5ccc([nH]5)c(-c5cccc(S(=O)(=O)[O-])c5F)c5nc(c(-c6cccc(S(=O)(=O)[O-])c6F)c6ccc3[nH]6)C=C5)C=C4)cc2)c1
REMARK SMILES IDX 21 1 20 2 19 3 18 4 16 5 17 6 15 8 14 9 13 10 10 11 11 12
REMARK SMILES IDX 91 13 12 14 8 15 7 16 9 18 6 19 1 20 2 21 3 22 4 23 5 24
REMARK SMILES IDX 22 25 23 26 24 27 25 28 26 29 27 31 28 32 29 33 90 34 30 35
REMARK SMILES IDX 89 36 31 37 32 38 33 39 83 40 34 41 88 42 82 43 84 44 35 45
REMARK SMILES IDX 87 46 81 47 80 48 36 50 68 51 48 52 67 53 49 54 52 55 66 56
REMARK SMILES IDX 85 57 50 58 51 59 65 61 86 62 53 63 37 64 38 65 46 66 39 67
REMARK SMILES IDX 41 68 47 69 40 70 42 71 43 72 44 73 45 74 69 75 70 76 78 77
REMARK SMILES IDX 71 78 73 79 79 80 72 81 74 82 75 83 76 84 77 85 54 86 55 87
REMARK SMILES IDX 63 88 56 89 58 90 64 91 57 92 59 93 60 94 61 95 62 96
REMARK H PARENT 18 7 7 17 25 30 84 49 52 60
REMARK Flexibility Score: inf
ROOT
ATOM      1  C   UNL A   1      31.124  27.868  24.987  1.00  0.00     0.002 C 
ENDROOT
BRANCH   1   2
ATOM      2  C   UNL A   1      31.219  28.053  23.467  1.00  0.00     0.021 C 
BRANCH   2   3
ATOM      3  C   UNL A   1      32.654  28.011  22.942  1.00  0.00     0.116 C 
BRANCH   3   4
ATOM      4  N   UNL A   1      32.707  27.277  21.689  1.00  0.00    -0.353 N 
ATOM      5  C   UNL A   1      33.070  25.997  21.413  1.00  0.00     0.244 C 
ATOM      6  O   UNL A   1      32.984  25.574  20.261  1.00  0.00    -0.270 OA
ATOM      7  H   UNL A   1      32.432  27.800  20.900  1.00  0.00     0.163 HD
BRANCH   5   8
ATOM      8  C   UNL A   1      33.458  25.070  22.496  1.00  0.00     0.072 C 
ATOM      9  C   UNL A   1      32.599  24.275  23.147  1.00  0.00     0.024 C 
BRANCH   9  10
ATOM     10  C   UNL A   1      33.016  23.321  24.119  1.00  0.00     0.028 A 
ATOM     11  C   UNL A   1      34.174  21.511  25.098  1.00  0.00     0.051 A 
ATOM     12  C   UNL A   1      33.311  21.878  26.112  1.00  0.00     0.079 A 
ATOM     13  C   UNL A   1      34.030  22.390  23.975  1.00  0.00     0.033 A 
ATOM     14  S   UNL A   1      32.276  23.160  25.663  1.00  0.00    -0.144 S 
BRANCH  11  15
ATOM     15  C   UNL A   1      35.146  20.431  25.168  1.00  0.00     0.252 C 
ATOM     16  N   UNL A   1      34.739  19.150  24.892  1.00  0.00    -0.349 N 
ATOM     17  H   UNL A   1      35.427  18.457  25.013  1.00  0.00     0.164 HD
ATOM     18  O   UNL A   1      36.327  20.645  25.417  1.00  0.00    -0.269 OA
BRANCH  16  19
ATOM     19  C   UNL A   1      33.438  18.663  24.445  1.00  0.00     0.085 C 
ATOM     20  C   UNL A   1      32.196  17.951  22.357  1.00  0.00     0.010 C 
ATOM     21  C   UNL A   1      33.539  17.947  23.091  1.00  0.00     0.008 C 
ATOM     22  C   UNL A   1      33.972  16.532  23.475  1.00  0.00     0.005 C 
ATOM     23  C   UNL A   1      33.285  16.244  24.806  1.00  0.00     0.002 C 
ATOM     24  C   UNL A   1      32.917  17.599  25.414  1.00  0.00     0.025 C 
ENDBRANCH  16  19
ENDBRANCH  11  15
ENDBRANCH   9  10
ENDBRANCH   5   8
ENDBRANCH   3   4
ENDBRANCH   2   3
ENDBRANCH   1   2
BRANCH   1  25
ATOM     25  C   UNL A   1      32.289  27.093  25.615  1.00  0.00     0.002 C 
BRANCH  25  26
ATOM     26  C   UNL A   1      33.082  27.865  26.672  1.00  0.00     0.021 C 
BRANCH  26  27
ATOM     27  C   UNL A   1      34.007  28.935  26.104  1.00  0.00     0.116 C 
BRANCH  27  28
ATOM     28  N   UNL A   1      33.786  30.224  26.739  1.00  0.00    -0.352 N 
ATOM     29  C   UNL A   1      34.484  30.818  27.759  1.00  0.00     0.251 C 
ATOM     30  H   UNL A   1      33.029  30.744  26.387  1.00  0.00     0.163 HD
ATOM     31  O   UNL A   1      34.013  31.800  28.326  1.00  0.00    -0.269 OA
BRANCH  29  32
ATOM     32  C   UNL A   1      35.798  30.279  28.173  1.00  0.00     0.039 A 
ATOM     33  C   UNL A   1      35.902  29.621  29.401  1.00  0.00     0.014 A 
ATOM     34  C   UNL A   1      36.933  30.465  27.378  1.00  0.00     0.014 A 
ATOM     35  C   UNL A   1      37.142  29.135  29.822  1.00  0.00     0.010 A 
ATOM     36  C   UNL A   1      38.149  29.910  27.761  1.00  0.00     0.010 A 
ATOM     37  C   UNL A   1      38.275  29.271  29.003  1.00  0.00    -0.014 A 
BRANCH  37  38
ATOM     38  C   UNL A   1      39.608  28.800  29.456  1.00  0.00     0.031 A 
ATOM     39  C   UNL A   1      40.321  29.518  30.573  1.00  0.00     0.074 A 
ATOM     40  C   UNL A   1      40.200  27.763  28.833  1.00  0.00     0.049 A 
ATOM     41  N   UNL A   1      41.493  29.272  31.097  1.00  0.00    -0.248 NA
ATOM     42  C   UNL A   1      39.640  30.687  31.157  1.00  0.00     0.031 C 
ATOM     43  C   UNL A   1      39.647  27.034  27.689  1.00  0.00     0.029 A 
ATOM     44  N   UNL A   1      41.406  27.153  29.063  1.00  0.00    -0.354 N 
ATOM     45  C   UNL A   1      41.706  30.269  32.042  1.00  0.00     0.074 A 
ATOM     46  C   UNL A   1      40.561  31.151  31.988  1.00  0.00     0.031 C 
ATOM     47  C   UNL A   1      40.508  26.069  27.325  1.00  0.00     0.029 A 
ATOM     48  C   UNL A   1      41.679  26.123  28.193  1.00  0.00     0.049 A 
ATOM     49  H   UNL A   1      42.020  27.426  29.784  1.00  0.00     0.167 HD
ATOM     50  C   UNL A   1      42.740  30.420  32.903  1.00  0.00     0.034 A 
ATOM     51  C   UNL A   1      42.754  25.315  28.108  1.00  0.00     0.034 A 
ATOM     52  C   UNL A   1      43.852  29.513  32.987  1.00  0.00     0.049 A 
ATOM     53  C   UNL A   1      43.862  25.467  29.115  1.00  0.00     0.074 A 
ATOM     54  C   UNL A   1      44.912  29.530  33.875  1.00  0.00     0.029 A 
ATOM     55  N   UNL A   1      44.049  28.427  32.149  1.00  0.00    -0.354 N 
ATOM     56  N   UNL A   1      43.972  26.325  30.101  1.00  0.00    -0.248 NA
ATOM     57  C   UNL A   1      44.973  24.509  29.026  1.00  0.00     0.031 C 
ATOM     58  C   UNL A   1      45.762  28.462  33.562  1.00  0.00     0.029 A 
ATOM     59  C   UNL A   1      45.212  27.764  32.499  1.00  0.00     0.049 A 
ATOM     60  H   UNL A   1      43.448  28.164  31.414  1.00  0.00     0.167 HD
ATOM     61  C   UNL A   1      45.140  25.984  30.775  1.00  0.00     0.074 A 
ATOM     62  C   UNL A   1      45.687  24.827  30.097  1.00  0.00     0.031 C 
ATOM     63  C   UNL A   1      45.715  26.581  31.848  1.00  0.00     0.034 A 
BRANCH  50  64
ATOM     64  C   UNL A   1      42.686  31.584  33.862  1.00  0.00     0.023 A 
ATOM     65  C   UNL A   1      43.095  32.863  33.428  1.00  0.00     0.012 A 
ATOM     66  C   UNL A   1      42.193  31.425  35.171  1.00  0.00     0.148 A 
ATOM     67  C   UNL A   1      43.053  33.955  34.294  1.00  0.00     0.002 A 
ATOM     68  C   UNL A   1      42.108  32.529  36.013  1.00  0.00     0.091 A 
ATOM     69  F   UNL A   1      41.828  30.200  35.574  1.00  0.00    -0.205 F 
ATOM     70  C   UNL A   1      42.551  33.791  35.581  1.00  0.00     0.022 A 
BRANCH  68  71
ATOM     71  S   UNL A   1      41.400  32.440  37.662  1.00  0.00     0.127 S 
ATOM     72  O   UNL A   1      40.041  31.983  37.375  1.00  0.00    -0.237 OA
ATOM     73  O   UNL A   1      42.255  31.444  38.309  1.00  0.00    -0.237 OA
ATOM     74  O   UNL A   1      41.504  33.782  38.217  1.00  0.00    -0.744 OA
ENDBRANCH  68  71
ENDBRANCH  50  64
BRANCH  51  75
ATOM     75  C   UNL A   1      42.796  24.233  27.084  1.00  0.00     0.023 A 
ATOM     76  C   UNL A   1      43.506  24.444  25.884  1.00  0.00     0.012 A 
ATOM     77  C   UNL A   1      42.154  22.998  27.293  1.00  0.00     0.148 A 
ATOM     78  C   UNL A   1      43.541  23.460  24.895  1.00  0.00     0.002 A 
ATOM     79  C   UNL A   1      42.239  22.002  26.327  1.00  0.00     0.091 A 
ATOM     80  F   UNL A   1      41.477  22.820  28.436  1.00  0.00    -0.205 F 
ATOM     81  C   UNL A   1      42.915  22.237  25.120  1.00  0.00     0.022 A 
BRANCH  79  82
ATOM     82  S   UNL A   1      41.574  20.353  26.582  1.00  0.00     0.127 S 
ATOM     83  O   UNL A   1      40.138  20.615  26.640  1.00  0.00    -0.237 OA
ATOM     84  O   UNL A   1      42.026  19.656  25.378  1.00  0.00    -0.237 OA
ATOM     85  O   UNL A   1      42.180  19.872  27.816  1.00  0.00    -0.744 OA
ENDBRANCH  79  82
ENDBRANCH  51  75
BRANCH  63  86
ATOM     86  C   UNL A   1      46.980  25.965  32.389  1.00  0.00     0.023 A 
ATOM     87  C   UNL A   1      48.234  26.382  31.900  1.00  0.00     0.012 A 
ATOM     88  C   UNL A   1      46.925  25.006  33.420  1.00  0.00     0.148 A 
ATOM     89  C   UNL A   1      49.410  25.818  32.393  1.00  0.00     0.002 A 
ATOM     90  C   UNL A   1      48.103  24.487  33.943  1.00  0.00     0.091 A 
ATOM     91  F   UNL A   1      45.723  24.605  33.860  1.00  0.00    -0.205 F 
ATOM     92  C   UNL A   1      49.346  24.880  33.421  1.00  0.00     0.022 A 
BRANCH  90  93
ATOM     93  S   UNL A   1      48.113  23.353  35.336  1.00  0.00     0.127 S 
ATOM     94  O   UNL A   1      49.542  23.092  35.498  1.00  0.00    -0.237 OA
ATOM     95  O   UNL A   1      47.515  24.159  36.401  1.00  0.00    -0.237 OA
ATOM     96  O   UNL A   1      47.307  22.211  34.924  1.00  0.00    -0.744 OA
ENDBRANCH  90  93
ENDBRANCH  63  86
ENDBRANCH  37  38
ENDBRANCH  29  32
ENDBRANCH  27  28
ENDBRANCH  26  27
ENDBRANCH  25  26
ENDBRANCH   1  25
TORSDOF 19
ENDMDL
MODEL 2
REMARK VINA RESULT:     -11.5      2.011      2.671
REMARK SMILES C[C@@H]1CCC[C@H]1NC(=O)c1csc(/C=C/C(=O)NCCCCCCNC(=O)c2ccc(-c3c4nc(c(-c5cccc(S(=O)(=O)[O-])c5F)c5ccc([nH]5)c(-c5cccc(S(=O)(=O)[O-])c5F)c5nc(c(-c6cccc(S(=O)(=O)[O-])c6F)c6ccc3[nH]6)C=C5)C=C4)cc2)c1
REMARK SMILES IDX 21 1 20 2 19 3 18 4 16 5 17 6 15 8 14 9 13 10 10 11 11 12
REMARK SMILES IDX 91 13 12 14 8 15 7 16 9 18 6 19 1 20 2 21 3 22 4 23 5 24
REMARK SMILES IDX 22 25 23 26 24 27 25 28 26 29 27 31 28 32 29 33 90 34 30 35
REMARK SMILES IDX 89 36 31 37 32 38 33 39 83 40 34 41 88 42 82 43 84 44 35 45
REMARK SMILES IDX 87 46 81 47 80 48 36 50 68 51 48 52 67 53 49 54 52 55 66 56
REMARK SMILES IDX 85 57 50 58 51 59 65 61 86 62 53 63 37 64 38 65 46 66 39 67
REMARK SMILES IDX 41 68 47 69 40 70 42 71 43 72 44 73 45 74 69 75 70 76 78 77
REMARK SMILES IDX 71 78 73 79 79 80 72 81 74 82 75 83 76 84 77 85 54 86 55 87
REMARK SMILES IDX 63 88 56 89 58 90 64 91 57 92 59 93 60 94 61 95 62 96
REMARK H PARENT 18 7 7 17 25 30 84 49 52 60
REMARK Flexibility Score: inf
ROOT
ATOM      1  C   UNL A   1      32.667  27.424  24.529  1.00  0.00     0.002 C 
ENDROOT
BRANCH   1   2
ATOM      2  C   UNL A   1      31.991  27.741  23.189  1.00  0.00     0.021 C 
BRANCH   2   3
ATOM      3  C   UNL A   1      31.262  26.542  22.581  1.00  0.00     0.116 C 
BRANCH   3   4
ATOM      4  N   UNL A   1      31.852  26.195  21.299  1.00  0.00    -0.353 N 
ATOM      5  C   UNL A   1      32.715  25.207  20.947  1.00  0.00     0.244 C 
ATOM      6  O   UNL A   1      33.043  25.075  19.768  1.00  0.00    -0.270 OA
ATOM      7  H   UNL A   1      31.578  26.779  20.555  1.00  0.00     0.163 HD
BRANCH   5   8
ATOM      8  C   UNL A   1      33.179  24.217  21.941  1.00  0.00     0.072 C 
ATOM      9  C   UNL A   1      33.868  24.530  23.046  1.00  0.00     0.024 C 
BRANCH   9  10
ATOM     10  C   UNL A   1      34.216  23.567  24.036  1.00  0.00     0.028 A 
ATOM     11  C   UNL A   1      35.088  21.601  25.010  1.00  0.00     0.051 A 
ATOM     12  C   UNL A   1      34.506  22.222  26.097  1.00  0.00     0.079 A 
ATOM     13  C   UNL A   1      34.961  22.417  23.839  1.00  0.00     0.033 A 
ATOM     14  S   UNL A   1      33.722  23.680  25.679  1.00  0.00    -0.144 S 
BRANCH  11  15
ATOM     15  C   UNL A   1      35.794  20.329  25.043  1.00  0.00     0.252 C 
ATOM     16  N   UNL A   1      35.096  19.173  24.802  1.00  0.00    -0.349 N 
ATOM     17  H   UNL A   1      35.616  18.342  24.897  1.00  0.00     0.164 HD
ATOM     18  O   UNL A   1      37.004  20.271  25.232  1.00  0.00    -0.269 OA
BRANCH  16  19
ATOM     19  C   UNL A   1      33.698  18.992  24.425  1.00  0.00     0.085 C 
ATOM     20  C   UNL A   1      32.248  18.027  22.587  1.00  0.00     0.010 C 
ATOM     21  C   UNL A   1      33.533  17.860  23.402  1.00  0.00     0.008 C 
ATOM     22  C   UNL A   1      33.493  16.604  24.272  1.00  0.00     0.005 C 
ATOM     23  C   UNL A   1      32.779  17.022  25.555  1.00  0.00     0.002 C 
ATOM     24  C   UNL A   1      32.883  18.545  25.640  1.00  0.00     0.025 C 
ENDBRANCH  16  19
ENDBRANCH  11  15
ENDBRANCH   9  10
ENDBRANCH   5   8
ENDBRANCH   3   4
ENDBRANCH   2   3
ENDBRANCH   1   2
BRANCH   1  25
ATOM     25  C   UNL A   1      31.767  27.594  25.759  1.00  0.00     0.002 C 
BRANCH  25  26
ATOM     26  C   UNL A   1      32.036  28.855  26.585  1.00  0.00     0.021 C 
BRANCH  26  27
ATOM     27  C   UNL A   1      33.069  29.795  25.976  1.00  0.00     0.116 C 
BRANCH  27  28
ATOM     28  N   UNL A   1      32.821  31.178  26.352  1.00  0.00    -0.352 N 
ATOM     29  C   UNL A   1      33.417  31.930  27.331  1.00  0.00     0.251 C 
ATOM     30  H   UNL A   1      32.126  31.639  25.829  1.00  0.00     0.163 HD
ATOM     31  O   UNL A   1      32.917  33.002  27.662  1.00  0.00    -0.269 OA
BRANCH  29  32
ATOM     32  C   UNL A   1      34.656  31.453  27.982  1.00  0.00     0.039 A 
ATOM     33  C   UNL A   1      34.671  30.180  28.557  1.00  0.00     0.014 A 
ATOM     34  C   UNL A   1      35.783  32.276  28.071  1.00  0.00     0.014 A 
ATOM     35  C   UNL A   1      35.821  29.727  29.206  1.00  0.00     0.010 A 
ATOM     36  C   UNL A   1      36.954  31.792  28.645  1.00  0.00     0.010 A 
ATOM     37  C   UNL A   1      36.974  30.527  29.251  1.00  0.00    -0.014 A 
BRANCH  37  38
ATOM     38  C   UNL A   1      38.191  30.078  29.974  1.00  0.00     0.031 A 
ATOM     39  C   UNL A   1      38.474  30.593  31.362  1.00  0.00     0.074 A 
ATOM     40  C   UNL A   1      39.065  29.252  29.369  1.00  0.00     0.049 A 
ATOM     41  N   UNL A   1      39.486  30.335  32.149  1.00  0.00    -0.248 NA
ATOM     42  C   UNL A   1      37.507  31.549  31.930  1.00  0.00     0.031 C 
ATOM     43  C   UNL A   1      38.943  28.745  28.000  1.00  0.00     0.029 A 
ATOM     44  N   UNL A   1      40.239  28.706  29.821  1.00  0.00    -0.354 N 
ATOM     45  C   UNL A   1      39.299  31.118  33.282  1.00  0.00     0.074 A 
ATOM     46  C   UNL A   1      38.100  31.895  33.063  1.00  0.00     0.031 C 
ATOM     47  C   UNL A   1      39.995  27.955  27.729  1.00  0.00     0.029 A 
ATOM     48  C   UNL A   1      40.873  27.914  28.893  1.00  0.00     0.049 A 
ATOM     49  H   UNL A   1      40.594  28.865  30.727  1.00  0.00     0.167 HD
ATOM     50  C   UNL A   1      40.035  31.162  34.418  1.00  0.00     0.034 A 
ATOM     51  C   UNL A   1      42.032  27.233  28.975  1.00  0.00     0.034 A 
ATOM     52  C   UNL A   1      41.199  30.351  34.650  1.00  0.00     0.049 A 
ATOM     53  C   UNL A   1      42.800  27.252  30.269  1.00  0.00     0.074 A 
ATOM     54  C   UNL A   1      41.971  30.261  35.794  1.00  0.00     0.029 A 
ATOM     55  N   UNL A   1      41.760  29.491  33.720  1.00  0.00    -0.354 N 
ATOM     56  N   UNL A   1      42.524  27.883  31.386  1.00  0.00    -0.248 NA
ATOM     57  C   UNL A   1      44.016  26.429  30.330  1.00  0.00     0.031 C 
ATOM     58  C   UNL A   1      43.012  29.358  35.549  1.00  0.00     0.029 A 
ATOM     59  C   UNL A   1      42.868  28.864  34.262  1.00  0.00     0.049 A 
ATOM     60  H   UNL A   1      41.419  29.346  32.807  1.00  0.00     0.167 HD
ATOM     61  C   UNL A   1      43.505  27.499  32.293  1.00  0.00     0.074 A 
ATOM     62  C   UNL A   1      44.368  26.564  31.601  1.00  0.00     0.031 C 
ATOM     63  C   UNL A   1      43.685  27.894  33.578  1.00  0.00     0.034 A 
BRANCH  50  64
ATOM     64  C   UNL A   1      39.567  32.083  35.518  1.00  0.00     0.023 A 
ATOM     65  C   UNL A   1      38.701  31.589  36.516  1.00  0.00     0.012 A 
ATOM     66  C   UNL A   1      40.016  33.415  35.591  1.00  0.00     0.148 A 
ATOM     67  C   UNL A   1      38.256  32.418  37.546  1.00  0.00     0.002 A 
ATOM     68  C   UNL A   1      39.607  34.222  36.648  1.00  0.00     0.091 A 
ATOM     69  F   UNL A   1      40.822  33.873  34.623  1.00  0.00    -0.205 F 
ATOM     70  C   UNL A   1      38.717  33.730  37.617  1.00  0.00     0.022 A 
BRANCH  68  71
ATOM     71  S   UNL A   1      40.206  35.900  36.876  1.00  0.00     0.127 S 
ATOM     72  O   UNL A   1      39.696  36.562  35.676  1.00  0.00    -0.237 OA
ATOM     73  O   UNL A   1      39.544  36.295  38.120  1.00  0.00    -0.237 OA
ATOM     74  O   UNL A   1      41.657  35.801  36.965  1.00  0.00    -0.744 OA
ENDBRANCH  68  71
ENDBRANCH  50  64
BRANCH  51  75
ATOM     75  C   UNL A   1      42.496  26.405  27.825  1.00  0.00     0.023 A 
ATOM     76  C   UNL A   1      43.392  26.960  26.890  1.00  0.00     0.012 A 
ATOM     77  C   UNL A   1      42.068  25.074  27.658  1.00  0.00     0.148 A 
ATOM     78  C   UNL A   1      43.823  26.219  25.788  1.00  0.00     0.002 A 
ATOM     79  C   UNL A   1      42.543  24.324  26.589  1.00  0.00     0.091 A 
ATOM     80  F   UNL A   1      41.208  24.567  28.553  1.00  0.00    -0.205 F 
ATOM     81  C   UNL A   1      43.405  24.900  25.643  1.00  0.00     0.022 A 
BRANCH  79  82
ATOM     82  S   UNL A   1      42.161  22.580  26.391  1.00  0.00     0.127 S 
ATOM     83  O   UNL A   1      42.723  22.010  27.613  1.00  0.00    -0.237 OA
ATOM     84  O   UNL A   1      40.700  22.596  26.334  1.00  0.00    -0.237 OA
ATOM     85  O   UNL A   1      42.806  22.175  25.150  1.00  0.00    -0.744 OA
ENDBRANCH  79  82
ENDBRANCH  51  75
BRANCH  63  86
ATOM     86  C   UNL A   1      44.832  27.280  34.339  1.00  0.00     0.023 A 
ATOM     87  C   UNL A   1      46.109  27.874  34.292  1.00  0.00     0.012 A 
ATOM     88  C   UNL A   1      44.631  26.139  35.140  1.00  0.00     0.148 A 
ATOM     89  C   UNL A   1      47.178  27.314  34.990  1.00  0.00     0.002 A 
ATOM     90  C   UNL A   1      45.688  25.617  35.875  1.00  0.00     0.091 A 
ATOM     91  F   UNL A   1      43.414  25.574  35.157  1.00  0.00    -0.205 F 
ATOM     92  C   UNL A   1      46.965  26.193  35.790  1.00  0.00     0.022 A 
BRANCH  90  93
ATOM     93  S   UNL A   1      45.475  24.239  37.009  1.00  0.00     0.127 S 
ATOM     94  O   UNL A   1      45.017  23.181  36.109  1.00  0.00    -0.237 OA
ATOM     95  O   UNL A   1      46.830  24.052  37.531  1.00  0.00    -0.237 OA
ATOM     96  O   UNL A   1      44.506  24.686  38.000  1.00  0.00    -0.744 OA
ENDBRANCH  90  93
ENDBRANCH  63  86
ENDBRANCH  37  38
ENDBRANCH  29  32
ENDBRANCH  27  28
ENDBRANCH  26  27
ENDBRANCH  25  26
ENDBRANCH   1  25
TORSDOF 19
ENDMDL
MODEL 3
REMARK VINA RESULT:     -11.5      5.054     10.348
REMARK SMILES C[C@@H]1CCC[C@H]1NC(=O)c1csc(/C=C/C(=O)NCCCCCCNC(=O)c2ccc(-c3c4nc(c(-c5cccc(S(=O)(=O)[O-])c5F)c5ccc([nH]5)c(-c5cccc(S(=O)(=O)[O-])c5F)c5nc(c(-c6cccc(S(=O)(=O)[O-])c6F)c6ccc3[nH]6)C=C5)C=C4)cc2)c1
REMARK SMILES IDX 21 1 20 2 19 3 18 4 16 5 17 6 15 8 14 9 13 10 10 11 11 12
REMARK SMILES IDX 91 13 12 14 8 15 7 16 9 18 6 19 1 20 2 21 3 22 4 23 5 24
REMARK SMILES IDX 22 25 23 26 24 27 25 28 26 29 27 31 28 32 29 33 90 34 30 35
REMARK SMILES IDX 89 36 31 37 32 38 33 39 83 40 34 41 88 42 82 43 84 44 35 45
REMARK SMILES IDX 87 46 81 47 80 48 36 50 68 51 48 52 67 53 49 54 52 55 66 56
REMARK SMILES IDX 85 57 50 58 51 59 65 61 86 62 53 63 37 64 38 65 46 66 39 67
REMARK SMILES IDX 41 68 47 69 40 70 42 71 43 72 44 73 45 74 69 75 70 76 78 77
REMARK SMILES IDX 71 78 73 79 79 80 72 81 74 82 75 83 76 84 77 85 54 86 55 87
REMARK SMILES IDX 63 88 56 89 58 90 64 91 57 92 59 93 60 94 61 95 62 96
REMARK H PARENT 18 7 7 17 25 30 84 49 52 60
REMARK Flexibility Score: inf
ROOT
ATOM      1  C   UNL A   1      34.037  20.158  25.062  1.00  0.00     0.002 C 
ENDROOT
BRANCH   1   2
ATOM      2  C   UNL A   1      33.268  21.116  25.981  1.00  0.00     0.021 C 
BRANCH   2   3
ATOM      3  C   UNL A   1      32.007  21.692  25.336  1.00  0.00     0.116 C 
BRANCH   3   4
ATOM      4  N   UNL A   1      30.985  21.913  26.345  1.00  0.00    -0.353 N 
ATOM      5  C   UNL A   1      30.360  23.047  26.755  1.00  0.00     0.244 C 
ATOM      6  O   UNL A   1      29.474  22.981  27.606  1.00  0.00    -0.270 OA
ATOM      7  H   UNL A   1      30.695  21.097  26.815  1.00  0.00     0.163 HD
BRANCH   5   8
ATOM      8  C   UNL A   1      30.648  24.345  26.110  1.00  0.00     0.072 C 
ATOM      9  C   UNL A   1      31.625  25.175  26.500  1.00  0.00     0.024 C 
BRANCH   9  10
ATOM     10  C   UNL A   1      31.943  26.374  25.799  1.00  0.00     0.028 A 
ATOM     11  C   UNL A   1      31.861  28.631  25.111  1.00  0.00     0.051 A 
ATOM     12  C   UNL A   1      32.829  28.114  24.273  1.00  0.00     0.079 A 
ATOM     13  C   UNL A   1      31.400  27.627  26.024  1.00  0.00     0.033 A 
ATOM     14  S   UNL A   1      33.071  26.440  24.503  1.00  0.00    -0.144 S 
BRANCH  11  15
ATOM     15  C   UNL A   1      31.408  30.014  25.124  1.00  0.00     0.252 C 
ATOM     16  N   UNL A   1      30.381  30.387  24.296  1.00  0.00    -0.349 N 
ATOM     17  H   UNL A   1      30.161  31.346  24.308  1.00  0.00     0.164 HD
ATOM     18  O   UNL A   1      31.889  30.839  25.894  1.00  0.00    -0.269 OA
BRANCH  16  19
ATOM     19  C   UNL A   1      29.566  29.573  23.400  1.00  0.00     0.085 C 
ATOM     20  C   UNL A   1      27.170  28.869  22.987  1.00  0.00     0.010 C 
ATOM     21  C   UNL A   1      28.095  30.007  23.426  1.00  0.00     0.008 C 
ATOM     22  C   UNL A   1      28.057  31.179  22.446  1.00  0.00     0.005 C 
ATOM     23  C   UNL A   1      29.066  30.830  21.357  1.00  0.00     0.002 C 
ATOM     24  C   UNL A   1      30.011  29.785  21.951  1.00  0.00     0.025 C 
ENDBRANCH  16  19
ENDBRANCH  11  15
ENDBRANCH   9  10
ENDBRANCH   5   8
ENDBRANCH   3   4
ENDBRANCH   2   3
ENDBRANCH   1   2
BRANCH   1  25
ATOM     25  C   UNL A   1      35.507  20.530  24.832  1.00  0.00     0.002 C 
BRANCH  25  26
ATOM     26  C   UNL A   1      35.766  22.019  24.590  1.00  0.00     0.021 C 
BRANCH  26  27
ATOM     27  C   UNL A   1      37.049  22.543  25.224  1.00  0.00     0.116 C 
BRANCH  27  28
ATOM     28  N   UNL A   1      37.880  21.458  25.722  1.00  0.00    -0.352 N 
ATOM     29  C   UNL A   1      39.150  21.505  26.237  1.00  0.00     0.251 C 
ATOM     30  H   UNL A   1      37.472  20.563  25.685  1.00  0.00     0.163 HD
ATOM     31  O   UNL A   1      39.784  20.464  26.387  1.00  0.00    -0.269 OA
BRANCH  29  32
ATOM     32  C   UNL A   1      39.752  22.804  26.610  1.00  0.00     0.039 A 
ATOM     33  C   UNL A   1      40.642  22.852  27.686  1.00  0.00     0.014 A 
ATOM     34  C   UNL A   1      39.403  23.978  25.936  1.00  0.00     0.014 A 
ATOM     35  C   UNL A   1      41.193  24.075  28.074  1.00  0.00     0.010 A 
ATOM     36  C   UNL A   1      40.015  25.180  26.271  1.00  0.00     0.010 A 
ATOM     37  C   UNL A   1      40.889  25.248  27.366  1.00  0.00    -0.014 A 
BRANCH  37  38
ATOM     38  C   UNL A   1      41.432  26.563  27.792  1.00  0.00     0.031 A 
ATOM     39  C   UNL A   1      42.864  26.920  27.489  1.00  0.00     0.074 A 
ATOM     40  C   UNL A   1      40.658  27.412  28.494  1.00  0.00     0.049 A 
ATOM     41  N   UNL A   1      43.527  28.006  27.792  1.00  0.00    -0.248 NA
ATOM     42  C   UNL A   1      43.668  25.910  26.780  1.00  0.00     0.031 C 
ATOM     43  C   UNL A   1      39.280  27.151  28.918  1.00  0.00     0.029 A 
ATOM     44  N   UNL A   1      40.926  28.662  28.992  1.00  0.00    -0.354 N 
ATOM     45  C   UNL A   1      44.826  27.798  27.344  1.00  0.00     0.074 A 
ATOM     46  C   UNL A   1      44.872  26.464  26.790  1.00  0.00     0.031 C 
ATOM     47  C   UNL A   1      38.821  28.212  29.602  1.00  0.00     0.029 A 
ATOM     48  C   UNL A   1      39.875  29.218  29.683  1.00  0.00     0.049 A 
ATOM     49  H   UNL A   1      41.789  29.119  28.865  1.00  0.00     0.167 HD
ATOM     50  C   UNL A   1      45.879  28.650  27.358  1.00  0.00     0.034 A 
ATOM     51  C   UNL A   1      39.774  30.406  30.309  1.00  0.00     0.034 A 
ATOM     52  C   UNL A   1      45.815  29.993  27.866  1.00  0.00     0.049 A 
ATOM     53  C   UNL A   1      40.939  31.358  30.259  1.00  0.00     0.074 A 
ATOM     54  C   UNL A   1      46.800  30.965  27.857  1.00  0.00     0.029 A 
ATOM     55  N   UNL A   1      44.705  30.555  28.476  1.00  0.00    -0.354 N 
ATOM     56  N   UNL A   1      42.114  31.199  29.696  1.00  0.00    -0.248 NA
ATOM     57  C   UNL A   1      40.749  32.671  30.891  1.00  0.00     0.031 C 
ATOM     58  C   UNL A   1      46.289  32.110  28.480  1.00  0.00     0.029 A 
ATOM     59  C   UNL A   1      44.977  31.860  28.848  1.00  0.00     0.049 A 
ATOM     60  H   UNL A   1      43.847  30.093  28.623  1.00  0.00     0.167 HD
ATOM     61  C   UNL A   1      42.785  32.405  29.868  1.00  0.00     0.074 A 
ATOM     62  C   UNL A   1      41.876  33.290  30.567  1.00  0.00     0.031 C 
ATOM     63  C   UNL A   1      44.043  32.746  29.495  1.00  0.00     0.034 A 
BRANCH  50  64
ATOM     64  C   UNL A   1      47.175  28.169  26.756  1.00  0.00     0.023 A 
ATOM     65  C   UNL A   1      48.227  27.760  27.604  1.00  0.00     0.012 A 
ATOM     66  C   UNL A   1      47.340  28.077  25.361  1.00  0.00     0.148 A 
ATOM     67  C   UNL A   1      49.435  27.309  27.073  1.00  0.00     0.002 A 
ATOM     68  C   UNL A   1      48.529  27.580  24.839  1.00  0.00     0.091 A 
ATOM     69  F   UNL A   1      46.339  28.489  24.570  1.00  0.00    -0.205 F 
ATOM     70  C   UNL A   1      49.582  27.209  25.693  1.00  0.00     0.022 A 
BRANCH  68  71
ATOM     71  S   UNL A   1      48.790  27.335  23.079  1.00  0.00     0.127 S 
ATOM     72  O   UNL A   1      50.215  27.634  22.947  1.00  0.00    -0.237 OA
ATOM     73  O   UNL A   1      48.445  25.923  22.911  1.00  0.00    -0.237 OA
ATOM     74  O   UNL A   1      47.892  28.264  22.406  1.00  0.00    -0.744 OA
ENDBRANCH  68  71
ENDBRANCH  50  64
BRANCH  51  75
ATOM     75  C   UNL A   1      38.496  30.799  30.966  1.00  0.00     0.023 A 
ATOM     76  C   UNL A   1      38.292  30.490  32.326  1.00  0.00     0.012 A 
ATOM     77  C   UNL A   1      37.489  31.487  30.262  1.00  0.00     0.148 A 
ATOM     78  C   UNL A   1      37.095  30.821  32.961  1.00  0.00     0.002 A 
ATOM     79  C   UNL A   1      36.321  31.862  30.915  1.00  0.00     0.091 A 
ATOM     80  F   UNL A   1      37.697  31.764  28.967  1.00  0.00    -0.205 F 
ATOM     81  C   UNL A   1      36.113  31.514  32.259  1.00  0.00     0.022 A 
BRANCH  79  82
ATOM     82  S   UNL A   1      35.057  32.867  30.128  1.00  0.00     0.127 S 
ATOM     83  O   UNL A   1      34.547  31.958  29.105  1.00  0.00    -0.237 OA
ATOM     84  O   UNL A   1      34.140  33.123  31.238  1.00  0.00    -0.237 OA
ATOM     85  O   UNL A   1      35.748  34.051  29.635  1.00  0.00    -0.744 OA
ENDBRANCH  79  82
ENDBRANCH  51  75
BRANCH  63  86
ATOM     86  C   UNL A   1      44.498  34.152  29.789  1.00  0.00     0.023 A 
ATOM     87  C   UNL A   1      45.202  34.432  30.978  1.00  0.00     0.012 A 
ATOM     88  C   UNL A   1      44.268  35.188  28.863  1.00  0.00     0.148 A 
ATOM     89  C   UNL A   1      45.626  35.729  31.262  1.00  0.00     0.002 A 
ATOM     90  C   UNL A   1      44.740  36.468  29.128  1.00  0.00     0.091 A 
ATOM     91  F   UNL A   1      43.579  34.909  27.747  1.00  0.00    -0.205 F 
ATOM     92  C   UNL A   1      45.406  36.744  30.333  1.00  0.00     0.022 A 
BRANCH  90  93
ATOM     93  S   UNL A   1      44.589  37.808  27.941  1.00  0.00     0.127 S 
ATOM     94  O   UNL A   1      45.419  37.324  26.839  1.00  0.00    -0.237 OA
ATOM     95  O   UNL A   1      43.152  37.820  27.663  1.00  0.00    -0.237 OA
ATOM     96  O   UNL A   1      45.078  38.999  28.622  1.00  0.00    -0.744 OA
ENDBRANCH  90  93
ENDBRANCH  63  86
ENDBRANCH  37  38
ENDBRANCH  29  32
ENDBRANCH  27  28
ENDBRANCH  26  27
ENDBRANCH  25  26
ENDBRANCH   1  25
TORSDOF 19
ENDMDL
