MODEL 1
REMARK VINA RESULT:     -11.3      0.000      0.000
REMARK SMILES CC1(C)[C@@](C)(C(=O)NCCCCCCNC(=O)c2ccc(-c3c4nc(c(-c5cccc(S(=O)(=O)[O-])c5F)c5ccc([nH]5)c(-c5cccc(S(=O)(=O)[O-])c5F)c5nc(c(-c6cccc(S(=O)(=O)[O-])c6F)c6ccc3[nH]6)C=C5)C=C4)cc2)CC[C@]1(C)C(=O)Nc1ccc(Cl)cc1Cl
REMARK SMILES IDX 12 1 11 2 10 3 9 4 8 5 6 6 7 7 4 9 1 10 2 11 3 12 83 13 5 14
REMARK SMILES IDX 81 15 82 16 84 17 85 18 86 19 87 20 88 22 89 23 94 24 90 25
REMARK SMILES IDX 93 26 95 27 91 28 92 29 13 30 14 31 15 32 16 33 17 35 18 36
REMARK SMILES IDX 19 37 80 38 20 39 79 40 21 41 22 42 23 43 73 44 24 45 78 46
REMARK SMILES IDX 72 47 74 48 25 49 77 50 71 51 70 52 26 54 58 55 38 56 57 57
REMARK SMILES IDX 39 58 42 59 56 60 75 61 40 62 41 63 55 65 76 66 43 67 27 68
REMARK SMILES IDX 28 69 36 70 29 71 31 72 37 73 30 74 32 75 33 76 34 77 35 78
REMARK SMILES IDX 59 79 60 80 68 81 61 82 63 83 69 84 62 85 64 86 65 87 66 88
REMARK SMILES IDX 67 89 44 90 45 91 53 92 46 93 48 94 54 95 47 96 49 97 50 98
REMARK SMILES IDX 51 99 52 100
REMARK H PARENT 8 8 87 21 15 34 74 53 42 64
REMARK Flexibility Score: inf
ROOT
ATOM      1  C   UNL A   1      35.651  32.623  28.016  1.00  0.00     0.002 C 
ENDROOT
BRANCH   1   2
ATOM      2  C   UNL A   1      34.856  31.317  28.033  1.00  0.00     0.002 C 
BRANCH   2   3
ATOM      3  C   UNL A   1      35.612  30.098  27.504  1.00  0.00     0.021 C 
BRANCH   3   4
ATOM      4  C   UNL A   1      34.716  28.933  27.059  1.00  0.00     0.116 C 
BRANCH   4   5
ATOM      5  N   UNL A   1      34.127  29.208  25.761  1.00  0.00    -0.356 N 
ATOM      6  C   UNL A   1      33.055  28.766  25.062  1.00  0.00     0.226 C 
ATOM      7  O   UNL A   1      32.946  29.310  23.953  1.00  0.00    -0.274 OA
ATOM      8  H   UNL A   1      34.635  29.888  25.264  1.00  0.00     0.163 HD
BRANCH   6   9
ATOM      9  C   UNL A   1      31.986  27.725  25.546  1.00  0.00     0.052 C 
ATOM     10  C   UNL A   1      33.597  25.810  26.143  1.00  0.00     0.013 C 
ATOM     11  C   UNL A   1      32.308  26.173  25.436  1.00  0.00    -0.007 C 
ATOM     12  C   UNL A   1      31.202  25.333  26.159  1.00  0.00     0.013 C 
ATOM     13  C   UNL A   1      32.284  25.855  23.880  1.00  0.00     0.053 C 
ATOM     14  C   UNL A   1      31.488  28.186  26.930  1.00  0.00     0.022 C 
ATOM     15  C   UNL A   1      30.801  27.802  24.545  1.00  0.00     0.018 C 
ATOM     16  C   UNL A   1      31.133  26.826  23.403  1.00  0.00     0.018 C 
ATOM     17  C   UNL A   1      33.544  26.260  23.089  1.00  0.00     0.022 C 
BRANCH  13  18
ATOM     18  C   UNL A   1      31.925  24.370  23.483  1.00  0.00     0.230 C 
ATOM     19  O   UNL A   1      30.867  24.123  22.887  1.00  0.00    -0.274 OA
ATOM     20  N   UNL A   1      32.689  23.262  23.752  1.00  0.00    -0.324 N 
ATOM     21  H   UNL A   1      32.237  22.409  23.554  1.00  0.00     0.170 HD
BRANCH  20  22
ATOM     22  C   UNL A   1      33.989  23.108  24.255  1.00  0.00     0.060 A 
ATOM     23  C   UNL A   1      35.070  23.209  23.375  1.00  0.00     0.029 A 
ATOM     24  C   UNL A   1      34.238  22.688  25.572  1.00  0.00     0.066 A 
ATOM     25  C   UNL A   1      36.379  23.127  23.859  1.00  0.00     0.023 A 
ATOM     26  C   UNL A   1      35.539  22.707  26.082  1.00  0.00     0.043 A 
ATOM     27  Cl  UNL A   1      32.963  22.166  26.619  1.00  0.00    -0.082 Cl
ATOM     28  C   UNL A   1      36.604  22.956  25.224  1.00  0.00     0.042 A 
ATOM     29  Cl  UNL A   1      38.206  23.041  25.844  1.00  0.00    -0.084 Cl
ENDBRANCH  20  22
ENDBRANCH  13  18
ENDBRANCH   6   9
ENDBRANCH   4   5
ENDBRANCH   3   4
ENDBRANCH   2   3
ENDBRANCH   1   2
BRANCH   1  30
ATOM     30  C   UNL A   1      34.808  33.897  27.913  1.00  0.00     0.021 C 
BRANCH  30  31
ATOM     31  C   UNL A   1      33.392  33.769  28.467  1.00  0.00     0.116 C 
BRANCH  31  32
ATOM     32  N   UNL A   1      33.077  34.851  29.389  1.00  0.00    -0.352 N 
ATOM     33  C   UNL A   1      33.501  35.037  30.683  1.00  0.00     0.251 C 
ATOM     34  H   UNL A   1      32.477  35.548  29.037  1.00  0.00     0.163 HD
ATOM     35  O   UNL A   1      32.940  35.850  31.407  1.00  0.00    -0.269 OA
BRANCH  33  36
ATOM     36  C   UNL A   1      34.639  34.244  31.190  1.00  0.00     0.039 A 
ATOM     37  C   UNL A   1      34.400  33.006  31.793  1.00  0.00     0.014 A 
ATOM     38  C   UNL A   1      35.942  34.735  31.075  1.00  0.00     0.014 A 
ATOM     39  C   UNL A   1      35.477  32.237  32.238  1.00  0.00     0.010 A 
ATOM     40  C   UNL A   1      37.016  33.934  31.447  1.00  0.00     0.010 A 
ATOM     41  C   UNL A   1      36.796  32.685  32.046  1.00  0.00    -0.014 A 
BRANCH  41  42
ATOM     42  C   UNL A   1      37.964  31.881  32.485  1.00  0.00     0.031 A 
ATOM     43  C   UNL A   1      38.653  32.215  33.781  1.00  0.00     0.074 A 
ATOM     44  C   UNL A   1      38.461  30.923  31.679  1.00  0.00     0.049 A 
ATOM     45  N   UNL A   1      39.747  31.710  34.288  1.00  0.00    -0.248 NA
ATOM     46  C   UNL A   1      38.050  33.279  34.602  1.00  0.00     0.031 C 
ATOM     47  C   UNL A   1      37.919  30.551  30.370  1.00  0.00     0.029 A 
ATOM     48  N   UNL A   1      39.557  30.109  31.826  1.00  0.00    -0.354 N 
ATOM     49  C   UNL A   1      39.986  32.419  35.458  1.00  0.00     0.074 A 
ATOM     50  C   UNL A   1      38.942  33.413  35.571  1.00  0.00     0.031 C 
ATOM     51  C   UNL A   1      38.684  29.587  29.835  1.00  0.00     0.029 A 
ATOM     52  C   UNL A   1      39.791  29.297  30.740  1.00  0.00     0.049 A 
ATOM     53  H   UNL A   1      40.122  30.108  32.633  1.00  0.00     0.167 HD
ATOM     54  C   UNL A   1      40.969  32.244  36.371  1.00  0.00     0.034 A 
ATOM     55  C   UNL A   1      40.794  28.431  30.496  1.00  0.00     0.034 A 
ATOM     56  C   UNL A   1      41.979  31.226  36.275  1.00  0.00     0.049 A 
ATOM     57  C   UNL A   1      41.861  28.236  31.540  1.00  0.00     0.074 A 
ATOM     58  C   UNL A   1      42.972  30.911  37.185  1.00  0.00     0.029 A 
ATOM     59  N   UNL A   1      42.131  30.363  35.201  1.00  0.00    -0.354 N 
ATOM     60  N   UNL A   1      41.992  28.821  32.706  1.00  0.00    -0.248 NA
ATOM     61  C   UNL A   1      42.899  27.235  31.253  1.00  0.00     0.031 C 
ATOM     62  C   UNL A   1      43.745  29.877  36.647  1.00  0.00     0.029 A 
ATOM     63  C   UNL A   1      43.206  29.520  35.421  1.00  0.00     0.049 A 
ATOM     64  H   UNL A   1      41.559  30.350  34.400  1.00  0.00     0.167 HD
ATOM     65  C   UNL A   1      43.094  28.227  33.310  1.00  0.00     0.074 A 
ATOM     66  C   UNL A   1      43.590  27.230  32.385  1.00  0.00     0.031 C 
ATOM     67  C   UNL A   1      43.649  28.488  34.519  1.00  0.00     0.034 A 
BRANCH  54  68
ATOM     68  C   UNL A   1      40.978  33.145  37.579  1.00  0.00     0.023 A 
ATOM     69  C   UNL A   1      40.163  32.837  38.688  1.00  0.00     0.012 A 
ATOM     70  C   UNL A   1      41.835  34.260  37.641  1.00  0.00     0.148 A 
ATOM     71  C   UNL A   1      40.173  33.645  39.823  1.00  0.00     0.002 A 
ATOM     72  C   UNL A   1      41.877  35.033  38.797  1.00  0.00     0.091 A 
ATOM     73  F   UNL A   1      42.589  34.549  36.572  1.00  0.00    -0.205 F 
ATOM     74  C   UNL A   1      41.036  34.735  39.882  1.00  0.00     0.022 A 
BRANCH  72  75
ATOM     75  S   UNL A   1      43.014  36.407  39.004  1.00  0.00     0.127 S 
ATOM     76  O   UNL A   1      42.607  37.293  37.914  1.00  0.00    -0.237 OA
ATOM     77  O   UNL A   1      42.670  36.890  40.342  1.00  0.00    -0.237 OA
ATOM     78  O   UNL A   1      44.352  35.846  38.884  1.00  0.00    -0.744 OA
ENDBRANCH  72  75
ENDBRANCH  54  68
BRANCH  55  79
ATOM     79  C   UNL A   1      40.810  27.642  29.231  1.00  0.00     0.023 A 
ATOM     80  C   UNL A   1      39.945  26.540  29.091  1.00  0.00     0.012 A 
ATOM     81  C   UNL A   1      41.664  27.984  28.165  1.00  0.00     0.148 A 
ATOM     82  C   UNL A   1      39.957  25.768  27.928  1.00  0.00     0.002 A 
ATOM     83  C   UNL A   1      41.629  27.247  26.987  1.00  0.00     0.091 A 
ATOM     84  F   UNL A   1      42.484  29.032  28.320  1.00  0.00    -0.205 F 
ATOM     85  C   UNL A   1      40.792  26.127  26.873  1.00  0.00     0.022 A 
BRANCH  83  86
ATOM     86  S   UNL A   1      42.574  27.711  25.531  1.00  0.00     0.127 S 
ATOM     87  O   UNL A   1      43.918  27.862  26.082  1.00  0.00    -0.237 OA
ATOM     88  O   UNL A   1      42.388  26.545  24.667  1.00  0.00    -0.237 OA
ATOM     89  O   UNL A   1      41.955  28.932  25.032  1.00  0.00    -0.744 OA
ENDBRANCH  83  86
ENDBRANCH  55  79
BRANCH  67  90
ATOM     90  C   UNL A   1      44.815  27.644  34.957  1.00  0.00     0.023 A 
ATOM     91  C   UNL A   1      46.133  28.089  34.745  1.00  0.00     0.012 A 
ATOM     92  C   UNL A   1      44.593  26.450  35.674  1.00  0.00     0.148 A 
ATOM     93  C   UNL A   1      47.216  27.345  35.217  1.00  0.00     0.002 A 
ATOM     94  C   UNL A   1      45.672  25.744  36.187  1.00  0.00     0.091 A 
ATOM     95  F   UNL A   1      43.330  26.037  35.851  1.00  0.00    -0.205 F 
ATOM     96  C   UNL A   1      46.985  26.182  35.948  1.00  0.00     0.022 A 
BRANCH  94  97
ATOM     97  S   UNL A   1      45.468  24.294  37.229  1.00  0.00     0.127 S 
ATOM     98  O   UNL A   1      44.863  23.342  36.301  1.00  0.00    -0.237 OA
ATOM     99  O   UNL A   1      46.850  23.988  37.604  1.00  0.00    -0.237 OA
ATOM    100  O   UNL A   1      44.618  24.709  38.337  1.00  0.00    -0.744 OA
ENDBRANCH  94  97
ENDBRANCH  67  90
ENDBRANCH  41  42
ENDBRANCH  33  36
ENDBRANCH  31  32
ENDBRANCH  30  31
ENDBRANCH   1  30
TORSDOF 18
ENDMDL
MODEL 2
REMARK VINA RESULT:     -11.2      5.908     11.291
REMARK SMILES CC1(C)[C@@](C)(C(=O)NCCCCCCNC(=O)c2ccc(-c3c4nc(c(-c5cccc(S(=O)(=O)[O-])c5F)c5ccc([nH]5)c(-c5cccc(S(=O)(=O)[O-])c5F)c5nc(c(-c6cccc(S(=O)(=O)[O-])c6F)c6ccc3[nH]6)C=C5)C=C4)cc2)CC[C@]1(C)C(=O)Nc1ccc(Cl)cc1Cl
REMARK SMILES IDX 12 1 11 2 10 3 9 4 8 5 6 6 7 7 4 9 1 10 2 11 3 12 83 13 5 14
REMARK SMILES IDX 81 15 82 16 84 17 85 18 86 19 87 20 88 22 89 23 94 24 90 25
REMARK SMILES IDX 93 26 95 27 91 28 92 29 13 30 14 31 15 32 16 33 17 35 18 36
REMARK SMILES IDX 19 37 80 38 20 39 79 40 21 41 22 42 23 43 73 44 24 45 78 46
REMARK SMILES IDX 72 47 74 48 25 49 77 50 71 51 70 52 26 54 58 55 38 56 57 57
REMARK SMILES IDX 39 58 42 59 56 60 75 61 40 62 41 63 55 65 76 66 43 67 27 68
REMARK SMILES IDX 28 69 36 70 29 71 31 72 37 73 30 74 32 75 33 76 34 77 35 78
REMARK SMILES IDX 59 79 60 80 68 81 61 82 63 83 69 84 62 85 64 86 65 87 66 88
REMARK SMILES IDX 67 89 44 90 45 91 53 92 46 93 48 94 54 95 47 96 49 97 50 98
REMARK SMILES IDX 51 99 52 100
REMARK H PARENT 8 8 87 21 15 34 74 53 42 64
REMARK Flexibility Score: inf
ROOT
ATOM      1  C   UNL A   1      40.533  22.153  27.611  1.00  0.00     0.002 C 
ENDROOT
BRANCH   1   2
ATOM      2  C   UNL A   1      39.584  22.646  26.518  1.00  0.00     0.002 C 
BRANCH   2   3
ATOM      3  C   UNL A   1      38.688  23.815  26.924  1.00  0.00     0.021 C 
BRANCH   3   4
ATOM      4  C   UNL A   1      37.442  24.002  26.046  1.00  0.00     0.116 C 
BRANCH   4   5
ATOM      5  N   UNL A   1      36.438  23.003  26.361  1.00  0.00    -0.356 N 
ATOM      6  C   UNL A   1      35.321  22.519  25.768  1.00  0.00     0.226 C 
ATOM      7  O   UNL A   1      34.765  21.635  26.437  1.00  0.00    -0.274 OA
ATOM      8  H   UNL A   1      36.614  22.564  27.225  1.00  0.00     0.163 HD
BRANCH   6   9
ATOM      9  C   UNL A   1      34.751  22.934  24.367  1.00  0.00     0.052 C 
ATOM     10  C   UNL A   1      34.614  25.471  24.773  1.00  0.00     0.013 C 
ATOM     11  C   UNL A   1      33.880  24.257  24.243  1.00  0.00    -0.007 C 
ATOM     12  C   UNL A   1      33.594  24.583  22.739  1.00  0.00     0.013 C 
ATOM     13  C   UNL A   1      32.514  23.922  24.983  1.00  0.00     0.053 C 
ATOM     14  C   UNL A   1      35.903  22.820  23.349  1.00  0.00     0.022 C 
ATOM     15  C   UNL A   1      33.664  21.887  23.999  1.00  0.00     0.018 C 
ATOM     16  C   UNL A   1      32.347  22.397  24.608  1.00  0.00     0.018 C 
ATOM     17  C   UNL A   1      32.548  23.987  26.523  1.00  0.00     0.022 C 
BRANCH  13  18
ATOM     18  C   UNL A   1      31.249  24.732  24.497  1.00  0.00     0.230 C 
ATOM     19  O   UNL A   1      30.308  24.143  23.945  1.00  0.00    -0.274 OA
ATOM     20  N   UNL A   1      31.072  26.088  24.611  1.00  0.00    -0.324 N 
ATOM     21  H   UNL A   1      30.286  26.429  24.125  1.00  0.00     0.170 HD
BRANCH  20  22
ATOM     22  C   UNL A   1      31.796  27.082  25.285  1.00  0.00     0.060 A 
ATOM     23  C   UNL A   1      31.624  27.224  26.665  1.00  0.00     0.029 A 
ATOM     24  C   UNL A   1      32.553  28.050  24.604  1.00  0.00     0.066 A 
ATOM     25  C   UNL A   1      32.381  28.163  27.374  1.00  0.00     0.023 A 
ATOM     26  C   UNL A   1      33.388  28.918  25.314  1.00  0.00     0.043 A 
ATOM     27  Cl  UNL A   1      32.514  28.191  22.880  1.00  0.00    -0.082 Cl
ATOM     28  C   UNL A   1      33.317  28.948  26.702  1.00  0.00     0.042 A 
ATOM     29  Cl  UNL A   1      34.376  29.967  27.595  1.00  0.00    -0.084 Cl
ENDBRANCH  20  22
ENDBRANCH  13  18
ENDBRANCH   6   9
ENDBRANCH   4   5
ENDBRANCH   3   4
ENDBRANCH   2   3
ENDBRANCH   1   2
BRANCH   1  30
ATOM     30  C   UNL A   1      40.934  20.680  27.509  1.00  0.00     0.021 C 
BRANCH  30  31
ATOM     31  C   UNL A   1      40.817  20.083  26.109  1.00  0.00     0.116 C 
BRANCH  31  32
ATOM     32  N   UNL A   1      42.030  19.377  25.724  1.00  0.00    -0.352 N 
ATOM     33  C   UNL A   1      43.258  19.889  25.382  1.00  0.00     0.251 C 
ATOM     34  H   UNL A   1      41.961  18.394  25.706  1.00  0.00     0.163 HD
ATOM     35  O   UNL A   1      44.091  19.180  24.830  1.00  0.00    -0.269 OA
BRANCH  33  36
ATOM     36  C   UNL A   1      43.561  21.302  25.686  1.00  0.00     0.039 A 
ATOM     37  C   UNL A   1      43.255  22.288  24.745  1.00  0.00     0.014 A 
ATOM     38  C   UNL A   1      44.159  21.644  26.902  1.00  0.00     0.014 A 
ATOM     39  C   UNL A   1      43.504  23.628  25.047  1.00  0.00     0.010 A 
ATOM     40  C   UNL A   1      44.332  22.984  27.231  1.00  0.00     0.010 A 
ATOM     41  C   UNL A   1      44.023  23.989  26.302  1.00  0.00    -0.014 A 
BRANCH  41  42
ATOM     42  C   UNL A   1      44.277  25.406  26.664  1.00  0.00     0.031 A 
ATOM     43  C   UNL A   1      45.670  25.965  26.554  1.00  0.00     0.074 A 
ATOM     44  C   UNL A   1      43.283  26.156  27.179  1.00  0.00     0.049 A 
ATOM     45  N   UNL A   1      46.121  27.136  26.920  1.00  0.00    -0.248 NA
ATOM     46  C   UNL A   1      46.700  25.079  25.985  1.00  0.00     0.031 C 
ATOM     47  C   UNL A   1      41.906  25.707  27.395  1.00  0.00     0.029 A 
ATOM     48  N   UNL A   1      43.287  27.446  27.649  1.00  0.00    -0.354 N 
ATOM     49  C   UNL A   1      47.487  27.113  26.668  1.00  0.00     0.074 A 
ATOM     50  C   UNL A   1      47.799  25.800  26.148  1.00  0.00     0.031 C 
ATOM     51  C   UNL A   1      41.201  26.702  27.955  1.00  0.00     0.029 A 
ATOM     52  C   UNL A   1      42.080  27.845  28.175  1.00  0.00     0.049 A 
ATOM     53  H   UNL A   1      44.080  28.030  27.614  1.00  0.00     0.167 HD
ATOM     54  C   UNL A   1      48.397  28.102  26.828  1.00  0.00     0.034 A 
ATOM     55  C   UNL A   1      41.728  28.996  28.782  1.00  0.00     0.034 A 
ATOM     56  C   UNL A   1      48.072  29.418  27.305  1.00  0.00     0.049 A 
ATOM     57  C   UNL A   1      42.753  30.090  28.923  1.00  0.00     0.074 A 
ATOM     58  C   UNL A   1      48.904  30.517  27.428  1.00  0.00     0.029 A 
ATOM     59  N   UNL A   1      46.819  29.812  27.745  1.00  0.00    -0.354 N 
ATOM     60  N   UNL A   1      44.010  30.097  28.551  1.00  0.00    -0.248 NA
ATOM     61  C   UNL A   1      42.303  31.349  29.536  1.00  0.00     0.031 C 
ATOM     62  C   UNL A   1      48.159  31.568  27.972  1.00  0.00     0.029 A 
ATOM     63  C   UNL A   1      46.855  31.136  28.148  1.00  0.00     0.049 A 
ATOM     64  H   UNL A   1      46.020  29.237  27.767  1.00  0.00     0.167 HD
ATOM     65  C   UNL A   1      44.486  31.371  28.838  1.00  0.00     0.074 A 
ATOM     66  C   UNL A   1      43.381  32.112  29.407  1.00  0.00     0.031 C 
ATOM     67  C   UNL A   1      45.729  31.879  28.653  1.00  0.00     0.034 A 
BRANCH  54  68
ATOM     68  C   UNL A   1      49.825  27.814  26.445  1.00  0.00     0.023 A 
ATOM     69  C   UNL A   1      50.745  27.402  27.432  1.00  0.00     0.012 A 
ATOM     70  C   UNL A   1      50.241  27.890  25.102  1.00  0.00     0.148 A 
ATOM     71  C   UNL A   1      52.065  27.109  27.094  1.00  0.00     0.002 A 
ATOM     72  C   UNL A   1      51.547  27.548  24.765  1.00  0.00     0.091 A 
ATOM     73  F   UNL A   1      49.359  28.300  24.180  1.00  0.00    -0.205 F 
ATOM     74  C   UNL A   1      52.463  27.171  25.761  1.00  0.00     0.022 A 
BRANCH  72  75
ATOM     75  S   UNL A   1      52.134  27.515  23.068  1.00  0.00     0.127 S 
ATOM     76  O   UNL A   1      52.380  28.934  22.814  1.00  0.00    -0.237 OA
ATOM     77  O   UNL A   1      53.342  26.697  23.178  1.00  0.00    -0.237 OA
ATOM     78  O   UNL A   1      51.063  26.917  22.283  1.00  0.00    -0.744 OA
ENDBRANCH  72  75
ENDBRANCH  54  68
BRANCH  55  79
ATOM     79  C   UNL A   1      40.328  29.195  29.253  1.00  0.00     0.023 A 
ATOM     80  C   UNL A   1      39.339  29.599  28.335  1.00  0.00     0.012 A 
ATOM     81  C   UNL A   1      39.969  28.975  30.596  1.00  0.00     0.148 A 
ATOM     82  C   UNL A   1      38.025  29.818  28.754  1.00  0.00     0.002 A 
ATOM     83  C   UNL A   1      38.647  29.139  30.995  1.00  0.00     0.091 A 
ATOM     84  F   UNL A   1      40.925  28.598  31.455  1.00  0.00    -0.205 F 
ATOM     85  C   UNL A   1      37.678  29.579  30.081  1.00  0.00     0.022 A 
BRANCH  83  86
ATOM     86  S   UNL A   1      38.083  28.731  32.651  1.00  0.00     0.127 S 
ATOM     87  O   UNL A   1      38.248  27.281  32.676  1.00  0.00    -0.237 OA
ATOM     88  O   UNL A   1      39.029  29.475  33.483  1.00  0.00    -0.237 OA
ATOM     89  O   UNL A   1      36.709  29.212  32.729  1.00  0.00    -0.744 OA
ENDBRANCH  83  86
ENDBRANCH  55  79
BRANCH  67  90
ATOM     90  C   UNL A   1      45.959  33.326  29.000  1.00  0.00     0.023 A 
ATOM     91  C   UNL A   1      46.539  33.677  30.233  1.00  0.00     0.012 A 
ATOM     92  C   UNL A   1      45.689  34.331  28.050  1.00  0.00     0.148 A 
ATOM     93  C   UNL A   1      46.822  35.011  30.528  1.00  0.00     0.002 A 
ATOM     94  C   UNL A   1      46.023  35.650  28.327  1.00  0.00     0.091 A 
ATOM     95  F   UNL A   1      45.121  33.976  26.888  1.00  0.00    -0.205 F 
ATOM     96  C   UNL A   1      46.578  35.993  29.571  1.00  0.00     0.022 A 
BRANCH  94  97
ATOM     97  S   UNL A   1      45.842  36.966  27.118  1.00  0.00     0.127 S 
ATOM     98  O   UNL A   1      46.428  38.103  27.826  1.00  0.00    -0.237 OA
ATOM     99  O   UNL A   1      46.641  36.467  25.998  1.00  0.00    -0.237 OA
ATOM    100  O   UNL A   1      44.415  37.071  26.845  1.00  0.00    -0.744 OA
ENDBRANCH  94  97
ENDBRANCH  67  90
ENDBRANCH  41  42
ENDBRANCH  33  36
ENDBRANCH  31  32
ENDBRANCH  30  31
ENDBRANCH   1  30
TORSDOF 18
ENDMDL
MODEL 3
REMARK VINA RESULT:     -11.1      2.076      7.645
REMARK SMILES CC1(C)[C@@](C)(C(=O)NCCCCCCNC(=O)c2ccc(-c3c4nc(c(-c5cccc(S(=O)(=O)[O-])c5F)c5ccc([nH]5)c(-c5cccc(S(=O)(=O)[O-])c5F)c5nc(c(-c6cccc(S(=O)(=O)[O-])c6F)c6ccc3[nH]6)C=C5)C=C4)cc2)CC[C@]1(C)C(=O)Nc1ccc(Cl)cc1Cl
REMARK SMILES IDX 12 1 11 2 10 3 9 4 8 5 6 6 7 7 4 9 1 10 2 11 3 12 83 13 5 14
REMARK SMILES IDX 81 15 82 16 84 17 85 18 86 19 87 20 88 22 89 23 94 24 90 25
REMARK SMILES IDX 93 26 95 27 91 28 92 29 13 30 14 31 15 32 16 33 17 35 18 36
REMARK SMILES IDX 19 37 80 38 20 39 79 40 21 41 22 42 23 43 73 44 24 45 78 46
REMARK SMILES IDX 72 47 74 48 25 49 77 50 71 51 70 52 26 54 58 55 38 56 57 57
REMARK SMILES IDX 39 58 42 59 56 60 75 61 40 62 41 63 55 65 76 66 43 67 27 68
REMARK SMILES IDX 28 69 36 70 29 71 31 72 37 73 30 74 32 75 33 76 34 77 35 78
REMARK SMILES IDX 59 79 60 80 68 81 61 82 63 83 69 84 62 85 64 86 65 87 66 88
REMARK SMILES IDX 67 89 44 90 45 91 53 92 46 93 48 94 54 95 47 96 49 97 50 98
REMARK SMILES IDX 51 99 52 100
REMARK H PARENT 8 8 87 21 15 34 74 53 42 64
REMARK Flexibility Score: inf
ROOT
ATOM      1  C   UNL A   1      34.449  31.041  28.045  1.00  0.00     0.002 C 
ENDROOT
BRANCH   1   2
ATOM      2  C   UNL A   1      34.703  29.782  27.216  1.00  0.00     0.002 C 
BRANCH   2   3
ATOM      3  C   UNL A   1      33.710  28.645  27.455  1.00  0.00     0.021 C 
BRANCH   3   4
ATOM      4  C   UNL A   1      32.268  28.954  27.028  1.00  0.00     0.116 C 
BRANCH   4   5
ATOM      5  N   UNL A   1      31.469  27.743  27.011  1.00  0.00    -0.356 N 
ATOM      6  C   UNL A   1      30.872  26.979  26.065  1.00  0.00     0.226 C 
ATOM      7  O   UNL A   1      30.275  26.002  26.542  1.00  0.00    -0.274 OA
ATOM      8  H   UNL A   1      31.323  27.386  27.917  1.00  0.00     0.163 HD
BRANCH   6   9
ATOM      9  C   UNL A   1      30.924  27.200  24.513  1.00  0.00     0.052 C 
ATOM     10  C   UNL A   1      30.358  24.797  23.790  1.00  0.00     0.013 C 
ATOM     11  C   UNL A   1      31.281  25.976  23.566  1.00  0.00    -0.007 C 
ATOM     12  C   UNL A   1      31.074  26.370  22.065  1.00  0.00     0.013 C 
ATOM     13  C   UNL A   1      32.820  25.684  23.831  1.00  0.00     0.053 C 
ATOM     14  C   UNL A   1      29.653  27.977  24.116  1.00  0.00     0.022 C 
ATOM     15  C   UNL A   1      32.159  28.099  24.231  1.00  0.00     0.018 C 
ATOM     16  C   UNL A   1      33.358  27.150  24.066  1.00  0.00     0.018 C 
ATOM     17  C   UNL A   1      33.145  24.894  25.115  1.00  0.00     0.022 C 
BRANCH  13  18
ATOM     18  C   UNL A   1      33.610  25.011  22.642  1.00  0.00     0.230 C 
ATOM     19  O   UNL A   1      34.081  25.710  21.733  1.00  0.00    -0.274 OA
ATOM     20  N   UNL A   1      33.834  23.666  22.487  1.00  0.00    -0.324 N 
ATOM     21  H   UNL A   1      34.221  23.425  21.614  1.00  0.00     0.170 HD
BRANCH  20  22
ATOM     22  C   UNL A   1      33.617  22.568  23.331  1.00  0.00     0.060 A 
ATOM     23  C   UNL A   1      32.336  22.010  23.397  1.00  0.00     0.029 A 
ATOM     24  C   UNL A   1      34.588  22.116  24.239  1.00  0.00     0.066 A 
ATOM     25  C   UNL A   1      32.105  20.874  24.179  1.00  0.00     0.023 A 
ATOM     26  C   UNL A   1      34.395  20.923  24.942  1.00  0.00     0.043 A 
ATOM     27  Cl  UNL A   1      36.062  22.983  24.504  1.00  0.00    -0.082 Cl
ATOM     28  C   UNL A   1      33.158  20.291  24.884  1.00  0.00     0.042 A 
ATOM     29  Cl  UNL A   1      32.919  18.793  25.693  1.00  0.00    -0.084 Cl
ENDBRANCH  20  22
ENDBRANCH  13  18
ENDBRANCH   6   9
ENDBRANCH   4   5
ENDBRANCH   3   4
ENDBRANCH   2   3
ENDBRANCH   1   2
BRANCH   1  30
ATOM     30  C   UNL A   1      33.941  32.250  27.254  1.00  0.00     0.021 C 
BRANCH  30  31
ATOM     31  C   UNL A   1      32.534  32.709  27.628  1.00  0.00     0.116 C 
BRANCH  31  32
ATOM     32  N   UNL A   1      32.469  34.153  27.799  1.00  0.00    -0.352 N 
ATOM     33  C   UNL A   1      33.129  34.948  28.705  1.00  0.00     0.251 C 
ATOM     34  H   UNL A   1      31.869  34.627  27.178  1.00  0.00     0.163 HD
ATOM     35  O   UNL A   1      32.766  36.103  28.893  1.00  0.00    -0.269 OA
BRANCH  33  36
ATOM     36  C   UNL A   1      34.277  34.394  29.450  1.00  0.00     0.039 A 
ATOM     37  C   UNL A   1      34.051  33.681  30.630  1.00  0.00     0.014 A 
ATOM     38  C   UNL A   1      35.578  34.590  28.980  1.00  0.00     0.014 A 
ATOM     39  C   UNL A   1      35.132  33.123  31.315  1.00  0.00     0.010 A 
ATOM     40  C   UNL A   1      36.643  33.967  29.621  1.00  0.00     0.010 A 
ATOM     41  C   UNL A   1      36.435  33.241  30.802  1.00  0.00    -0.014 A 
BRANCH  41  42
ATOM     42  C   UNL A   1      37.603  32.638  31.492  1.00  0.00     0.031 A 
ATOM     43  C   UNL A   1      38.335  31.490  30.850  1.00  0.00     0.074 A 
ATOM     44  C   UNL A   1      37.942  33.054  32.728  1.00  0.00     0.049 A 
ATOM     45  N   UNL A   1      39.305  30.758  31.331  1.00  0.00    -0.248 NA
ATOM     46  C   UNL A   1      37.899  31.094  29.500  1.00  0.00     0.031 C 
ATOM     47  C   UNL A   1      37.269  34.114  33.480  1.00  0.00     0.029 A 
ATOM     48  N   UNL A   1      38.919  32.609  33.585  1.00  0.00    -0.354 N 
ATOM     49  C   UNL A   1      39.565  29.792  30.367  1.00  0.00     0.074 A 
ATOM     50  C   UNL A   1      38.629  30.009  29.286  1.00  0.00     0.031 C 
ATOM     51  C   UNL A   1      37.849  34.236  34.684  1.00  0.00     0.029 A 
ATOM     52  C   UNL A   1      38.909  33.241  34.807  1.00  0.00     0.049 A 
ATOM     53  H   UNL A   1      39.565  31.905  33.346  1.00  0.00     0.167 HD
ATOM     54  C   UNL A   1      40.513  28.826  30.367  1.00  0.00     0.034 A 
ATOM     55  C   UNL A   1      39.658  33.028  35.908  1.00  0.00     0.034 A 
ATOM     56  C   UNL A   1      41.468  28.642  31.425  1.00  0.00     0.049 A 
ATOM     57  C   UNL A   1      40.724  31.965  35.871  1.00  0.00     0.074 A 
ATOM     58  C   UNL A   1      42.521  27.746  31.487  1.00  0.00     0.029 A 
ATOM     59  N   UNL A   1      41.482  29.360  32.610  1.00  0.00    -0.354 N 
ATOM     60  N   UNL A   1      41.045  31.152  34.895  1.00  0.00    -0.248 NA
ATOM     61  C   UNL A   1      41.555  31.814  37.075  1.00  0.00     0.031 C 
ATOM     62  C   UNL A   1      43.153  27.902  32.724  1.00  0.00     0.029 A 
ATOM     63  C   UNL A   1      42.521  28.923  33.414  1.00  0.00     0.049 A 
ATOM     64  H   UNL A   1      40.849  30.075  32.846  1.00  0.00     0.167 HD
ATOM     65  C   UNL A   1      42.143  30.429  35.346  1.00  0.00     0.074 A 
ATOM     66  C   UNL A   1      42.438  30.906  36.681  1.00  0.00     0.031 C 
ATOM     67  C   UNL A   1      42.841  29.453  34.715  1.00  0.00     0.034 A 
BRANCH  54  68
ATOM     68  C   UNL A   1      40.595  27.919  29.167  1.00  0.00     0.023 A 
ATOM     69  C   UNL A   1      39.717  26.821  29.058  1.00  0.00     0.012 A 
ATOM     70  C   UNL A   1      41.496  28.188  28.119  1.00  0.00     0.148 A 
ATOM     71  C   UNL A   1      39.761  25.983  27.945  1.00  0.00     0.002 A 
ATOM     72  C   UNL A   1      41.500  27.377  26.989  1.00  0.00     0.091 A 
ATOM     73  F   UNL A   1      42.337  29.224  28.247  1.00  0.00    -0.205 F 
ATOM     74  C   UNL A   1      40.644  26.267  26.907  1.00  0.00     0.022 A 
BRANCH  72  75
ATOM     75  S   UNL A   1      42.541  27.707  25.562  1.00  0.00     0.127 S 
ATOM     76  O   UNL A   1      41.972  28.960  25.067  1.00  0.00    -0.237 OA
ATOM     77  O   UNL A   1      43.864  27.838  26.173  1.00  0.00    -0.237 OA
ATOM     78  O   UNL A   1      42.389  26.561  24.678  1.00  0.00    -0.744 OA
ENDBRANCH  72  75
ENDBRANCH  54  68
BRANCH  55  79
ATOM     79  C   UNL A   1      39.464  33.875  37.119  1.00  0.00     0.023 A 
ATOM     80  C   UNL A   1      39.938  35.200  37.122  1.00  0.00     0.012 A 
ATOM     81  C   UNL A   1      38.802  33.380  38.260  1.00  0.00     0.148 A 
ATOM     82  C   UNL A   1      39.793  36.007  38.252  1.00  0.00     0.002 A 
ATOM     83  C   UNL A   1      38.610  34.207  39.360  1.00  0.00     0.091 A 
ATOM     84  F   UNL A   1      38.365  32.114  38.240  1.00  0.00    -0.205 F 
ATOM     85  C   UNL A   1      39.121  35.513  39.367  1.00  0.00     0.022 A 
BRANCH  83  86
ATOM     86  S   UNL A   1      37.646  33.700  40.789  1.00  0.00     0.127 S 
ATOM     87  O   UNL A   1      38.547  32.754  41.439  1.00  0.00    -0.237 OA
ATOM     88  O   UNL A   1      37.467  34.969  41.497  1.00  0.00    -0.237 OA
ATOM     89  O   UNL A   1      36.414  33.134  40.253  1.00  0.00    -0.744 OA
ENDBRANCH  83  86
ENDBRANCH  55  79
BRANCH  67  90
ATOM     90  C   UNL A   1      44.038  28.873  35.419  1.00  0.00     0.023 A 
ATOM     91  C   UNL A   1      45.308  29.460  35.260  1.00  0.00     0.012 A 
ATOM     92  C   UNL A   1      43.877  27.801  36.320  1.00  0.00     0.148 A 
ATOM     93  C   UNL A   1      46.406  28.972  35.969  1.00  0.00     0.002 A 
ATOM     94  C   UNL A   1      44.962  27.356  37.062  1.00  0.00     0.091 A 
ATOM     95  F   UNL A   1      42.663  27.246  36.443  1.00  0.00    -0.205 F 
ATOM     96  C   UNL A   1      46.231  27.931  36.878  1.00  0.00     0.022 A 
BRANCH  94  97
ATOM     97  S   UNL A   1      44.811  26.093  38.331  1.00  0.00     0.127 S 
ATOM     98  O   UNL A   1      46.164  26.061  38.883  1.00  0.00    -0.237 OA
ATOM     99  O   UNL A   1      43.801  26.670  39.220  1.00  0.00    -0.237 OA
ATOM    100  O   UNL A   1      44.391  24.879  37.645  1.00  0.00    -0.744 OA
ENDBRANCH  94  97
ENDBRANCH  67  90
ENDBRANCH  41  42
ENDBRANCH  33  36
ENDBRANCH  31  32
ENDBRANCH  30  31
ENDBRANCH   1  30
TORSDOF 18
ENDMDL
