MODEL 1
REMARK VINA RESULT:     -10.7      0.000      0.000
REMARK SMILES CC[NH2+][C@]1(C(=O)NCCCCCCNC(=O)c2ccc(-c3c4nc(c(-c5cccc(S(=O)(=O)[O-])c5F)c5ccc([nH]5)c(-c5cccc(S(=O)(=O)[O-])c5F)c5nc(c(-c6cccc(S(=O)(=O)[O-])c6F)c6ccc3[nH]6)C=C5)C=C4)cc2)CC[C@@H]([N@@H+](C)CC(C)(C)C)C1
REMARK SMILES IDX 10 1 9 2 8 3 7 4 5 5 6 6 4 8 80 9 90 10 81 11 82 12 3 13
REMARK SMILES IDX 2 16 1 17 83 18 84 19 85 21 86 22 87 23 88 24 89 25 11 26
REMARK SMILES IDX 12 27 13 28 14 29 15 30 16 32 17 33 18 34 79 35 19 36 78 37
REMARK SMILES IDX 20 38 21 39 22 40 72 41 23 42 77 43 71 44 73 45 24 46 76 47
REMARK SMILES IDX 70 48 69 49 25 51 57 52 37 53 56 54 38 55 41 56 55 57 74 58
REMARK SMILES IDX 39 59 40 60 54 62 75 63 42 64 26 65 27 66 35 67 28 68 30 69
REMARK SMILES IDX 36 70 29 71 31 72 32 73 33 74 34 75 58 76 59 77 67 78 60 79
REMARK SMILES IDX 62 80 68 81 61 82 63 83 64 84 65 85 66 86 43 87 44 88 52 89
REMARK SMILES IDX 45 90 47 91 53 92 46 93 48 94 49 95 50 96 51 97
REMARK H PARENT 7 7 3 14 3 15 83 20 14 31 73 50 41 61
REMARK Flexibility Score: inf
ROOT
ATOM      1  C   UNL A   1      32.148  29.593  26.624  1.00  0.00     0.002 C 
ENDROOT
BRANCH   1   2
ATOM      2  C   UNL A   1      33.623  29.347  26.273  1.00  0.00     0.021 C 
BRANCH   2   3
ATOM      3  C   UNL A   1      34.005  27.861  26.250  1.00  0.00     0.116 C 
BRANCH   3   4
ATOM      4  N   UNL A   1      32.870  27.034  26.623  1.00  0.00    -0.351 N 
ATOM      5  C   UNL A   1      32.305  25.927  26.070  1.00  0.00     0.281 C 
ATOM      6  O   UNL A   1      31.238  25.564  26.583  1.00  0.00    -0.268 OA
ATOM      7  H   UNL A   1      32.418  27.337  27.442  1.00  0.00     0.163 HD
BRANCH   5   8
ATOM      8  C   UNL A   1      32.988  25.068  24.952  1.00  0.00     0.181 C 
ATOM      9  C   UNL A   1      34.353  24.584  25.479  1.00  0.00     0.085 C 
ATOM     10  C   UNL A   1      32.307  23.709  24.675  1.00  0.00     0.144 C 
ATOM     11  C   UNL A   1      34.719  23.391  24.615  1.00  0.00     0.072 C 
ATOM     12  C   UNL A   1      33.402  22.655  24.416  1.00  0.00     0.190 C 
BRANCH   8  13
ATOM     13  N   UNL A   1      33.111  25.883  23.703  1.00  0.00    -0.334 N 
ATOM     14  H   UNL A   1      33.294  26.852  23.965  1.00  0.00     0.347 HD
ATOM     15  H   UNL A   1      33.871  25.482  23.156  1.00  0.00     0.347 HD
BRANCH  13  16
ATOM     16  C   UNL A   1      31.905  25.848  22.862  1.00  0.00     0.257 C 
ATOM     17  C   UNL A   1      31.136  27.159  22.880  1.00  0.00     0.071 C 
ENDBRANCH  13  16
ENDBRANCH   8  13
BRANCH  12  18
ATOM     18  N   UNL A   1      33.242  21.409  25.161  1.00  0.00    -0.334 N 
ATOM     19  C   UNL A   1      33.676  21.466  26.546  1.00  0.00     0.332 C 
ATOM     20  H   UNL A   1      33.873  20.959  24.498  1.00  0.00     0.348 HD
BRANCH  18  21
ATOM     21  C   UNL A   1      32.401  20.280  24.772  1.00  0.00     0.268 C 
BRANCH  21  22
ATOM     22  C   UNL A   1      32.923  18.807  24.608  1.00  0.00     0.011 C 
ATOM     23  C   UNL A   1      32.422  18.114  23.335  1.00  0.00     0.017 C 
ATOM     24  C   UNL A   1      34.463  18.873  24.462  1.00  0.00     0.017 C 
ATOM     25  C   UNL A   1      32.585  17.913  25.806  1.00  0.00     0.017 C 
ENDBRANCH  21  22
ENDBRANCH  18  21
ENDBRANCH  12  18
ENDBRANCH   5   8
ENDBRANCH   3   4
ENDBRANCH   2   3
ENDBRANCH   1   2
BRANCH   1  26
ATOM     26  C   UNL A   1      31.498  30.765  25.880  1.00  0.00     0.002 C 
BRANCH  26  27
ATOM     27  C   UNL A   1      31.341  32.045  26.706  1.00  0.00     0.021 C 
BRANCH  27  28
ATOM     28  C   UNL A   1      32.658  32.625  27.209  1.00  0.00     0.116 C 
BRANCH  28  29
ATOM     29  N   UNL A   1      32.495  33.998  27.669  1.00  0.00    -0.352 N 
ATOM     30  C   UNL A   1      33.115  34.641  28.712  1.00  0.00     0.251 C 
ATOM     31  H   UNL A   1      31.850  34.541  27.159  1.00  0.00     0.163 HD
ATOM     32  O   UNL A   1      32.688  35.718  29.111  1.00  0.00    -0.269 OA
BRANCH  30  33
ATOM     33  C   UNL A   1      34.294  34.021  29.350  1.00  0.00     0.039 A 
ATOM     34  C   UNL A   1      35.571  34.337  28.878  1.00  0.00     0.014 A 
ATOM     35  C   UNL A   1      34.135  33.124  30.411  1.00  0.00     0.014 A 
ATOM     36  C   UNL A   1      36.692  33.789  29.505  1.00  0.00     0.010 A 
ATOM     37  C   UNL A   1      35.253  32.643  31.081  1.00  0.00     0.010 A 
ATOM     38  C   UNL A   1      36.543  32.958  30.628  1.00  0.00    -0.014 A 
BRANCH  38  39
ATOM     39  C   UNL A   1      37.718  32.394  31.339  1.00  0.00     0.031 A 
ATOM     40  C   UNL A   1      38.473  31.237  30.738  1.00  0.00     0.074 A 
ATOM     41  C   UNL A   1      38.050  32.858  32.559  1.00  0.00     0.049 A 
ATOM     42  N   UNL A   1      39.457  30.542  31.246  1.00  0.00    -0.248 NA
ATOM     43  C   UNL A   1      38.046  30.785  29.402  1.00  0.00     0.031 C 
ATOM     44  C   UNL A   1      37.352  33.927  33.278  1.00  0.00     0.029 A 
ATOM     45  N   UNL A   1      39.038  32.465  33.429  1.00  0.00    -0.354 N 
ATOM     46  C   UNL A   1      39.743  29.553  30.312  1.00  0.00     0.074 A 
ATOM     47  C   UNL A   1      38.803  29.713  29.224  1.00  0.00     0.031 C 
ATOM     48  C   UNL A   1      37.927  34.099  34.478  1.00  0.00     0.029 A 
ATOM     49  C   UNL A   1      39.009  33.132  34.632  1.00  0.00     0.049 A 
ATOM     50  H   UNL A   1      39.703  31.773  33.211  1.00  0.00     0.167 HD
ATOM     51  C   UNL A   1      40.719  28.615  30.341  1.00  0.00     0.034 A 
ATOM     52  C   UNL A   1      39.757  32.968  35.742  1.00  0.00     0.034 A 
ATOM     53  C   UNL A   1      41.672  28.482  31.408  1.00  0.00     0.049 A 
ATOM     54  C   UNL A   1      40.851  31.934  35.738  1.00  0.00     0.074 A 
ATOM     55  C   UNL A   1      42.742  27.609  31.501  1.00  0.00     0.029 A 
ATOM     56  N   UNL A   1      41.671  29.238  32.569  1.00  0.00    -0.354 N 
ATOM     57  N   UNL A   1      41.193  31.097  34.789  1.00  0.00    -0.248 NA
ATOM     58  C   UNL A   1      41.687  31.845  36.944  1.00  0.00     0.031 C 
ATOM     59  C   UNL A   1      43.371  27.820  32.731  1.00  0.00     0.029 A 
ATOM     60  C   UNL A   1      42.719  28.852  33.386  1.00  0.00     0.049 A 
ATOM     61  H   UNL A   1      41.020  29.946  32.780  1.00  0.00     0.167 HD
ATOM     62  C   UNL A   1      42.309  30.417  35.263  1.00  0.00     0.074 A 
ATOM     63  C   UNL A   1      42.594  30.949  36.579  1.00  0.00     0.031 C 
ATOM     64  C   UNL A   1      43.027  29.434  34.666  1.00  0.00     0.034 A 
BRANCH  51  65
ATOM     65  C   UNL A   1      40.837  27.688  29.159  1.00  0.00     0.023 A 
ATOM     66  C   UNL A   1      40.051  26.518  29.111  1.00  0.00     0.012 A 
ATOM     67  C   UNL A   1      41.673  28.003  28.069  1.00  0.00     0.148 A 
ATOM     68  C   UNL A   1      40.120  25.659  28.015  1.00  0.00     0.002 A 
ATOM     69  C   UNL A   1      41.700  27.167  26.959  1.00  0.00     0.091 A 
ATOM     70  F   UNL A   1      42.425  29.110  28.140  1.00  0.00    -0.205 F 
ATOM     71  C   UNL A   1      40.935  25.989  26.936  1.00  0.00     0.022 A 
BRANCH  69  72
ATOM     72  S   UNL A   1      42.652  27.543  25.483  1.00  0.00     0.127 S 
ATOM     73  O   UNL A   1      44.010  27.617  26.019  1.00  0.00    -0.237 OA
ATOM     74  O   UNL A   1      42.390  26.373  24.645  1.00  0.00    -0.237 OA
ATOM     75  O   UNL A   1      42.119  28.796  24.966  1.00  0.00    -0.744 OA
ENDBRANCH  69  72
ENDBRANCH  51  65
BRANCH  52  76
ATOM     76  C   UNL A   1      39.524  33.829  36.936  1.00  0.00     0.023 A 
ATOM     77  C   UNL A   1      39.924  35.179  36.910  1.00  0.00     0.012 A 
ATOM     78  C   UNL A   1      38.903  33.318  38.092  1.00  0.00     0.148 A 
ATOM     79  C   UNL A   1      39.749  35.994  38.030  1.00  0.00     0.002 A 
ATOM     80  C   UNL A   1      38.678  34.152  39.182  1.00  0.00     0.091 A 
ATOM     81  F   UNL A   1      38.537  32.029  38.101  1.00  0.00    -0.205 F 
ATOM     82  C   UNL A   1      39.119  35.484  39.161  1.00  0.00     0.022 A 
BRANCH  80  83
ATOM     83  S   UNL A   1      37.757  33.615  40.628  1.00  0.00     0.127 S 
ATOM     84  O   UNL A   1      37.669  34.849  41.402  1.00  0.00    -0.237 OA
ATOM     85  O   UNL A   1      36.498  33.165  40.034  1.00  0.00    -0.237 OA
ATOM     86  O   UNL A   1      38.551  32.548  41.225  1.00  0.00    -0.744 OA
ENDBRANCH  80  83
ENDBRANCH  52  76
BRANCH  64  87
ATOM     87  C   UNL A   1      44.234  28.904  35.395  1.00  0.00     0.023 A 
ATOM     88  C   UNL A   1      45.493  29.507  35.215  1.00  0.00     0.012 A 
ATOM     89  C   UNL A   1      44.094  27.859  36.330  1.00  0.00     0.148 A 
ATOM     90  C   UNL A   1      46.602  29.058  35.932  1.00  0.00     0.002 A 
ATOM     91  C   UNL A   1      45.190  27.451  37.078  1.00  0.00     0.091 A 
ATOM     92  F   UNL A   1      42.889  27.287  36.472  1.00  0.00    -0.205 F 
ATOM     93  C   UNL A   1      46.447  28.040  36.871  1.00  0.00     0.022 A 
BRANCH  91  94
ATOM     94  S   UNL A   1      45.065  26.220  38.380  1.00  0.00     0.127 S 
ATOM     95  O   UNL A   1      46.466  26.044  38.759  1.00  0.00    -0.237 OA
ATOM     96  O   UNL A   1      44.244  26.909  39.377  1.00  0.00    -0.237 OA
ATOM     97  O   UNL A   1      44.432  25.055  37.776  1.00  0.00    -0.744 OA
ENDBRANCH  91  94
ENDBRANCH  64  87
ENDBRANCH  38  39
ENDBRANCH  30  33
ENDBRANCH  28  29
ENDBRANCH  27  28
ENDBRANCH  26  27
ENDBRANCH   1  26
TORSDOF 21
ENDMDL
MODEL 2
REMARK VINA RESULT:     -10.6      1.380      2.060
REMARK SMILES CC[NH2+][C@]1(C(=O)NCCCCCCNC(=O)c2ccc(-c3c4nc(c(-c5cccc(S(=O)(=O)[O-])c5F)c5ccc([nH]5)c(-c5cccc(S(=O)(=O)[O-])c5F)c5nc(c(-c6cccc(S(=O)(=O)[O-])c6F)c6ccc3[nH]6)C=C5)C=C4)cc2)CC[C@@H]([N@@H+](C)CC(C)(C)C)C1
REMARK SMILES IDX 10 1 9 2 8 3 7 4 5 5 6 6 4 8 80 9 90 10 81 11 82 12 3 13
REMARK SMILES IDX 2 16 1 17 83 18 84 19 85 21 86 22 87 23 88 24 89 25 11 26
REMARK SMILES IDX 12 27 13 28 14 29 15 30 16 32 17 33 18 34 79 35 19 36 78 37
REMARK SMILES IDX 20 38 21 39 22 40 72 41 23 42 77 43 71 44 73 45 24 46 76 47
REMARK SMILES IDX 70 48 69 49 25 51 57 52 37 53 56 54 38 55 41 56 55 57 74 58
REMARK SMILES IDX 39 59 40 60 54 62 75 63 42 64 26 65 27 66 35 67 28 68 30 69
REMARK SMILES IDX 36 70 29 71 31 72 32 73 33 74 34 75 58 76 59 77 67 78 60 79
REMARK SMILES IDX 62 80 68 81 61 82 63 83 64 84 65 85 66 86 43 87 44 88 52 89
REMARK SMILES IDX 45 90 47 91 53 92 46 93 48 94 49 95 50 96 51 97
REMARK H PARENT 7 7 3 14 3 15 83 20 14 31 73 50 41 61
REMARK Flexibility Score: inf
ROOT
ATOM      1  C   UNL A   1      34.775  29.374  27.359  1.00  0.00     0.002 C 
ENDROOT
BRANCH   1   2
ATOM      2  C   UNL A   1      33.477  28.555  27.420  1.00  0.00     0.021 C 
BRANCH   2   3
ATOM      3  C   UNL A   1      33.199  27.756  26.140  1.00  0.00     0.116 C 
BRANCH   3   4
ATOM      4  N   UNL A   1      33.543  28.537  24.964  1.00  0.00    -0.351 N 
ATOM      5  C   UNL A   1      33.432  28.302  23.629  1.00  0.00     0.281 C 
ATOM      6  O   UNL A   1      33.973  29.143  22.897  1.00  0.00    -0.268 OA
ATOM      7  H   UNL A   1      33.937  29.413  25.177  1.00  0.00     0.163 HD
BRANCH   5   8
ATOM      8  C   UNL A   1      32.580  27.139  23.016  1.00  0.00     0.181 C 
ATOM      9  C   UNL A   1      33.540  26.133  22.353  1.00  0.00     0.085 C 
ATOM     10  C   UNL A   1      31.899  26.221  24.056  1.00  0.00     0.144 C 
ATOM     11  C   UNL A   1      32.756  24.838  22.245  1.00  0.00     0.072 C 
ATOM     12  C   UNL A   1      31.970  24.768  23.546  1.00  0.00     0.190 C 
BRANCH   8  13
ATOM     13  N   UNL A   1      31.586  27.705  22.052  1.00  0.00    -0.334 N 
ATOM     14  H   UNL A   1      31.946  28.593  21.700  1.00  0.00     0.347 HD
ATOM     15  H   UNL A   1      31.461  27.018  21.310  1.00  0.00     0.347 HD
BRANCH  13  16
ATOM     16  C   UNL A   1      30.263  27.944  22.650  1.00  0.00     0.257 C 
ATOM     17  C   UNL A   1      29.676  29.291  22.262  1.00  0.00     0.071 C 
ENDBRANCH  13  16
ENDBRANCH   8  13
BRANCH  12  18
ATOM     18  N   UNL A   1      32.439  23.795  24.530  1.00  0.00    -0.334 N 
ATOM     19  C   UNL A   1      31.549  23.592  25.659  1.00  0.00     0.332 C 
ATOM     20  H   UNL A   1      33.257  24.384  24.688  1.00  0.00     0.348 HD
BRANCH  18  21
ATOM     21  C   UNL A   1      33.485  22.798  24.318  1.00  0.00     0.268 C 
BRANCH  21  22
ATOM     22  C   UNL A   1      35.010  23.046  24.605  1.00  0.00     0.011 C 
ATOM     23  C   UNL A   1      35.290  24.347  25.368  1.00  0.00     0.017 C 
ATOM     24  C   UNL A   1      35.498  21.910  25.537  1.00  0.00     0.017 C 
ATOM     25  C   UNL A   1      35.869  23.039  23.336  1.00  0.00     0.017 C 
ENDBRANCH  21  22
ENDBRANCH  18  21
ENDBRANCH  12  18
ENDBRANCH   5   8
ENDBRANCH   3   4
ENDBRANCH   2   3
ENDBRANCH   1   2
BRANCH   1  26
ATOM     26  C   UNL A   1      34.671  30.786  27.948  1.00  0.00     0.002 C 
BRANCH  26  27
ATOM     27  C   UNL A   1      33.888  31.785  27.092  1.00  0.00     0.021 C 
BRANCH  27  28
ATOM     28  C   UNL A   1      32.589  32.266  27.729  1.00  0.00     0.116 C 
BRANCH  28  29
ATOM     29  N   UNL A   1      32.530  33.721  27.786  1.00  0.00    -0.352 N 
ATOM     30  C   UNL A   1      33.230  34.585  28.590  1.00  0.00     0.251 C 
ATOM     31  H   UNL A   1      31.899  34.143  27.158  1.00  0.00     0.163 HD
ATOM     32  O   UNL A   1      32.887  35.758  28.679  1.00  0.00    -0.269 OA
BRANCH  30  33
ATOM     33  C   UNL A   1      34.395  34.088  29.351  1.00  0.00     0.039 A 
ATOM     34  C   UNL A   1      34.183  33.346  30.516  1.00  0.00     0.014 A 
ATOM     35  C   UNL A   1      35.694  34.359  28.912  1.00  0.00     0.014 A 
ATOM     36  C   UNL A   1      35.279  32.836  31.215  1.00  0.00     0.010 A 
ATOM     37  C   UNL A   1      36.777  33.783  29.566  1.00  0.00     0.010 A 
ATOM     38  C   UNL A   1      36.583  33.028  30.731  1.00  0.00    -0.014 A 
BRANCH  38  39
ATOM     39  C   UNL A   1      37.764  32.462  31.432  1.00  0.00     0.031 A 
ATOM     40  C   UNL A   1      38.530  31.324  30.811  1.00  0.00     0.074 A 
ATOM     41  C   UNL A   1      38.091  32.906  32.662  1.00  0.00     0.049 A 
ATOM     42  N   UNL A   1      39.521  30.629  31.306  1.00  0.00    -0.248 NA
ATOM     43  C   UNL A   1      38.108  30.892  29.467  1.00  0.00     0.031 C 
ATOM     44  C   UNL A   1      37.382  33.956  33.399  1.00  0.00     0.029 A 
ATOM     45  N   UNL A   1      39.082  32.508  33.525  1.00  0.00    -0.354 N 
ATOM     46  C   UNL A   1      39.817  29.660  30.355  1.00  0.00     0.074 A 
ATOM     47  C   UNL A   1      38.876  29.830  29.270  1.00  0.00     0.031 C 
ATOM     48  C   UNL A   1      37.955  34.112  34.603  1.00  0.00     0.029 A 
ATOM     49  C   UNL A   1      39.047  33.152  34.740  1.00  0.00     0.049 A 
ATOM     50  H   UNL A   1      39.754  31.826  33.295  1.00  0.00     0.167 HD
ATOM     51  C   UNL A   1      40.802  28.731  30.368  1.00  0.00     0.034 A 
ATOM     52  C   UNL A   1      39.795  32.975  35.846  1.00  0.00     0.034 A 
ATOM     53  C   UNL A   1      41.756  28.589  31.432  1.00  0.00     0.049 A 
ATOM     54  C   UNL A   1      40.899  31.952  35.825  1.00  0.00     0.074 A 
ATOM     55  C   UNL A   1      42.834  27.725  31.509  1.00  0.00     0.029 A 
ATOM     56  N   UNL A   1      41.747  29.323  32.607  1.00  0.00    -0.354 N 
ATOM     57  N   UNL A   1      41.250  31.137  34.860  1.00  0.00    -0.248 NA
ATOM     58  C   UNL A   1      41.736  31.849  37.029  1.00  0.00     0.031 C 
ATOM     59  C   UNL A   1      43.461  27.919  32.744  1.00  0.00     0.029 A 
ATOM     60  C   UNL A   1      42.798  28.932  33.418  1.00  0.00     0.049 A 
ATOM     61  H   UNL A   1      41.089  30.021  32.831  1.00  0.00     0.167 HD
ATOM     62  C   UNL A   1      42.373  30.458  35.322  1.00  0.00     0.074 A 
ATOM     63  C   UNL A   1      42.652  30.969  36.648  1.00  0.00     0.031 C 
ATOM     64  C   UNL A   1      43.100  29.494  34.708  1.00  0.00     0.034 A 
BRANCH  51  65
ATOM     65  C   UNL A   1      40.930  27.827  29.169  1.00  0.00     0.023 A 
ATOM     66  C   UNL A   1      40.169  26.641  29.107  1.00  0.00     0.012 A 
ATOM     67  C   UNL A   1      41.748  28.179  28.077  1.00  0.00     0.148 A 
ATOM     68  C   UNL A   1      40.247  25.803  27.997  1.00  0.00     0.002 A 
ATOM     69  C   UNL A   1      41.784  27.363  26.952  1.00  0.00     0.091 A 
ATOM     70  F   UNL A   1      42.477  29.301  28.161  1.00  0.00    -0.205 F 
ATOM     71  C   UNL A   1      41.045  26.169  26.916  1.00  0.00     0.022 A 
BRANCH  69  72
ATOM     72  S   UNL A   1      42.714  27.784  25.476  1.00  0.00     0.127 S 
ATOM     73  O   UNL A   1      42.588  26.559  24.688  1.00  0.00    -0.237 OA
ATOM     74  O   UNL A   1      41.960  28.924  24.954  1.00  0.00    -0.237 OA
ATOM     75  O   UNL A   1      44.064  28.099  25.924  1.00  0.00    -0.744 OA
ENDBRANCH  69  72
ENDBRANCH  51  65
BRANCH  52  76
ATOM     76  C   UNL A   1      39.554  33.812  37.056  1.00  0.00     0.023 A 
ATOM     77  C   UNL A   1      40.000  35.148  37.080  1.00  0.00     0.012 A 
ATOM     78  C   UNL A   1      38.878  33.293  38.177  1.00  0.00     0.148 A 
ATOM     79  C   UNL A   1      39.816  35.938  38.215  1.00  0.00     0.002 A 
ATOM     80  C   UNL A   1      38.647  34.104  39.283  1.00  0.00     0.091 A 
ATOM     81  F   UNL A   1      38.469  32.017  38.139  1.00  0.00    -0.205 F 
ATOM     82  C   UNL A   1      39.134  35.420  39.312  1.00  0.00     0.022 A 
BRANCH  80  83
ATOM     83  S   UNL A   1      37.662  33.562  40.684  1.00  0.00     0.127 S 
ATOM     84  O   UNL A   1      36.448  33.085  40.030  1.00  0.00    -0.237 OA
ATOM     85  O   UNL A   1      38.507  32.513  41.258  1.00  0.00    -0.237 OA
ATOM     86  O   UNL A   1      37.507  34.736  41.533  1.00  0.00    -0.744 OA
ENDBRANCH  80  83
ENDBRANCH  52  76
BRANCH  64  87
ATOM     87  C   UNL A   1      44.312  28.963  35.428  1.00  0.00     0.023 A 
ATOM     88  C   UNL A   1      45.570  29.567  35.242  1.00  0.00     0.012 A 
ATOM     89  C   UNL A   1      44.178  27.914  36.360  1.00  0.00     0.148 A 
ATOM     90  C   UNL A   1      46.683  29.116  35.950  1.00  0.00     0.002 A 
ATOM     91  C   UNL A   1      45.279  27.504  37.100  1.00  0.00     0.091 A 
ATOM     92  F   UNL A   1      42.975  27.341  36.508  1.00  0.00    -0.205 F 
ATOM     93  C   UNL A   1      46.535  28.095  36.888  1.00  0.00     0.022 A 
BRANCH  91  94
ATOM     94  S   UNL A   1      45.163  26.269  38.399  1.00  0.00     0.127 S 
ATOM     95  O   UNL A   1      44.805  25.072  37.641  1.00  0.00    -0.237 OA
ATOM     96  O   UNL A   1      46.522  26.265  38.942  1.00  0.00    -0.237 OA
ATOM     97  O   UNL A   1      44.144  26.750  39.323  1.00  0.00    -0.744 OA
ENDBRANCH  91  94
ENDBRANCH  64  87
ENDBRANCH  38  39
ENDBRANCH  30  33
ENDBRANCH  28  29
ENDBRANCH  27  28
ENDBRANCH  26  27
ENDBRANCH   1  26
TORSDOF 21
ENDMDL
MODEL 3
REMARK VINA RESULT:     -10.2      1.400      7.722
REMARK SMILES CC[NH2+][C@]1(C(=O)NCCCCCCNC(=O)c2ccc(-c3c4nc(c(-c5cccc(S(=O)(=O)[O-])c5F)c5ccc([nH]5)c(-c5cccc(S(=O)(=O)[O-])c5F)c5nc(c(-c6cccc(S(=O)(=O)[O-])c6F)c6ccc3[nH]6)C=C5)C=C4)cc2)CC[C@@H]([N@@H+](C)CC(C)(C)C)C1
REMARK SMILES IDX 10 1 9 2 8 3 7 4 5 5 6 6 4 8 80 9 90 10 81 11 82 12 3 13
REMARK SMILES IDX 2 16 1 17 83 18 84 19 85 21 86 22 87 23 88 24 89 25 11 26
REMARK SMILES IDX 12 27 13 28 14 29 15 30 16 32 17 33 18 34 79 35 19 36 78 37
REMARK SMILES IDX 20 38 21 39 22 40 72 41 23 42 77 43 71 44 73 45 24 46 76 47
REMARK SMILES IDX 70 48 69 49 25 51 57 52 37 53 56 54 38 55 41 56 55 57 74 58
REMARK SMILES IDX 39 59 40 60 54 62 75 63 42 64 26 65 27 66 35 67 28 68 30 69
REMARK SMILES IDX 36 70 29 71 31 72 32 73 33 74 34 75 58 76 59 77 67 78 60 79
REMARK SMILES IDX 62 80 68 81 61 82 63 83 64 84 65 85 66 86 43 87 44 88 52 89
REMARK SMILES IDX 45 90 47 91 53 92 46 93 48 94 49 95 50 96 51 97
REMARK H PARENT 7 7 3 14 3 15 83 20 14 31 73 50 41 61
REMARK Flexibility Score: inf
ROOT
ATOM      1  C   UNL A   1      31.797  29.204  26.731  1.00  0.00     0.002 C 
ENDROOT
BRANCH   1   2
ATOM      2  C   UNL A   1      33.210  28.622  26.585  1.00  0.00     0.021 C 
BRANCH   2   3
ATOM      3  C   UNL A   1      33.239  27.261  25.878  1.00  0.00     0.116 C 
BRANCH   3   4
ATOM      4  N   UNL A   1      32.285  26.347  26.483  1.00  0.00    -0.351 N 
ATOM      5  C   UNL A   1      31.728  25.177  26.071  1.00  0.00     0.281 C 
ATOM      6  O   UNL A   1      30.823  24.737  26.794  1.00  0.00    -0.268 OA
ATOM      7  H   UNL A   1      31.978  26.635  27.373  1.00  0.00     0.163 HD
BRANCH   5   8
ATOM      8  C   UNL A   1      32.253  24.346  24.851  1.00  0.00     0.181 C 
ATOM      9  C   UNL A   1      33.778  24.539  24.753  1.00  0.00     0.085 C 
ATOM     10  C   UNL A   1      32.185  22.813  25.036  1.00  0.00     0.144 C 
ATOM     11  C   UNL A   1      34.282  23.367  23.932  1.00  0.00     0.072 C 
ATOM     12  C   UNL A   1      33.449  22.188  24.413  1.00  0.00     0.190 C 
BRANCH   8  13
ATOM     13  N   UNL A   1      31.538  24.779  23.610  1.00  0.00    -0.334 N 
ATOM     14  H   UNL A   1      31.712  24.089  22.879  1.00  0.00     0.347 HD
ATOM     15  H   UNL A   1      30.548  24.853  23.842  1.00  0.00     0.347 HD
BRANCH  13  16
ATOM     16  C   UNL A   1      31.969  26.097  23.118  1.00  0.00     0.257 C 
ATOM     17  C   UNL A   1      32.603  26.032  21.738  1.00  0.00     0.071 C 
ENDBRANCH  13  16
ENDBRANCH   8  13
BRANCH  12  18
ATOM     18  N   UNL A   1      34.136  21.218  25.263  1.00  0.00    -0.334 N 
ATOM     19  C   UNL A   1      34.097  21.517  26.684  1.00  0.00     0.332 C 
ATOM     20  H   UNL A   1      35.002  21.435  24.770  1.00  0.00     0.348 HD
BRANCH  18  21
ATOM     21  C   UNL A   1      34.525  19.865  24.877  1.00  0.00     0.268 C 
BRANCH  21  22
ATOM     22  C   UNL A   1      33.507  18.724  24.512  1.00  0.00     0.011 C 
ATOM     23  C   UNL A   1      32.488  19.128  23.440  1.00  0.00     0.017 C 
ATOM     24  C   UNL A   1      34.317  17.560  23.892  1.00  0.00     0.017 C 
ATOM     25  C   UNL A   1      32.741  18.192  25.728  1.00  0.00     0.017 C 
ENDBRANCH  21  22
ENDBRANCH  18  21
ENDBRANCH  12  18
ENDBRANCH   5   8
ENDBRANCH   3   4
ENDBRANCH   2   3
ENDBRANCH   1   2
BRANCH   1  26
ATOM     26  C   UNL A   1      31.501  30.406  25.827  1.00  0.00     0.002 C 
BRANCH  26  27
ATOM     27  C   UNL A   1      31.406  31.750  26.555  1.00  0.00     0.021 C 
BRANCH  27  28
ATOM     28  C   UNL A   1      32.753  32.324  26.978  1.00  0.00     0.116 C 
BRANCH  28  29
ATOM     29  N   UNL A   1      32.630  33.707  27.418  1.00  0.00    -0.352 N 
ATOM     30  C   UNL A   1      33.246  34.340  28.469  1.00  0.00     0.251 C 
ATOM     31  H   UNL A   1      32.019  34.267  26.885  1.00  0.00     0.163 HD
ATOM     32  O   UNL A   1      32.849  35.436  28.845  1.00  0.00    -0.269 OA
BRANCH  30  33
ATOM     33  C   UNL A   1      34.384  33.684  29.145  1.00  0.00     0.039 A 
ATOM     34  C   UNL A   1      34.139  32.632  30.030  1.00  0.00     0.014 A 
ATOM     35  C   UNL A   1      35.693  34.115  28.904  1.00  0.00     0.014 A 
ATOM     36  C   UNL A   1      35.214  31.979  30.638  1.00  0.00     0.010 A 
ATOM     37  C   UNL A   1      36.761  33.413  29.449  1.00  0.00     0.010 A 
ATOM     38  C   UNL A   1      36.534  32.347  30.332  1.00  0.00    -0.014 A 
BRANCH  38  39
ATOM     39  C   UNL A   1      37.696  31.644  30.933  1.00  0.00     0.031 A 
ATOM     40  C   UNL A   1      38.098  31.939  32.354  1.00  0.00     0.074 A 
ATOM     41  C   UNL A   1      38.441  30.813  30.178  1.00  0.00     0.049 A 
ATOM     42  N   UNL A   1      39.135  31.509  33.024  1.00  0.00    -0.248 NA
ATOM     43  C   UNL A   1      37.235  32.861  33.113  1.00  0.00     0.031 C 
ATOM     44  C   UNL A   1      38.195  30.501  28.767  1.00  0.00     0.029 A 
ATOM     45  N   UNL A   1      39.579  30.106  30.478  1.00  0.00    -0.354 N 
ATOM     46  C   UNL A   1      39.070  32.132  34.265  1.00  0.00     0.074 A 
ATOM     47  C   UNL A   1      37.913  33.000  34.242  1.00  0.00     0.031 C 
ATOM     48  C   UNL A   1      39.155  29.673  28.325  1.00  0.00     0.029 A 
ATOM     49  C   UNL A   1      40.104  29.424  29.405  1.00  0.00     0.049 A 
ATOM     50  H   UNL A   1      39.980  30.089  31.378  1.00  0.00     0.167 HD
ATOM     51  C   UNL A   1      39.880  31.974  35.338  1.00  0.00     0.034 A 
ATOM     52  C   UNL A   1      41.234  28.697  29.298  1.00  0.00     0.034 A 
ATOM     53  C   UNL A   1      41.008  31.084  35.367  1.00  0.00     0.049 A 
ATOM     54  C   UNL A   1      42.104  28.518  30.513  1.00  0.00     0.074 A 
ATOM     55  C   UNL A   1      41.851  30.800  36.426  1.00  0.00     0.029 A 
ATOM     56  N   UNL A   1      41.454  30.337  34.288  1.00  0.00    -0.354 N 
ATOM     57  N   UNL A   1      41.950  29.008  31.719  1.00  0.00    -0.248 NA
ATOM     58  C   UNL A   1      43.285  27.655  30.366  1.00  0.00     0.031 C 
ATOM     59  C   UNL A   1      42.824  29.901  35.980  1.00  0.00     0.029 A 
ATOM     60  C   UNL A   1      42.562  29.593  34.655  1.00  0.00     0.049 A 
ATOM     61  H   UNL A   1      41.043  30.335  33.394  1.00  0.00     0.167 HD
ATOM     62  C   UNL A   1      42.984  28.479  32.483  1.00  0.00     0.074 A 
ATOM     63  C   UNL A   1      43.751  27.618  31.606  1.00  0.00     0.031 C 
ATOM     64  C   UNL A   1      43.277  28.693  33.788  1.00  0.00     0.034 A 
BRANCH  51  65
ATOM     65  C   UNL A   1      39.546  32.744  36.589  1.00  0.00     0.023 A 
ATOM     66  C   UNL A   1      40.136  34.006  36.807  1.00  0.00     0.012 A 
ATOM     67  C   UNL A   1      38.605  32.253  37.515  1.00  0.00     0.148 A 
ATOM     68  C   UNL A   1      39.822  34.752  37.942  1.00  0.00     0.002 A 
ATOM     69  C   UNL A   1      38.259  33.024  38.619  1.00  0.00     0.091 A 
ATOM     70  F   UNL A   1      38.067  31.044  37.300  1.00  0.00    -0.205 F 
ATOM     71  C   UNL A   1      38.877  34.266  38.841  1.00  0.00     0.022 A 
BRANCH  69  72
ATOM     72  S   UNL A   1      36.994  32.528  39.793  1.00  0.00     0.127 S 
ATOM     73  O   UNL A   1      37.134  33.552  40.827  1.00  0.00    -0.237 OA
ATOM     74  O   UNL A   1      35.775  32.633  38.991  1.00  0.00    -0.237 OA
ATOM     75  O   UNL A   1      37.336  31.174  40.208  1.00  0.00    -0.744 OA
ENDBRANCH  69  72
ENDBRANCH  51  65
BRANCH  52  76
ATOM     76  C   UNL A   1      41.589  28.050  28.004  1.00  0.00     0.023 A 
ATOM     77  C   UNL A   1      41.971  28.847  26.907  1.00  0.00     0.012 A 
ATOM     78  C   UNL A   1      41.556  26.650  27.857  1.00  0.00     0.148 A 
ATOM     79  C   UNL A   1      42.273  28.264  25.675  1.00  0.00     0.002 A 
ATOM     80  C   UNL A   1      41.915  26.072  26.643  1.00  0.00     0.091 A 
ATOM     81  F   UNL A   1      41.181  25.908  28.908  1.00  0.00    -0.205 F 
ATOM     82  C   UNL A   1      42.253  26.878  25.546  1.00  0.00     0.022 A 
BRANCH  80  83
ATOM     83  S   UNL A   1      42.044  24.294  26.426  1.00  0.00     0.127 S 
ATOM     84  O   UNL A   1      42.891  23.916  27.554  1.00  0.00    -0.237 OA
ATOM     85  O   UNL A   1      40.646  23.874  26.535  1.00  0.00    -0.237 OA
ATOM     86  O   UNL A   1      42.625  24.101  25.104  1.00  0.00    -0.744 OA
ENDBRANCH  80  83
ENDBRANCH  52  76
BRANCH  64  87
ATOM     87  C   UNL A   1      44.441  27.940  34.380  1.00  0.00     0.023 A 
ATOM     88  C   UNL A   1      45.733  28.497  34.356  1.00  0.00     0.012 A 
ATOM     89  C   UNL A   1      44.227  26.714  35.041  1.00  0.00     0.148 A 
ATOM     90  C   UNL A   1      46.802  27.831  34.954  1.00  0.00     0.002 A 
ATOM     91  C   UNL A   1      45.285  26.081  35.680  1.00  0.00     0.091 A 
ATOM     92  F   UNL A   1      42.991  26.193  35.038  1.00  0.00    -0.205 F 
ATOM     93  C   UNL A   1      46.575  26.631  35.626  1.00  0.00     0.022 A 
BRANCH  91  94
ATOM     94  S   UNL A   1      45.070  24.588  36.656  1.00  0.00     0.127 S 
ATOM     95  O   UNL A   1      44.106  25.027  37.663  1.00  0.00    -0.237 OA
ATOM     96  O   UNL A   1      44.536  23.649  35.668  1.00  0.00    -0.237 OA
ATOM     97  O   UNL A   1      46.391  24.245  37.165  1.00  0.00    -0.744 OA
ENDBRANCH  91  94
ENDBRANCH  64  87
ENDBRANCH  38  39
ENDBRANCH  30  33
ENDBRANCH  28  29
ENDBRANCH  27  28
ENDBRANCH  26  27
ENDBRANCH   1  26
TORSDOF 21
ENDMDL
