MODEL 1
REMARK VINA RESULT:     -11.5      0.000      0.000
REMARK SMILES C[C@@H](C(=O)NCCCCCCNC(=O)c1ccc(-c2c3nc(c(-c4cccc(S(=O)(=O)[O-])c4F)c4ccc([nH]4)c(-c4cccc(S(=O)(=O)[O-])c4F)c4nc(c(-c5cccc(S(=O)(=O)[O-])c5F)c5ccc2[nH]5)C=C4)C=C3)cc1)c1ccc(C[C@@H]2CCC[C@@H]2O)cc1Br
REMARK SMILES IDX 8 1 7 2 6 3 5 4 3 5 4 6 2 8 1 9 78 10 79 11 90 12 80 13
REMARK SMILES IDX 89 14 91 15 81 16 82 17 83 18 84 19 87 20 85 21 86 22 88 23
REMARK SMILES IDX 9 25 10 26 11 27 12 28 13 29 14 31 15 32 16 33 77 34 17 35
REMARK SMILES IDX 76 36 18 37 19 38 20 39 70 40 21 41 75 42 69 43 71 44 22 45
REMARK SMILES IDX 74 46 68 47 67 48 23 50 55 51 35 52 54 53 36 54 39 55 53 56
REMARK SMILES IDX 72 57 37 58 38 59 52 61 73 62 40 63 24 64 25 65 33 66 26 67
REMARK SMILES IDX 28 68 34 69 27 70 29 71 30 72 31 73 32 74 56 75 57 76 65 77
REMARK SMILES IDX 58 78 60 79 66 80 59 81 61 82 62 83 63 84 64 85 41 86 42 87
REMARK SMILES IDX 50 88 43 89 45 90 51 91 44 92 46 93 47 94 48 95 49 96
REMARK H PARENT 5 7 88 24 12 30 71 49 39 60
REMARK Flexibility Score: inf
ROOT
ATOM      1  C   UNL A   1      33.034  29.675  27.018  1.00  0.00     0.002 C 
ENDROOT
BRANCH   1   2
ATOM      2  C   UNL A   1      33.319  28.173  26.877  1.00  0.00     0.021 C 
BRANCH   2   3
ATOM      3  C   UNL A   1      32.989  27.612  25.490  1.00  0.00     0.116 C 
BRANCH   3   4
ATOM      4  N   UNL A   1      31.966  26.593  25.601  1.00  0.00    -0.356 N 
ATOM      5  C   UNL A   1      31.745  25.499  24.820  1.00  0.00     0.227 C 
ATOM      6  O   UNL A   1      30.677  24.905  24.988  1.00  0.00    -0.274 OA
ATOM      7  H   UNL A   1      31.339  26.708  26.351  1.00  0.00     0.163 HD
BRANCH   5   8
ATOM      8  C   UNL A   1      32.815  25.043  23.810  1.00  0.00     0.106 C 
ATOM      9  C   UNL A   1      32.590  25.654  22.419  1.00  0.00     0.023 C 
BRANCH   8  10
ATOM     10  C   UNL A   1      32.875  23.514  23.759  1.00  0.00    -0.022 A 
ATOM     11  C   UNL A   1      32.118  22.824  22.795  1.00  0.00     0.006 A 
ATOM     12  C   UNL A   1      33.580  22.748  24.702  1.00  0.00     0.022 A 
ATOM     13  C   UNL A   1      32.074  21.432  22.760  1.00  0.00     0.004 A 
ATOM     14  C   UNL A   1      33.508  21.348  24.683  1.00  0.00     0.019 A 
ATOM     15  Br  UNL A   1      34.632  23.529  26.081  1.00  0.00    -0.051 Br
ATOM     16  C   UNL A   1      32.731  20.678  23.729  1.00  0.00    -0.047 A 
BRANCH  16  17
ATOM     17  C   UNL A   1      32.568  19.182  23.777  1.00  0.00     0.041 C 
BRANCH  17  18
ATOM     18  C   UNL A   1      33.705  18.351  24.418  1.00  0.00     0.022 C 
ATOM     19  C   UNL A   1      34.255  17.209  23.553  1.00  0.00     0.007 C 
ATOM     20  C   UNL A   1      33.397  17.643  25.742  1.00  0.00     0.117 C 
ATOM     21  C   UNL A   1      33.612  15.916  24.066  1.00  0.00     0.003 C 
ATOM     22  C   UNL A   1      32.855  16.278  25.340  1.00  0.00     0.032 C 
BRANCH  20  23
ATOM     23  O   UNL A   1      32.505  18.348  26.578  1.00  0.00    -0.393 OA
ATOM     24  H   UNL A   1      32.441  17.897  27.435  1.00  0.00     0.210 HD
ENDBRANCH  20  23
ENDBRANCH  17  18
ENDBRANCH  16  17
ENDBRANCH   8  10
ENDBRANCH   5   8
ENDBRANCH   3   4
ENDBRANCH   2   3
ENDBRANCH   1   2
BRANCH   1  25
ATOM     25  C   UNL A   1      31.656  30.115  26.513  1.00  0.00     0.002 C 
BRANCH  25  26
ATOM     26  C   UNL A   1      31.346  31.600  26.718  1.00  0.00     0.021 C 
BRANCH  26  27
ATOM     27  C   UNL A   1      32.543  32.523  26.517  1.00  0.00     0.116 C 
BRANCH  27  28
ATOM     28  N   UNL A   1      32.347  33.811  27.167  1.00  0.00    -0.352 N 
ATOM     29  C   UNL A   1      32.987  34.331  28.262  1.00  0.00     0.251 C 
ATOM     30  H   UNL A   1      31.658  34.389  26.764  1.00  0.00     0.163 HD
ATOM     31  O   UNL A   1      32.551  35.339  28.814  1.00  0.00    -0.269 OA
BRANCH  29  32
ATOM     32  C   UNL A   1      34.198  33.663  28.785  1.00  0.00     0.039 A 
ATOM     33  C   UNL A   1      35.409  34.357  28.791  1.00  0.00     0.014 A 
ATOM     34  C   UNL A   1      34.130  32.357  29.278  1.00  0.00     0.014 A 
ATOM     35  C   UNL A   1      36.542  33.762  29.350  1.00  0.00     0.010 A 
ATOM     36  C   UNL A   1      35.240  31.796  29.902  1.00  0.00     0.010 A 
ATOM     37  C   UNL A   1      36.458  32.491  29.942  1.00  0.00    -0.014 A 
BRANCH  37  38
ATOM     38  C   UNL A   1      37.628  31.878  30.623  1.00  0.00     0.031 A 
ATOM     39  C   UNL A   1      38.442  30.819  29.931  1.00  0.00     0.074 A 
ATOM     40  C   UNL A   1      37.901  32.210  31.901  1.00  0.00     0.049 A 
ATOM     41  N   UNL A   1      39.450  30.125  30.389  1.00  0.00    -0.248 NA
ATOM     42  C   UNL A   1      38.057  30.476  28.551  1.00  0.00     0.031 C 
ATOM     43  C   UNL A   1      37.139  33.168  32.707  1.00  0.00     0.029 A 
ATOM     44  N   UNL A   1      38.873  31.757  32.758  1.00  0.00    -0.354 N 
ATOM     45  C   UNL A   1      39.797  29.241  29.374  1.00  0.00     0.074 A 
ATOM     46  C   UNL A   1      38.870  29.464  28.286  1.00  0.00     0.031 C 
ATOM     47  C   UNL A   1      37.673  33.232  33.937  1.00  0.00     0.029 A 
ATOM     48  C   UNL A   1      38.788  32.294  34.021  1.00  0.00     0.049 A 
ATOM     49  H   UNL A   1      39.565  31.109  32.492  1.00  0.00     0.167 HD
ATOM     50  C   UNL A   1      40.809  28.342  29.341  1.00  0.00     0.034 A 
ATOM     51  C   UNL A   1      39.514  32.047  35.130  1.00  0.00     0.034 A 
ATOM     52  C   UNL A   1      41.748  28.146  30.412  1.00  0.00     0.049 A 
ATOM     53  C   UNL A   1      40.646  31.059  35.057  1.00  0.00     0.074 A 
ATOM     54  C   UNL A   1      42.862  27.326  30.438  1.00  0.00     0.029 A 
ATOM     55  N   UNL A   1      41.677  28.763  31.651  1.00  0.00    -0.354 N 
ATOM     56  N   UNL A   1      41.057  30.348  34.035  1.00  0.00    -0.248 NA
ATOM     57  C   UNL A   1      41.435  30.859  36.282  1.00  0.00     0.031 C 
ATOM     58  C   UNL A   1      43.442  27.418  31.707  1.00  0.00     0.029 A 
ATOM     59  C   UNL A   1      42.714  28.328  32.457  1.00  0.00     0.049 A 
ATOM     60  H   UNL A   1      40.989  29.415  31.919  1.00  0.00     0.167 HD
ATOM     61  C   UNL A   1      42.172  29.648  34.481  1.00  0.00     0.074 A 
ATOM     62  C   UNL A   1      42.384  30.036  35.861  1.00  0.00     0.031 C 
ATOM     63  C   UNL A   1      42.944  28.756  33.813  1.00  0.00     0.034 A 
BRANCH  50  64
ATOM     64  C   UNL A   1      40.979  27.522  28.087  1.00  0.00     0.023 A 
ATOM     65  C   UNL A   1      41.572  28.103  26.947  1.00  0.00     0.012 A 
ATOM     66  C   UNL A   1      40.613  26.163  28.058  1.00  0.00     0.148 A 
ATOM     67  C   UNL A   1      41.763  27.355  25.786  1.00  0.00     0.002 A 
ATOM     68  C   UNL A   1      40.852  25.410  26.913  1.00  0.00     0.091 A 
ATOM     69  F   UNL A   1      40.034  25.632  29.144  1.00  0.00    -0.205 F 
ATOM     70  C   UNL A   1      41.413  26.007  25.773  1.00  0.00     0.022 A 
BRANCH  68  71
ATOM     71  S   UNL A   1      40.515  23.648  26.824  1.00  0.00     0.127 S 
ATOM     72  O   UNL A   1      41.446  23.222  25.780  1.00  0.00    -0.237 OA
ATOM     73  O   UNL A   1      40.865  23.201  28.172  1.00  0.00    -0.237 OA
ATOM     74  O   UNL A   1      39.104  23.524  26.488  1.00  0.00    -0.744 OA
ENDBRANCH  68  71
ENDBRANCH  50  64
BRANCH  51  75
ATOM     75  C   UNL A   1      39.220  32.782  36.393  1.00  0.00     0.023 A 
ATOM     76  C   UNL A   1      39.801  34.046  36.613  1.00  0.00     0.012 A 
ATOM     77  C   UNL A   1      38.356  32.244  37.365  1.00  0.00     0.148 A 
ATOM     78  C   UNL A   1      39.556  34.745  37.795  1.00  0.00     0.002 A 
ATOM     79  C   UNL A   1      38.069  32.971  38.515  1.00  0.00     0.091 A 
ATOM     80  F   UNL A   1      37.820  31.036  37.141  1.00  0.00    -0.205 F 
ATOM     81  C   UNL A   1      38.682  34.213  38.741  1.00  0.00     0.022 A 
BRANCH  79  82
ATOM     82  S   UNL A   1      36.857  32.426  39.723  1.00  0.00     0.127 S 
ATOM     83  O   UNL A   1      37.462  31.191  40.216  1.00  0.00    -0.237 OA
ATOM     84  O   UNL A   1      36.860  33.537  40.675  1.00  0.00    -0.237 OA
ATOM     85  O   UNL A   1      35.610  32.268  38.987  1.00  0.00    -0.744 OA
ENDBRANCH  79  82
ENDBRANCH  51  75
BRANCH  63  86
ATOM     86  C   UNL A   1      44.119  28.160  34.542  1.00  0.00     0.023 A 
ATOM     87  C   UNL A   1      45.366  28.817  34.528  1.00  0.00     0.012 A 
ATOM     88  C   UNL A   1      43.964  26.987  35.309  1.00  0.00     0.148 A 
ATOM     89  C   UNL A   1      46.447  28.299  35.239  1.00  0.00     0.002 A 
ATOM     90  C   UNL A   1      45.031  26.508  36.058  1.00  0.00     0.091 A 
ATOM     91  F   UNL A   1      42.775  26.369  35.296  1.00  0.00    -0.205 F 
ATOM     92  C   UNL A   1      46.277  27.154  36.014  1.00  0.00     0.022 A 
BRANCH  90  93
ATOM     93  S   UNL A   1      44.880  25.098  37.161  1.00  0.00     0.127 S 
ATOM     94  O   UNL A   1      44.750  23.991  36.214  1.00  0.00    -0.237 OA
ATOM     95  O   UNL A   1      46.151  25.136  37.885  1.00  0.00    -0.237 OA
ATOM     96  O   UNL A   1      43.705  25.353  37.984  1.00  0.00    -0.744 OA
ENDBRANCH  90  93
ENDBRANCH  63  86
ENDBRANCH  37  38
ENDBRANCH  29  32
ENDBRANCH  27  28
ENDBRANCH  26  27
ENDBRANCH  25  26
ENDBRANCH   1  25
TORSDOF 20
ENDMDL
MODEL 2
REMARK VINA RESULT:     -11.4      1.644      2.087
REMARK SMILES C[C@@H](C(=O)NCCCCCCNC(=O)c1ccc(-c2c3nc(c(-c4cccc(S(=O)(=O)[O-])c4F)c4ccc([nH]4)c(-c4cccc(S(=O)(=O)[O-])c4F)c4nc(c(-c5cccc(S(=O)(=O)[O-])c5F)c5ccc2[nH]5)C=C4)C=C3)cc1)c1ccc(C[C@@H]2CCC[C@@H]2O)cc1Br
REMARK SMILES IDX 8 1 7 2 6 3 5 4 3 5 4 6 2 8 1 9 78 10 79 11 90 12 80 13
REMARK SMILES IDX 89 14 91 15 81 16 82 17 83 18 84 19 87 20 85 21 86 22 88 23
REMARK SMILES IDX 9 25 10 26 11 27 12 28 13 29 14 31 15 32 16 33 77 34 17 35
REMARK SMILES IDX 76 36 18 37 19 38 20 39 70 40 21 41 75 42 69 43 71 44 22 45
REMARK SMILES IDX 74 46 68 47 67 48 23 50 55 51 35 52 54 53 36 54 39 55 53 56
REMARK SMILES IDX 72 57 37 58 38 59 52 61 73 62 40 63 24 64 25 65 33 66 26 67
REMARK SMILES IDX 28 68 34 69 27 70 29 71 30 72 31 73 32 74 56 75 57 76 65 77
REMARK SMILES IDX 58 78 60 79 66 80 59 81 61 82 62 83 63 84 64 85 41 86 42 87
REMARK SMILES IDX 50 88 43 89 45 90 51 91 44 92 46 93 47 94 48 95 49 96
REMARK H PARENT 5 7 88 24 12 30 71 49 39 60
REMARK Flexibility Score: inf
ROOT
ATOM      1  C   UNL A   1      33.191  29.740  27.176  1.00  0.00     0.002 C 
ENDROOT
BRANCH   1   2
ATOM      2  C   UNL A   1      33.577  28.368  26.607  1.00  0.00     0.021 C 
BRANCH   2   3
ATOM      3  C   UNL A   1      32.472  27.716  25.770  1.00  0.00     0.116 C 
BRANCH   3   4
ATOM      4  N   UNL A   1      31.847  26.650  26.524  1.00  0.00    -0.356 N 
ATOM      5  C   UNL A   1      31.234  25.518  26.079  1.00  0.00     0.227 C 
ATOM      6  O   UNL A   1      30.585  24.876  26.908  1.00  0.00    -0.274 OA
ATOM      7  H   UNL A   1      31.868  26.760  27.502  1.00  0.00     0.163 HD
BRANCH   5   8
ATOM      8  C   UNL A   1      31.392  25.081  24.610  1.00  0.00     0.106 C 
ATOM      9  C   UNL A   1      30.071  25.188  23.833  1.00  0.00     0.023 C 
BRANCH   8  10
ATOM     10  C   UNL A   1      31.983  23.672  24.539  1.00  0.00    -0.022 A 
ATOM     11  C   UNL A   1      31.239  22.584  25.031  1.00  0.00     0.006 A 
ATOM     12  C   UNL A   1      33.291  23.416  24.091  1.00  0.00     0.022 A 
ATOM     13  C   UNL A   1      31.766  21.295  25.066  1.00  0.00     0.004 A 
ATOM     14  C   UNL A   1      33.828  22.122  24.157  1.00  0.00     0.019 A 
ATOM     15  Br  UNL A   1      34.432  24.780  23.417  1.00  0.00    -0.051 Br
ATOM     16  C   UNL A   1      33.080  21.055  24.671  1.00  0.00    -0.047 A 
BRANCH  16  17
ATOM     17  C   UNL A   1      33.695  19.691  24.841  1.00  0.00     0.041 C 
BRANCH  17  18
ATOM     18  C   UNL A   1      32.765  18.460  24.725  1.00  0.00     0.022 C 
ATOM     19  C   UNL A   1      33.289  17.175  25.379  1.00  0.00     0.007 C 
ATOM     20  C   UNL A   1      32.398  17.987  23.314  1.00  0.00     0.117 C 
ATOM     21  C   UNL A   1      33.858  16.305  24.252  1.00  0.00     0.003 C 
ATOM     22  C   UNL A   1      33.486  16.989  22.940  1.00  0.00     0.032 C 
BRANCH  20  23
ATOM     23  O   UNL A   1      32.280  19.029  22.370  1.00  0.00    -0.393 OA
ATOM     24  H   UNL A   1      32.904  18.878  21.643  1.00  0.00     0.210 HD
ENDBRANCH  20  23
ENDBRANCH  17  18
ENDBRANCH  16  17
ENDBRANCH   8  10
ENDBRANCH   5   8
ENDBRANCH   3   4
ENDBRANCH   2   3
ENDBRANCH   1   2
BRANCH   1  25
ATOM     25  C   UNL A   1      31.840  30.277  26.691  1.00  0.00     0.002 C 
BRANCH  25  26
ATOM     26  C   UNL A   1      31.689  31.797  26.779  1.00  0.00     0.021 C 
BRANCH  26  27
ATOM     27  C   UNL A   1      32.916  32.517  27.327  1.00  0.00     0.116 C 
BRANCH  27  28
ATOM     28  N   UNL A   1      32.638  33.918  27.612  1.00  0.00    -0.352 N 
ATOM     29  C   UNL A   1      33.158  34.717  28.598  1.00  0.00     0.251 C 
ATOM     30  H   UNL A   1      31.987  34.352  27.014  1.00  0.00     0.163 HD
ATOM     31  O   UNL A   1      32.655  35.813  28.836  1.00  0.00    -0.269 OA
BRANCH  29  32
ATOM     32  C   UNL A   1      34.318  34.245  29.384  1.00  0.00     0.039 A 
ATOM     33  C   UNL A   1      34.096  33.513  30.551  1.00  0.00     0.014 A 
ATOM     34  C   UNL A   1      35.621  34.518  28.958  1.00  0.00     0.014 A 
ATOM     35  C   UNL A   1      35.184  33.000  31.260  1.00  0.00     0.010 A 
ATOM     36  C   UNL A   1      36.699  33.942  29.623  1.00  0.00     0.010 A 
ATOM     37  C   UNL A   1      36.492  33.180  30.783  1.00  0.00    -0.014 A 
BRANCH  37  38
ATOM     38  C   UNL A   1      37.657  32.566  31.471  1.00  0.00     0.031 A 
ATOM     39  C   UNL A   1      38.392  31.415  30.839  1.00  0.00     0.074 A 
ATOM     40  C   UNL A   1      37.996  32.986  32.706  1.00  0.00     0.049 A 
ATOM     41  N   UNL A   1      39.383  30.709  31.318  1.00  0.00    -0.248 NA
ATOM     42  C   UNL A   1      37.936  30.981  29.508  1.00  0.00     0.031 C 
ATOM     43  C   UNL A   1      37.314  34.043  33.456  1.00  0.00     0.029 A 
ATOM     44  N   UNL A   1      38.979  32.555  33.562  1.00  0.00    -0.354 N 
ATOM     45  C   UNL A   1      39.646  29.730  30.368  1.00  0.00     0.074 A 
ATOM     46  C   UNL A   1      38.689  29.911  29.298  1.00  0.00     0.031 C 
ATOM     47  C   UNL A   1      37.899  34.180  34.657  1.00  0.00     0.029 A 
ATOM     48  C   UNL A   1      38.971  33.196  34.779  1.00  0.00     0.049 A 
ATOM     49  H   UNL A   1      39.628  31.853  33.326  1.00  0.00     0.167 HD
ATOM     50  C   UNL A   1      40.612  28.780  30.372  1.00  0.00     0.034 A 
ATOM     51  C   UNL A   1      39.727  33.003  35.877  1.00  0.00     0.034 A 
ATOM     52  C   UNL A   1      41.583  28.624  31.421  1.00  0.00     0.049 A 
ATOM     53  C   UNL A   1      40.806  31.955  35.847  1.00  0.00     0.074 A 
ATOM     54  C   UNL A   1      42.657  27.753  31.476  1.00  0.00     0.029 A 
ATOM     55  N   UNL A   1      41.590  29.343  32.608  1.00  0.00    -0.354 N 
ATOM     56  N   UNL A   1      41.143  31.144  34.873  1.00  0.00    -0.248 NA
ATOM     57  C   UNL A   1      41.633  31.816  37.055  1.00  0.00     0.031 C 
ATOM     58  C   UNL A   1      43.290  27.918  32.711  1.00  0.00     0.029 A 
ATOM     59  C   UNL A   1      42.637  28.921  33.409  1.00  0.00     0.049 A 
ATOM     60  H   UNL A   1      40.945  30.048  32.845  1.00  0.00     0.167 HD
ATOM     61  C   UNL A   1      42.240  30.426  35.335  1.00  0.00     0.074 A 
ATOM     62  C   UNL A   1      42.525  30.913  36.669  1.00  0.00     0.031 C 
ATOM     63  C   UNL A   1      42.941  29.445  34.716  1.00  0.00     0.034 A 
BRANCH  50  64
ATOM     64  C   UNL A   1      40.693  27.854  29.185  1.00  0.00     0.023 A 
ATOM     65  C   UNL A   1      39.841  26.733  29.114  1.00  0.00     0.012 A 
ATOM     66  C   UNL A   1      41.564  28.128  28.114  1.00  0.00     0.148 A 
ATOM     67  C   UNL A   1      39.881  25.878  28.013  1.00  0.00     0.002 A 
ATOM     68  C   UNL A   1      41.564  27.299  26.998  1.00  0.00     0.091 A 
ATOM     69  F   UNL A   1      42.381  29.187  28.207  1.00  0.00    -0.205 F 
ATOM     70  C   UNL A   1      40.734  26.168  26.951  1.00  0.00     0.022 A 
BRANCH  68  71
ATOM     71  S   UNL A   1      42.565  27.631  25.543  1.00  0.00     0.127 S 
ATOM     72  O   UNL A   1      42.287  26.456  24.719  1.00  0.00    -0.237 OA
ATOM     73  O   UNL A   1      41.978  28.876  25.046  1.00  0.00    -0.237 OA
ATOM     74  O   UNL A   1      43.936  27.751  26.016  1.00  0.00    -0.744 OA
ENDBRANCH  68  71
ENDBRANCH  50  64
BRANCH  51  75
ATOM     75  C   UNL A   1      39.519  33.851  37.085  1.00  0.00     0.023 A 
ATOM     76  C   UNL A   1      39.969  35.186  37.083  1.00  0.00     0.012 A 
ATOM     77  C   UNL A   1      38.863  33.349  38.225  1.00  0.00     0.148 A 
ATOM     78  C   UNL A   1      39.802  35.994  38.208  1.00  0.00     0.002 A 
ATOM     79  C   UNL A   1      38.647  34.177  39.321  1.00  0.00     0.091 A 
ATOM     80  F   UNL A   1      38.451  32.074  38.211  1.00  0.00    -0.205 F 
ATOM     81  C   UNL A   1      39.133  35.494  39.322  1.00  0.00     0.022 A 
BRANCH  79  82
ATOM     82  S   UNL A   1      37.682  33.660  40.745  1.00  0.00     0.127 S 
ATOM     83  O   UNL A   1      36.486  33.112  40.111  1.00  0.00    -0.237 OA
ATOM     84  O   UNL A   1      38.564  32.669  41.361  1.00  0.00    -0.237 OA
ATOM     85  O   UNL A   1      37.481  34.863  41.542  1.00  0.00    -0.744 OA
ENDBRANCH  79  82
ENDBRANCH  51  75
BRANCH  63  86
ATOM     86  C   UNL A   1      44.114  28.851  35.449  1.00  0.00     0.023 A 
ATOM     87  C   UNL A   1      45.399  29.409  35.296  1.00  0.00     0.012 A 
ATOM     88  C   UNL A   1      43.926  27.787  36.355  1.00  0.00     0.148 A 
ATOM     89  C   UNL A   1      46.483  28.898  36.007  1.00  0.00     0.002 A 
ATOM     90  C   UNL A   1      45.001  27.319  37.100  1.00  0.00     0.091 A 
ATOM     91  F   UNL A   1      42.700  27.260  36.474  1.00  0.00    -0.205 F 
ATOM     92  C   UNL A   1      46.283  27.863  36.919  1.00  0.00     0.022 A 
BRANCH  90  93
ATOM     93  S   UNL A   1      44.820  26.058  38.367  1.00  0.00     0.127 S 
ATOM     94  O   UNL A   1      43.707  26.585  39.155  1.00  0.00    -0.237 OA
ATOM     95  O   UNL A   1      44.498  24.870  37.575  1.00  0.00    -0.237 OA
ATOM     96  O   UNL A   1      46.099  25.996  39.060  1.00  0.00    -0.744 OA
ENDBRANCH  90  93
ENDBRANCH  63  86
ENDBRANCH  37  38
ENDBRANCH  29  32
ENDBRANCH  27  28
ENDBRANCH  26  27
ENDBRANCH  25  26
ENDBRANCH   1  25
TORSDOF 20
ENDMDL
MODEL 3
REMARK VINA RESULT:     -11.3      1.687      7.703
REMARK SMILES C[C@@H](C(=O)NCCCCCCNC(=O)c1ccc(-c2c3nc(c(-c4cccc(S(=O)(=O)[O-])c4F)c4ccc([nH]4)c(-c4cccc(S(=O)(=O)[O-])c4F)c4nc(c(-c5cccc(S(=O)(=O)[O-])c5F)c5ccc2[nH]5)C=C4)C=C3)cc1)c1ccc(C[C@@H]2CCC[C@@H]2O)cc1Br
REMARK SMILES IDX 8 1 7 2 6 3 5 4 3 5 4 6 2 8 1 9 78 10 79 11 90 12 80 13
REMARK SMILES IDX 89 14 91 15 81 16 82 17 83 18 84 19 87 20 85 21 86 22 88 23
REMARK SMILES IDX 9 25 10 26 11 27 12 28 13 29 14 31 15 32 16 33 77 34 17 35
REMARK SMILES IDX 76 36 18 37 19 38 20 39 70 40 21 41 75 42 69 43 71 44 22 45
REMARK SMILES IDX 74 46 68 47 67 48 23 50 55 51 35 52 54 53 36 54 39 55 53 56
REMARK SMILES IDX 72 57 37 58 38 59 52 61 73 62 40 63 24 64 25 65 33 66 26 67
REMARK SMILES IDX 28 68 34 69 27 70 29 71 30 72 31 73 32 74 56 75 57 76 65 77
REMARK SMILES IDX 58 78 60 79 66 80 59 81 61 82 62 83 63 84 64 85 41 86 42 87
REMARK SMILES IDX 50 88 43 89 45 90 51 91 44 92 46 93 47 94 48 95 49 96
REMARK H PARENT 5 7 88 24 12 30 71 49 39 60
REMARK Flexibility Score: inf
ROOT
ATOM      1  C   UNL A   1      33.134  29.869  27.249  1.00  0.00     0.002 C 
ENDROOT
BRANCH   1   2
ATOM      2  C   UNL A   1      33.693  28.614  26.562  1.00  0.00     0.021 C 
BRANCH   2   3
ATOM      3  C   UNL A   1      32.658  27.862  25.720  1.00  0.00     0.116 C 
BRANCH   3   4
ATOM      4  N   UNL A   1      32.059  26.804  26.506  1.00  0.00    -0.356 N 
ATOM      5  C   UNL A   1      31.582  25.591  26.106  1.00  0.00     0.227 C 
ATOM      6  O   UNL A   1      30.918  24.958  26.930  1.00  0.00    -0.274 OA
ATOM      7  H   UNL A   1      31.985  26.987  27.470  1.00  0.00     0.163 HD
BRANCH   5   8
ATOM      8  C   UNL A   1      31.903  25.063  24.695  1.00  0.00     0.106 C 
ATOM      9  C   UNL A   1      30.725  25.253  23.728  1.00  0.00     0.023 C 
BRANCH   8  10
ATOM     10  C   UNL A   1      32.352  23.601  24.769  1.00  0.00    -0.022 A 
ATOM     11  C   UNL A   1      31.398  22.577  24.622  1.00  0.00     0.006 A 
ATOM     12  C   UNL A   1      33.669  23.223  25.077  1.00  0.00     0.022 A 
ATOM     13  C   UNL A   1      31.740  21.234  24.764  1.00  0.00     0.004 A 
ATOM     14  C   UNL A   1      34.003  21.872  25.249  1.00  0.00     0.019 A 
ATOM     15  Br  UNL A   1      35.069  24.486  25.327  1.00  0.00    -0.051 Br
ATOM     16  C   UNL A   1      33.035  20.867  25.122  1.00  0.00    -0.047 A 
BRANCH  16  17
ATOM     17  C   UNL A   1      33.371  19.429  25.413  1.00  0.00     0.041 C 
BRANCH  17  18
ATOM     18  C   UNL A   1      33.727  18.513  24.218  1.00  0.00     0.022 C 
ATOM     19  C   UNL A   1      32.708  17.410  23.906  1.00  0.00     0.007 C 
ATOM     20  C   UNL A   1      35.044  17.732  24.299  1.00  0.00     0.117 C 
ATOM     21  C   UNL A   1      33.263  16.112  24.503  1.00  0.00     0.003 C 
ATOM     22  C   UNL A   1      34.680  16.420  24.978  1.00  0.00     0.032 C 
BRANCH  20  23
ATOM     23  O   UNL A   1      36.078  18.416  24.974  1.00  0.00    -0.393 OA
ATOM     24  H   UNL A   1      36.411  19.133  24.413  1.00  0.00     0.210 HD
ENDBRANCH  20  23
ENDBRANCH  17  18
ENDBRANCH  16  17
ENDBRANCH   8  10
ENDBRANCH   5   8
ENDBRANCH   3   4
ENDBRANCH   2   3
ENDBRANCH   1   2
BRANCH   1  25
ATOM     25  C   UNL A   1      31.892  30.466  26.579  1.00  0.00     0.002 C 
BRANCH  25  26
ATOM     26  C   UNL A   1      31.692  31.963  26.825  1.00  0.00     0.021 C 
BRANCH  26  27
ATOM     27  C   UNL A   1      32.958  32.703  27.244  1.00  0.00     0.116 C 
BRANCH  27  28
ATOM     28  N   UNL A   1      32.673  34.070  27.657  1.00  0.00    -0.352 N 
ATOM     29  C   UNL A   1      33.159  34.764  28.734  1.00  0.00     0.251 C 
ATOM     30  H   UNL A   1      32.043  34.564  27.082  1.00  0.00     0.163 HD
ATOM     31  O   UNL A   1      32.650  35.834  29.061  1.00  0.00    -0.269 OA
BRANCH  29  32
ATOM     32  C   UNL A   1      34.290  34.211  29.509  1.00  0.00     0.039 A 
ATOM     33  C   UNL A   1      34.026  33.394  30.609  1.00  0.00     0.014 A 
ATOM     34  C   UNL A   1      35.608  34.493  29.139  1.00  0.00     0.014 A 
ATOM     35  C   UNL A   1      35.086  32.806  31.302  1.00  0.00     0.010 A 
ATOM     36  C   UNL A   1      36.659  33.847  29.783  1.00  0.00     0.010 A 
ATOM     37  C   UNL A   1      36.410  33.000  30.873  1.00  0.00    -0.014 A 
BRANCH  37  38
ATOM     38  C   UNL A   1      37.546  32.312  31.539  1.00  0.00     0.031 A 
ATOM     39  C   UNL A   1      38.062  32.806  32.863  1.00  0.00     0.074 A 
ATOM     40  C   UNL A   1      38.170  31.298  30.907  1.00  0.00     0.049 A 
ATOM     41  N   UNL A   1      39.083  32.379  33.560  1.00  0.00    -0.248 NA
ATOM     42  C   UNL A   1      37.357  33.947  33.472  1.00  0.00     0.031 C 
ATOM     43  C   UNL A   1      37.811  30.777  29.586  1.00  0.00     0.029 A 
ATOM     44  N   UNL A   1      39.257  30.546  31.276  1.00  0.00    -0.354 N 
ATOM     45  C   UNL A   1      39.166  33.216  34.666  1.00  0.00     0.074 A 
ATOM     46  C   UNL A   1      38.111  34.197  34.532  1.00  0.00     0.031 C 
ATOM     47  C   UNL A   1      38.660  29.790  29.257  1.00  0.00     0.029 A 
ATOM     48  C   UNL A   1      39.646  29.634  30.322  1.00  0.00     0.049 A 
ATOM     49  H   UNL A   1      39.716  30.650  32.141  1.00  0.00     0.167 HD
ATOM     50  C   UNL A   1      40.026  33.159  35.710  1.00  0.00     0.034 A 
ATOM     51  C   UNL A   1      40.688  28.780  30.298  1.00  0.00     0.034 A 
ATOM     52  C   UNL A   1      41.051  32.162  35.856  1.00  0.00     0.049 A 
ATOM     53  C   UNL A   1      41.615  28.724  31.481  1.00  0.00     0.074 A 
ATOM     54  C   UNL A   1      41.912  31.965  36.921  1.00  0.00     0.029 A 
ATOM     55  N   UNL A   1      41.368  31.205  34.903  1.00  0.00    -0.354 N 
ATOM     56  N   UNL A   1      41.578  29.419  32.592  1.00  0.00    -0.248 NA
ATOM     57  C   UNL A   1      42.710  27.743  31.423  1.00  0.00     0.031 C 
ATOM     58  C   UNL A   1      42.775  30.913  36.596  1.00  0.00     0.029 A 
ATOM     59  C   UNL A   1      42.423  30.428  35.346  1.00  0.00     0.049 A 
ATOM     60  H   UNL A   1      40.909  31.096  34.039  1.00  0.00     0.167 HD
ATOM     61  C   UNL A   1      42.618  28.936  33.379  1.00  0.00     0.074 A 
ATOM     62  C   UNL A   1      43.253  27.875  32.625  1.00  0.00     0.031 C 
ATOM     63  C   UNL A   1      43.017  29.343  34.609  1.00  0.00     0.034 A 
BRANCH  50  64
ATOM     64  C   UNL A   1      39.872  34.185  36.804  1.00  0.00     0.023 A 
ATOM     65  C   UNL A   1      40.182  35.536  36.543  1.00  0.00     0.012 A 
ATOM     66  C   UNL A   1      39.360  33.826  38.066  1.00  0.00     0.148 A 
ATOM     67  C   UNL A   1      40.022  36.506  37.533  1.00  0.00     0.002 A 
ATOM     68  C   UNL A   1      39.157  34.806  39.031  1.00  0.00     0.091 A 
ATOM     69  F   UNL A   1      39.089  32.534  38.302  1.00  0.00    -0.205 F 
ATOM     70  C   UNL A   1      39.499  36.142  38.771  1.00  0.00     0.022 A 
BRANCH  68  71
ATOM     71  S   UNL A   1      38.413  34.454  40.627  1.00  0.00     0.127 S 
ATOM     72  O   UNL A   1      39.465  33.673  41.277  1.00  0.00    -0.237 OA
ATOM     73  O   UNL A   1      38.222  35.796  41.178  1.00  0.00    -0.237 OA
ATOM     74  O   UNL A   1      37.182  33.729  40.349  1.00  0.00    -0.744 OA
ENDBRANCH  68  71
ENDBRANCH  50  64
BRANCH  51  75
ATOM     75  C   UNL A   1      40.885  27.877  29.128  1.00  0.00     0.023 A 
ATOM     76  C   UNL A   1      40.210  26.641  29.083  1.00  0.00     0.012 A 
ATOM     77  C   UNL A   1      41.721  28.242  28.056  1.00  0.00     0.148 A 
ATOM     78  C   UNL A   1      40.392  25.770  28.009  1.00  0.00     0.002 A 
ATOM     79  C   UNL A   1      41.853  27.396  26.961  1.00  0.00     0.091 A 
ATOM     80  F   UNL A   1      42.362  29.418  28.122  1.00  0.00    -0.205 F 
ATOM     81  C   UNL A   1      41.205  26.152  26.943  1.00  0.00     0.022 A 
BRANCH  79  82
ATOM     82  S   UNL A   1      42.772  27.860  25.489  1.00  0.00     0.127 S 
ATOM     83  O   UNL A   1      42.630  26.667  24.660  1.00  0.00    -0.237 OA
ATOM     84  O   UNL A   1      42.023  29.028  25.024  1.00  0.00    -0.237 OA
ATOM     85  O   UNL A   1      44.123  28.156  25.946  1.00  0.00    -0.744 OA
ENDBRANCH  79  82
ENDBRANCH  51  75
BRANCH  63  86
ATOM     86  C   UNL A   1      44.173  28.617  35.247  1.00  0.00     0.023 A 
ATOM     87  C   UNL A   1      45.495  29.029  34.989  1.00  0.00     0.012 A 
ATOM     88  C   UNL A   1      43.941  27.575  36.168  1.00  0.00     0.148 A 
ATOM     89  C   UNL A   1      46.569  28.395  35.611  1.00  0.00     0.002 A 
ATOM     90  C   UNL A   1      45.012  26.985  36.825  1.00  0.00     0.091 A 
ATOM     91  F   UNL A   1      42.676  27.187  36.387  1.00  0.00    -0.205 F 
ATOM     92  C   UNL A   1      46.328  27.383  36.539  1.00  0.00     0.022 A 
BRANCH  90  93
ATOM     93  S   UNL A   1      44.795  25.744  38.105  1.00  0.00     0.127 S 
ATOM     94  O   UNL A   1      43.908  26.434  39.041  1.00  0.00    -0.237 OA
ATOM     95  O   UNL A   1      44.168  24.647  37.368  1.00  0.00    -0.237 OA
ATOM     96  O   UNL A   1      46.127  25.450  38.614  1.00  0.00    -0.744 OA
ENDBRANCH  90  93
ENDBRANCH  63  86
ENDBRANCH  37  38
ENDBRANCH  29  32
ENDBRANCH  27  28
ENDBRANCH  26  27
ENDBRANCH  25  26
ENDBRANCH   1  25
TORSDOF 20
ENDMDL
