MODEL 1
REMARK VINA RESULT:     -11.8      0.000      0.000
REMARK SMILES CC(=O)c1c(C)nn(CC(=O)N2CCC[C@H](c3cccc(C(=O)NCCCCCCNC(=O)c4ccc(-c5c6nc(c(-c7cccc(S(=O)(=O)[O-])c7F)c7ccc([nH]7)c(-c7cccc(S(=O)(=O)[O-])c7F)c7nc(c(-c8cccc(S(=O)(=O)[O-])c8F)c8ccc5[nH]8)C=C7)C=C6)cc4)c3)C2)c1C
REMARK SMILES IDX 26 1 25 2 24 3 22 4 23 5 21 7 17 8 18 9 97 10 19 11 20 12
REMARK SMILES IDX 16 13 12 14 13 15 98 16 14 17 15 18 10 19 11 20 9 21 8 22
REMARK SMILES IDX 4 23 5 24 99 25 6 26 7 27 100 28 2 29 1 30 3 31 27 32 28 33
REMARK SMILES IDX 29 34 30 35 31 36 32 37 33 39 34 40 35 41 96 42 36 43 95 44
REMARK SMILES IDX 37 45 38 46 39 47 89 48 40 49 94 50 88 51 90 52 41 53 93 54
REMARK SMILES IDX 87 55 86 56 42 58 74 59 54 60 73 61 55 62 58 63 72 64 91 65
REMARK SMILES IDX 56 66 57 67 71 69 92 70 59 71 43 72 44 73 52 74 45 75 47 76
REMARK SMILES IDX 53 77 46 78 48 79 49 80 50 81 51 82 75 83 76 84 84 85 77 86
REMARK SMILES IDX 79 87 85 88 78 89 80 90 81 91 82 92 83 93 60 94 61 95 69 96
REMARK SMILES IDX 62 97 64 98 70 99 63 100 65 101 66 102 67 103 68 104
REMARK H PARENT 24 6 31 38 90 57 58 68
REMARK Flexibility Score: inf
ROOT
ATOM      1  C   UNL A   1      41.345  20.850  27.024  1.00  0.00     0.021 C 
ENDROOT
BRANCH   1   2
ATOM      2  C   UNL A   1      39.946  20.895  26.424  1.00  0.00     0.116 C 
BRANCH   2   3
ATOM      3  N   UNL A   1      39.414  22.226  26.173  1.00  0.00    -0.352 N 
ATOM      4  C   UNL A   1      38.167  22.649  25.748  1.00  0.00     0.251 C 
ATOM      5  O   UNL A   1      37.970  23.860  25.641  1.00  0.00    -0.269 OA
ATOM      6  H   UNL A   1      40.055  22.956  26.338  1.00  0.00     0.163 HD
BRANCH   4   7
ATOM      7  C   UNL A   1      37.082  21.697  25.364  1.00  0.00     0.040 A 
ATOM      8  C   UNL A   1      34.736  20.992  25.509  1.00  0.00    -0.042 A 
ATOM      9  C   UNL A   1      35.117  19.740  25.008  1.00  0.00     0.004 A 
ATOM     10  C   UNL A   1      35.731  21.984  25.560  1.00  0.00     0.018 A 
ATOM     11  C   UNL A   1      36.440  19.490  24.624  1.00  0.00     0.001 A 
ATOM     12  C   UNL A   1      37.428  20.452  24.837  1.00  0.00     0.014 A 
BRANCH   8  13
ATOM     13  C   UNL A   1      33.378  21.256  26.177  1.00  0.00     0.039 C 
ATOM     14  N   UNL A   1      32.419  23.094  24.797  1.00  0.00    -0.340 N 
ATOM     15  C   UNL A   1      32.637  24.082  25.850  1.00  0.00     0.119 C 
ATOM     16  C   UNL A   1      32.229  21.708  25.244  1.00  0.00     0.127 C 
ATOM     17  C   UNL A   1      33.706  23.663  26.851  1.00  0.00     0.022 C 
ATOM     18  C   UNL A   1      33.424  22.252  27.359  1.00  0.00     0.012 C 
BRANCH  14  19
ATOM     19  C   UNL A   1      32.648  23.455  23.480  1.00  0.00     0.244 C 
ATOM     20  O   UNL A   1      33.771  23.308  22.978  1.00  0.00    -0.273 OA
BRANCH  19  21
ATOM     21  C   UNL A   1      31.660  24.370  22.786  1.00  0.00     0.244 C 
BRANCH  21  22
ATOM     22  N   UNL A   1      31.780  25.802  22.984  1.00  0.00    -0.259 N 
ATOM     23  C   UNL A   1      31.561  27.857  23.763  1.00  0.00     0.061 A 
ATOM     24  C   UNL A   1      32.794  27.661  23.074  1.00  0.00     0.070 A 
ATOM     25  C   UNL A   1      30.894  26.642  23.623  1.00  0.00     0.047 A 
ATOM     26  C   UNL A   1      33.899  28.626  22.824  1.00  0.00     0.069 C 
ATOM     27  N   UNL A   1      32.941  26.395  22.663  1.00  0.00    -0.177 NA
ATOM     28  C   UNL A   1      29.515  26.213  23.980  1.00  0.00     0.067 C 
BRANCH  23  29
ATOM     29  C   UNL A   1      31.130  29.082  24.439  1.00  0.00     0.163 C 
ATOM     30  C   UNL A   1      31.905  29.588  25.629  1.00  0.00     0.093 C 
ATOM     31  O   UNL A   1      30.252  29.798  23.959  1.00  0.00    -0.294 OA
ENDBRANCH  23  29
ENDBRANCH  21  22
ENDBRANCH  19  21
ENDBRANCH  14  19
ENDBRANCH   8  13
ENDBRANCH   4   7
ENDBRANCH   2   3
ENDBRANCH   1   2
BRANCH   1  32
ATOM     32  C   UNL A   1      41.748  19.568  27.746  1.00  0.00     0.002 C 
BRANCH  32  33
ATOM     33  C   UNL A   1      42.693  18.608  27.010  1.00  0.00     0.002 C 
BRANCH  33  34
ATOM     34  C   UNL A   1      43.057  18.928  25.554  1.00  0.00     0.021 C 
BRANCH  34  35
ATOM     35  C   UNL A   1      44.547  18.942  25.248  1.00  0.00     0.116 C 
BRANCH  35  36
ATOM     36  N   UNL A   1      44.889  19.722  24.059  1.00  0.00    -0.352 N 
ATOM     37  C   UNL A   1      44.612  21.052  23.812  1.00  0.00     0.251 C 
ATOM     38  H   UNL A   1      45.375  19.242  23.349  1.00  0.00     0.163 HD
ATOM     39  O   UNL A   1      44.606  21.489  22.660  1.00  0.00    -0.269 OA
BRANCH  37  40
ATOM     40  C   UNL A   1      44.323  21.944  24.949  1.00  0.00     0.039 A 
ATOM     41  C   UNL A   1      45.152  21.998  26.073  1.00  0.00     0.014 A 
ATOM     42  C   UNL A   1      43.202  22.764  24.860  1.00  0.00     0.014 A 
ATOM     43  C   UNL A   1      44.879  22.944  27.058  1.00  0.00     0.010 A 
ATOM     44  C   UNL A   1      43.047  23.811  25.728  1.00  0.00     0.010 A 
ATOM     45  C   UNL A   1      43.836  23.867  26.866  1.00  0.00    -0.014 A 
BRANCH  45  46
ATOM     46  C   UNL A   1      43.631  24.973  27.794  1.00  0.00     0.031 A 
ATOM     47  C   UNL A   1      42.243  25.502  27.792  1.00  0.00     0.074 A 
ATOM     48  C   UNL A   1      44.549  25.379  28.699  1.00  0.00     0.049 A 
ATOM     49  N   UNL A   1      41.837  26.603  27.253  1.00  0.00    -0.248 NA
ATOM     50  C   UNL A   1      41.153  24.633  28.262  1.00  0.00     0.031 C 
ATOM     51  C   UNL A   1      45.841  24.758  29.027  1.00  0.00     0.029 A 
ATOM     52  N   UNL A   1      44.465  26.380  29.618  1.00  0.00    -0.354 N 
ATOM     53  C   UNL A   1      40.485  26.695  27.564  1.00  0.00     0.074 A 
ATOM     54  C   UNL A   1      40.081  25.372  27.964  1.00  0.00     0.031 C 
ATOM     55  C   UNL A   1      46.283  25.230  30.214  1.00  0.00     0.029 A 
ATOM     56  C   UNL A   1      45.415  26.311  30.634  1.00  0.00     0.049 A 
ATOM     57  H   UNL A   1      43.788  27.092  29.568  1.00  0.00     0.167 HD
ATOM     58  C   UNL A   1      39.896  27.910  27.738  1.00  0.00     0.034 A 
ATOM     59  C   UNL A   1      45.466  27.074  31.753  1.00  0.00     0.034 A 
ATOM     60  C   UNL A   1      40.751  28.968  27.246  1.00  0.00     0.049 A 
ATOM     61  C   UNL A   1      44.691  28.301  31.473  1.00  0.00     0.074 A 
ATOM     62  C   UNL A   1      41.330  29.282  26.033  1.00  0.00     0.029 A 
ATOM     63  N   UNL A   1      41.452  29.671  28.196  1.00  0.00    -0.354 N 
ATOM     64  N   UNL A   1      45.059  29.192  30.597  1.00  0.00    -0.248 NA
ATOM     65  C   UNL A   1      43.288  28.323  31.843  1.00  0.00     0.031 C 
ATOM     66  C   UNL A   1      42.627  29.780  26.364  1.00  0.00     0.029 A 
ATOM     67  C   UNL A   1      42.738  29.820  27.755  1.00  0.00     0.049 A 
ATOM     68  H   UNL A   1      41.092  30.010  29.047  1.00  0.00     0.167 HD
ATOM     69  C   UNL A   1      43.879  29.539  29.956  1.00  0.00     0.074 A 
ATOM     70  C   UNL A   1      42.815  29.073  30.843  1.00  0.00     0.031 C 
ATOM     71  C   UNL A   1      43.881  29.898  28.638  1.00  0.00     0.034 A 
BRANCH  58  72
ATOM     72  C   UNL A   1      38.777  28.216  28.715  1.00  0.00     0.023 A 
ATOM     73  C   UNL A   1      37.659  28.914  28.200  1.00  0.00     0.012 A 
ATOM     74  C   UNL A   1      38.880  28.133  30.122  1.00  0.00     0.148 A 
ATOM     75  C   UNL A   1      36.749  29.570  29.035  1.00  0.00     0.002 A 
ATOM     76  C   UNL A   1      37.932  28.725  30.951  1.00  0.00     0.091 A 
ATOM     77  F   UNL A   1      39.956  27.588  30.690  1.00  0.00    -0.205 F 
ATOM     78  C   UNL A   1      36.886  29.477  30.413  1.00  0.00     0.022 A 
BRANCH  76  79
ATOM     79  S   UNL A   1      38.034  28.604  32.742  1.00  0.00     0.127 S 
ATOM     80  O   UNL A   1      39.160  29.488  33.032  1.00  0.00    -0.237 OA
ATOM     81  O   UNL A   1      36.725  29.113  33.150  1.00  0.00    -0.237 OA
ATOM     82  O   UNL A   1      38.244  27.192  33.036  1.00  0.00    -0.744 OA
ENDBRANCH  76  79
ENDBRANCH  58  72
BRANCH  59  83
ATOM     83  C   UNL A   1      45.913  26.739  33.125  1.00  0.00     0.023 A 
ATOM     84  C   UNL A   1      46.819  27.588  33.794  1.00  0.00     0.012 A 
ATOM     85  C   UNL A   1      45.212  25.779  33.885  1.00  0.00     0.148 A 
ATOM     86  C   UNL A   1      46.985  27.515  35.182  1.00  0.00     0.002 A 
ATOM     87  C   UNL A   1      45.380  25.712  35.264  1.00  0.00     0.091 A 
ATOM     88  F   UNL A   1      44.307  25.006  33.269  1.00  0.00    -0.205 F 
ATOM     89  C   UNL A   1      46.256  26.587  35.919  1.00  0.00     0.022 A 
BRANCH  87  90
ATOM     90  S   UNL A   1      44.426  24.581  36.286  1.00  0.00     0.127 S 
ATOM     91  O   UNL A   1      44.898  23.279  35.815  1.00  0.00    -0.237 OA
ATOM     92  O   UNL A   1      44.869  24.954  37.626  1.00  0.00    -0.237 OA
ATOM     93  O   UNL A   1      43.027  24.858  35.985  1.00  0.00    -0.744 OA
ENDBRANCH  87  90
ENDBRANCH  59  83
BRANCH  71  94
ATOM     94  C   UNL A   1      45.211  30.186  27.986  1.00  0.00     0.023 A 
ATOM     95  C   UNL A   1      45.909  31.400  28.163  1.00  0.00     0.012 A 
ATOM     96  C   UNL A   1      45.843  29.134  27.303  1.00  0.00     0.148 A 
ATOM     97  C   UNL A   1      47.199  31.565  27.649  1.00  0.00     0.002 A 
ATOM     98  C   UNL A   1      47.143  29.285  26.837  1.00  0.00     0.091 A 
ATOM     99  F   UNL A   1      45.166  27.988  27.143  1.00  0.00    -0.205 F 
ATOM    100  C   UNL A   1      47.822  30.503  26.999  1.00  0.00     0.022 A 
BRANCH  98 101
ATOM    101  S   UNL A   1      48.034  27.914  26.102  1.00  0.00     0.127 S 
ATOM    102  O   UNL A   1      47.231  27.629  24.915  1.00  0.00    -0.237 OA
ATOM    103  O   UNL A   1      49.345  28.503  25.828  1.00  0.00    -0.237 OA
ATOM    104  O   UNL A   1      48.056  26.862  27.112  1.00  0.00    -0.744 OA
ENDBRANCH  98 101
ENDBRANCH  71  94
ENDBRANCH  45  46
ENDBRANCH  37  40
ENDBRANCH  35  36
ENDBRANCH  34  35
ENDBRANCH  33  34
ENDBRANCH  32  33
ENDBRANCH   1  32
TORSDOF 21
ENDMDL
MODEL 2
REMARK VINA RESULT:     -10.8      5.213     10.459
REMARK SMILES CC(=O)c1c(C)nn(CC(=O)N2CCC[C@H](c3cccc(C(=O)NCCCCCCNC(=O)c4ccc(-c5c6nc(c(-c7cccc(S(=O)(=O)[O-])c7F)c7ccc([nH]7)c(-c7cccc(S(=O)(=O)[O-])c7F)c7nc(c(-c8cccc(S(=O)(=O)[O-])c8F)c8ccc5[nH]8)C=C7)C=C6)cc4)c3)C2)c1C
REMARK SMILES IDX 26 1 25 2 24 3 22 4 23 5 21 7 17 8 18 9 97 10 19 11 20 12
REMARK SMILES IDX 16 13 12 14 13 15 98 16 14 17 15 18 10 19 11 20 9 21 8 22
REMARK SMILES IDX 4 23 5 24 99 25 6 26 7 27 100 28 2 29 1 30 3 31 27 32 28 33
REMARK SMILES IDX 29 34 30 35 31 36 32 37 33 39 34 40 35 41 96 42 36 43 95 44
REMARK SMILES IDX 37 45 38 46 39 47 89 48 40 49 94 50 88 51 90 52 41 53 93 54
REMARK SMILES IDX 87 55 86 56 42 58 74 59 54 60 73 61 55 62 58 63 72 64 91 65
REMARK SMILES IDX 56 66 57 67 71 69 92 70 59 71 43 72 44 73 52 74 45 75 47 76
REMARK SMILES IDX 53 77 46 78 48 79 49 80 50 81 51 82 75 83 76 84 84 85 77 86
REMARK SMILES IDX 79 87 85 88 78 89 80 90 81 91 82 92 83 93 60 94 61 95 69 96
REMARK SMILES IDX 62 97 64 98 70 99 63 100 65 101 66 102 67 103 68 104
REMARK H PARENT 24 6 31 38 90 57 58 68
REMARK Flexibility Score: inf
ROOT
ATOM      1  C   UNL A   1      44.262  35.521  33.086  1.00  0.00     0.021 C 
ENDROOT
BRANCH   1   2
ATOM      2  C   UNL A   1      43.225  34.586  32.477  1.00  0.00     0.116 C 
BRANCH   2   3
ATOM      3  N   UNL A   1      41.837  34.966  32.691  1.00  0.00    -0.352 N 
ATOM      4  C   UNL A   1      40.679  34.212  32.743  1.00  0.00     0.251 C 
ATOM      5  O   UNL A   1      39.616  34.793  32.968  1.00  0.00    -0.269 OA
ATOM      6  H   UNL A   1      41.697  35.932  32.824  1.00  0.00     0.163 HD
BRANCH   4   7
ATOM      7  C   UNL A   1      40.664  32.741  32.481  1.00  0.00     0.040 A 
ATOM      8  C   UNL A   1      40.132  30.862  30.995  1.00  0.00    -0.042 A 
ATOM      9  C   UNL A   1      40.241  30.004  32.098  1.00  0.00     0.004 A 
ATOM     10  C   UNL A   1      40.469  32.211  31.205  1.00  0.00     0.018 A 
ATOM     11  C   UNL A   1      40.623  30.490  33.354  1.00  0.00     0.001 A 
ATOM     12  C   UNL A   1      40.796  31.860  33.554  1.00  0.00     0.014 A 
BRANCH   8  13
ATOM     13  C   UNL A   1      39.482  30.449  29.665  1.00  0.00     0.039 C 
ATOM     14  N   UNL A   1      37.153  31.303  29.887  1.00  0.00    -0.340 N 
ATOM     15  C   UNL A   1      36.611  29.959  30.068  1.00  0.00     0.119 C 
ATOM     16  C   UNL A   1      38.393  31.398  29.108  1.00  0.00     0.127 C 
ATOM     17  C   UNL A   1      37.652  28.954  30.544  1.00  0.00     0.022 C 
ATOM     18  C   UNL A   1      38.890  29.021  29.654  1.00  0.00     0.012 C 
BRANCH  14  19
ATOM     19  C   UNL A   1      36.636  32.342  30.642  1.00  0.00     0.244 C 
ATOM     20  O   UNL A   1      37.394  33.154  31.192  1.00  0.00    -0.273 OA
BRANCH  19  21
ATOM     21  C   UNL A   1      35.197  32.264  31.112  1.00  0.00     0.244 C 
BRANCH  21  22
ATOM     22  N   UNL A   1      34.403  33.478  31.128  1.00  0.00    -0.259 N 
ATOM     23  C   UNL A   1      33.514  35.418  31.694  1.00  0.00     0.061 A 
ATOM     24  C   UNL A   1      33.466  35.184  30.288  1.00  0.00     0.070 A 
ATOM     25  C   UNL A   1      34.068  34.253  32.217  1.00  0.00     0.047 A 
ATOM     26  C   UNL A   1      32.914  36.043  29.207  1.00  0.00     0.069 C 
ATOM     27  N   UNL A   1      34.065  34.034  29.953  1.00  0.00    -0.177 NA
ATOM     28  C   UNL A   1      34.268  33.780  33.614  1.00  0.00     0.067 C 
BRANCH  23  29
ATOM     29  C   UNL A   1      33.057  36.624  32.389  1.00  0.00     0.163 C 
ATOM     30  C   UNL A   1      34.025  37.754  32.632  1.00  0.00     0.093 C 
ATOM     31  O   UNL A   1      31.865  36.805  32.631  1.00  0.00    -0.294 OA
ENDBRANCH  23  29
ENDBRANCH  21  22
ENDBRANCH  19  21
ENDBRANCH  14  19
ENDBRANCH   8  13
ENDBRANCH   4   7
ENDBRANCH   2   3
ENDBRANCH   1   2
BRANCH   1  32
ATOM     32  C   UNL A   1      44.666  36.740  32.262  1.00  0.00     0.002 C 
BRANCH  32  33
ATOM     33  C   UNL A   1      44.442  36.674  30.745  1.00  0.00     0.002 C 
BRANCH  33  34
ATOM     34  C   UNL A   1      45.641  36.330  29.852  1.00  0.00     0.021 C 
BRANCH  34  35
ATOM     35  C   UNL A   1      45.494  36.728  28.391  1.00  0.00     0.116 C 
BRANCH  35  36
ATOM     36  N   UNL A   1      44.121  37.063  28.014  1.00  0.00    -0.352 N 
ATOM     37  C   UNL A   1      43.227  36.286  27.304  1.00  0.00     0.251 C 
ATOM     38  H   UNL A   1      43.795  37.947  28.301  1.00  0.00     0.163 HD
ATOM     39  O   UNL A   1      42.265  36.801  26.731  1.00  0.00    -0.269 OA
BRANCH  37  40
ATOM     40  C   UNL A   1      43.440  34.829  27.242  1.00  0.00     0.039 A 
ATOM     41  C   UNL A   1      43.861  34.195  26.071  1.00  0.00     0.014 A 
ATOM     42  C   UNL A   1      43.234  34.095  28.407  1.00  0.00     0.014 A 
ATOM     43  C   UNL A   1      44.148  32.832  26.116  1.00  0.00     0.010 A 
ATOM     44  C   UNL A   1      43.696  32.809  28.497  1.00  0.00     0.010 A 
ATOM     45  C   UNL A   1      44.087  32.149  27.343  1.00  0.00    -0.014 A 
BRANCH  45  46
ATOM     46  C   UNL A   1      44.543  30.769  27.459  1.00  0.00     0.031 A 
ATOM     47  C   UNL A   1      43.444  29.772  27.393  1.00  0.00     0.074 A 
ATOM     48  C   UNL A   1      45.843  30.401  27.453  1.00  0.00     0.049 A 
ATOM     49  N   UNL A   1      42.943  29.109  28.382  1.00  0.00    -0.248 NA
ATOM     50  C   UNL A   1      42.686  29.635  26.141  1.00  0.00     0.031 C 
ATOM     51  C   UNL A   1      47.027  31.240  27.215  1.00  0.00     0.029 A 
ATOM     52  N   UNL A   1      46.383  29.154  27.539  1.00  0.00    -0.354 N 
ATOM     53  C   UNL A   1      41.991  28.264  27.821  1.00  0.00     0.074 A 
ATOM     54  C   UNL A   1      41.716  28.795  26.513  1.00  0.00     0.031 C 
ATOM     55  C   UNL A   1      48.089  30.456  26.925  1.00  0.00     0.029 A 
ATOM     56  C   UNL A   1      47.715  29.073  27.139  1.00  0.00     0.049 A 
ATOM     57  H   UNL A   1      45.874  28.374  27.857  1.00  0.00     0.167 HD
ATOM     58  C   UNL A   1      41.734  27.048  28.376  1.00  0.00     0.034 A 
ATOM     59  C   UNL A   1      48.448  27.945  26.973  1.00  0.00     0.034 A 
ATOM     60  C   UNL A   1      42.306  26.958  29.701  1.00  0.00     0.049 A 
ATOM     61  C   UNL A   1      47.792  26.885  27.768  1.00  0.00     0.074 A 
ATOM     62  C   UNL A   1      42.175  27.663  30.880  1.00  0.00     0.029 A 
ATOM     63  N   UNL A   1      43.484  26.258  29.806  1.00  0.00    -0.354 N 
ATOM     64  N   UNL A   1      47.732  26.904  29.069  1.00  0.00    -0.248 NA
ATOM     65  C   UNL A   1      46.821  26.034  27.104  1.00  0.00     0.031 C 
ATOM     66  C   UNL A   1      43.493  27.716  31.426  1.00  0.00     0.029 A 
ATOM     67  C   UNL A   1      44.338  26.975  30.597  1.00  0.00     0.049 A 
ATOM     68  H   UNL A   1      43.680  25.390  29.385  1.00  0.00     0.167 HD
ATOM     69  C   UNL A   1      46.442  26.480  29.351  1.00  0.00     0.074 A 
ATOM     70  C   UNL A   1      45.976  25.841  28.121  1.00  0.00     0.031 C 
ATOM     71  C   UNL A   1      45.777  26.951  30.447  1.00  0.00     0.034 A 
BRANCH  58  72
ATOM     72  C   UNL A   1      41.360  25.792  27.612  1.00  0.00     0.023 A 
ATOM     73  C   UNL A   1      40.079  25.250  27.873  1.00  0.00     0.012 A 
ATOM     74  C   UNL A   1      42.266  24.969  26.906  1.00  0.00     0.148 A 
ATOM     75  C   UNL A   1      39.752  23.933  27.534  1.00  0.00     0.002 A 
ATOM     76  C   UNL A   1      41.912  23.684  26.505  1.00  0.00     0.091 A 
ATOM     77  F   UNL A   1      43.526  25.360  26.714  1.00  0.00    -0.205 F 
ATOM     78  C   UNL A   1      40.669  23.148  26.850  1.00  0.00     0.022 A 
BRANCH  76  79
ATOM     79  S   UNL A   1      43.044  22.635  25.582  1.00  0.00     0.127 S 
ATOM     80  O   UNL A   1      43.250  23.422  24.370  1.00  0.00    -0.237 OA
ATOM     81  O   UNL A   1      44.193  22.573  26.484  1.00  0.00    -0.237 OA
ATOM     82  O   UNL A   1      42.355  21.363  25.405  1.00  0.00    -0.744 OA
ENDBRANCH  76  79
ENDBRANCH  58  72
BRANCH  59  83
ATOM     83  C   UNL A   1      49.519  27.630  26.000  1.00  0.00     0.023 A 
ATOM     84  C   UNL A   1      50.676  26.947  26.429  1.00  0.00     0.012 A 
ATOM     85  C   UNL A   1      49.265  27.708  24.615  1.00  0.00     0.148 A 
ATOM     86  C   UNL A   1      51.528  26.322  25.510  1.00  0.00     0.002 A 
ATOM     87  C   UNL A   1      50.113  27.084  23.706  1.00  0.00     0.091 A 
ATOM     88  F   UNL A   1      48.139  28.304  24.199  1.00  0.00    -0.205 F 
ATOM     89  C   UNL A   1      51.240  26.378  24.150  1.00  0.00     0.022 A 
BRANCH  87  90
ATOM     90  S   UNL A   1      49.769  27.062  21.941  1.00  0.00     0.127 S 
ATOM     91  O   UNL A   1      48.658  26.113  21.863  1.00  0.00    -0.237 OA
ATOM     92  O   UNL A   1      49.412  28.456  21.695  1.00  0.00    -0.237 OA
ATOM     93  O   UNL A   1      50.997  26.604  21.303  1.00  0.00    -0.744 OA
ENDBRANCH  87  90
ENDBRANCH  59  83
BRANCH  71  94
ATOM     94  C   UNL A   1      46.571  27.705  31.485  1.00  0.00     0.023 A 
ATOM     95  C   UNL A   1      47.358  27.066  32.467  1.00  0.00     0.012 A 
ATOM     96  C   UNL A   1      46.645  29.102  31.361  1.00  0.00     0.148 A 
ATOM     97  C   UNL A   1      48.181  27.809  33.319  1.00  0.00     0.002 A 
ATOM     98  C   UNL A   1      47.500  29.831  32.175  1.00  0.00     0.091 A 
ATOM     99  F   UNL A   1      45.890  29.693  30.423  1.00  0.00    -0.205 F 
ATOM    100  C   UNL A   1      48.264  29.190  33.163  1.00  0.00     0.022 A 
BRANCH  98 101
ATOM    101  S   UNL A   1      47.736  31.593  31.938  1.00  0.00     0.127 S 
ATOM    102  O   UNL A   1      48.734  31.907  32.958  1.00  0.00    -0.237 OA
ATOM    103  O   UNL A   1      48.226  31.660  30.560  1.00  0.00    -0.237 OA
ATOM    104  O   UNL A   1      46.427  32.203  32.132  1.00  0.00    -0.744 OA
ENDBRANCH  98 101
ENDBRANCH  71  94
ENDBRANCH  45  46
ENDBRANCH  37  40
ENDBRANCH  35  36
ENDBRANCH  34  35
ENDBRANCH  33  34
ENDBRANCH  32  33
ENDBRANCH   1  32
TORSDOF 21
ENDMDL
MODEL 3
REMARK VINA RESULT:     -10.7      4.228      7.774
REMARK SMILES CC(=O)c1c(C)nn(CC(=O)N2CCC[C@H](c3cccc(C(=O)NCCCCCCNC(=O)c4ccc(-c5c6nc(c(-c7cccc(S(=O)(=O)[O-])c7F)c7ccc([nH]7)c(-c7cccc(S(=O)(=O)[O-])c7F)c7nc(c(-c8cccc(S(=O)(=O)[O-])c8F)c8ccc5[nH]8)C=C7)C=C6)cc4)c3)C2)c1C
REMARK SMILES IDX 26 1 25 2 24 3 22 4 23 5 21 7 17 8 18 9 97 10 19 11 20 12
REMARK SMILES IDX 16 13 12 14 13 15 98 16 14 17 15 18 10 19 11 20 9 21 8 22
REMARK SMILES IDX 4 23 5 24 99 25 6 26 7 27 100 28 2 29 1 30 3 31 27 32 28 33
REMARK SMILES IDX 29 34 30 35 31 36 32 37 33 39 34 40 35 41 96 42 36 43 95 44
REMARK SMILES IDX 37 45 38 46 39 47 89 48 40 49 94 50 88 51 90 52 41 53 93 54
REMARK SMILES IDX 87 55 86 56 42 58 74 59 54 60 73 61 55 62 58 63 72 64 91 65
REMARK SMILES IDX 56 66 57 67 71 69 92 70 59 71 43 72 44 73 52 74 45 75 47 76
REMARK SMILES IDX 53 77 46 78 48 79 49 80 50 81 51 82 75 83 76 84 84 85 77 86
REMARK SMILES IDX 79 87 85 88 78 89 80 90 81 91 82 92 83 93 60 94 61 95 69 96
REMARK SMILES IDX 62 97 64 98 70 99 63 100 65 101 66 102 67 103 68 104
REMARK H PARENT 24 6 31 38 90 57 58 68
REMARK Flexibility Score: inf
ROOT
ATOM      1  C   UNL A   1      39.952  23.032  27.225  1.00  0.00     0.021 C 
ENDROOT
BRANCH   1   2
ATOM      2  C   UNL A   1      38.718  22.842  26.352  1.00  0.00     0.116 C 
BRANCH   2   3
ATOM      3  N   UNL A   1      38.452  21.474  25.934  1.00  0.00    -0.352 N 
ATOM      4  C   UNL A   1      37.500  20.946  25.080  1.00  0.00     0.251 C 
ATOM      5  O   UNL A   1      37.512  19.732  24.876  1.00  0.00    -0.269 OA
ATOM      6  H   UNL A   1      39.058  20.805  26.328  1.00  0.00     0.163 HD
BRANCH   4   7
ATOM      7  C   UNL A   1      36.434  21.781  24.448  1.00  0.00     0.040 A 
ATOM      8  C   UNL A   1      34.069  22.131  23.897  1.00  0.00    -0.042 A 
ATOM      9  C   UNL A   1      34.466  23.084  22.950  1.00  0.00     0.004 A 
ATOM     10  C   UNL A   1      35.078  21.587  24.711  1.00  0.00     0.018 A 
ATOM     11  C   UNL A   1      35.813  23.434  22.801  1.00  0.00     0.001 A 
ATOM     12  C   UNL A   1      36.799  22.757  23.520  1.00  0.00     0.014 A 
BRANCH   8  13
ATOM     13  C   UNL A   1      32.659  21.521  23.940  1.00  0.00     0.039 C 
ATOM     14  N   UNL A   1      31.177  23.517  23.791  1.00  0.00    -0.340 N 
ATOM     15  C   UNL A   1      30.792  23.414  25.197  1.00  0.00     0.119 C 
ATOM     16  C   UNL A   1      31.564  22.263  23.135  1.00  0.00     0.127 C 
ATOM     17  C   UNL A   1      31.792  22.627  26.033  1.00  0.00     0.022 C 
ATOM     18  C   UNL A   1      32.100  21.291  25.363  1.00  0.00     0.012 C 
BRANCH  14  19
ATOM     19  C   UNL A   1      31.396  24.772  23.247  1.00  0.00     0.244 C 
ATOM     20  O   UNL A   1      31.946  24.887  22.143  1.00  0.00    -0.273 OA
BRANCH  19  21
ATOM     21  C   UNL A   1      31.325  25.987  24.149  1.00  0.00     0.244 C 
BRANCH  21  22
ATOM     22  N   UNL A   1      30.349  27.018  23.852  1.00  0.00    -0.259 N 
ATOM     23  C   UNL A   1      29.310  28.763  22.982  1.00  0.00     0.061 A 
ATOM     24  C   UNL A   1      28.406  27.802  23.526  1.00  0.00     0.070 A 
ATOM     25  C   UNL A   1      30.571  28.250  23.276  1.00  0.00     0.047 A 
ATOM     26  C   UNL A   1      26.920  27.831  23.580  1.00  0.00     0.069 C 
ATOM     27  N   UNL A   1      29.046  26.722  23.992  1.00  0.00    -0.177 NA
ATOM     28  C   UNL A   1      31.940  28.812  23.117  1.00  0.00     0.067 C 
BRANCH  23  29
ATOM     29  C   UNL A   1      28.947  30.002  22.292  1.00  0.00     0.163 C 
ATOM     30  C   UNL A   1      28.330  31.134  23.073  1.00  0.00     0.093 C 
ATOM     31  O   UNL A   1      29.285  30.204  21.127  1.00  0.00    -0.294 OA
ENDBRANCH  23  29
ENDBRANCH  21  22
ENDBRANCH  19  21
ENDBRANCH  14  19
ENDBRANCH   8  13
ENDBRANCH   4   7
ENDBRANCH   2   3
ENDBRANCH   1   2
BRANCH   1  32
ATOM     32  C   UNL A   1      40.797  21.794  27.509  1.00  0.00     0.002 C 
BRANCH  32  33
ATOM     33  C   UNL A   1      41.992  21.525  26.584  1.00  0.00     0.002 C 
BRANCH  33  34
ATOM     34  C   UNL A   1      42.576  22.705  25.797  1.00  0.00     0.021 C 
BRANCH  34  35
ATOM     35  C   UNL A   1      43.501  23.616  26.590  1.00  0.00     0.116 C 
BRANCH  35  36
ATOM     36  N   UNL A   1      44.668  24.063  25.830  1.00  0.00    -0.352 N 
ATOM     37  C   UNL A   1      45.058  25.362  25.568  1.00  0.00     0.251 C 
ATOM     38  H   UNL A   1      45.244  23.355  25.461  1.00  0.00     0.163 HD
ATOM     39  O   UNL A   1      45.815  25.613  24.628  1.00  0.00    -0.269 OA
BRANCH  37  40
ATOM     40  C   UNL A   1      44.557  26.446  26.431  1.00  0.00     0.039 A 
ATOM     41  C   UNL A   1      45.123  26.716  27.679  1.00  0.00     0.014 A 
ATOM     42  C   UNL A   1      43.507  27.224  25.949  1.00  0.00     0.014 A 
ATOM     43  C   UNL A   1      44.671  27.825  28.391  1.00  0.00     0.010 A 
ATOM     44  C   UNL A   1      43.200  28.412  26.556  1.00  0.00     0.010 A 
ATOM     45  C   UNL A   1      43.724  28.686  27.809  1.00  0.00    -0.014 A 
BRANCH  45  46
ATOM     46  C   UNL A   1      43.355  29.943  28.451  1.00  0.00     0.031 A 
ATOM     47  C   UNL A   1      44.237  31.080  28.082  1.00  0.00     0.074 A 
ATOM     48  C   UNL A   1      42.228  30.117  29.175  1.00  0.00     0.049 A 
ATOM     49  N   UNL A   1      45.157  31.613  28.815  1.00  0.00    -0.248 NA
ATOM     50  C   UNL A   1      44.238  31.552  26.690  1.00  0.00     0.031 C 
ATOM     51  C   UNL A   1      41.114  29.178  29.369  1.00  0.00     0.029 A 
ATOM     52  N   UNL A   1      41.776  31.238  29.803  1.00  0.00    -0.354 N 
ATOM     53  C   UNL A   1      45.661  32.673  28.069  1.00  0.00     0.074 A 
ATOM     54  C   UNL A   1      45.238  32.438  26.714  1.00  0.00     0.031 C 
ATOM     55  C   UNL A   1      40.034  29.843  29.833  1.00  0.00     0.029 A 
ATOM     56  C   UNL A   1      40.427  31.202  30.147  1.00  0.00     0.049 A 
ATOM     57  H   UNL A   1      42.355  32.009  29.997  1.00  0.00     0.167 HD
ATOM     58  C   UNL A   1      46.135  33.790  28.688  1.00  0.00     0.034 A 
ATOM     59  C   UNL A   1      39.683  32.226  30.632  1.00  0.00     0.034 A 
ATOM     60  C   UNL A   1      46.324  33.551  30.101  1.00  0.00     0.049 A 
ATOM     61  C   UNL A   1      40.626  33.202  31.217  1.00  0.00     0.074 A 
ATOM     62  C   UNL A   1      47.062  32.666  30.860  1.00  0.00     0.029 A 
ATOM     63  N   UNL A   1      45.349  34.045  30.935  1.00  0.00    -0.354 N 
ATOM     64  N   UNL A   1      41.347  32.952  32.273  1.00  0.00    -0.248 NA
ATOM     65  C   UNL A   1      41.093  34.290  30.378  1.00  0.00     0.031 C 
ATOM     66  C   UNL A   1      46.215  32.327  31.958  1.00  0.00     0.029 A 
ATOM     67  C   UNL A   1      45.044  33.081  31.855  1.00  0.00     0.049 A 
ATOM     68  H   UNL A   1      44.941  34.940  30.880  1.00  0.00     0.167 HD
ATOM     69  C   UNL A   1      42.586  33.495  31.968  1.00  0.00     0.074 A 
ATOM     70  C   UNL A   1      42.335  34.409  30.855  1.00  0.00     0.031 C 
ATOM     71  C   UNL A   1      43.733  32.929  32.447  1.00  0.00     0.034 A 
BRANCH  58  72
ATOM     72  C   UNL A   1      46.028  35.205  28.153  1.00  0.00     0.023 A 
ATOM     73  C   UNL A   1      47.196  36.001  28.228  1.00  0.00     0.012 A 
ATOM     74  C   UNL A   1      44.818  35.879  27.869  1.00  0.00     0.148 A 
ATOM     75  C   UNL A   1      47.148  37.394  28.121  1.00  0.00     0.002 A 
ATOM     76  C   UNL A   1      44.786  37.259  27.690  1.00  0.00     0.091 A 
ATOM     77  F   UNL A   1      43.658  35.222  27.888  1.00  0.00    -0.205 F 
ATOM     78  C   UNL A   1      45.941  38.025  27.853  1.00  0.00     0.022 A 
BRANCH  76  79
ATOM     79  S   UNL A   1      43.260  38.126  27.301  1.00  0.00     0.127 S 
ATOM     80  O   UNL A   1      43.764  39.322  26.633  1.00  0.00    -0.237 OA
ATOM     81  O   UNL A   1      42.586  37.165  26.429  1.00  0.00    -0.237 OA
ATOM     82  O   UNL A   1      42.588  38.346  28.577  1.00  0.00    -0.744 OA
ENDBRANCH  76  79
ENDBRANCH  58  72
BRANCH  59  83
ATOM     83  C   UNL A   1      38.256  32.560  30.421  1.00  0.00     0.023 A 
ATOM     84  C   UNL A   1      37.610  32.158  29.233  1.00  0.00     0.012 A 
ATOM     85  C   UNL A   1      37.457  32.979  31.505  1.00  0.00     0.148 A 
ATOM     86  C   UNL A   1      36.214  32.130  29.144  1.00  0.00     0.002 A 
ATOM     87  C   UNL A   1      36.070  32.947  31.413  1.00  0.00     0.091 A 
ATOM     88  F   UNL A   1      38.057  33.308  32.658  1.00  0.00    -0.205 F 
ATOM     89  C   UNL A   1      35.443  32.511  30.238  1.00  0.00     0.022 A 
BRANCH  87  90
ATOM     90  S   UNL A   1      35.012  33.365  32.806  1.00  0.00     0.127 S 
ATOM     91  O   UNL A   1      35.055  34.828  32.788  1.00  0.00    -0.237 OA
ATOM     92  O   UNL A   1      33.741  32.777  32.395  1.00  0.00    -0.237 OA
ATOM     93  O   UNL A   1      35.638  32.760  33.975  1.00  0.00    -0.744 OA
ENDBRANCH  87  90
ENDBRANCH  59  83
BRANCH  71  94
ATOM     94  C   UNL A   1      43.607  31.891  33.535  1.00  0.00     0.023 A 
ATOM     95  C   UNL A   1      43.540  30.506  33.275  1.00  0.00     0.012 A 
ATOM     96  C   UNL A   1      43.717  32.326  34.866  1.00  0.00     0.148 A 
ATOM     97  C   UNL A   1      43.561  29.579  34.322  1.00  0.00     0.002 A 
ATOM     98  C   UNL A   1      43.786  31.401  35.900  1.00  0.00     0.091 A 
ATOM     99  F   UNL A   1      43.779  33.646  35.096  1.00  0.00    -0.205 F 
ATOM    100  C   UNL A   1      43.698  30.026  35.634  1.00  0.00     0.022 A 
BRANCH  98 101
ATOM    101  S   UNL A   1      44.086  31.916  37.591  1.00  0.00     0.127 S 
ATOM    102  O   UNL A   1      43.974  30.653  38.318  1.00  0.00    -0.237 OA
ATOM    103  O   UNL A   1      45.441  32.462  37.517  1.00  0.00    -0.237 OA
ATOM    104  O   UNL A   1      43.062  32.908  37.896  1.00  0.00    -0.744 OA
ENDBRANCH  98 101
ENDBRANCH  71  94
ENDBRANCH  45  46
ENDBRANCH  37  40
ENDBRANCH  35  36
ENDBRANCH  34  35
ENDBRANCH  33  34
ENDBRANCH  32  33
ENDBRANCH   1  32
TORSDOF 21
ENDMDL
