MODEL 1
REMARK VINA RESULT:     -13.4      0.000      0.000
REMARK SMILES Cc1c(NC(=O)c2ccc(Br)cc2N)cccc1C(=O)NCCCCCCNC(=O)c1ccc(-c2c3nc(c(-c4cccc(S(=O)(=O)[O-])c4F)c4ccc([nH]4)c(-c4cccc(S(=O)(=O)[O-])c4F)c4nc(c(-c5cccc(S(=O)(=O)[O-])c5F)c5ccc2[nH]5)C=C4)C=C3)cc1
REMARK SMILES IDX 24 1 23 2 22 3 21 4 19 5 20 6 18 8 1 9 2 10 3 11 15 12 17 13
REMARK SMILES IDX 16 14 4 15 5 16 6 18 7 19 8 20 13 21 9 22 12 23 10 24 11 25
REMARK SMILES IDX 14 26 25 29 26 30 27 31 28 32 29 33 30 35 31 36 32 37 93 38
REMARK SMILES IDX 33 39 92 40 34 41 35 42 36 43 86 44 37 45 91 46 85 47 87 48
REMARK SMILES IDX 38 49 90 50 84 51 83 52 39 54 71 55 51 56 70 57 52 58 55 59
REMARK SMILES IDX 69 60 88 61 53 62 54 63 68 65 89 66 56 67 40 68 41 69 49 70
REMARK SMILES IDX 42 71 44 72 50 73 43 74 45 75 46 76 47 77 48 78 72 79 73 80
REMARK SMILES IDX 81 81 74 82 76 83 82 84 75 85 77 86 78 87 79 88 80 89 57 90
REMARK SMILES IDX 58 91 66 92 59 93 61 94 67 95 60 96 62 97 63 98 64 99 65 100
REMARK H PARENT 21 7 4 17 14 27 14 28 28 34 87 53 55 64
REMARK Flexibility Score: inf
ROOT
ATOM      1  C   UNL A   1      32.427  28.859  25.055  1.00  0.00     0.002 C 
ENDROOT
BRANCH   1   2
ATOM      2  C   UNL A   1      32.426  28.892  23.525  1.00  0.00     0.021 C 
BRANCH   2   3
ATOM      3  C   UNL A   1      33.785  28.590  22.874  1.00  0.00     0.116 C 
BRANCH   3   4
ATOM      4  N   UNL A   1      33.624  27.537  21.895  1.00  0.00    -0.352 N 
ATOM      5  C   UNL A   1      33.209  26.236  21.953  1.00  0.00     0.251 C 
ATOM      6  O   UNL A   1      33.301  25.598  20.898  1.00  0.00    -0.269 OA
ATOM      7  H   UNL A   1      33.869  27.821  20.985  1.00  0.00     0.163 HD
BRANCH   5   8
ATOM      8  C   UNL A   1      32.566  25.563  23.128  1.00  0.00     0.044 A 
ATOM      9  C   UNL A   1      34.658  24.954  24.487  1.00  0.00     0.047 C 
ATOM     10  C   UNL A   1      33.168  25.031  24.290  1.00  0.00    -0.015 A 
ATOM     11  C   UNL A   1      32.348  24.385  25.258  1.00  0.00     0.045 A 
ATOM     12  C   UNL A   1      30.984  24.186  25.032  1.00  0.00     0.026 A 
ATOM     13  C   UNL A   1      31.183  25.341  22.934  1.00  0.00     0.014 A 
ATOM     14  C   UNL A   1      30.404  24.648  23.860  1.00  0.00     0.003 A 
BRANCH  11  15
ATOM     15  N   UNL A   1      32.943  23.950  26.457  1.00  0.00    -0.322 N 
ATOM     16  C   UNL A   1      33.218  22.684  26.920  1.00  0.00     0.257 C 
ATOM     17  H   UNL A   1      33.206  24.675  27.069  1.00  0.00     0.170 HD
ATOM     18  O   UNL A   1      33.403  22.525  28.128  1.00  0.00    -0.269 OA
BRANCH  16  19
ATOM     19  C   UNL A   1      33.376  21.516  26.005  1.00  0.00     0.063 A 
ATOM     20  C   UNL A   1      32.175  20.943  25.546  1.00  0.00     0.017 A 
ATOM     21  C   UNL A   1      34.611  20.926  25.655  1.00  0.00     0.045 A 
ATOM     22  C   UNL A   1      32.191  19.830  24.705  1.00  0.00     0.016 A 
ATOM     23  C   UNL A   1      34.606  19.830  24.779  1.00  0.00     0.042 A 
ATOM     24  C   UNL A   1      33.410  19.291  24.310  1.00  0.00     0.020 A 
ATOM     25  Br  UNL A   1      33.446  17.788  23.164  1.00  0.00    -0.051 Br
BRANCH  21  26
ATOM     26  N   UNL A   1      35.829  21.275  26.219  1.00  0.00    -0.398 N 
ATOM     27  H   UNL A   1      36.033  21.023  27.148  1.00  0.00     0.156 HD
ATOM     28  H   UNL A   1      36.493  21.775  25.689  1.00  0.00     0.156 HD
ENDBRANCH  21  26
ENDBRANCH  16  19
ENDBRANCH  11  15
ENDBRANCH   5   8
ENDBRANCH   3   4
ENDBRANCH   2   3
ENDBRANCH   1   2
BRANCH   1  29
ATOM     29  C   UNL A   1      31.906  30.126  25.747  1.00  0.00     0.002 C 
BRANCH  29  30
ATOM     30  C   UNL A   1      32.679  30.557  26.994  1.00  0.00     0.021 C 
BRANCH  30  31
ATOM     31  C   UNL A   1      34.148  30.158  26.965  1.00  0.00     0.116 C 
BRANCH  31  32
ATOM     32  N   UNL A   1      35.023  31.226  27.402  1.00  0.00    -0.352 N 
ATOM     33  C   UNL A   1      36.229  31.179  28.084  1.00  0.00     0.251 C 
ATOM     34  H   UNL A   1      34.711  32.132  27.179  1.00  0.00     0.163 HD
ATOM     35  O   UNL A   1      36.646  32.195  28.593  1.00  0.00    -0.269 OA
BRANCH  33  36
ATOM     36  C   UNL A   1      37.048  29.935  28.041  1.00  0.00     0.039 A 
ATOM     37  C   UNL A   1      37.099  29.166  29.213  1.00  0.00     0.014 A 
ATOM     38  C   UNL A   1      37.912  29.652  26.989  1.00  0.00     0.014 A 
ATOM     39  C   UNL A   1      38.174  28.306  29.427  1.00  0.00     0.010 A 
ATOM     40  C   UNL A   1      39.015  28.864  27.224  1.00  0.00     0.010 A 
ATOM     41  C   UNL A   1      39.183  28.258  28.472  1.00  0.00    -0.014 A 
BRANCH  41  42
ATOM     42  C   UNL A   1      40.468  27.604  28.647  1.00  0.00     0.031 A 
ATOM     43  C   UNL A   1      40.569  26.148  28.463  1.00  0.00     0.074 A 
ATOM     44  C   UNL A   1      41.571  28.375  28.781  1.00  0.00     0.049 A 
ATOM     45  N   UNL A   1      41.620  25.455  28.730  1.00  0.00    -0.248 NA
ATOM     46  C   UNL A   1      39.458  25.352  27.961  1.00  0.00     0.031 C 
ATOM     47  C   UNL A   1      42.963  27.980  28.610  1.00  0.00     0.029 A 
ATOM     48  N   UNL A   1      41.655  29.659  29.326  1.00  0.00    -0.354 N 
ATOM     49  C   UNL A   1      41.429  24.187  28.226  1.00  0.00     0.074 A 
ATOM     50  C   UNL A   1      40.044  24.161  27.817  1.00  0.00     0.031 C 
ATOM     51  C   UNL A   1      43.738  28.832  29.302  1.00  0.00     0.029 A 
ATOM     52  C   UNL A   1      42.841  29.662  30.088  1.00  0.00     0.049 A 
ATOM     53  H   UNL A   1      41.022  30.403  29.205  1.00  0.00     0.167 HD
ATOM     54  C   UNL A   1      42.511  23.365  28.118  1.00  0.00     0.034 A 
ATOM     55  C   UNL A   1      42.841  29.755  31.454  1.00  0.00     0.034 A 
ATOM     56  C   UNL A   1      43.678  23.957  28.796  1.00  0.00     0.049 A 
ATOM     57  C   UNL A   1      43.479  28.551  32.148  1.00  0.00     0.074 A 
ATOM     58  C   UNL A   1      44.776  24.702  28.397  1.00  0.00     0.029 A 
ATOM     59  N   UNL A   1      43.634  24.060  30.174  1.00  0.00    -0.354 N 
ATOM     60  N   UNL A   1      43.988  27.518  31.530  1.00  0.00    -0.248 NA
ATOM     61  C   UNL A   1      43.502  28.384  33.602  1.00  0.00     0.031 C 
ATOM     62  C   UNL A   1      45.334  25.322  29.560  1.00  0.00     0.029 A 
ATOM     63  C   UNL A   1      44.597  24.925  30.663  1.00  0.00     0.049 A 
ATOM     64  H   UNL A   1      42.992  23.575  30.742  1.00  0.00     0.167 HD
ATOM     65  C   UNL A   1      44.234  26.519  32.436  1.00  0.00     0.074 A 
ATOM     66  C   UNL A   1      43.952  27.124  33.728  1.00  0.00     0.031 C 
ATOM     67  C   UNL A   1      44.581  25.243  32.086  1.00  0.00     0.034 A 
BRANCH  54  68
ATOM     68  C   UNL A   1      42.610  22.121  27.250  1.00  0.00     0.023 A 
ATOM     69  C   UNL A   1      41.687  21.083  27.511  1.00  0.00     0.012 A 
ATOM     70  C   UNL A   1      43.568  21.849  26.245  1.00  0.00     0.148 A 
ATOM     71  C   UNL A   1      41.757  19.833  26.884  1.00  0.00     0.002 A 
ATOM     72  C   UNL A   1      43.676  20.584  25.657  1.00  0.00     0.091 A 
ATOM     73  F   UNL A   1      44.350  22.822  25.784  1.00  0.00    -0.205 F 
ATOM     74  C   UNL A   1      42.770  19.571  25.977  1.00  0.00     0.022 A 
BRANCH  72  75
ATOM     75  S   UNL A   1      45.009  20.152  24.520  1.00  0.00     0.127 S 
ATOM     76  O   UNL A   1      44.771  18.724  24.303  1.00  0.00    -0.237 OA
ATOM     77  O   UNL A   1      44.722  20.998  23.363  1.00  0.00    -0.237 OA
ATOM     78  O   UNL A   1      46.255  20.448  25.217  1.00  0.00    -0.744 OA
ENDBRANCH  72  75
ENDBRANCH  54  68
BRANCH  55  79
ATOM     79  C   UNL A   1      41.672  30.528  31.989  1.00  0.00     0.023 A 
ATOM     80  C   UNL A   1      41.515  31.859  31.528  1.00  0.00     0.012 A 
ATOM     81  C   UNL A   1      40.569  29.888  32.578  1.00  0.00     0.148 A 
ATOM     82  C   UNL A   1      40.252  32.454  31.476  1.00  0.00     0.002 A 
ATOM     83  C   UNL A   1      39.320  30.504  32.557  1.00  0.00     0.091 A 
ATOM     84  F   UNL A   1      40.725  28.662  33.091  1.00  0.00    -0.205 F 
ATOM     85  C   UNL A   1      39.148  31.758  31.954  1.00  0.00     0.022 A 
BRANCH  83  86
ATOM     86  S   UNL A   1      37.875  29.663  33.214  1.00  0.00     0.127 S 
ATOM     87  O   UNL A   1      37.979  29.972  34.635  1.00  0.00    -0.237 OA
ATOM     88  O   UNL A   1      36.773  30.327  32.519  1.00  0.00    -0.237 OA
ATOM     89  O   UNL A   1      38.064  28.269  32.833  1.00  0.00    -0.744 OA
ENDBRANCH  83  86
ENDBRANCH  55  79
BRANCH  67  90
ATOM     90  C   UNL A   1      44.938  24.187  33.110  1.00  0.00     0.023 A 
ATOM     91  C   UNL A   1      43.947  23.299  33.577  1.00  0.00     0.012 A 
ATOM     92  C   UNL A   1      46.200  24.139  33.750  1.00  0.00     0.148 A 
ATOM     93  C   UNL A   1      44.209  22.372  34.591  1.00  0.00     0.002 A 
ATOM     94  C   UNL A   1      46.422  23.292  34.830  1.00  0.00     0.091 A 
ATOM     95  F   UNL A   1      47.213  24.875  33.279  1.00  0.00    -0.205 F 
ATOM     96  C   UNL A   1      45.440  22.385  35.234  1.00  0.00     0.022 A 
BRANCH  94  97
ATOM     97  S   UNL A   1      47.901  23.414  35.849  1.00  0.00     0.127 S 
ATOM     98  O   UNL A   1      47.568  24.537  36.729  1.00  0.00    -0.237 OA
ATOM     99  O   UNL A   1      47.921  22.110  36.508  1.00  0.00    -0.237 OA
ATOM    100  O   UNL A   1      48.993  23.684  34.926  1.00  0.00    -0.744 OA
ENDBRANCH  94  97
ENDBRANCH  67  90
ENDBRANCH  41  42
ENDBRANCH  33  36
ENDBRANCH  31  32
ENDBRANCH  30  31
ENDBRANCH  29  30
ENDBRANCH   1  29
TORSDOF 19
ENDMDL
MODEL 2
REMARK VINA RESULT:     -13.0      2.072      2.531
REMARK SMILES Cc1c(NC(=O)c2ccc(Br)cc2N)cccc1C(=O)NCCCCCCNC(=O)c1ccc(-c2c3nc(c(-c4cccc(S(=O)(=O)[O-])c4F)c4ccc([nH]4)c(-c4cccc(S(=O)(=O)[O-])c4F)c4nc(c(-c5cccc(S(=O)(=O)[O-])c5F)c5ccc2[nH]5)C=C4)C=C3)cc1
REMARK SMILES IDX 24 1 23 2 22 3 21 4 19 5 20 6 18 8 1 9 2 10 3 11 15 12 17 13
REMARK SMILES IDX 16 14 4 15 5 16 6 18 7 19 8 20 13 21 9 22 12 23 10 24 11 25
REMARK SMILES IDX 14 26 25 29 26 30 27 31 28 32 29 33 30 35 31 36 32 37 93 38
REMARK SMILES IDX 33 39 92 40 34 41 35 42 36 43 86 44 37 45 91 46 85 47 87 48
REMARK SMILES IDX 38 49 90 50 84 51 83 52 39 54 71 55 51 56 70 57 52 58 55 59
REMARK SMILES IDX 69 60 88 61 53 62 54 63 68 65 89 66 56 67 40 68 41 69 49 70
REMARK SMILES IDX 42 71 44 72 50 73 43 74 45 75 46 76 47 77 48 78 72 79 73 80
REMARK SMILES IDX 81 81 74 82 76 83 82 84 75 85 77 86 78 87 79 88 80 89 57 90
REMARK SMILES IDX 58 91 66 92 59 93 61 94 67 95 60 96 62 97 63 98 64 99 65 100
REMARK H PARENT 21 7 4 17 14 27 14 28 28 34 87 53 55 64
REMARK Flexibility Score: inf
ROOT
ATOM      1  C   UNL A   1      31.884  28.814  24.796  1.00  0.00     0.002 C 
ENDROOT
BRANCH   1   2
ATOM      2  C   UNL A   1      32.293  28.994  23.332  1.00  0.00     0.021 C 
BRANCH   2   3
ATOM      3  C   UNL A   1      33.715  28.518  22.997  1.00  0.00     0.116 C 
BRANCH   3   4
ATOM      4  N   UNL A   1      33.654  27.521  21.952  1.00  0.00    -0.352 N 
ATOM      5  C   UNL A   1      33.270  26.209  21.904  1.00  0.00     0.251 C 
ATOM      6  O   UNL A   1      33.455  25.637  20.825  1.00  0.00    -0.269 OA
ATOM      7  H   UNL A   1      33.957  27.862  21.080  1.00  0.00     0.163 HD
BRANCH   5   8
ATOM      8  C   UNL A   1      32.562  25.455  22.989  1.00  0.00     0.044 A 
ATOM      9  C   UNL A   1      34.495  25.152  24.652  1.00  0.00     0.047 C 
ATOM     10  C   UNL A   1      33.055  25.017  24.239  1.00  0.00    -0.015 A 
ATOM     11  C   UNL A   1      32.200  24.264  25.092  1.00  0.00     0.045 A 
ATOM     12  C   UNL A   1      30.926  23.873  24.674  1.00  0.00     0.026 A 
ATOM     13  C   UNL A   1      31.268  25.038  22.601  1.00  0.00     0.014 A 
ATOM     14  C   UNL A   1      30.466  24.244  23.419  1.00  0.00     0.003 A 
BRANCH  11  15
ATOM     15  N   UNL A   1      32.666  23.920  26.374  1.00  0.00    -0.322 N 
ATOM     16  C   UNL A   1      32.969  22.697  26.927  1.00  0.00     0.257 C 
ATOM     17  H   UNL A   1      32.797  24.685  26.980  1.00  0.00     0.170 HD
ATOM     18  O   UNL A   1      33.009  22.599  28.154  1.00  0.00    -0.269 OA
BRANCH  16  19
ATOM     19  C   UNL A   1      33.323  21.511  26.094  1.00  0.00     0.063 A 
ATOM     20  C   UNL A   1      32.235  20.728  25.666  1.00  0.00     0.017 A 
ATOM     21  C   UNL A   1      34.641  21.100  25.795  1.00  0.00     0.045 A 
ATOM     22  C   UNL A   1      32.439  19.578  24.903  1.00  0.00     0.016 A 
ATOM     23  C   UNL A   1      34.823  19.961  24.996  1.00  0.00     0.042 A 
ATOM     24  C   UNL A   1      33.735  19.212  24.555  1.00  0.00     0.020 A 
ATOM     25  Br  UNL A   1      34.026  17.661  23.514  1.00  0.00    -0.051 Br
BRANCH  21  26
ATOM     26  N   UNL A   1      35.780  21.672  26.344  1.00  0.00    -0.398 N 
ATOM     27  H   UNL A   1      36.117  21.362  27.215  1.00  0.00     0.156 HD
ATOM     28  H   UNL A   1      36.253  22.389  25.861  1.00  0.00     0.156 HD
ENDBRANCH  21  26
ENDBRANCH  16  19
ENDBRANCH  11  15
ENDBRANCH   5   8
ENDBRANCH   3   4
ENDBRANCH   2   3
ENDBRANCH   1   2
BRANCH   1  29
ATOM     29  C   UNL A   1      31.486  30.098  25.536  1.00  0.00     0.002 C 
BRANCH  29  30
ATOM     30  C   UNL A   1      32.094  30.268  26.929  1.00  0.00     0.021 C 
BRANCH  30  31
ATOM     31  C   UNL A   1      33.609  30.408  26.915  1.00  0.00     0.116 C 
BRANCH  31  32
ATOM     32  N   UNL A   1      34.085  31.395  27.863  1.00  0.00    -0.352 N 
ATOM     33  C   UNL A   1      35.037  31.295  28.865  1.00  0.00     0.251 C 
ATOM     34  H   UNL A   1      33.663  32.281  27.782  1.00  0.00     0.163 HD
ATOM     35  O   UNL A   1      35.074  32.155  29.716  1.00  0.00    -0.269 OA
BRANCH  33  36
ATOM     36  C   UNL A   1      36.078  30.232  28.784  1.00  0.00     0.039 A 
ATOM     37  C   UNL A   1      36.450  29.613  29.986  1.00  0.00     0.014 A 
ATOM     38  C   UNL A   1      36.824  30.011  27.631  1.00  0.00     0.014 A 
ATOM     39  C   UNL A   1      37.697  29.000  30.089  1.00  0.00     0.010 A 
ATOM     40  C   UNL A   1      38.087  29.477  27.745  1.00  0.00     0.010 A 
ATOM     41  C   UNL A   1      38.549  29.047  28.991  1.00  0.00    -0.014 A 
BRANCH  41  42
ATOM     42  C   UNL A   1      39.953  28.671  29.007  1.00  0.00     0.031 A 
ATOM     43  C   UNL A   1      40.329  27.271  28.758  1.00  0.00     0.074 A 
ATOM     44  C   UNL A   1      40.882  29.652  29.056  1.00  0.00     0.049 A 
ATOM     45  N   UNL A   1      41.522  26.808  28.888  1.00  0.00    -0.248 NA
ATOM     46  C   UNL A   1      39.357  26.270  28.343  1.00  0.00     0.031 C 
ATOM     47  C   UNL A   1      42.299  29.558  28.727  1.00  0.00     0.029 A 
ATOM     48  N   UNL A   1      40.760  30.917  29.638  1.00  0.00    -0.354 N 
ATOM     49  C   UNL A   1      41.541  25.536  28.358  1.00  0.00     0.074 A 
ATOM     50  C   UNL A   1      40.155  25.229  28.094  1.00  0.00     0.031 C 
ATOM     51  C   UNL A   1      42.953  30.541  29.366  1.00  0.00     0.029 A 
ATOM     52  C   UNL A   1      41.996  31.153  30.272  1.00  0.00     0.049 A 
ATOM     53  H   UNL A   1      39.979  31.515  29.612  1.00  0.00     0.167 HD
ATOM     54  C   UNL A   1      42.751  24.959  28.107  1.00  0.00     0.034 A 
ATOM     55  C   UNL A   1      42.127  31.222  31.634  1.00  0.00     0.034 A 
ATOM     56  C   UNL A   1      43.838  25.769  28.683  1.00  0.00     0.049 A 
ATOM     57  C   UNL A   1      43.070  30.167  32.211  1.00  0.00     0.074 A 
ATOM     58  C   UNL A   1      44.710  26.732  28.200  1.00  0.00     0.029 A 
ATOM     59  N   UNL A   1      43.925  25.838  30.061  1.00  0.00    -0.354 N 
ATOM     60  N   UNL A   1      43.709  29.272  31.505  1.00  0.00    -0.248 NA
ATOM     61  C   UNL A   1      43.285  29.984  33.648  1.00  0.00     0.031 C 
ATOM     62  C   UNL A   1      45.253  27.436  29.323  1.00  0.00     0.029 A 
ATOM     63  C   UNL A   1      44.738  26.877  30.480  1.00  0.00     0.049 A 
ATOM     64  H   UNL A   1      43.462  25.222  30.673  1.00  0.00     0.167 HD
ATOM     65  C   UNL A   1      44.252  28.332  32.342  1.00  0.00     0.074 A 
ATOM     66  C   UNL A   1      43.995  28.844  33.677  1.00  0.00     0.031 C 
ATOM     67  C   UNL A   1      44.813  27.161  31.908  1.00  0.00     0.034 A 
BRANCH  54  68
ATOM     68  C   UNL A   1      43.006  23.777  27.186  1.00  0.00     0.023 A 
ATOM     69  C   UNL A   1      43.775  24.024  26.025  1.00  0.00     0.012 A 
ATOM     70  C   UNL A   1      42.505  22.460  27.317  1.00  0.00     0.148 A 
ATOM     71  C   UNL A   1      43.966  23.063  25.025  1.00  0.00     0.002 A 
ATOM     72  C   UNL A   1      42.645  21.516  26.296  1.00  0.00     0.091 A 
ATOM     73  F   UNL A   1      41.942  22.070  28.458  1.00  0.00    -0.205 F 
ATOM     74  C   UNL A   1      43.375  21.816  25.145  1.00  0.00     0.022 A 
BRANCH  72  75
ATOM     75  S   UNL A   1      41.848  19.897  26.354  1.00  0.00     0.127 S 
ATOM     76  O   UNL A   1      42.396  19.247  25.161  1.00  0.00    -0.237 OA
ATOM     77  O   UNL A   1      42.334  19.353  27.619  1.00  0.00    -0.237 OA
ATOM     78  O   UNL A   1      40.412  20.143  26.290  1.00  0.00    -0.744 OA
ENDBRANCH  72  75
ENDBRANCH  54  68
BRANCH  55  79
ATOM     79  C   UNL A   1      40.890  31.727  32.317  1.00  0.00     0.023 A 
ATOM     80  C   UNL A   1      39.815  30.814  32.459  1.00  0.00     0.012 A 
ATOM     81  C   UNL A   1      40.909  32.872  33.130  1.00  0.00     0.148 A 
ATOM     82  C   UNL A   1      38.904  30.940  33.510  1.00  0.00     0.002 A 
ATOM     83  C   UNL A   1      39.973  33.010  34.152  1.00  0.00     0.091 A 
ATOM     84  F   UNL A   1      41.873  33.783  32.950  1.00  0.00    -0.205 F 
ATOM     85  C   UNL A   1      39.009  32.018  34.381  1.00  0.00     0.022 A 
BRANCH  83  86
ATOM     86  S   UNL A   1      40.039  34.416  35.268  1.00  0.00     0.127 S 
ATOM     87  O   UNL A   1      38.652  34.503  35.709  1.00  0.00    -0.237 OA
ATOM     88  O   UNL A   1      40.983  33.969  36.291  1.00  0.00    -0.237 OA
ATOM     89  O   UNL A   1      40.532  35.510  34.442  1.00  0.00    -0.744 OA
ENDBRANCH  83  86
ENDBRANCH  55  79
BRANCH  67  90
ATOM     90  C   UNL A   1      45.488  26.186  32.848  1.00  0.00     0.023 A 
ATOM     91  C   UNL A   1      46.873  25.945  32.734  1.00  0.00     0.012 A 
ATOM     92  C   UNL A   1      44.765  25.371  33.752  1.00  0.00     0.148 A 
ATOM     93  C   UNL A   1      47.519  24.983  33.516  1.00  0.00     0.002 A 
ATOM     94  C   UNL A   1      45.393  24.343  34.447  1.00  0.00     0.091 A 
ATOM     95  F   UNL A   1      43.473  25.624  33.989  1.00  0.00    -0.205 F 
ATOM     96  C   UNL A   1      46.774  24.165  34.356  1.00  0.00     0.022 A 
BRANCH  94  97
ATOM     97  S   UNL A   1      44.462  23.109  35.369  1.00  0.00     0.127 S 
ATOM     98  O   UNL A   1      43.558  22.584  34.342  1.00  0.00    -0.237 OA
ATOM     99  O   UNL A   1      45.515  22.184  35.783  1.00  0.00    -0.237 OA
ATOM    100  O   UNL A   1      43.791  23.838  36.435  1.00  0.00    -0.744 OA
ENDBRANCH  94  97
ENDBRANCH  67  90
ENDBRANCH  41  42
ENDBRANCH  33  36
ENDBRANCH  31  32
ENDBRANCH  30  31
ENDBRANCH  29  30
ENDBRANCH   1  29
TORSDOF 19
ENDMDL
MODEL 3
REMARK VINA RESULT:     -12.8      2.165      2.753
REMARK SMILES Cc1c(NC(=O)c2ccc(Br)cc2N)cccc1C(=O)NCCCCCCNC(=O)c1ccc(-c2c3nc(c(-c4cccc(S(=O)(=O)[O-])c4F)c4ccc([nH]4)c(-c4cccc(S(=O)(=O)[O-])c4F)c4nc(c(-c5cccc(S(=O)(=O)[O-])c5F)c5ccc2[nH]5)C=C4)C=C3)cc1
REMARK SMILES IDX 24 1 23 2 22 3 21 4 19 5 20 6 18 8 1 9 2 10 3 11 15 12 17 13
REMARK SMILES IDX 16 14 4 15 5 16 6 18 7 19 8 20 13 21 9 22 12 23 10 24 11 25
REMARK SMILES IDX 14 26 25 29 26 30 27 31 28 32 29 33 30 35 31 36 32 37 93 38
REMARK SMILES IDX 33 39 92 40 34 41 35 42 36 43 86 44 37 45 91 46 85 47 87 48
REMARK SMILES IDX 38 49 90 50 84 51 83 52 39 54 71 55 51 56 70 57 52 58 55 59
REMARK SMILES IDX 69 60 88 61 53 62 54 63 68 65 89 66 56 67 40 68 41 69 49 70
REMARK SMILES IDX 42 71 44 72 50 73 43 74 45 75 46 76 47 77 48 78 72 79 73 80
REMARK SMILES IDX 81 81 74 82 76 83 82 84 75 85 77 86 78 87 79 88 80 89 57 90
REMARK SMILES IDX 58 91 66 92 59 93 61 94 67 95 60 96 62 97 63 98 64 99 65 100
REMARK H PARENT 21 7 4 17 14 27 14 28 28 34 87 53 55 64
REMARK Flexibility Score: inf
ROOT
ATOM      1  C   UNL A   1      32.047  29.416  23.744  1.00  0.00     0.002 C 
ENDROOT
BRANCH   1   2
ATOM      2  C   UNL A   1      30.558  29.685  23.512  1.00  0.00     0.021 C 
BRANCH   2   3
ATOM      3  C   UNL A   1      29.878  28.727  22.522  1.00  0.00     0.116 C 
BRANCH   3   4
ATOM      4  N   UNL A   1      28.980  27.850  23.241  1.00  0.00    -0.352 N 
ATOM      5  C   UNL A   1      29.143  26.698  23.959  1.00  0.00     0.251 C 
ATOM      6  O   UNL A   1      28.102  26.164  24.357  1.00  0.00    -0.269 OA
ATOM      7  H   UNL A   1      28.043  28.150  23.206  1.00  0.00     0.163 HD
BRANCH   5   8
ATOM      8  C   UNL A   1      30.449  26.099  24.387  1.00  0.00     0.044 A 
ATOM      9  C   UNL A   1      31.487  25.614  22.090  1.00  0.00     0.047 C 
ATOM     10  C   UNL A   1      31.530  25.657  23.593  1.00  0.00    -0.015 A 
ATOM     11  C   UNL A   1      32.659  25.069  24.230  1.00  0.00     0.045 A 
ATOM     12  C   UNL A   1      32.670  24.835  25.607  1.00  0.00     0.026 A 
ATOM     13  C   UNL A   1      30.497  25.845  25.778  1.00  0.00     0.014 A 
ATOM     14  C   UNL A   1      31.580  25.207  26.380  1.00  0.00     0.003 A 
BRANCH  11  15
ATOM     15  N   UNL A   1      33.772  24.725  23.440  1.00  0.00    -0.322 N 
ATOM     16  C   UNL A   1      34.493  23.557  23.356  1.00  0.00     0.257 C 
ATOM     17  H   UNL A   1      34.088  25.444  22.846  1.00  0.00     0.170 HD
ATOM     18  O   UNL A   1      35.627  23.598  22.877  1.00  0.00    -0.269 OA
BRANCH  16  19
ATOM     19  C   UNL A   1      33.923  22.237  23.753  1.00  0.00     0.063 A 
ATOM     20  C   UNL A   1      34.625  21.556  24.765  1.00  0.00     0.017 A 
ATOM     21  C   UNL A   1      32.811  21.619  23.137  1.00  0.00     0.045 A 
ATOM     22  C   UNL A   1      34.206  20.300  25.204  1.00  0.00     0.016 A 
ATOM     23  C   UNL A   1      32.384  20.373  23.618  1.00  0.00     0.042 A 
ATOM     24  C   UNL A   1      33.073  19.724  24.641  1.00  0.00     0.020 A 
ATOM     25  Br  UNL A   1      32.488  18.027  25.232  1.00  0.00    -0.051 Br
BRANCH  21  26
ATOM     26  N   UNL A   1      32.185  22.102  21.997  1.00  0.00    -0.398 N 
ATOM     27  H   UNL A   1      31.518  21.548  21.529  1.00  0.00     0.156 HD
ATOM     28  H   UNL A   1      32.406  22.999  21.655  1.00  0.00     0.156 HD
ENDBRANCH  21  26
ENDBRANCH  16  19
ENDBRANCH  11  15
ENDBRANCH   5   8
ENDBRANCH   3   4
ENDBRANCH   2   3
ENDBRANCH   1   2
BRANCH   1  29
ATOM     29  C   UNL A   1      32.436  29.039  25.180  1.00  0.00     0.002 C 
BRANCH  29  30
ATOM     30  C   UNL A   1      32.338  30.171  26.204  1.00  0.00     0.021 C 
BRANCH  30  31
ATOM     31  C   UNL A   1      33.318  30.028  27.360  1.00  0.00     0.116 C 
BRANCH  31  32
ATOM     32  N   UNL A   1      34.066  31.243  27.609  1.00  0.00    -0.352 N 
ATOM     33  C   UNL A   1      35.284  31.436  28.241  1.00  0.00     0.251 C 
ATOM     34  H   UNL A   1      33.639  32.065  27.276  1.00  0.00     0.163 HD
ATOM     35  O   UNL A   1      35.585  32.557  28.587  1.00  0.00    -0.269 OA
BRANCH  33  36
ATOM     36  C   UNL A   1      36.249  30.305  28.337  1.00  0.00     0.039 A 
ATOM     37  C   UNL A   1      36.404  29.706  29.595  1.00  0.00     0.014 A 
ATOM     38  C   UNL A   1      37.131  29.994  27.308  1.00  0.00     0.014 A 
ATOM     39  C   UNL A   1      37.578  29.016  29.891  1.00  0.00     0.010 A 
ATOM     40  C   UNL A   1      38.325  29.382  27.615  1.00  0.00     0.010 A 
ATOM     41  C   UNL A   1      38.576  28.967  28.925  1.00  0.00    -0.014 A 
BRANCH  41  42
ATOM     42  C   UNL A   1      39.934  28.500  29.151  1.00  0.00     0.031 A 
ATOM     43  C   UNL A   1      40.290  27.116  28.801  1.00  0.00     0.074 A 
ATOM     44  C   UNL A   1      40.879  29.406  29.491  1.00  0.00     0.049 A 
ATOM     45  N   UNL A   1      41.415  26.563  29.089  1.00  0.00    -0.248 NA
ATOM     46  C   UNL A   1      39.371  26.236  28.094  1.00  0.00     0.031 C 
ATOM     47  C   UNL A   1      42.327  29.256  29.418  1.00  0.00     0.029 A 
ATOM     48  N   UNL A   1      40.704  30.601  30.195  1.00  0.00    -0.354 N 
ATOM     49  C   UNL A   1      41.479  25.362  28.416  1.00  0.00     0.074 A 
ATOM     50  C   UNL A   1      40.156  25.180  27.867  1.00  0.00     0.031 C 
ATOM     51  C   UNL A   1      42.890  30.114  30.284  1.00  0.00     0.029 A 
ATOM     52  C   UNL A   1      41.806  30.680  31.069  1.00  0.00     0.049 A 
ATOM     53  H   UNL A   1      39.968  31.248  30.101  1.00  0.00     0.167 HD
ATOM     54  C   UNL A   1      42.688  24.739  28.321  1.00  0.00     0.034 A 
ATOM     55  C   UNL A   1      41.678  30.584  32.429  1.00  0.00     0.034 A 
ATOM     56  C   UNL A   1      43.680  25.404  29.183  1.00  0.00     0.049 A 
ATOM     57  C   UNL A   1      42.449  29.409  33.032  1.00  0.00     0.074 A 
ATOM     58  C   UNL A   1      44.669  26.357  28.992  1.00  0.00     0.029 A 
ATOM     59  N   UNL A   1      43.507  25.309  30.551  1.00  0.00    -0.354 N 
ATOM     60  N   UNL A   1      43.171  28.561  32.349  1.00  0.00    -0.248 NA
ATOM     61  C   UNL A   1      42.379  29.049  34.450  1.00  0.00     0.031 C 
ATOM     62  C   UNL A   1      45.020  26.889  30.274  1.00  0.00     0.029 A 
ATOM     63  C   UNL A   1      44.270  26.236  31.238  1.00  0.00     0.049 A 
ATOM     64  H   UNL A   1      42.910  24.658  30.986  1.00  0.00     0.167 HD
ATOM     65  C   UNL A   1      43.503  27.497  33.147  1.00  0.00     0.074 A 
ATOM     66  C   UNL A   1      43.020  27.868  34.466  1.00  0.00     0.031 C 
ATOM     67  C   UNL A   1      44.085  26.350  32.681  1.00  0.00     0.034 A 
BRANCH  54  68
ATOM     68  C   UNL A   1      43.062  23.656  27.321  1.00  0.00     0.023 A 
ATOM     69  C   UNL A   1      43.870  24.045  26.228  1.00  0.00     0.012 A 
ATOM     70  C   UNL A   1      42.638  22.306  27.318  1.00  0.00     0.148 A 
ATOM     71  C   UNL A   1      44.169  23.185  25.165  1.00  0.00     0.002 A 
ATOM     72  C   UNL A   1      42.887  21.461  26.232  1.00  0.00     0.091 A 
ATOM     73  F   UNL A   1      42.046  21.788  28.392  1.00  0.00    -0.205 F 
ATOM     74  C   UNL A   1      43.653  21.899  25.150  1.00  0.00     0.022 A 
BRANCH  72  75
ATOM     75  S   UNL A   1      42.193  19.800  26.115  1.00  0.00     0.127 S 
ATOM     76  O   UNL A   1      42.647  19.192  27.368  1.00  0.00    -0.237 OA
ATOM     77  O   UNL A   1      40.757  20.062  26.054  1.00  0.00    -0.237 OA
ATOM     78  O   UNL A   1      42.769  19.197  24.919  1.00  0.00    -0.744 OA
ENDBRANCH  72  75
ENDBRANCH  54  68
BRANCH  55  79
ATOM     79  C   UNL A   1      40.358  31.088  32.931  1.00  0.00     0.023 A 
ATOM     80  C   UNL A   1      39.365  30.117  33.218  1.00  0.00     0.012 A 
ATOM     81  C   UNL A   1      40.217  32.373  33.479  1.00  0.00     0.148 A 
ATOM     82  C   UNL A   1      38.379  30.364  34.176  1.00  0.00     0.002 A 
ATOM     83  C   UNL A   1      39.206  32.623  34.405  1.00  0.00     0.091 A 
ATOM     84  F   UNL A   1      41.102  33.322  33.151  1.00  0.00    -0.205 F 
ATOM     85  C   UNL A   1      38.326  31.605  34.799  1.00  0.00     0.022 A 
BRANCH  83  86
ATOM     86  S   UNL A   1      39.068  34.231  35.195  1.00  0.00     0.127 S 
ATOM     87  O   UNL A   1      38.626  35.064  34.082  1.00  0.00    -0.237 OA
ATOM     88  O   UNL A   1      38.059  33.995  36.227  1.00  0.00    -0.237 OA
ATOM     89  O   UNL A   1      40.402  34.493  35.717  1.00  0.00    -0.744 OA
ENDBRANCH  83  86
ENDBRANCH  55  79
BRANCH  67  90
ATOM     90  C   UNL A   1      44.527  25.230  33.598  1.00  0.00     0.023 A 
ATOM     91  C   UNL A   1      43.563  24.462  34.284  1.00  0.00     0.012 A 
ATOM     92  C   UNL A   1      45.884  25.007  33.932  1.00  0.00     0.148 A 
ATOM     93  C   UNL A   1      43.928  23.483  35.213  1.00  0.00     0.002 A 
ATOM     94  C   UNL A   1      46.236  24.111  34.936  1.00  0.00     0.091 A 
ATOM     95  F   UNL A   1      46.850  25.622  33.240  1.00  0.00    -0.205 F 
ATOM     96  C   UNL A   1      45.264  23.324  35.557  1.00  0.00     0.022 A 
BRANCH  94  97
ATOM     97  S   UNL A   1      47.911  24.019  35.588  1.00  0.00     0.127 S 
ATOM     98  O   UNL A   1      47.802  22.912  36.542  1.00  0.00    -0.237 OA
ATOM     99  O   UNL A   1      48.685  23.715  34.388  1.00  0.00    -0.237 OA
ATOM    100  O   UNL A   1      48.164  25.313  36.204  1.00  0.00    -0.744 OA
ENDBRANCH  94  97
ENDBRANCH  67  90
ENDBRANCH  41  42
ENDBRANCH  33  36
ENDBRANCH  31  32
ENDBRANCH  30  31
ENDBRANCH  29  30
ENDBRANCH   1  29
TORSDOF 19
ENDMDL
