MODEL 1
REMARK VINA RESULT:     -11.0      0.000      0.000
REMARK SMILES O=C(CCCC(=O)Nc1ccccc1F)NCCCCCCNC(=O)c1ccc(-c2c3nc(c(-c4cccc(S(=O)(=O)[O-])c4F)c4ccc([nH]4)c(-c4cccc(S(=O)(=O)[O-])c4F)c4nc(c(-c5cccc(S(=O)(=O)[O-])c5F)c5ccc2[nH]5)C=C4)C=C3)cc1
REMARK SMILES IDX 19 1 18 2 17 3 16 4 1 5 2 6 3 8 4 9 5 10 6 11 7 12 8 13 9 15
REMARK SMILES IDX 10 16 14 17 11 18 13 19 15 20 12 21 20 22 21 23 22 24 23 25
REMARK SMILES IDX 24 26 25 28 26 29 27 30 88 31 28 32 87 33 29 34 30 35 31 36
REMARK SMILES IDX 81 37 32 38 86 39 80 40 82 41 33 42 85 43 79 44 78 45 34 47
REMARK SMILES IDX 66 48 46 49 65 50 47 51 50 52 64 53 83 54 48 55 49 56 63 58
REMARK SMILES IDX 84 59 51 60 35 61 36 62 44 63 37 64 39 65 45 66 38 67 40 68
REMARK SMILES IDX 41 69 42 70 43 71 67 72 68 73 76 74 69 75 71 76 77 77 70 78
REMARK SMILES IDX 72 79 73 80 74 81 75 82 52 83 53 84 61 85 54 86 56 87 62 88
REMARK SMILES IDX 55 89 57 90 58 91 59 92 60 93
REMARK H PARENT 16 7 8 14 23 27 82 46 50 57
REMARK Flexibility Score: inf
ROOT
ATOM      1  C   UNL A   1      34.133  28.471  23.610  1.00  0.00     0.002 C 
ENDROOT
BRANCH   1   2
ATOM      2  C   UNL A   1      33.008  27.837  22.783  1.00  0.00     0.021 C 
BRANCH   2   3
ATOM      3  C   UNL A   1      33.289  26.425  22.265  1.00  0.00     0.116 C 
BRANCH   3   4
ATOM      4  N   UNL A   1      33.906  25.572  23.260  1.00  0.00    -0.356 N 
ATOM      5  O   UNL A   1      33.776  23.664  22.009  1.00  0.00    -0.275 OA
ATOM      6  C   UNL A   1      34.129  24.236  23.037  1.00  0.00     0.220 C 
ATOM      7  H   UNL A   1      34.174  25.962  24.122  1.00  0.00     0.163 HD
BRANCH   6   8
ATOM      8  C   UNL A   1      34.746  23.468  24.195  1.00  0.00     0.100 C 
BRANCH   8   9
ATOM      9  C   UNL A   1      34.615  21.943  24.239  1.00  0.00     0.020 C 
BRANCH   9  10
ATOM     10  C   UNL A   1      33.871  21.254  25.378  1.00  0.00     0.101 C 
BRANCH  10  11
ATOM     11  C   UNL A   1      32.376  20.931  25.276  1.00  0.00     0.224 C 
ATOM     12  O   UNL A   1      32.002  19.788  25.001  1.00  0.00    -0.275 OA
ATOM     13  N   UNL A   1      31.468  21.813  25.803  1.00  0.00    -0.324 N 
ATOM     14  H   UNL A   1      30.835  21.432  26.454  1.00  0.00     0.170 HD
BRANCH  13  15
ATOM     15  C   UNL A   1      31.318  23.182  25.543  1.00  0.00     0.077 A 
ATOM     16  C   UNL A   1      30.781  23.568  24.313  1.00  0.00     0.029 A 
ATOM     17  C   UNL A   1      31.728  24.171  26.436  1.00  0.00     0.146 A 
ATOM     18  C   UNL A   1      30.508  24.917  24.060  1.00  0.00     0.002 A 
ATOM     19  C   UNL A   1      31.485  25.520  26.178  1.00  0.00     0.041 A 
ATOM     20  F   UNL A   1      32.362  23.837  27.570  1.00  0.00    -0.205 F 
ATOM     21  C   UNL A   1      30.838  25.890  25.003  1.00  0.00     0.003 A 
ENDBRANCH  13  15
ENDBRANCH  10  11
ENDBRANCH   9  10
ENDBRANCH   8   9
ENDBRANCH   6   8
ENDBRANCH   3   4
ENDBRANCH   2   3
ENDBRANCH   1   2
BRANCH   1  22
ATOM     22  C   UNL A   1      33.883  28.524  25.118  1.00  0.00     0.002 C 
BRANCH  22  23
ATOM     23  C   UNL A   1      32.566  29.182  25.535  1.00  0.00     0.021 C 
BRANCH  23  24
ATOM     24  C   UNL A   1      32.540  29.737  26.957  1.00  0.00     0.116 C 
BRANCH  24  25
ATOM     25  N   UNL A   1      32.559  31.191  26.985  1.00  0.00    -0.352 N 
ATOM     26  C   UNL A   1      33.497  32.035  27.533  1.00  0.00     0.251 C 
ATOM     27  H   UNL A   1      31.794  31.633  26.550  1.00  0.00     0.163 HD
ATOM     28  O   UNL A   1      33.263  33.236  27.618  1.00  0.00    -0.269 OA
BRANCH  26  29
ATOM     29  C   UNL A   1      34.777  31.489  28.038  1.00  0.00     0.039 A 
ATOM     30  C   UNL A   1      35.871  32.348  28.168  1.00  0.00     0.014 A 
ATOM     31  C   UNL A   1      34.899  30.141  28.385  1.00  0.00     0.014 A 
ATOM     32  C   UNL A   1      37.069  31.867  28.703  1.00  0.00     0.010 A 
ATOM     33  C   UNL A   1      36.073  29.681  28.983  1.00  0.00     0.010 A 
ATOM     34  C   UNL A   1      37.170  30.538  29.150  1.00  0.00    -0.014 A 
BRANCH  34  35
ATOM     35  C   UNL A   1      38.403  30.049  29.824  1.00  0.00     0.031 A 
ATOM     36  C   UNL A   1      38.786  30.556  31.189  1.00  0.00     0.074 A 
ATOM     37  C   UNL A   1      39.215  29.192  29.173  1.00  0.00     0.049 A 
ATOM     38  N   UNL A   1      39.833  30.252  31.911  1.00  0.00    -0.248 NA
ATOM     39  C   UNL A   1      37.894  31.544  31.818  1.00  0.00     0.031 C 
ATOM     40  C   UNL A   1      38.995  28.688  27.816  1.00  0.00     0.029 A 
ATOM     41  N   UNL A   1      40.398  28.606  29.554  1.00  0.00    -0.354 N 
ATOM     42  C   UNL A   1      39.742  31.025  33.062  1.00  0.00     0.074 A 
ATOM     43  C   UNL A   1      38.553  31.837  32.931  1.00  0.00     0.031 C 
ATOM     44  C   UNL A   1      39.998  27.861  27.484  1.00  0.00     0.029 A 
ATOM     45  C   UNL A   1      40.952  27.798  28.587  1.00  0.00     0.049 A 
ATOM     46  H   UNL A   1      40.811  28.752  30.436  1.00  0.00     0.167 HD
ATOM     47  C   UNL A   1      40.558  31.035  34.141  1.00  0.00     0.034 A 
ATOM     48  C   UNL A   1      42.099  27.089  28.583  1.00  0.00     0.034 A 
ATOM     49  C   UNL A   1      41.713  30.192  34.288  1.00  0.00     0.049 A 
ATOM     50  C   UNL A   1      42.965  27.089  29.814  1.00  0.00     0.074 A 
ATOM     51  C   UNL A   1      42.549  30.072  35.384  1.00  0.00     0.029 A 
ATOM     52  N   UNL A   1      42.198  29.330  33.318  1.00  0.00    -0.354 N 
ATOM     53  N   UNL A   1      42.778  27.714  30.950  1.00  0.00    -0.248 NA
ATOM     54  C   UNL A   1      44.181  26.260  29.780  1.00  0.00     0.031 C 
ATOM     55  C   UNL A   1      43.557  29.159  35.067  1.00  0.00     0.029 A 
ATOM     56  C   UNL A   1      43.327  28.682  33.786  1.00  0.00     0.049 A 
ATOM     57  H   UNL A   1      41.798  29.198  32.428  1.00  0.00     0.167 HD
ATOM     58  C   UNL A   1      43.826  27.325  31.777  1.00  0.00     0.074 A 
ATOM     59  C   UNL A   1      44.639  26.400  31.017  1.00  0.00     0.031 C 
ATOM     60  C   UNL A   1      44.094  27.713  33.047  1.00  0.00     0.034 A 
BRANCH  47  61
ATOM     61  C   UNL A   1      40.209  31.936  35.297  1.00  0.00     0.023 A 
ATOM     62  C   UNL A   1      40.752  33.236  35.347  1.00  0.00     0.012 A 
ATOM     63  C   UNL A   1      39.243  31.552  36.248  1.00  0.00     0.148 A 
ATOM     64  C   UNL A   1      40.348  34.136  36.333  1.00  0.00     0.002 A 
ATOM     65  C   UNL A   1      38.811  32.469  37.198  1.00  0.00     0.091 A 
ATOM     66  F   UNL A   1      38.750  30.306  36.189  1.00  0.00    -0.205 F 
ATOM     67  C   UNL A   1      39.368  33.758  37.247  1.00  0.00     0.022 A 
BRANCH  65  68
ATOM     68  S   UNL A   1      37.490  32.116  38.364  1.00  0.00     0.127 S 
ATOM     69  O   UNL A   1      38.089  32.546  39.627  1.00  0.00    -0.237 OA
ATOM     70  O   UNL A   1      36.412  32.975  37.876  1.00  0.00    -0.237 OA
ATOM     71  O   UNL A   1      37.230  30.686  38.259  1.00  0.00    -0.744 OA
ENDBRANCH  65  68
ENDBRANCH  47  61
BRANCH  48  72
ATOM     72  C   UNL A   1      42.453  26.262  27.394  1.00  0.00     0.023 A 
ATOM     73  C   UNL A   1      43.194  26.838  26.344  1.00  0.00     0.012 A 
ATOM     74  C   UNL A   1      42.103  24.900  27.319  1.00  0.00     0.148 A 
ATOM     75  C   UNL A   1      43.559  26.080  25.230  1.00  0.00     0.002 A 
ATOM     76  C   UNL A   1      42.522  24.135  26.237  1.00  0.00     0.091 A 
ATOM     77  F   UNL A   1      41.385  24.373  28.321  1.00  0.00    -0.205 F 
ATOM     78  C   UNL A   1      43.234  24.727  25.183  1.00  0.00     0.022 A 
BRANCH  76  79
ATOM     79  S   UNL A   1      42.276  22.357  26.164  1.00  0.00     0.127 S 
ATOM     80  O   UNL A   1      42.978  22.008  24.932  1.00  0.00    -0.237 OA
ATOM     81  O   UNL A   1      42.932  21.912  27.395  1.00  0.00    -0.237 OA
ATOM     82  O   UNL A   1      40.833  22.161  26.150  1.00  0.00    -0.744 OA
ENDBRANCH  76  79
ENDBRANCH  48  72
BRANCH  60  83
ATOM     83  C   UNL A   1      45.292  27.119  33.740  1.00  0.00     0.023 A 
ATOM     84  C   UNL A   1      46.455  27.893  33.915  1.00  0.00     0.012 A 
ATOM     85  C   UNL A   1      45.209  25.846  34.339  1.00  0.00     0.148 A 
ATOM     86  C   UNL A   1      47.524  27.402  34.664  1.00  0.00     0.002 A 
ATOM     87  C   UNL A   1      46.256  25.386  35.128  1.00  0.00     0.091 A 
ATOM     88  F   UNL A   1      44.097  25.121  34.147  1.00  0.00    -0.205 F 
ATOM     89  C   UNL A   1      47.418  26.158  35.283  1.00  0.00     0.022 A 
BRANCH  87  90
ATOM     90  S   UNL A   1      46.167  23.848  36.052  1.00  0.00     0.127 S 
ATOM     91  O   UNL A   1      47.430  23.870  36.789  1.00  0.00    -0.237 OA
ATOM     92  O   UNL A   1      44.977  24.052  36.876  1.00  0.00    -0.237 OA
ATOM     93  O   UNL A   1      46.046  22.787  35.062  1.00  0.00    -0.744 OA
ENDBRANCH  87  90
ENDBRANCH  60  83
ENDBRANCH  34  35
ENDBRANCH  26  29
ENDBRANCH  24  25
ENDBRANCH  23  24
ENDBRANCH  22  23
ENDBRANCH   1  22
TORSDOF 20
ENDMDL
MODEL 2
REMARK VINA RESULT:     -10.6      1.398      2.524
REMARK SMILES O=C(CCCC(=O)Nc1ccccc1F)NCCCCCCNC(=O)c1ccc(-c2c3nc(c(-c4cccc(S(=O)(=O)[O-])c4F)c4ccc([nH]4)c(-c4cccc(S(=O)(=O)[O-])c4F)c4nc(c(-c5cccc(S(=O)(=O)[O-])c5F)c5ccc2[nH]5)C=C4)C=C3)cc1
REMARK SMILES IDX 19 1 18 2 17 3 16 4 1 5 2 6 3 8 4 9 5 10 6 11 7 12 8 13 9 15
REMARK SMILES IDX 10 16 14 17 11 18 13 19 15 20 12 21 20 22 21 23 22 24 23 25
REMARK SMILES IDX 24 26 25 28 26 29 27 30 88 31 28 32 87 33 29 34 30 35 31 36
REMARK SMILES IDX 81 37 32 38 86 39 80 40 82 41 33 42 85 43 79 44 78 45 34 47
REMARK SMILES IDX 66 48 46 49 65 50 47 51 50 52 64 53 83 54 48 55 49 56 63 58
REMARK SMILES IDX 84 59 51 60 35 61 36 62 44 63 37 64 39 65 45 66 38 67 40 68
REMARK SMILES IDX 41 69 42 70 43 71 67 72 68 73 76 74 69 75 71 76 77 77 70 78
REMARK SMILES IDX 72 79 73 80 74 81 75 82 52 83 53 84 61 85 54 86 56 87 62 88
REMARK SMILES IDX 55 89 57 90 58 91 59 92 60 93
REMARK H PARENT 16 7 8 14 23 27 82 46 50 57
REMARK Flexibility Score: inf
ROOT
ATOM      1  C   UNL A   1      31.057  26.556  26.384  1.00  0.00     0.002 C 
ENDROOT
BRANCH   1   2
ATOM      2  C   UNL A   1      30.041  25.672  25.650  1.00  0.00     0.021 C 
BRANCH   2   3
ATOM      3  C   UNL A   1      30.216  25.591  24.133  1.00  0.00     0.116 C 
BRANCH   3   4
ATOM      4  N   UNL A   1      31.363  24.799  23.739  1.00  0.00    -0.356 N 
ATOM      5  O   UNL A   1      32.084  26.258  22.136  1.00  0.00    -0.275 OA
ATOM      6  C   UNL A   1      32.239  25.217  22.769  1.00  0.00     0.220 C 
ATOM      7  H   UNL A   1      31.519  23.934  24.182  1.00  0.00     0.163 HD
BRANCH   6   8
ATOM      8  C   UNL A   1      33.369  24.254  22.440  1.00  0.00     0.100 C 
BRANCH   8   9
ATOM      9  C   UNL A   1      33.384  22.866  23.087  1.00  0.00     0.020 C 
BRANCH   9  10
ATOM     10  C   UNL A   1      34.656  22.313  23.722  1.00  0.00     0.101 C 
BRANCH  10  11
ATOM     11  C   UNL A   1      34.626  21.595  25.076  1.00  0.00     0.224 C 
ATOM     12  O   UNL A   1      35.111  22.130  26.077  1.00  0.00    -0.275 OA
ATOM     13  N   UNL A   1      33.784  20.526  25.243  1.00  0.00    -0.324 N 
ATOM     14  H   UNL A   1      33.161  20.590  26.003  1.00  0.00     0.170 HD
BRANCH  13  15
ATOM     15  C   UNL A   1      33.687  19.355  24.478  1.00  0.00     0.077 A 
ATOM     16  C   UNL A   1      34.680  18.384  24.626  1.00  0.00     0.029 A 
ATOM     17  C   UNL A   1      32.674  19.142  23.544  1.00  0.00     0.146 A 
ATOM     18  C   UNL A   1      34.559  17.154  23.970  1.00  0.00     0.002 A 
ATOM     19  C   UNL A   1      32.564  17.930  22.865  1.00  0.00     0.041 A 
ATOM     20  F   UNL A   1      31.778  20.107  23.287  1.00  0.00    -0.205 F 
ATOM     21  C   UNL A   1      33.488  16.918  23.108  1.00  0.00     0.003 A 
ENDBRANCH  13  15
ENDBRANCH  10  11
ENDBRANCH   9  10
ENDBRANCH   8   9
ENDBRANCH   6   8
ENDBRANCH   3   4
ENDBRANCH   2   3
ENDBRANCH   1   2
BRANCH   1  22
ATOM     22  C   UNL A   1      31.428  27.855  25.667  1.00  0.00     0.002 C 
BRANCH  22  23
ATOM     23  C   UNL A   1      31.786  29.025  26.587  1.00  0.00     0.021 C 
BRANCH  23  24
ATOM     24  C   UNL A   1      32.922  29.915  26.092  1.00  0.00     0.116 C 
BRANCH  24  25
ATOM     25  N   UNL A   1      32.769  31.298  26.517  1.00  0.00    -0.352 N 
ATOM     26  C   UNL A   1      33.521  32.016  27.417  1.00  0.00     0.251 C 
ATOM     27  H   UNL A   1      32.022  31.788  26.102  1.00  0.00     0.163 HD
ATOM     28  O   UNL A   1      33.139  33.122  27.787  1.00  0.00    -0.269 OA
BRANCH  26  29
ATOM     29  C   UNL A   1      34.777  31.445  27.953  1.00  0.00     0.039 A 
ATOM     30  C   UNL A   1      35.907  32.264  28.038  1.00  0.00     0.014 A 
ATOM     31  C   UNL A   1      34.843  30.114  28.372  1.00  0.00     0.014 A 
ATOM     32  C   UNL A   1      37.083  31.762  28.601  1.00  0.00     0.010 A 
ATOM     33  C   UNL A   1      35.996  29.638  28.996  1.00  0.00     0.010 A 
ATOM     34  C   UNL A   1      37.129  30.456  29.118  1.00  0.00    -0.014 A 
BRANCH  34  35
ATOM     35  C   UNL A   1      38.340  29.953  29.820  1.00  0.00     0.031 A 
ATOM     36  C   UNL A   1      38.704  30.462  31.189  1.00  0.00     0.074 A 
ATOM     37  C   UNL A   1      39.153  29.080  29.190  1.00  0.00     0.049 A 
ATOM     38  N   UNL A   1      39.732  30.147  31.934  1.00  0.00    -0.248 NA
ATOM     39  C   UNL A   1      37.814  31.467  31.795  1.00  0.00     0.031 C 
ATOM     40  C   UNL A   1      38.953  28.571  27.831  1.00  0.00     0.029 A 
ATOM     41  N   UNL A   1      40.319  28.479  29.597  1.00  0.00    -0.354 N 
ATOM     42  C   UNL A   1      39.629  30.928  33.078  1.00  0.00     0.074 A 
ATOM     43  C   UNL A   1      38.455  31.757  32.919  1.00  0.00     0.031 C 
ATOM     44  C   UNL A   1      39.950  27.728  27.524  1.00  0.00     0.029 A 
ATOM     45  C   UNL A   1      40.880  27.657  28.646  1.00  0.00     0.049 A 
ATOM     46  H   UNL A   1      40.716  28.624  30.487  1.00  0.00     0.167 HD
ATOM     47  C   UNL A   1      40.423  30.932  34.174  1.00  0.00     0.034 A 
ATOM     48  C   UNL A   1      42.016  26.931  28.670  1.00  0.00     0.034 A 
ATOM     49  C   UNL A   1      41.563  30.072  34.349  1.00  0.00     0.049 A 
ATOM     50  C   UNL A   1      42.858  26.925  29.917  1.00  0.00     0.074 A 
ATOM     51  C   UNL A   1      42.375  29.947  35.461  1.00  0.00     0.029 A 
ATOM     52  N   UNL A   1      42.054  29.198  33.393  1.00  0.00    -0.354 N 
ATOM     53  N   UNL A   1      42.657  27.560  31.046  1.00  0.00    -0.248 NA
ATOM     54  C   UNL A   1      44.061  26.078  29.912  1.00  0.00     0.031 C 
ATOM     55  C   UNL A   1      43.375  29.017  35.170  1.00  0.00     0.029 A 
ATOM     56  C   UNL A   1      43.163  28.536  33.888  1.00  0.00     0.049 A 
ATOM     57  H   UNL A   1      41.670  29.067  32.496  1.00  0.00     0.167 HD
ATOM     58  C   UNL A   1      43.683  27.160  31.896  1.00  0.00     0.074 A 
ATOM     59  C   UNL A   1      44.496  26.219  31.158  1.00  0.00     0.031 C 
ATOM     60  C   UNL A   1      43.930  27.551  33.170  1.00  0.00     0.034 A 
BRANCH  47  61
ATOM     61  C   UNL A   1      40.065  31.845  35.317  1.00  0.00     0.023 A 
ATOM     62  C   UNL A   1      40.584  33.155  35.343  1.00  0.00     0.012 A 
ATOM     63  C   UNL A   1      39.112  31.458  36.280  1.00  0.00     0.148 A 
ATOM     64  C   UNL A   1      40.170  34.063  36.317  1.00  0.00     0.002 A 
ATOM     65  C   UNL A   1      38.669  32.382  37.219  1.00  0.00     0.091 A 
ATOM     66  F   UNL A   1      38.642  30.203  36.244  1.00  0.00    -0.205 F 
ATOM     67  C   UNL A   1      39.202  33.682  37.243  1.00  0.00     0.022 A 
BRANCH  65  68
ATOM     68  S   UNL A   1      37.361  32.024  38.398  1.00  0.00     0.127 S 
ATOM     69  O   UNL A   1      37.067  30.624  38.094  1.00  0.00    -0.237 OA
ATOM     70  O   UNL A   1      38.035  32.241  39.678  1.00  0.00    -0.237 OA
ATOM     71  O   UNL A   1      36.284  32.960  38.105  1.00  0.00    -0.744 OA
ENDBRANCH  65  68
ENDBRANCH  47  61
BRANCH  48  72
ATOM     72  C   UNL A   1      42.381  26.092  27.492  1.00  0.00     0.023 A 
ATOM     73  C   UNL A   1      43.193  26.636  26.478  1.00  0.00     0.012 A 
ATOM     74  C   UNL A   1      41.972  24.748  27.396  1.00  0.00     0.148 A 
ATOM     75  C   UNL A   1      43.568  25.865  25.376  1.00  0.00     0.002 A 
ATOM     76  C   UNL A   1      42.400  23.968  26.329  1.00  0.00     0.091 A 
ATOM     77  F   UNL A   1      41.188  24.252  28.364  1.00  0.00    -0.205 F 
ATOM     78  C   UNL A   1      43.184  24.528  25.309  1.00  0.00     0.022 A 
BRANCH  76  79
ATOM     79  S   UNL A   1      42.075  22.203  26.237  1.00  0.00     0.127 S 
ATOM     80  O   UNL A   1      40.618  22.172  26.137  1.00  0.00    -0.237 OA
ATOM     81  O   UNL A   1      42.786  21.830  25.012  1.00  0.00    -0.237 OA
ATOM     82  O   UNL A   1      42.641  21.636  27.453  1.00  0.00    -0.744 OA
ENDBRANCH  76  79
ENDBRANCH  48  72
BRANCH  60  83
ATOM     83  C   UNL A   1      45.106  26.944  33.889  1.00  0.00     0.023 A 
ATOM     84  C   UNL A   1      46.365  27.572  33.831  1.00  0.00     0.012 A 
ATOM     85  C   UNL A   1      44.924  25.832  34.736  1.00  0.00     0.148 A 
ATOM     86  C   UNL A   1      47.429  27.093  34.593  1.00  0.00     0.002 A 
ATOM     87  C   UNL A   1      45.974  25.394  35.533  1.00  0.00     0.091 A 
ATOM     88  F   UNL A   1      43.719  25.242  34.766  1.00  0.00    -0.205 F 
ATOM     89  C   UNL A   1      47.230  26.017  35.455  1.00  0.00     0.022 A 
BRANCH  87  90
ATOM     90  S   UNL A   1      45.784  24.087  36.751  1.00  0.00     0.127 S 
ATOM     91  O   UNL A   1      45.627  22.907  35.902  1.00  0.00    -0.237 OA
ATOM     92  O   UNL A   1      47.053  24.153  37.475  1.00  0.00    -0.237 OA
ATOM     93  O   UNL A   1      44.614  24.440  37.544  1.00  0.00    -0.744 OA
ENDBRANCH  87  90
ENDBRANCH  60  83
ENDBRANCH  34  35
ENDBRANCH  26  29
ENDBRANCH  24  25
ENDBRANCH  23  24
ENDBRANCH  22  23
ENDBRANCH   1  22
TORSDOF 20
ENDMDL
MODEL 3
REMARK VINA RESULT:     -10.6      1.957      2.683
REMARK SMILES O=C(CCCC(=O)Nc1ccccc1F)NCCCCCCNC(=O)c1ccc(-c2c3nc(c(-c4cccc(S(=O)(=O)[O-])c4F)c4ccc([nH]4)c(-c4cccc(S(=O)(=O)[O-])c4F)c4nc(c(-c5cccc(S(=O)(=O)[O-])c5F)c5ccc2[nH]5)C=C4)C=C3)cc1
REMARK SMILES IDX 19 1 18 2 17 3 16 4 1 5 2 6 3 8 4 9 5 10 6 11 7 12 8 13 9 15
REMARK SMILES IDX 10 16 14 17 11 18 13 19 15 20 12 21 20 22 21 23 22 24 23 25
REMARK SMILES IDX 24 26 25 28 26 29 27 30 88 31 28 32 87 33 29 34 30 35 31 36
REMARK SMILES IDX 81 37 32 38 86 39 80 40 82 41 33 42 85 43 79 44 78 45 34 47
REMARK SMILES IDX 66 48 46 49 65 50 47 51 50 52 64 53 83 54 48 55 49 56 63 58
REMARK SMILES IDX 84 59 51 60 35 61 36 62 44 63 37 64 39 65 45 66 38 67 40 68
REMARK SMILES IDX 41 69 42 70 43 71 67 72 68 73 76 74 69 75 71 76 77 77 70 78
REMARK SMILES IDX 72 79 73 80 74 81 75 82 52 83 53 84 61 85 54 86 56 87 62 88
REMARK SMILES IDX 55 89 57 90 58 91 59 92 60 93
REMARK H PARENT 16 7 8 14 23 27 82 46 50 57
REMARK Flexibility Score: inf
ROOT
ATOM      1  C   UNL A   1      33.094  27.597  24.263  1.00  0.00     0.002 C 
ENDROOT
BRANCH   1   2
ATOM      2  C   UNL A   1      33.691  26.496  23.379  1.00  0.00     0.021 C 
BRANCH   2   3
ATOM      3  C   UNL A   1      32.705  25.804  22.436  1.00  0.00     0.116 C 
BRANCH   3   4
ATOM      4  N   UNL A   1      32.171  24.573  22.983  1.00  0.00    -0.356 N 
ATOM      5  O   UNL A   1      33.489  23.195  21.723  1.00  0.00    -0.275 OA
ATOM      6  C   UNL A   1      32.634  23.341  22.593  1.00  0.00     0.220 C 
ATOM      7  H   UNL A   1      31.455  24.621  23.656  1.00  0.00     0.163 HD
BRANCH   6   8
ATOM      8  C   UNL A   1      31.944  22.145  23.229  1.00  0.00     0.100 C 
BRANCH   8   9
ATOM      9  C   UNL A   1      32.097  20.762  22.589  1.00  0.00     0.020 C 
BRANCH   9  10
ATOM     10  C   UNL A   1      32.845  19.645  23.309  1.00  0.00     0.101 C 
BRANCH  10  11
ATOM     11  C   UNL A   1      32.846  19.541  24.839  1.00  0.00     0.224 C 
ATOM     12  O   UNL A   1      32.100  18.742  25.410  1.00  0.00    -0.275 OA
ATOM     13  N   UNL A   1      33.890  20.087  25.541  1.00  0.00    -0.324 N 
ATOM     14  H   UNL A   1      34.356  19.475  26.154  1.00  0.00     0.170 HD
BRANCH  13  15
ATOM     15  C   UNL A   1      34.384  21.399  25.504  1.00  0.00     0.077 A 
ATOM     16  C   UNL A   1      35.535  21.651  24.754  1.00  0.00     0.029 A 
ATOM     17  C   UNL A   1      33.807  22.445  26.223  1.00  0.00     0.146 A 
ATOM     18  C   UNL A   1      35.993  22.965  24.597  1.00  0.00     0.002 A 
ATOM     19  C   UNL A   1      34.278  23.751  26.094  1.00  0.00     0.041 A 
ATOM     20  F   UNL A   1      32.779  22.210  27.051  1.00  0.00    -0.205 F 
ATOM     21  C   UNL A   1      35.350  24.017  25.247  1.00  0.00     0.003 A 
ENDBRANCH  13  15
ENDBRANCH  10  11
ENDBRANCH   9  10
ENDBRANCH   8   9
ENDBRANCH   6   8
ENDBRANCH   3   4
ENDBRANCH   2   3
ENDBRANCH   1   2
BRANCH   1  22
ATOM     22  C   UNL A   1      32.330  27.104  25.493  1.00  0.00     0.002 C 
BRANCH  22  23
ATOM     23  C   UNL A   1      32.877  27.594  26.836  1.00  0.00     0.021 C 
BRANCH  23  24
ATOM     24  C   UNL A   1      34.111  28.488  26.747  1.00  0.00     0.116 C 
BRANCH  24  25
ATOM     25  N   UNL A   1      33.811  29.878  27.048  1.00  0.00    -0.352 N 
ATOM     26  C   UNL A   1      34.507  30.764  27.838  1.00  0.00     0.251 C 
ATOM     27  H   UNL A   1      32.995  30.236  26.628  1.00  0.00     0.163 HD
ATOM     28  O   UNL A   1      34.012  31.850  28.122  1.00  0.00    -0.269 OA
BRANCH  26  29
ATOM     29  C   UNL A   1      35.842  30.397  28.360  1.00  0.00     0.039 A 
ATOM     30  C   UNL A   1      35.924  29.647  29.537  1.00  0.00     0.014 A 
ATOM     31  C   UNL A   1      37.009  30.786  27.695  1.00  0.00     0.014 A 
ATOM     32  C   UNL A   1      37.173  29.236  30.010  1.00  0.00     0.010 A 
ATOM     33  C   UNL A   1      38.247  30.315  28.131  1.00  0.00     0.010 A 
ATOM     34  C   UNL A   1      38.344  29.535  29.292  1.00  0.00    -0.014 A 
BRANCH  34  35
ATOM     35  C   UNL A   1      39.664  29.006  29.728  1.00  0.00     0.031 A 
ATOM     36  C   UNL A   1      40.435  29.677  30.833  1.00  0.00     0.074 A 
ATOM     37  C   UNL A   1      40.200  27.952  29.079  1.00  0.00     0.049 A 
ATOM     38  N   UNL A   1      41.606  29.362  31.324  1.00  0.00    -0.248 NA
ATOM     39  C   UNL A   1      39.828  30.866  31.455  1.00  0.00     0.031 C 
ATOM     40  C   UNL A   1      39.588  27.262  27.941  1.00  0.00     0.029 A 
ATOM     41  N   UNL A   1      41.387  27.286  29.268  1.00  0.00    -0.354 N 
ATOM     42  C   UNL A   1      41.887  30.321  32.289  1.00  0.00     0.074 A 
ATOM     43  C   UNL A   1      40.779  31.251  32.295  1.00  0.00     0.031 C 
ATOM     44  C   UNL A   1      40.394  26.267  27.544  1.00  0.00     0.029 A 
ATOM     45  C   UNL A   1      41.595  26.262  28.372  1.00  0.00     0.049 A 
ATOM     46  H   UNL A   1      42.028  27.521  29.977  1.00  0.00     0.167 HD
ATOM     47  C   UNL A   1      42.956  30.403  33.114  1.00  0.00     0.034 A 
ATOM     48  C   UNL A   1      42.636  25.417  28.228  1.00  0.00     0.034 A 
ATOM     49  C   UNL A   1      44.033  29.449  33.138  1.00  0.00     0.049 A 
ATOM     50  C   UNL A   1      43.792  25.506  29.187  1.00  0.00     0.074 A 
ATOM     51  C   UNL A   1      45.114  29.404  33.999  1.00  0.00     0.029 A 
ATOM     52  N   UNL A   1      44.169  28.382  32.267  1.00  0.00    -0.354 N 
ATOM     53  N   UNL A   1      43.965  26.331  30.190  1.00  0.00    -0.248 NA
ATOM     54  C   UNL A   1      44.880  24.530  29.021  1.00  0.00     0.031 C 
ATOM     55  C   UNL A   1      45.921  28.326  33.631  1.00  0.00     0.029 A 
ATOM     56  C   UNL A   1      45.322  27.676  32.563  1.00  0.00     0.049 A 
ATOM     57  H   UNL A   1      43.540  28.158  31.543  1.00  0.00     0.167 HD
ATOM     58  C   UNL A   1      45.157  25.950  30.797  1.00  0.00     0.074 A 
ATOM     59  C   UNL A   1      45.658  24.812  30.058  1.00  0.00     0.031 C 
ATOM     60  C   UNL A   1      45.781  26.505  31.864  1.00  0.00     0.034 A 
BRANCH  47  61
ATOM     61  C   UNL A   1      43.002  31.521  34.122  1.00  0.00     0.023 A 
ATOM     62  C   UNL A   1      43.586  32.752  33.760  1.00  0.00     0.012 A 
ATOM     63  C   UNL A   1      42.348  31.404  35.364  1.00  0.00     0.148 A 
ATOM     64  C   UNL A   1      43.529  33.845  34.623  1.00  0.00     0.002 A 
ATOM     65  C   UNL A   1      42.255  32.510  36.200  1.00  0.00     0.091 A 
ATOM     66  F   UNL A   1      41.812  30.220  35.693  1.00  0.00    -0.205 F 
ATOM     67  C   UNL A   1      42.851  33.729  35.834  1.00  0.00     0.022 A 
BRANCH  65  68
ATOM     68  S   UNL A   1      41.328  32.495  37.739  1.00  0.00     0.127 S 
ATOM     69  O   UNL A   1      40.030  31.986  37.295  1.00  0.00    -0.237 OA
ATOM     70  O   UNL A   1      42.103  31.561  38.554  1.00  0.00    -0.237 OA
ATOM     71  O   UNL A   1      41.320  33.870  38.220  1.00  0.00    -0.744 OA
ENDBRANCH  65  68
ENDBRANCH  47  61
BRANCH  48  72
ATOM     72  C   UNL A   1      42.591  24.364  27.173  1.00  0.00     0.023 A 
ATOM     73  C   UNL A   1      43.207  24.602  25.929  1.00  0.00     0.012 A 
ATOM     74  C   UNL A   1      41.988  23.114  27.411  1.00  0.00     0.148 A 
ATOM     75  C   UNL A   1      43.201  23.624  24.933  1.00  0.00     0.002 A 
ATOM     76  C   UNL A   1      42.039  22.123  26.438  1.00  0.00     0.091 A 
ATOM     77  F   UNL A   1      41.394  22.911  28.596  1.00  0.00    -0.205 F 
ATOM     78  C   UNL A   1      42.629  22.381  25.192  1.00  0.00     0.022 A 
BRANCH  76  79
ATOM     79  S   UNL A   1      41.459  20.449  26.739  1.00  0.00     0.127 S 
ATOM     80  O   UNL A   1      41.794  19.786  25.482  1.00  0.00    -0.237 OA
ATOM     81  O   UNL A   1      42.276  20.050  27.886  1.00  0.00    -0.237 OA
ATOM     82  O   UNL A   1      40.038  20.574  27.032  1.00  0.00    -0.744 OA
ENDBRANCH  76  79
ENDBRANCH  48  72
BRANCH  60  83
ATOM     83  C   UNL A   1      47.064  25.881  32.346  1.00  0.00     0.023 A 
ATOM     84  C   UNL A   1      48.300  26.360  31.869  1.00  0.00     0.012 A 
ATOM     85  C   UNL A   1      47.044  24.920  33.377  1.00  0.00     0.148 A 
ATOM     86  C   UNL A   1      49.496  25.880  32.400  1.00  0.00     0.002 A 
ATOM     87  C   UNL A   1      48.239  24.486  33.938  1.00  0.00     0.091 A 
ATOM     88  F   UNL A   1      45.856  24.469  33.807  1.00  0.00    -0.205 F 
ATOM     89  C   UNL A   1      49.465  24.958  33.444  1.00  0.00     0.022 A 
BRANCH  87  90
ATOM     90  S   UNL A   1      48.298  23.385  35.356  1.00  0.00     0.127 S 
ATOM     91  O   UNL A   1      49.738  23.253  35.571  1.00  0.00    -0.237 OA
ATOM     92  O   UNL A   1      47.597  24.161  36.379  1.00  0.00    -0.237 OA
ATOM     93  O   UNL A   1      47.617  22.163  34.949  1.00  0.00    -0.744 OA
ENDBRANCH  87  90
ENDBRANCH  60  83
ENDBRANCH  34  35
ENDBRANCH  26  29
ENDBRANCH  24  25
ENDBRANCH  23  24
ENDBRANCH  22  23
ENDBRANCH   1  22
TORSDOF 20
ENDMDL
