MODEL 1
REMARK VINA RESULT:     -12.0      0.000      0.000
REMARK SMILES O=C(NCCCCCCNC(=O)c1cc(/C=C/c2cc(O)cc(O)c2)ccc1O)c1ccc(-c2c3nc(c(-c4cccc(S(=O)(=O)[O-])c4F)c4ccc([nH]4)c(-c4cccc(S(=O)(=O)[O-])c4F)c4nc(c(-c5cccc(S(=O)(=O)[O-])c5F)c5ccc2[nH]5)C=C4)C=C3)cc1
REMARK SMILES IDX 6 1 5 2 4 3 3 4 1 5 2 6 30 8 31 9 92 10 32 11 91 12 33 13
REMARK SMILES IDX 34 14 35 15 85 16 36 17 90 18 84 19 86 20 37 21 89 22 83 23
REMARK SMILES IDX 82 24 38 26 70 27 50 28 69 29 51 30 54 31 68 32 87 33 52 34
REMARK SMILES IDX 53 35 67 37 88 38 55 39 39 40 40 41 48 42 41 43 43 44 49 45
REMARK SMILES IDX 42 46 44 47 45 48 46 49 47 50 71 51 72 52 80 53 73 54 75 55
REMARK SMILES IDX 81 56 74 57 76 58 77 59 78 60 79 61 56 62 57 63 65 64 58 65
REMARK SMILES IDX 60 66 66 67 59 68 61 69 62 70 63 71 64 72 7 73 8 74 9 75
REMARK SMILES IDX 10 76 11 77 12 79 13 80 14 81 28 82 15 83 27 84 26 85 29 86
REMARK SMILES IDX 16 88 17 89 18 90 19 91 25 92 20 93 23 94 22 95 21 96 24 98
REMARK H PARENT 3 7 86 25 54 36 10 78 29 87 21 97 24 99
REMARK Flexibility Score: inf
ROOT
ATOM      1  C   UNL A   1      31.620  30.219  25.892  1.00  0.00     0.002 C 
ENDROOT
BRANCH   1   2
ATOM      2  C   UNL A   1      31.422  31.652  26.385  1.00  0.00     0.021 C 
BRANCH   2   3
ATOM      3  C   UNL A   1      32.634  32.288  27.051  1.00  0.00     0.116 C 
BRANCH   3   4
ATOM      4  N   UNL A   1      32.413  33.669  27.446  1.00  0.00    -0.352 N 
ATOM      5  O   UNL A   1      32.684  35.532  28.689  1.00  0.00    -0.269 OA
ATOM      6  C   UNL A   1      33.084  34.409  28.393  1.00  0.00     0.251 C 
ATOM      7  H   UNL A   1      31.687  34.137  26.973  1.00  0.00     0.163 HD
BRANCH   6   8
ATOM      8  C   UNL A   1      34.266  33.830  29.075  1.00  0.00     0.039 A 
ATOM      9  C   UNL A   1      35.553  34.271  28.762  1.00  0.00     0.014 A 
ATOM     10  C   UNL A   1      34.085  32.823  30.027  1.00  0.00     0.014 A 
ATOM     11  C   UNL A   1      36.657  33.603  29.280  1.00  0.00     0.010 A 
ATOM     12  C   UNL A   1      35.199  32.214  30.619  1.00  0.00     0.010 A 
ATOM     13  C   UNL A   1      36.496  32.575  30.225  1.00  0.00    -0.014 A 
BRANCH  13  14
ATOM     14  C   UNL A   1      37.710  31.971  30.834  1.00  0.00     0.031 A 
ATOM     15  C   UNL A   1      38.127  32.273  32.247  1.00  0.00     0.074 A 
ATOM     16  C   UNL A   1      38.421  31.094  30.095  1.00  0.00     0.049 A 
ATOM     17  N   UNL A   1      39.100  31.743  32.944  1.00  0.00    -0.248 NA
ATOM     18  C   UNL A   1      37.369  33.305  32.972  1.00  0.00     0.031 C 
ATOM     19  C   UNL A   1      38.152  30.773  28.691  1.00  0.00     0.029 A 
ATOM     20  N   UNL A   1      39.495  30.306  30.416  1.00  0.00    -0.354 N 
ATOM     21  C   UNL A   1      39.092  32.390  34.174  1.00  0.00     0.074 A 
ATOM     22  C   UNL A   1      38.023  33.365  34.126  1.00  0.00     0.031 C 
ATOM     23  C   UNL A   1      39.006  29.824  28.285  1.00  0.00     0.029 A 
ATOM     24  C   UNL A   1      39.911  29.500  29.382  1.00  0.00     0.049 A 
ATOM     25  H   UNL A   1      39.926  30.315  31.300  1.00  0.00     0.167 HD
ATOM     26  C   UNL A   1      39.888  32.175  35.251  1.00  0.00     0.034 A 
ATOM     27  C   UNL A   1      40.909  28.599  29.318  1.00  0.00     0.034 A 
ATOM     28  C   UNL A   1      40.930  31.182  35.304  1.00  0.00     0.049 A 
ATOM     29  C   UNL A   1      41.730  28.339  30.546  1.00  0.00     0.074 A 
ATOM     30  C   UNL A   1      41.764  30.865  36.363  1.00  0.00     0.029 A 
ATOM     31  N   UNL A   1      41.283  30.345  34.257  1.00  0.00    -0.354 N 
ATOM     32  N   UNL A   1      41.618  28.872  31.738  1.00  0.00    -0.248 NA
ATOM     33  C   UNL A   1      42.793  27.331  30.432  1.00  0.00     0.031 C 
ATOM     34  C   UNL A   1      42.623  29.838  35.955  1.00  0.00     0.029 A 
ATOM     35  C   UNL A   1      42.318  29.509  34.644  1.00  0.00     0.049 A 
ATOM     36  H   UNL A   1      40.860  30.343  33.368  1.00  0.00     0.167 HD
ATOM     37  C   UNL A   1      42.593  28.263  32.518  1.00  0.00     0.074 A 
ATOM     38  C   UNL A   1      43.252  27.286  31.675  1.00  0.00     0.031 C 
ATOM     39  C   UNL A   1      42.935  28.514  33.806  1.00  0.00     0.034 A 
BRANCH  26  40
ATOM     40  C   UNL A   1      39.626  32.987  36.494  1.00  0.00     0.023 A 
ATOM     41  C   UNL A   1      40.181  34.278  36.599  1.00  0.00     0.012 A 
ATOM     42  C   UNL A   1      38.766  32.520  37.508  1.00  0.00     0.148 A 
ATOM     43  C   UNL A   1      39.902  35.085  37.700  1.00  0.00     0.002 A 
ATOM     44  C   UNL A   1      38.465  33.344  38.588  1.00  0.00     0.091 A 
ATOM     45  F   UNL A   1      38.262  31.283  37.401  1.00  0.00    -0.205 F 
ATOM     46  C   UNL A   1      39.037  34.624  38.689  1.00  0.00     0.022 A 
BRANCH  44  47
ATOM     47  S   UNL A   1      37.308  32.872  39.880  1.00  0.00     0.127 S 
ATOM     48  O   UNL A   1      36.061  32.748  39.127  1.00  0.00    -0.237 OA
ATOM     49  O   UNL A   1      37.867  31.602  40.346  1.00  0.00    -0.237 OA
ATOM     50  O   UNL A   1      37.343  33.947  40.861  1.00  0.00    -0.744 OA
ENDBRANCH  44  47
ENDBRANCH  26  40
BRANCH  27  51
ATOM     51  C   UNL A   1      41.137  27.844  28.054  1.00  0.00     0.023 A 
ATOM     52  C   UNL A   1      41.745  28.483  26.958  1.00  0.00     0.012 A 
ATOM     53  C   UNL A   1      40.813  26.476  27.958  1.00  0.00     0.148 A 
ATOM     54  C   UNL A   1      42.008  27.780  25.781  1.00  0.00     0.002 A 
ATOM     55  C   UNL A   1      41.136  25.767  26.807  1.00  0.00     0.091 A 
ATOM     56  F   UNL A   1      40.212  25.886  29.001  1.00  0.00    -0.205 F 
ATOM     57  C   UNL A   1      41.718  26.420  25.711  1.00  0.00     0.022 A 
BRANCH  55  58
ATOM     58  S   UNL A   1      40.942  23.983  26.726  1.00  0.00     0.127 S 
ATOM     59  O   UNL A   1      39.523  23.848  26.418  1.00  0.00    -0.237 OA
ATOM     60  O   UNL A   1      41.848  23.618  25.636  1.00  0.00    -0.237 OA
ATOM     61  O   UNL A   1      41.368  23.502  28.034  1.00  0.00    -0.744 OA
ENDBRANCH  55  58
ENDBRANCH  27  51
BRANCH  39  62
ATOM     62  C   UNL A   1      44.080  27.720  34.374  1.00  0.00     0.023 A 
ATOM     63  C   UNL A   1      45.391  28.225  34.261  1.00  0.00     0.012 A 
ATOM     64  C   UNL A   1      43.862  26.504  35.047  1.00  0.00     0.148 A 
ATOM     65  C   UNL A   1      46.472  27.512  34.777  1.00  0.00     0.002 A 
ATOM     66  C   UNL A   1      44.941  25.819  35.595  1.00  0.00     0.091 A 
ATOM     67  F   UNL A   1      42.611  26.026  35.123  1.00  0.00    -0.205 F 
ATOM     68  C   UNL A   1      46.247  26.315  35.452  1.00  0.00     0.022 A 
BRANCH  66  69
ATOM     69  S   UNL A   1      44.723  24.311  36.546  1.00  0.00     0.127 S 
ATOM     70  O   UNL A   1      44.030  24.804  37.735  1.00  0.00    -0.237 OA
ATOM     71  O   UNL A   1      43.899  23.491  35.656  1.00  0.00    -0.237 OA
ATOM     72  O   UNL A   1      46.066  23.789  36.766  1.00  0.00    -0.744 OA
ENDBRANCH  66  69
ENDBRANCH  39  62
ENDBRANCH  13  14
ENDBRANCH   6   8
ENDBRANCH   3   4
ENDBRANCH   2   3
ENDBRANCH   1   2
BRANCH   1  73
ATOM     73  C   UNL A   1      31.797  29.154  26.977  1.00  0.00     0.002 C 
BRANCH  73  74
ATOM     74  C   UNL A   1      33.201  28.556  27.120  1.00  0.00     0.021 C 
BRANCH  74  75
ATOM     75  C   UNL A   1      33.408  27.185  26.479  1.00  0.00     0.116 C 
BRANCH  75  76
ATOM     76  N   UNL A   1      32.397  26.227  26.883  1.00  0.00    -0.352 N 
ATOM     77  C   UNL A   1      31.504  25.546  26.097  1.00  0.00     0.255 C 
ATOM     78  H   UNL A   1      32.345  26.041  27.849  1.00  0.00     0.163 HD
ATOM     79  O   UNL A   1      30.672  24.801  26.607  1.00  0.00    -0.269 OA
BRANCH  77  80
ATOM     80  C   UNL A   1      31.474  25.776  24.638  1.00  0.00     0.082 A 
ATOM     81  C   UNL A   1      30.980  27.017  24.208  1.00  0.00     0.025 A 
ATOM     82  C   UNL A   1      31.874  24.816  23.706  1.00  0.00     0.128 A 
ATOM     83  C   UNL A   1      30.917  27.328  22.844  1.00  0.00    -0.025 A 
ATOM     84  C   UNL A   1      31.826  25.114  22.348  1.00  0.00     0.047 A 
ATOM     85  C   UNL A   1      31.356  26.363  21.923  1.00  0.00     0.012 A 
BRANCH  82  86
ATOM     86  O   UNL A   1      32.310  23.589  24.118  1.00  0.00    -0.507 OA
ATOM     87  H   UNL A   1      33.180  23.308  23.915  1.00  0.00     0.293 HD
ENDBRANCH  82  86
BRANCH  83  88
ATOM     88  C   UNL A   1      30.405  28.612  22.327  1.00  0.00     0.009 C 
ATOM     89  C   UNL A   1      29.456  29.370  22.901  1.00  0.00     0.009 C 
BRANCH  89  90
ATOM     90  C   UNL A   1      28.967  30.627  22.317  1.00  0.00    -0.018 A 
ATOM     91  C   UNL A   1      28.343  30.659  21.062  1.00  0.00     0.054 A 
ATOM     92  C   UNL A   1      29.062  31.808  23.068  1.00  0.00     0.054 A 
ATOM     93  C   UNL A   1      27.843  31.863  20.567  1.00  0.00     0.119 A 
ATOM     94  C   UNL A   1      28.558  33.000  22.551  1.00  0.00     0.119 A 
ATOM     95  C   UNL A   1      27.949  33.035  21.303  1.00  0.00     0.092 A 
BRANCH  93  96
ATOM     96  O   UNL A   1      27.228  31.926  19.350  1.00  0.00    -0.508 OA
ATOM     97  H   UNL A   1      26.328  31.679  19.267  1.00  0.00     0.293 HD
ENDBRANCH  93  96
BRANCH  94  98
ATOM     98  O   UNL A   1      28.642  34.167  23.252  1.00  0.00    -0.508 OA
ATOM     99  H   UNL A   1      27.921  34.765  23.255  1.00  0.00     0.293 HD
ENDBRANCH  94  98
ENDBRANCH  89  90
ENDBRANCH  83  88
ENDBRANCH  77  80
ENDBRANCH  75  76
ENDBRANCH  74  75
ENDBRANCH  73  74
ENDBRANCH   1  73
TORSDOF 21
ENDMDL
MODEL 2
REMARK VINA RESULT:     -11.9      3.304      6.000
REMARK SMILES O=C(NCCCCCCNC(=O)c1cc(/C=C/c2cc(O)cc(O)c2)ccc1O)c1ccc(-c2c3nc(c(-c4cccc(S(=O)(=O)[O-])c4F)c4ccc([nH]4)c(-c4cccc(S(=O)(=O)[O-])c4F)c4nc(c(-c5cccc(S(=O)(=O)[O-])c5F)c5ccc2[nH]5)C=C4)C=C3)cc1
REMARK SMILES IDX 6 1 5 2 4 3 3 4 1 5 2 6 30 8 31 9 92 10 32 11 91 12 33 13
REMARK SMILES IDX 34 14 35 15 85 16 36 17 90 18 84 19 86 20 37 21 89 22 83 23
REMARK SMILES IDX 82 24 38 26 70 27 50 28 69 29 51 30 54 31 68 32 87 33 52 34
REMARK SMILES IDX 53 35 67 37 88 38 55 39 39 40 40 41 48 42 41 43 43 44 49 45
REMARK SMILES IDX 42 46 44 47 45 48 46 49 47 50 71 51 72 52 80 53 73 54 75 55
REMARK SMILES IDX 81 56 74 57 76 58 77 59 78 60 79 61 56 62 57 63 65 64 58 65
REMARK SMILES IDX 60 66 66 67 59 68 61 69 62 70 63 71 64 72 7 73 8 74 9 75
REMARK SMILES IDX 10 76 11 77 12 79 13 80 14 81 28 82 15 83 27 84 26 85 29 86
REMARK SMILES IDX 16 88 17 89 18 90 19 91 25 92 20 93 23 94 22 95 21 96 24 98
REMARK H PARENT 3 7 86 25 54 36 10 78 29 87 21 97 24 99
REMARK Flexibility Score: inf
ROOT
ATOM      1  C   UNL A   1      31.219  27.594  25.259  1.00  0.00     0.002 C 
ENDROOT
BRANCH   1   2
ATOM      2  C   UNL A   1      31.766  28.931  24.759  1.00  0.00     0.021 C 
BRANCH   2   3
ATOM      3  C   UNL A   1      32.732  29.636  25.701  1.00  0.00     0.116 C 
BRANCH   3   4
ATOM      4  N   UNL A   1      32.295  30.969  26.079  1.00  0.00    -0.352 N 
ATOM      5  O   UNL A   1      32.292  32.881  27.276  1.00  0.00    -0.269 OA
ATOM      6  C   UNL A   1      32.865  31.835  26.984  1.00  0.00     0.251 C 
ATOM      7  H   UNL A   1      31.484  31.296  25.627  1.00  0.00     0.163 HD
BRANCH   6   8
ATOM      8  C   UNL A   1      34.153  31.481  27.628  1.00  0.00     0.039 A 
ATOM      9  C   UNL A   1      34.406  30.169  28.035  1.00  0.00     0.014 A 
ATOM     10  C   UNL A   1      35.110  32.476  27.844  1.00  0.00     0.014 A 
ATOM     11  C   UNL A   1      35.539  29.887  28.790  1.00  0.00     0.010 A 
ATOM     12  C   UNL A   1      36.296  32.168  28.524  1.00  0.00     0.010 A 
ATOM     13  C   UNL A   1      36.505  30.879  29.033  1.00  0.00    -0.014 A 
BRANCH  13  14
ATOM     14  C   UNL A   1      37.753  30.498  29.747  1.00  0.00     0.031 A 
ATOM     15  C   UNL A   1      38.033  30.948  31.155  1.00  0.00     0.074 A 
ATOM     16  C   UNL A   1      38.626  29.691  29.111  1.00  0.00     0.049 A 
ATOM     17  N   UNL A   1      39.027  30.611  31.938  1.00  0.00    -0.248 NA
ATOM     18  C   UNL A   1      37.092  31.900  31.763  1.00  0.00     0.031 C 
ATOM     19  C   UNL A   1      38.495  29.247  27.721  1.00  0.00     0.029 A 
ATOM     20  N   UNL A   1      39.780  29.091  29.543  1.00  0.00    -0.354 N 
ATOM     21  C   UNL A   1      38.849  31.326  33.116  1.00  0.00     0.074 A 
ATOM     22  C   UNL A   1      37.657  32.128  32.943  1.00  0.00     0.031 C 
ATOM     23  C   UNL A   1      39.500  28.410  27.429  1.00  0.00     0.029 A 
ATOM     24  C   UNL A   1      40.371  28.292  28.592  1.00  0.00     0.049 A 
ATOM     25  H   UNL A   1      40.150  29.219  30.446  1.00  0.00     0.167 HD
ATOM     26  C   UNL A   1      39.598  31.298  34.247  1.00  0.00     0.034 A 
ATOM     27  C   UNL A   1      41.490  27.546  28.645  1.00  0.00     0.034 A 
ATOM     28  C   UNL A   1      40.767  30.475  34.425  1.00  0.00     0.049 A 
ATOM     29  C   UNL A   1      42.261  27.486  29.931  1.00  0.00     0.074 A 
ATOM     30  C   UNL A   1      41.570  30.351  35.546  1.00  0.00     0.029 A 
ATOM     31  N   UNL A   1      41.301  29.634  33.460  1.00  0.00    -0.354 N 
ATOM     32  N   UNL A   1      42.000  28.071  31.074  1.00  0.00    -0.248 NA
ATOM     33  C   UNL A   1      43.462  26.640  29.946  1.00  0.00     0.031 C 
ATOM     34  C   UNL A   1      42.591  29.438  35.258  1.00  0.00     0.029 A 
ATOM     35  C   UNL A   1      42.419  28.986  33.960  1.00  0.00     0.049 A 
ATOM     36  H   UNL A   1      40.939  29.514  32.552  1.00  0.00     0.167 HD
ATOM     37  C   UNL A   1      43.001  27.663  31.946  1.00  0.00     0.074 A 
ATOM     38  C   UNL A   1      43.844  26.742  31.211  1.00  0.00     0.031 C 
ATOM     39  C   UNL A   1      43.223  28.042  33.229  1.00  0.00     0.034 A 
BRANCH  26  40
ATOM     40  C   UNL A   1      39.146  32.139  35.413  1.00  0.00     0.023 A 
ATOM     41  C   UNL A   1      38.256  31.584  36.354  1.00  0.00     0.012 A 
ATOM     42  C   UNL A   1      39.664  33.432  35.631  1.00  0.00     0.148 A 
ATOM     43  C   UNL A   1      37.872  32.305  37.483  1.00  0.00     0.002 A 
ATOM     44  C   UNL A   1      39.302  34.133  36.777  1.00  0.00     0.091 A 
ATOM     45  F   UNL A   1      40.494  33.951  34.717  1.00  0.00    -0.205 F 
ATOM     46  C   UNL A   1      38.402  33.574  37.700  1.00  0.00     0.022 A 
BRANCH  44  47
ATOM     47  S   UNL A   1      39.983  35.746  37.186  1.00  0.00     0.127 S 
ATOM     48  O   UNL A   1      39.230  36.086  38.392  1.00  0.00    -0.237 OA
ATOM     49  O   UNL A   1      41.395  35.436  37.415  1.00  0.00    -0.237 OA
ATOM     50  O   UNL A   1      39.728  36.592  36.029  1.00  0.00    -0.744 OA
ENDBRANCH  44  47
ENDBRANCH  26  40
BRANCH  27  51
ATOM     51  C   UNL A   1      41.902  26.753  27.453  1.00  0.00     0.023 A 
ATOM     52  C   UNL A   1      42.595  27.383  26.402  1.00  0.00     0.012 A 
ATOM     53  C   UNL A   1      41.668  25.366  27.386  1.00  0.00     0.148 A 
ATOM     54  C   UNL A   1      43.029  26.648  25.297  1.00  0.00     0.002 A 
ATOM     55  C   UNL A   1      42.159  24.631  26.315  1.00  0.00     0.091 A 
ATOM     56  F   UNL A   1      40.985  24.784  28.383  1.00  0.00    -0.205 F 
ATOM     57  C   UNL A   1      42.826  25.272  25.260  1.00  0.00     0.022 A 
BRANCH  55  58
ATOM     58  S   UNL A   1      42.075  22.837  26.298  1.00  0.00     0.127 S 
ATOM     59  O   UNL A   1      42.874  22.487  27.467  1.00  0.00    -0.237 OA
ATOM     60  O   UNL A   1      40.639  22.588  26.434  1.00  0.00    -0.237 OA
ATOM     61  O   UNL A   1      42.620  22.450  25.003  1.00  0.00    -0.744 OA
ENDBRANCH  55  58
ENDBRANCH  27  51
BRANCH  39  62
ATOM     62  C   UNL A   1      44.432  27.462  33.912  1.00  0.00     0.023 A 
ATOM     63  C   UNL A   1      45.668  28.130  33.807  1.00  0.00     0.012 A 
ATOM     64  C   UNL A   1      44.342  26.288  34.683  1.00  0.00     0.148 A 
ATOM     65  C   UNL A   1      46.806  27.617  34.428  1.00  0.00     0.002 A 
ATOM     66  C   UNL A   1      45.473  25.805  35.333  1.00  0.00     0.091 A 
ATOM     67  F   UNL A   1      43.164  25.652  34.751  1.00  0.00    -0.205 F 
ATOM     68  C   UNL A   1      46.707  26.462  35.198  1.00  0.00     0.022 A 
BRANCH  66  69
ATOM     69  S   UNL A   1      45.407  24.367  36.407  1.00  0.00     0.127 S 
ATOM     70  O   UNL A   1      46.823  24.033  36.547  1.00  0.00    -0.237 OA
ATOM     71  O   UNL A   1      44.785  24.905  37.618  1.00  0.00    -0.237 OA
ATOM     72  O   UNL A   1      44.591  23.388  35.700  1.00  0.00    -0.744 OA
ENDBRANCH  66  69
ENDBRANCH  39  62
ENDBRANCH  13  14
ENDBRANCH   6   8
ENDBRANCH   3   4
ENDBRANCH   2   3
ENDBRANCH   1   2
BRANCH   1  73
ATOM     73  C   UNL A   1      30.667  26.652  24.187  1.00  0.00     0.002 C 
BRANCH  73  74
ATOM     74  C   UNL A   1      30.470  25.191  24.603  1.00  0.00     0.021 C 
BRANCH  74  75
ATOM     75  C   UNL A   1      30.546  24.163  23.476  1.00  0.00     0.116 C 
BRANCH  75  76
ATOM     76  N   UNL A   1      31.522  24.520  22.466  1.00  0.00    -0.352 N 
ATOM     77  C   UNL A   1      32.887  24.391  22.513  1.00  0.00     0.255 C 
ATOM     78  H   UNL A   1      31.158  24.907  21.636  1.00  0.00     0.163 HD
ATOM     79  O   UNL A   1      33.581  24.793  21.583  1.00  0.00    -0.269 OA
BRANCH  77  80
ATOM     80  C   UNL A   1      33.539  23.855  23.725  1.00  0.00     0.082 A 
ATOM     81  C   UNL A   1      33.472  22.466  23.912  1.00  0.00     0.025 A 
ATOM     82  C   UNL A   1      34.168  24.663  24.674  1.00  0.00     0.128 A 
ATOM     83  C   UNL A   1      34.065  21.864  25.029  1.00  0.00    -0.025 A 
ATOM     84  C   UNL A   1      34.771  24.080  25.784  1.00  0.00     0.047 A 
ATOM     85  C   UNL A   1      34.723  22.690  25.955  1.00  0.00     0.012 A 
BRANCH  82  86
ATOM     86  O   UNL A   1      34.195  26.020  24.521  1.00  0.00    -0.507 OA
ATOM     87  H   UNL A   1      33.898  26.408  23.723  1.00  0.00     0.293 HD
ENDBRANCH  82  86
BRANCH  83  88
ATOM     88  C   UNL A   1      34.027  20.412  25.286  1.00  0.00     0.009 C 
ATOM     89  C   UNL A   1      33.898  19.450  24.356  1.00  0.00     0.009 C 
BRANCH  89  90
ATOM     90  C   UNL A   1      33.835  18.019  24.680  1.00  0.00    -0.018 A 
ATOM     91  C   UNL A   1      34.993  17.232  24.756  1.00  0.00     0.054 A 
ATOM     92  C   UNL A   1      32.594  17.446  24.994  1.00  0.00     0.054 A 
ATOM     93  C   UNL A   1      34.897  15.890  25.121  1.00  0.00     0.119 A 
ATOM     94  C   UNL A   1      32.522  16.101  25.354  1.00  0.00     0.119 A 
ATOM     95  C   UNL A   1      33.667  15.318  25.419  1.00  0.00     0.092 A 
BRANCH  93  96
ATOM     96  O   UNL A   1      36.006  15.099  25.206  1.00  0.00    -0.508 OA
ATOM     97  H   UNL A   1      36.424  14.793  24.424  1.00  0.00     0.293 HD
ENDBRANCH  93  96
BRANCH  94  98
ATOM     98  O   UNL A   1      31.329  15.512  25.657  1.00  0.00    -0.508 OA
ATOM     99  H   UNL A   1      31.173  15.192  26.523  1.00  0.00     0.293 HD
ENDBRANCH  94  98
ENDBRANCH  89  90
ENDBRANCH  83  88
ENDBRANCH  77  80
ENDBRANCH  75  76
ENDBRANCH  74  75
ENDBRANCH  73  74
ENDBRANCH   1  73
TORSDOF 21
ENDMDL
MODEL 3
REMARK VINA RESULT:     -11.4      2.029      2.289
REMARK SMILES O=C(NCCCCCCNC(=O)c1cc(/C=C/c2cc(O)cc(O)c2)ccc1O)c1ccc(-c2c3nc(c(-c4cccc(S(=O)(=O)[O-])c4F)c4ccc([nH]4)c(-c4cccc(S(=O)(=O)[O-])c4F)c4nc(c(-c5cccc(S(=O)(=O)[O-])c5F)c5ccc2[nH]5)C=C4)C=C3)cc1
REMARK SMILES IDX 6 1 5 2 4 3 3 4 1 5 2 6 30 8 31 9 92 10 32 11 91 12 33 13
REMARK SMILES IDX 34 14 35 15 85 16 36 17 90 18 84 19 86 20 37 21 89 22 83 23
REMARK SMILES IDX 82 24 38 26 70 27 50 28 69 29 51 30 54 31 68 32 87 33 52 34
REMARK SMILES IDX 53 35 67 37 88 38 55 39 39 40 40 41 48 42 41 43 43 44 49 45
REMARK SMILES IDX 42 46 44 47 45 48 46 49 47 50 71 51 72 52 80 53 73 54 75 55
REMARK SMILES IDX 81 56 74 57 76 58 77 59 78 60 79 61 56 62 57 63 65 64 58 65
REMARK SMILES IDX 60 66 66 67 59 68 61 69 62 70 63 71 64 72 7 73 8 74 9 75
REMARK SMILES IDX 10 76 11 77 12 79 13 80 14 81 28 82 15 83 27 84 26 85 29 86
REMARK SMILES IDX 16 88 17 89 18 90 19 91 25 92 20 93 23 94 22 95 21 96 24 98
REMARK H PARENT 3 7 86 25 54 36 10 78 29 87 21 97 24 99
REMARK Flexibility Score: inf
ROOT
ATOM      1  C   UNL A   1      31.813  30.233  26.513  1.00  0.00     0.002 C 
ENDROOT
BRANCH   1   2
ATOM      2  C   UNL A   1      31.642  31.728  26.781  1.00  0.00     0.021 C 
BRANCH   2   3
ATOM      3  C   UNL A   1      32.863  32.434  27.353  1.00  0.00     0.116 C 
BRANCH   3   4
ATOM      4  N   UNL A   1      32.615  33.824  27.695  1.00  0.00    -0.352 N 
ATOM      5  O   UNL A   1      32.851  35.739  28.864  1.00  0.00    -0.269 OA
ATOM      6  C   UNL A   1      33.274  34.615  28.609  1.00  0.00     0.251 C 
ATOM      7  H   UNL A   1      31.877  34.258  27.209  1.00  0.00     0.163 HD
BRANCH   6   8
ATOM      8  C   UNL A   1      34.471  34.088  29.306  1.00  0.00     0.039 A 
ATOM      9  C   UNL A   1      35.752  34.367  28.826  1.00  0.00     0.014 A 
ATOM     10  C   UNL A   1      34.310  33.293  30.444  1.00  0.00     0.014 A 
ATOM     11  C   UNL A   1      36.854  33.728  29.385  1.00  0.00     0.010 A 
ATOM     12  C   UNL A   1      35.431  32.725  31.063  1.00  0.00     0.010 A 
ATOM     13  C   UNL A   1      36.710  32.910  30.518  1.00  0.00    -0.014 A 
BRANCH  13  14
ATOM     14  C   UNL A   1      37.932  32.341  31.147  1.00  0.00     0.031 A 
ATOM     15  C   UNL A   1      38.473  32.863  32.450  1.00  0.00     0.074 A 
ATOM     16  C   UNL A   1      38.534  31.301  30.536  1.00  0.00     0.049 A 
ATOM     17  N   UNL A   1      39.467  32.400  33.167  1.00  0.00    -0.248 NA
ATOM     18  C   UNL A   1      37.832  34.057  33.022  1.00  0.00     0.031 C 
ATOM     19  C   UNL A   1      38.140  30.753  29.235  1.00  0.00     0.029 A 
ATOM     20  N   UNL A   1      39.584  30.510  30.925  1.00  0.00    -0.354 N 
ATOM     21  C   UNL A   1      39.589  33.255  34.255  1.00  0.00     0.074 A 
ATOM     22  C   UNL A   1      38.576  34.277  34.100  1.00  0.00     0.031 C 
ATOM     23  C   UNL A   1      38.906  29.690  28.954  1.00  0.00     0.029 A 
ATOM     24  C   UNL A   1      39.874  29.506  30.030  1.00  0.00     0.049 A 
ATOM     25  H   UNL A   1      40.082  30.647  31.762  1.00  0.00     0.167 HD
ATOM     26  C   UNL A   1      40.452  33.182  35.299  1.00  0.00     0.034 A 
ATOM     27  C   UNL A   1      40.812  28.542  30.066  1.00  0.00     0.034 A 
ATOM     28  C   UNL A   1      41.439  32.146  35.463  1.00  0.00     0.049 A 
ATOM     29  C   UNL A   1      41.710  28.449  31.265  1.00  0.00     0.074 A 
ATOM     30  C   UNL A   1      42.333  31.966  36.505  1.00  0.00     0.029 A 
ATOM     31  N   UNL A   1      41.663  31.112  34.567  1.00  0.00    -0.354 N 
ATOM     32  N   UNL A   1      41.720  29.193  32.344  1.00  0.00    -0.248 NA
ATOM     33  C   UNL A   1      42.703  27.367  31.268  1.00  0.00     0.031 C 
ATOM     34  C   UNL A   1      43.100  30.826  36.237  1.00  0.00     0.029 A 
ATOM     35  C   UNL A   1      42.677  30.290  35.032  1.00  0.00     0.049 A 
ATOM     36  H   UNL A   1      41.173  30.980  33.723  1.00  0.00     0.167 HD
ATOM     37  C   UNL A   1      42.717  28.669  33.156  1.00  0.00     0.074 A 
ATOM     38  C   UNL A   1      43.253  27.513  32.465  1.00  0.00     0.031 C 
ATOM     39  C   UNL A   1      43.171  29.121  34.351  1.00  0.00     0.034 A 
BRANCH  26  40
ATOM     40  C   UNL A   1      40.333  34.219  36.386  1.00  0.00     0.023 A 
ATOM     41  C   UNL A   1      39.170  34.246  37.182  1.00  0.00     0.012 A 
ATOM     42  C   UNL A   1      41.394  35.098  36.683  1.00  0.00     0.148 A 
ATOM     43  C   UNL A   1      39.054  35.143  38.242  1.00  0.00     0.002 A 
ATOM     44  C   UNL A   1      41.285  35.967  37.764  1.00  0.00     0.091 A 
ATOM     45  F   UNL A   1      42.484  35.070  35.905  1.00  0.00    -0.205 F 
ATOM     46  C   UNL A   1      40.114  35.996  38.541  1.00  0.00     0.022 A 
BRANCH  44  47
ATOM     47  S   UNL A   1      42.620  37.056  38.274  1.00  0.00     0.127 S 
ATOM     48  O   UNL A   1      41.930  37.957  39.195  1.00  0.00    -0.237 OA
ATOM     49  O   UNL A   1      43.551  36.125  38.914  1.00  0.00    -0.237 OA
ATOM     50  O   UNL A   1      43.122  37.673  37.054  1.00  0.00    -0.744 OA
ENDBRANCH  44  47
ENDBRANCH  26  40
BRANCH  27  51
ATOM     51  C   UNL A   1      40.900  27.559  28.950  1.00  0.00     0.023 A 
ATOM     52  C   UNL A   1      39.987  26.490  28.889  1.00  0.00     0.012 A 
ATOM     53  C   UNL A   1      41.841  27.718  27.915  1.00  0.00     0.148 A 
ATOM     54  C   UNL A   1      40.024  25.584  27.827  1.00  0.00     0.002 A 
ATOM     55  C   UNL A   1      41.831  26.851  26.829  1.00  0.00     0.091 A 
ATOM     56  F   UNL A   1      42.720  28.727  27.999  1.00  0.00    -0.205 F 
ATOM     57  C   UNL A   1      40.934  25.773  26.791  1.00  0.00     0.022 A 
BRANCH  55  58
ATOM     58  S   UNL A   1      42.863  27.146  25.390  1.00  0.00     0.127 S 
ATOM     59  O   UNL A   1      42.701  25.904  24.642  1.00  0.00    -0.237 OA
ATOM     60  O   UNL A   1      42.230  28.319  24.784  1.00  0.00    -0.237 OA
ATOM     61  O   UNL A   1      44.192  27.406  25.931  1.00  0.00    -0.744 OA
ENDBRANCH  55  58
ENDBRANCH  27  51
BRANCH  39  62
ATOM     62  C   UNL A   1      44.310  28.365  34.979  1.00  0.00     0.023 A 
ATOM     63  C   UNL A   1      45.629  28.636  34.562  1.00  0.00     0.012 A 
ATOM     64  C   UNL A   1      44.087  27.422  35.998  1.00  0.00     0.148 A 
ATOM     65  C   UNL A   1      46.705  27.951  35.124  1.00  0.00     0.002 A 
ATOM     66  C   UNL A   1      45.169  26.772  36.583  1.00  0.00     0.091 A 
ATOM     67  F   UNL A   1      42.824  27.158  36.365  1.00  0.00    -0.205 F 
ATOM     68  C   UNL A   1      46.477  27.027  36.140  1.00  0.00     0.022 A 
BRANCH  66  69
ATOM     69  S   UNL A   1      44.961  25.627  37.951  1.00  0.00     0.127 S 
ATOM     70  O   UNL A   1      44.163  26.418  38.886  1.00  0.00    -0.237 OA
ATOM     71  O   UNL A   1      44.243  24.514  37.327  1.00  0.00    -0.237 OA
ATOM     72  O   UNL A   1      46.310  25.295  38.392  1.00  0.00    -0.744 OA
ENDBRANCH  66  69
ENDBRANCH  39  62
ENDBRANCH  13  14
ENDBRANCH   6   8
ENDBRANCH   3   4
ENDBRANCH   2   3
ENDBRANCH   1   2
BRANCH   1  73
ATOM     73  C   UNL A   1      32.852  29.512  27.375  1.00  0.00     0.002 C 
BRANCH  73  74
ATOM     74  C   UNL A   1      34.145  29.088  26.669  1.00  0.00     0.021 C 
BRANCH  74  75
ATOM     75  C   UNL A   1      34.146  27.681  26.074  1.00  0.00     0.116 C 
BRANCH  75  76
ATOM     76  N   UNL A   1      33.228  26.791  26.756  1.00  0.00    -0.352 N 
ATOM     77  C   UNL A   1      32.199  26.055  26.226  1.00  0.00     0.255 C 
ATOM     78  H   UNL A   1      33.361  26.702  27.728  1.00  0.00     0.163 HD
ATOM     79  O   UNL A   1      31.477  25.383  26.957  1.00  0.00    -0.269 OA
BRANCH  77  80
ATOM     80  C   UNL A   1      31.892  26.141  24.784  1.00  0.00     0.082 A 
ATOM     81  C   UNL A   1      31.382  27.364  24.322  1.00  0.00     0.025 A 
ATOM     82  C   UNL A   1      32.054  25.070  23.904  1.00  0.00     0.128 A 
ATOM     83  C   UNL A   1      31.065  27.543  22.970  1.00  0.00    -0.025 A 
ATOM     84  C   UNL A   1      31.753  25.234  22.556  1.00  0.00     0.047 A 
ATOM     85  C   UNL A   1      31.268  26.464  22.094  1.00  0.00     0.012 A 
BRANCH  82  86
ATOM     86  O   UNL A   1      32.505  23.862  24.357  1.00  0.00    -0.507 OA
ATOM     87  H   UNL A   1      33.121  23.826  25.062  1.00  0.00     0.293 HD
ENDBRANCH  82  86
BRANCH  83  88
ATOM     88  C   UNL A   1      30.522  28.800  22.422  1.00  0.00     0.009 C 
ATOM     89  C   UNL A   1      29.459  29.473  22.896  1.00  0.00     0.009 C 
BRANCH  89  90
ATOM     90  C   UNL A   1      28.949  30.707  22.285  1.00  0.00    -0.018 A 
ATOM     91  C   UNL A   1      28.348  30.704  21.018  1.00  0.00     0.054 A 
ATOM     92  C   UNL A   1      28.998  31.901  23.019  1.00  0.00     0.054 A 
ATOM     93  C   UNL A   1      27.826  31.886  20.495  1.00  0.00     0.119 A 
ATOM     94  C   UNL A   1      28.473  33.072  22.474  1.00  0.00     0.119 A 
ATOM     95  C   UNL A   1      27.886  33.072  21.215  1.00  0.00     0.092 A 
BRANCH  93  96
ATOM     96  O   UNL A   1      27.233  31.915  19.266  1.00  0.00    -0.508 OA
ATOM     97  H   UNL A   1      27.760  31.962  18.493  1.00  0.00     0.293 HD
ENDBRANCH  93  96
BRANCH  94  98
ATOM     98  O   UNL A   1      28.512  34.251  23.159  1.00  0.00    -0.508 OA
ATOM     99  H   UNL A   1      28.080  35.007  22.815  1.00  0.00     0.293 HD
ENDBRANCH  94  98
ENDBRANCH  89  90
ENDBRANCH  83  88
ENDBRANCH  77  80
ENDBRANCH  75  76
ENDBRANCH  74  75
ENDBRANCH  73  74
ENDBRANCH   1  73
TORSDOF 21
ENDMDL
