MODEL 1
REMARK VINA RESULT:     -11.3      0.000      0.000
REMARK SMILES C[C@@](O)(CC1(C(=O)NCCCCCCNC(=O)c2ccc(-c3c4nc(c(-c5cccc(S(=O)(=O)[O-])c5F)c5ccc([nH]5)c(-c5cccc(S(=O)(=O)[O-])c5F)c5nc(c(-c6cccc(S(=O)(=O)[O-])c6F)c6ccc3[nH]6)C=C5)C=C4)cc2)CC1)c1ccccc1
REMARK SMILES IDX 11 1 10 2 9 3 8 4 6 5 7 6 5 8 81 9 82 10 4 11 2 12 1 13 3 14
REMARK SMILES IDX 83 16 84 17 88 18 85 19 87 20 86 21 12 22 13 23 14 24 15 25
REMARK SMILES IDX 16 26 17 28 18 29 19 30 80 31 20 32 79 33 21 34 22 35 23 36
REMARK SMILES IDX 73 37 24 38 78 39 72 40 74 41 25 42 77 43 71 44 70 45 26 47
REMARK SMILES IDX 58 48 38 49 57 50 39 51 42 52 56 53 75 54 40 55 41 56 55 58
REMARK SMILES IDX 76 59 43 60 27 61 28 62 36 63 29 64 31 65 37 66 30 67 32 68
REMARK SMILES IDX 33 69 34 70 35 71 59 72 60 73 68 74 61 75 63 76 69 77 62 78
REMARK SMILES IDX 64 79 65 80 66 81 67 82 44 83 45 84 53 85 46 86 48 87 54 88
REMARK SMILES IDX 47 89 49 90 50 91 51 92 52 93
REMARK H PARENT 8 7 3 15 15 27 74 46 42 57
REMARK Flexibility Score: inf
ROOT
ATOM      1  C   UNL A   1      35.857  24.100  24.859  1.00  0.00     0.002 C 
ENDROOT
BRANCH   1   2
ATOM      2  C   UNL A   1      34.655  24.985  24.510  1.00  0.00     0.021 C 
BRANCH   2   3
ATOM      3  C   UNL A   1      33.672  25.217  25.660  1.00  0.00     0.116 C 
BRANCH   3   4
ATOM      4  N   UNL A   1      33.486  24.011  26.444  1.00  0.00    -0.356 N 
ATOM      5  C   UNL A   1      32.371  23.229  26.364  1.00  0.00     0.226 C 
ATOM      6  O   UNL A   1      31.645  23.099  27.350  1.00  0.00    -0.274 OA
ATOM      7  H   UNL A   1      34.201  23.745  27.066  1.00  0.00     0.163 HD
BRANCH   5   8
ATOM      8  C   UNL A   1      32.128  22.382  25.144  1.00  0.00     0.052 C 
ATOM      9  C   UNL A   1      32.644  22.710  23.752  1.00  0.00     0.018 C 
ATOM     10  C   UNL A   1      31.226  23.035  24.095  1.00  0.00     0.018 C 
BRANCH   8  11
ATOM     11  C   UNL A   1      31.898  20.890  25.427  1.00  0.00     0.056 C 
BRANCH  11  12
ATOM     12  C   UNL A   1      33.176  20.016  25.617  1.00  0.00     0.088 C 
ATOM     13  C   UNL A   1      34.426  20.878  25.864  1.00  0.00     0.047 C 
BRANCH  12  14
ATOM     14  O   UNL A   1      32.982  19.304  26.862  1.00  0.00    -0.385 OA
ATOM     15  H   UNL A   1      32.682  19.925  27.545  1.00  0.00     0.211 HD
ENDBRANCH  12  14
BRANCH  12  16
ATOM     16  C   UNL A   1      33.355  18.937  24.544  1.00  0.00    -0.017 A 
ATOM     17  C   UNL A   1      32.467  18.772  23.467  1.00  0.00     0.007 A 
ATOM     18  C   UNL A   1      34.464  18.071  24.603  1.00  0.00     0.007 A 
ATOM     19  C   UNL A   1      32.651  17.755  22.525  1.00  0.00     0.000 A 
ATOM     20  C   UNL A   1      34.635  17.038  23.677  1.00  0.00     0.000 A 
ATOM     21  C   UNL A   1      33.724  16.878  22.640  1.00  0.00     0.000 A 
ENDBRANCH  12  16
ENDBRANCH  11  12
ENDBRANCH   8  11
ENDBRANCH   5   8
ENDBRANCH   3   4
ENDBRANCH   2   3
ENDBRANCH   1   2
BRANCH   1  22
ATOM     22  C   UNL A   1      36.399  23.251  23.706  1.00  0.00     0.002 C 
BRANCH  22  23
ATOM     23  C   UNL A   1      37.180  22.004  24.126  1.00  0.00     0.021 C 
BRANCH  23  24
ATOM     24  C   UNL A   1      37.523  21.929  25.609  1.00  0.00     0.116 C 
BRANCH  24  25
ATOM     25  N   UNL A   1      38.593  20.982  25.880  1.00  0.00    -0.352 N 
ATOM     26  C   UNL A   1      39.867  21.224  26.327  1.00  0.00     0.251 C 
ATOM     27  H   UNL A   1      38.372  20.037  25.720  1.00  0.00     0.163 HD
ATOM     28  O   UNL A   1      40.696  20.317  26.334  1.00  0.00    -0.269 OA
BRANCH  26  29
ATOM     29  C   UNL A   1      40.247  22.580  26.779  1.00  0.00     0.039 A 
ATOM     30  C   UNL A   1      41.122  22.708  27.860  1.00  0.00     0.014 A 
ATOM     31  C   UNL A   1      39.748  23.721  26.142  1.00  0.00     0.014 A 
ATOM     32  C   UNL A   1      41.539  23.977  28.268  1.00  0.00     0.010 A 
ATOM     33  C   UNL A   1      40.220  24.981  26.504  1.00  0.00     0.010 A 
ATOM     34  C   UNL A   1      41.116  25.124  27.573  1.00  0.00    -0.014 A 
BRANCH  34  35
ATOM     35  C   UNL A   1      41.634  26.468  27.938  1.00  0.00     0.031 A 
ATOM     36  C   UNL A   1      43.047  26.863  27.610  1.00  0.00     0.074 A 
ATOM     37  C   UNL A   1      40.845  27.311  28.633  1.00  0.00     0.049 A 
ATOM     38  N   UNL A   1      43.662  27.993  27.851  1.00  0.00    -0.248 NA
ATOM     39  C   UNL A   1      43.890  25.854  26.949  1.00  0.00     0.031 C 
ATOM     40  C   UNL A   1      39.487  27.009  29.096  1.00  0.00     0.029 A 
ATOM     41  N   UNL A   1      41.075  28.584  29.092  1.00  0.00    -0.354 N 
ATOM     42  C   UNL A   1      44.966  27.823  27.402  1.00  0.00     0.074 A 
ATOM     43  C   UNL A   1      45.064  26.467  26.903  1.00  0.00     0.031 C 
ATOM     44  C   UNL A   1      39.005  28.069  29.764  1.00  0.00     0.029 A 
ATOM     45  C   UNL A   1      40.021  29.115  29.798  1.00  0.00     0.049 A 
ATOM     46  H   UNL A   1      41.916  29.070  28.931  1.00  0.00     0.167 HD
ATOM     47  C   UNL A   1      45.980  28.720  27.377  1.00  0.00     0.034 A 
ATOM     48  C   UNL A   1      39.887  30.310  30.405  1.00  0.00     0.034 A 
ATOM     49  C   UNL A   1      45.867  30.079  27.835  1.00  0.00     0.049 A 
ATOM     50  C   UNL A   1      41.008  31.308  30.311  1.00  0.00     0.074 A 
ATOM     51  C   UNL A   1      46.805  31.094  27.758  1.00  0.00     0.029 A 
ATOM     52  N   UNL A   1      44.755  30.613  28.467  1.00  0.00    -0.354 N 
ATOM     53  N   UNL A   1      42.171  31.189  29.717  1.00  0.00    -0.248 NA
ATOM     54  C   UNL A   1      40.785  32.618  30.938  1.00  0.00     0.031 C 
ATOM     55  C   UNL A   1      46.268  32.235  28.367  1.00  0.00     0.029 A 
ATOM     56  C   UNL A   1      44.987  31.937  28.799  1.00  0.00     0.049 A 
ATOM     57  H   UNL A   1      43.922  30.121  28.652  1.00  0.00     0.167 HD
ATOM     58  C   UNL A   1      42.806  32.416  29.874  1.00  0.00     0.074 A 
ATOM     59  C   UNL A   1      41.884  33.274  30.592  1.00  0.00     0.031 C 
ATOM     60  C   UNL A   1      44.048  32.793  29.478  1.00  0.00     0.034 A 
BRANCH  47  61
ATOM     61  C   UNL A   1      47.291  28.278  26.779  1.00  0.00     0.023 A 
ATOM     62  C   UNL A   1      48.385  28.002  27.626  1.00  0.00     0.012 A 
ATOM     63  C   UNL A   1      47.426  28.073  25.392  1.00  0.00     0.148 A 
ATOM     64  C   UNL A   1      49.600  27.564  27.102  1.00  0.00     0.002 A 
ATOM     65  C   UNL A   1      48.627  27.595  24.880  1.00  0.00     0.091 A 
ATOM     66  F   UNL A   1      46.384  28.360  24.598  1.00  0.00    -0.205 F 
ATOM     67  C   UNL A   1      49.717  27.351  25.731  1.00  0.00     0.022 A 
BRANCH  65  68
ATOM     68  S   UNL A   1      48.856  27.212  23.139  1.00  0.00     0.127 S 
ATOM     69  O   UNL A   1      50.313  27.186  23.032  1.00  0.00    -0.237 OA
ATOM     70  O   UNL A   1      48.213  25.902  23.025  1.00  0.00    -0.237 OA
ATOM     71  O   UNL A   1      48.192  28.279  22.404  1.00  0.00    -0.744 OA
ENDBRANCH  65  68
ENDBRANCH  47  61
BRANCH  48  72
ATOM     72  C   UNL A   1      38.609  30.654  31.092  1.00  0.00     0.023 A 
ATOM     73  C   UNL A   1      38.449  30.339  32.455  1.00  0.00     0.012 A 
ATOM     74  C   UNL A   1      37.571  31.321  30.413  1.00  0.00     0.148 A 
ATOM     75  C   UNL A   1      37.265  30.653  33.122  1.00  0.00     0.002 A 
ATOM     76  C   UNL A   1      36.417  31.682  31.098  1.00  0.00     0.091 A 
ATOM     77  F   UNL A   1      37.738  31.601  29.112  1.00  0.00    -0.205 F 
ATOM     78  C   UNL A   1      36.254  31.334  32.448  1.00  0.00     0.022 A 
BRANCH  76  79
ATOM     79  S   UNL A   1      35.125  32.680  30.347  1.00  0.00     0.127 S 
ATOM     80  O   UNL A   1      34.739  31.859  29.203  1.00  0.00    -0.237 OA
ATOM     81  O   UNL A   1      34.133  32.748  31.421  1.00  0.00    -0.237 OA
ATOM     82  O   UNL A   1      35.751  33.957  30.031  1.00  0.00    -0.744 OA
ENDBRANCH  76  79
ENDBRANCH  48  72
BRANCH  60  83
ATOM     83  C   UNL A   1      44.480  34.201  29.798  1.00  0.00     0.023 A 
ATOM     84  C   UNL A   1      45.195  34.458  30.985  1.00  0.00     0.012 A 
ATOM     85  C   UNL A   1      44.223  35.258  28.903  1.00  0.00     0.148 A 
ATOM     86  C   UNL A   1      45.612  35.753  31.296  1.00  0.00     0.002 A 
ATOM     87  C   UNL A   1      44.685  36.537  29.195  1.00  0.00     0.091 A 
ATOM     88  F   UNL A   1      43.524  34.999  27.788  1.00  0.00    -0.205 F 
ATOM     89  C   UNL A   1      45.368  36.788  30.397  1.00  0.00     0.022 A 
BRANCH  87  90
ATOM     90  S   UNL A   1      44.497  37.909  28.052  1.00  0.00     0.127 S 
ATOM     91  O   UNL A   1      43.055  38.144  28.104  1.00  0.00    -0.237 OA
ATOM     92  O   UNL A   1      45.308  38.953  28.682  1.00  0.00    -0.237 OA
ATOM     93  O   UNL A   1      45.012  37.437  26.775  1.00  0.00    -0.744 OA
ENDBRANCH  87  90
ENDBRANCH  60  83
ENDBRANCH  34  35
ENDBRANCH  26  29
ENDBRANCH  24  25
ENDBRANCH  23  24
ENDBRANCH  22  23
ENDBRANCH   1  22
TORSDOF 20
ENDMDL
MODEL 2
REMARK VINA RESULT:     -11.2      2.393      4.164
REMARK SMILES C[C@@](O)(CC1(C(=O)NCCCCCCNC(=O)c2ccc(-c3c4nc(c(-c5cccc(S(=O)(=O)[O-])c5F)c5ccc([nH]5)c(-c5cccc(S(=O)(=O)[O-])c5F)c5nc(c(-c6cccc(S(=O)(=O)[O-])c6F)c6ccc3[nH]6)C=C5)C=C4)cc2)CC1)c1ccccc1
REMARK SMILES IDX 11 1 10 2 9 3 8 4 6 5 7 6 5 8 81 9 82 10 4 11 2 12 1 13 3 14
REMARK SMILES IDX 83 16 84 17 88 18 85 19 87 20 86 21 12 22 13 23 14 24 15 25
REMARK SMILES IDX 16 26 17 28 18 29 19 30 80 31 20 32 79 33 21 34 22 35 23 36
REMARK SMILES IDX 73 37 24 38 78 39 72 40 74 41 25 42 77 43 71 44 70 45 26 47
REMARK SMILES IDX 58 48 38 49 57 50 39 51 42 52 56 53 75 54 40 55 41 56 55 58
REMARK SMILES IDX 76 59 43 60 27 61 28 62 36 63 29 64 31 65 37 66 30 67 32 68
REMARK SMILES IDX 33 69 34 70 35 71 59 72 60 73 68 74 61 75 63 76 69 77 62 78
REMARK SMILES IDX 64 79 65 80 66 81 67 82 44 83 45 84 53 85 46 86 48 87 54 88
REMARK SMILES IDX 47 89 49 90 50 91 51 92 52 93
REMARK H PARENT 8 7 3 15 15 27 74 46 42 57
REMARK Flexibility Score: inf
ROOT
ATOM      1  C   UNL A   1      35.418  23.998  24.731  1.00  0.00     0.002 C 
ENDROOT
BRANCH   1   2
ATOM      2  C   UNL A   1      34.047  24.639  24.484  1.00  0.00     0.021 C 
BRANCH   2   3
ATOM      3  C   UNL A   1      33.599  25.631  25.559  1.00  0.00     0.116 C 
BRANCH   3   4
ATOM      4  N   UNL A   1      32.246  25.351  26.002  1.00  0.00    -0.356 N 
ATOM      5  C   UNL A   1      31.217  26.239  25.877  1.00  0.00     0.226 C 
ATOM      6  O   UNL A   1      30.669  26.682  26.887  1.00  0.00    -0.274 OA
ATOM      7  H   UNL A   1      32.063  24.476  26.413  1.00  0.00     0.163 HD
BRANCH   5   8
ATOM      8  C   UNL A   1      30.631  26.532  24.523  1.00  0.00     0.052 C 
ATOM      9  C   UNL A   1      29.143  26.534  24.212  1.00  0.00     0.018 C 
ATOM     10  C   UNL A   1      29.957  25.331  23.856  1.00  0.00     0.018 C 
BRANCH   8  11
ATOM     11  C   UNL A   1      31.492  27.433  23.626  1.00  0.00     0.056 C 
BRANCH  11  12
ATOM     12  C   UNL A   1      31.480  28.957  23.959  1.00  0.00     0.088 C 
ATOM     13  C   UNL A   1      31.768  29.220  25.447  1.00  0.00     0.047 C 
BRANCH  12  14
ATOM     14  O   UNL A   1      32.623  29.517  23.270  1.00  0.00    -0.385 OA
ATOM     15  H   UNL A   1      33.227  28.803  23.013  1.00  0.00     0.211 HD
ENDBRANCH  12  14
BRANCH  12  16
ATOM     16  C   UNL A   1      30.258  29.702  23.411  1.00  0.00    -0.017 A 
ATOM     17  C   UNL A   1      29.591  30.711  24.127  1.00  0.00     0.007 A 
ATOM     18  C   UNL A   1      29.774  29.397  22.124  1.00  0.00     0.007 A 
ATOM     19  C   UNL A   1      28.462  31.347  23.601  1.00  0.00     0.000 A 
ATOM     20  C   UNL A   1      28.630  30.013  21.609  1.00  0.00     0.000 A 
ATOM     21  C   UNL A   1      27.971  30.985  22.352  1.00  0.00     0.000 A 
ENDBRANCH  12  16
ENDBRANCH  11  12
ENDBRANCH   8  11
ENDBRANCH   5   8
ENDBRANCH   3   4
ENDBRANCH   2   3
ENDBRANCH   1   2
BRANCH   1  22
ATOM     22  C   UNL A   1      35.900  23.043  23.636  1.00  0.00     0.002 C 
BRANCH  22  23
ATOM     23  C   UNL A   1      36.770  21.881  24.121  1.00  0.00     0.021 C 
BRANCH  23  24
ATOM     24  C   UNL A   1      37.300  22.024  25.543  1.00  0.00     0.116 C 
BRANCH  24  25
ATOM     25  N   UNL A   1      38.342  21.056  25.842  1.00  0.00    -0.352 N 
ATOM     26  C   UNL A   1      39.613  21.272  26.312  1.00  0.00     0.251 C 
ATOM     27  H   UNL A   1      38.102  20.114  25.686  1.00  0.00     0.163 HD
ATOM     28  O   UNL A   1      40.420  20.346  26.343  1.00  0.00    -0.269 OA
BRANCH  26  29
ATOM     29  C   UNL A   1      40.016  22.623  26.759  1.00  0.00     0.039 A 
ATOM     30  C   UNL A   1      40.932  22.740  27.806  1.00  0.00     0.014 A 
ATOM     31  C   UNL A   1      39.496  23.771  26.151  1.00  0.00     0.014 A 
ATOM     32  C   UNL A   1      41.369  24.004  28.207  1.00  0.00     0.010 A 
ATOM     33  C   UNL A   1      39.986  25.027  26.504  1.00  0.00     0.010 A 
ATOM     34  C   UNL A   1      40.924  25.157  27.538  1.00  0.00    -0.014 A 
BRANCH  34  35
ATOM     35  C   UNL A   1      41.461  26.497  27.893  1.00  0.00     0.031 A 
ATOM     36  C   UNL A   1      42.886  26.862  27.580  1.00  0.00     0.074 A 
ATOM     37  C   UNL A   1      40.677  27.364  28.565  1.00  0.00     0.049 A 
ATOM     38  N   UNL A   1      43.517  27.984  27.816  1.00  0.00    -0.248 NA
ATOM     39  C   UNL A   1      43.719  25.830  26.945  1.00  0.00     0.031 C 
ATOM     40  C   UNL A   1      39.308  27.092  29.012  1.00  0.00     0.029 A 
ATOM     41  N   UNL A   1      40.924  28.638  29.011  1.00  0.00    -0.354 N 
ATOM     42  C   UNL A   1      44.824  27.785  27.387  1.00  0.00     0.074 A 
ATOM     43  C   UNL A   1      44.905  26.421  26.908  1.00  0.00     0.031 C 
ATOM     44  C   UNL A   1      38.835  28.170  29.659  1.00  0.00     0.029 A 
ATOM     45  C   UNL A   1      39.870  29.198  29.694  1.00  0.00     0.049 A 
ATOM     46  H   UNL A   1      41.776  29.107  28.856  1.00  0.00     0.167 HD
ATOM     47  C   UNL A   1      45.855  28.663  27.365  1.00  0.00     0.034 A 
ATOM     48  C   UNL A   1      39.749  30.403  30.283  1.00  0.00     0.034 A 
ATOM     49  C   UNL A   1      45.761  30.030  27.804  1.00  0.00     0.049 A 
ATOM     50  C   UNL A   1      40.889  31.379  30.193  1.00  0.00     0.074 A 
ATOM     51  C   UNL A   1      46.718  31.026  27.728  1.00  0.00     0.029 A 
ATOM     52  N   UNL A   1      44.649  30.592  28.412  1.00  0.00    -0.354 N 
ATOM     53  N   UNL A   1      42.058  31.232  29.617  1.00  0.00    -0.248 NA
ATOM     54  C   UNL A   1      40.681  32.702  30.799  1.00  0.00     0.031 C 
ATOM     55  C   UNL A   1      46.193  32.185  28.314  1.00  0.00     0.029 A 
ATOM     56  C   UNL A   1      44.900  31.916  28.731  1.00  0.00     0.049 A 
ATOM     57  H   UNL A   1      43.805  30.118  28.592  1.00  0.00     0.167 HD
ATOM     58  C   UNL A   1      42.713  32.449  29.767  1.00  0.00     0.074 A 
ATOM     59  C   UNL A   1      41.796  33.332  30.460  1.00  0.00     0.031 C 
ATOM     60  C   UNL A   1      43.967  32.798  29.385  1.00  0.00     0.034 A 
BRANCH  47  61
ATOM     61  C   UNL A   1      47.166  28.189  26.793  1.00  0.00     0.023 A 
ATOM     62  C   UNL A   1      48.220  27.838  27.663  1.00  0.00     0.012 A 
ATOM     63  C   UNL A   1      47.338  28.030  25.404  1.00  0.00     0.148 A 
ATOM     64  C   UNL A   1      49.433  27.370  27.161  1.00  0.00     0.002 A 
ATOM     65  C   UNL A   1      48.536  27.522  24.912  1.00  0.00     0.091 A 
ATOM     66  F   UNL A   1      46.336  28.389  24.589  1.00  0.00    -0.205 F 
ATOM     67  C   UNL A   1      49.586  27.202  25.787  1.00  0.00     0.022 A 
BRANCH  65  68
ATOM     68  S   UNL A   1      48.806  27.194  23.166  1.00  0.00     0.127 S 
ATOM     69  O   UNL A   1      50.265  27.234  23.081  1.00  0.00    -0.237 OA
ATOM     70  O   UNL A   1      48.223  25.860  23.010  1.00  0.00    -0.237 OA
ATOM     71  O   UNL A   1      48.107  28.249  22.448  1.00  0.00    -0.744 OA
ENDBRANCH  65  68
ENDBRANCH  47  61
BRANCH  48  72
ATOM     72  C   UNL A   1      38.468  30.779  30.946  1.00  0.00     0.023 A 
ATOM     73  C   UNL A   1      38.296  30.519  32.319  1.00  0.00     0.012 A 
ATOM     74  C   UNL A   1      37.438  31.423  30.234  1.00  0.00     0.148 A 
ATOM     75  C   UNL A   1      37.109  30.864  32.965  1.00  0.00     0.002 A 
ATOM     76  C   UNL A   1      36.280  31.816  30.896  1.00  0.00     0.091 A 
ATOM     77  F   UNL A   1      37.615  31.651  28.925  1.00  0.00    -0.205 F 
ATOM     78  C   UNL A   1      36.106  31.522  32.258  1.00  0.00     0.022 A 
BRANCH  76  79
ATOM     79  S   UNL A   1      34.998  32.788  30.097  1.00  0.00     0.127 S 
ATOM     80  O   UNL A   1      34.091  33.060  31.209  1.00  0.00    -0.237 OA
ATOM     81  O   UNL A   1      35.751  33.947  29.617  1.00  0.00    -0.237 OA
ATOM     82  O   UNL A   1      34.468  31.940  29.038  1.00  0.00    -0.744 OA
ENDBRANCH  76  79
ENDBRANCH  48  72
BRANCH  60  83
ATOM     83  C   UNL A   1      44.420  34.202  29.692  1.00  0.00     0.023 A 
ATOM     84  C   UNL A   1      45.090  34.470  30.903  1.00  0.00     0.012 A 
ATOM     85  C   UNL A   1      44.228  35.245  28.764  1.00  0.00     0.148 A 
ATOM     86  C   UNL A   1      45.525  35.760  31.204  1.00  0.00     0.002 A 
ATOM     87  C   UNL A   1      44.710  36.518  29.048  1.00  0.00     0.091 A 
ATOM     88  F   UNL A   1      43.573  34.977  27.625  1.00  0.00    -0.205 F 
ATOM     89  C   UNL A   1      45.345  36.780  30.273  1.00  0.00     0.022 A 
BRANCH  87  90
ATOM     90  S   UNL A   1      44.605  37.868  27.868  1.00  0.00     0.127 S 
ATOM     91  O   UNL A   1      45.161  38.980  28.637  1.00  0.00    -0.237 OA
ATOM     92  O   UNL A   1      45.459  37.395  26.776  1.00  0.00    -0.237 OA
ATOM     93  O   UNL A   1      43.196  37.985  27.521  1.00  0.00    -0.744 OA
ENDBRANCH  87  90
ENDBRANCH  60  83
ENDBRANCH  34  35
ENDBRANCH  26  29
ENDBRANCH  24  25
ENDBRANCH  23  24
ENDBRANCH  22  23
ENDBRANCH   1  22
TORSDOF 20
ENDMDL
MODEL 3
REMARK VINA RESULT:     -11.0      2.706      8.678
REMARK SMILES C[C@@](O)(CC1(C(=O)NCCCCCCNC(=O)c2ccc(-c3c4nc(c(-c5cccc(S(=O)(=O)[O-])c5F)c5ccc([nH]5)c(-c5cccc(S(=O)(=O)[O-])c5F)c5nc(c(-c6cccc(S(=O)(=O)[O-])c6F)c6ccc3[nH]6)C=C5)C=C4)cc2)CC1)c1ccccc1
REMARK SMILES IDX 11 1 10 2 9 3 8 4 6 5 7 6 5 8 81 9 82 10 4 11 2 12 1 13 3 14
REMARK SMILES IDX 83 16 84 17 88 18 85 19 87 20 86 21 12 22 13 23 14 24 15 25
REMARK SMILES IDX 16 26 17 28 18 29 19 30 80 31 20 32 79 33 21 34 22 35 23 36
REMARK SMILES IDX 73 37 24 38 78 39 72 40 74 41 25 42 77 43 71 44 70 45 26 47
REMARK SMILES IDX 58 48 38 49 57 50 39 51 42 52 56 53 75 54 40 55 41 56 55 58
REMARK SMILES IDX 76 59 43 60 27 61 28 62 36 63 29 64 31 65 37 66 30 67 32 68
REMARK SMILES IDX 33 69 34 70 35 71 59 72 60 73 68 74 61 75 63 76 69 77 62 78
REMARK SMILES IDX 64 79 65 80 66 81 67 82 44 83 45 84 53 85 46 86 48 87 54 88
REMARK SMILES IDX 47 89 49 90 50 91 51 92 52 93
REMARK H PARENT 8 7 3 15 15 27 74 46 42 57
REMARK Flexibility Score: inf
ROOT
ATOM      1  C   UNL A   1      36.855  22.187  24.213  1.00  0.00     0.002 C 
ENDROOT
BRANCH   1   2
ATOM      2  C   UNL A   1      35.745  22.811  23.358  1.00  0.00     0.021 C 
BRANCH   2   3
ATOM      3  C   UNL A   1      34.660  23.545  24.150  1.00  0.00     0.116 C 
BRANCH   3   4
ATOM      4  N   UNL A   1      34.514  24.915  23.696  1.00  0.00    -0.356 N 
ATOM      5  C   UNL A   1      33.491  25.334  22.896  1.00  0.00     0.226 C 
ATOM      6  O   UNL A   1      33.736  25.764  21.769  1.00  0.00    -0.274 OA
ATOM      7  H   UNL A   1      35.187  25.574  23.980  1.00  0.00     0.163 HD
BRANCH   5   8
ATOM      8  C   UNL A   1      32.097  25.449  23.449  1.00  0.00     0.052 C 
ATOM      9  C   UNL A   1      31.351  24.320  24.143  1.00  0.00     0.018 C 
ATOM     10  C   UNL A   1      31.056  24.608  22.706  1.00  0.00     0.018 C 
BRANCH   8  11
ATOM     11  C   UNL A   1      31.679  26.867  23.864  1.00  0.00     0.056 C 
BRANCH  11  12
ATOM     12  C   UNL A   1      31.377  27.867  22.705  1.00  0.00     0.088 C 
ATOM     13  C   UNL A   1      32.513  28.889  22.521  1.00  0.00     0.047 C 
BRANCH  12  14
ATOM     14  O   UNL A   1      31.408  27.079  21.491  1.00  0.00    -0.385 OA
ATOM     15  H   UNL A   1      32.081  27.435  20.891  1.00  0.00     0.211 HD
ENDBRANCH  12  14
BRANCH  12  16
ATOM     16  C   UNL A   1      29.977  28.485  22.766  1.00  0.00    -0.017 A 
ATOM     17  C   UNL A   1      29.696  29.792  22.334  1.00  0.00     0.007 A 
ATOM     18  C   UNL A   1      28.898  27.721  23.252  1.00  0.00     0.007 A 
ATOM     19  C   UNL A   1      28.408  30.328  22.433  1.00  0.00     0.000 A 
ATOM     20  C   UNL A   1      27.616  28.263  23.377  1.00  0.00     0.000 A 
ATOM     21  C   UNL A   1      27.373  29.570  22.971  1.00  0.00     0.000 A 
ENDBRANCH  12  16
ENDBRANCH  11  12
ENDBRANCH   8  11
ENDBRANCH   5   8
ENDBRANCH   3   4
ENDBRANCH   2   3
ENDBRANCH   1   2
BRANCH   1  22
ATOM     22  C   UNL A   1      36.499  20.851  24.871  1.00  0.00     0.002 C 
BRANCH  22  23
ATOM     23  C   UNL A   1      37.657  19.858  24.995  1.00  0.00     0.021 C 
BRANCH  23  24
ATOM     24  C   UNL A   1      38.872  20.376  25.756  1.00  0.00     0.116 C 
BRANCH  24  25
ATOM     25  N   UNL A   1      39.896  19.357  25.917  1.00  0.00    -0.352 N 
ATOM     26  C   UNL A   1      41.241  19.512  26.141  1.00  0.00     0.251 C 
ATOM     27  H   UNL A   1      39.581  18.427  25.858  1.00  0.00     0.163 HD
ATOM     28  O   UNL A   1      41.989  18.539  26.078  1.00  0.00    -0.269 OA
BRANCH  26  29
ATOM     29  C   UNL A   1      41.791  20.854  26.435  1.00  0.00     0.039 A 
ATOM     30  C   UNL A   1      42.159  21.678  25.370  1.00  0.00     0.014 A 
ATOM     31  C   UNL A   1      41.943  21.300  27.753  1.00  0.00     0.014 A 
ATOM     32  C   UNL A   1      42.628  22.969  25.622  1.00  0.00     0.010 A 
ATOM     33  C   UNL A   1      42.343  22.612  27.999  1.00  0.00     0.010 A 
ATOM     34  C   UNL A   1      42.694  23.458  26.938  1.00  0.00    -0.014 A 
BRANCH  34  35
ATOM     35  C   UNL A   1      43.096  24.864  27.207  1.00  0.00     0.031 A 
ATOM     36  C   UNL A   1      42.136  25.830  27.846  1.00  0.00     0.074 A 
ATOM     37  C   UNL A   1      44.311  25.289  26.808  1.00  0.00     0.049 A 
ATOM     38  N   UNL A   1      42.320  27.088  28.155  1.00  0.00    -0.248 NA
ATOM     39  C   UNL A   1      40.787  25.330  28.156  1.00  0.00     0.031 C 
ATOM     40  C   UNL A   1      45.296  24.475  26.091  1.00  0.00     0.029 A 
ATOM     41  N   UNL A   1      44.916  26.515  26.926  1.00  0.00    -0.354 N 
ATOM     42  C   UNL A   1      41.109  27.538  28.665  1.00  0.00     0.074 A 
ATOM     43  C   UNL A   1      40.184  26.427  28.593  1.00  0.00     0.031 C 
ATOM     44  C   UNL A   1      46.385  25.221  25.842  1.00  0.00     0.029 A 
ATOM     45  C   UNL A   1      46.168  26.569  26.359  1.00  0.00     0.049 A 
ATOM     46  H   UNL A   1      44.495  27.283  27.374  1.00  0.00     0.167 HD
ATOM     47  C   UNL A   1      40.800  28.755  29.176  1.00  0.00     0.034 A 
ATOM     48  C   UNL A   1      47.044  27.588  26.264  1.00  0.00     0.034 A 
ATOM     49  C   UNL A   1      41.733  29.844  29.284  1.00  0.00     0.049 A 
ATOM     50  C   UNL A   1      46.698  28.910  26.890  1.00  0.00     0.074 A 
ATOM     51  C   UNL A   1      41.547  31.080  29.878  1.00  0.00     0.029 A 
ATOM     52  N   UNL A   1      43.023  29.837  28.777  1.00  0.00    -0.354 N 
ATOM     53  N   UNL A   1      45.611  29.259  27.534  1.00  0.00    -0.248 NA
ATOM     54  C   UNL A   1      47.715  29.968  26.812  1.00  0.00     0.031 C 
ATOM     55  C   UNL A   1      42.717  31.830  29.708  1.00  0.00     0.029 A 
ATOM     56  C   UNL A   1      43.641  31.050  29.031  1.00  0.00     0.049 A 
ATOM     57  H   UNL A   1      43.439  29.079  28.306  1.00  0.00     0.167 HD
ATOM     58  C   UNL A   1      45.822  30.565  27.961  1.00  0.00     0.074 A 
ATOM     59  C   UNL A   1      47.156  30.933  27.529  1.00  0.00     0.031 C 
ATOM     60  C   UNL A   1      44.982  31.392  28.631  1.00  0.00     0.034 A 
BRANCH  47  61
ATOM     61  C   UNL A   1      39.406  28.955  29.714  1.00  0.00     0.023 A 
ATOM     62  C   UNL A   1      39.099  28.534  31.025  1.00  0.00     0.012 A 
ATOM     63  C   UNL A   1      38.420  29.612  28.952  1.00  0.00     0.148 A 
ATOM     64  C   UNL A   1      37.826  28.732  31.556  1.00  0.00     0.002 A 
ATOM     65  C   UNL A   1      37.166  29.845  29.505  1.00  0.00     0.091 A 
ATOM     66  F   UNL A   1      38.722  29.987  27.700  1.00  0.00    -0.205 F 
ATOM     67  C   UNL A   1      36.864  29.397  30.801  1.00  0.00     0.022 A 
BRANCH  65  68
ATOM     68  S   UNL A   1      35.882  30.762  28.644  1.00  0.00     0.127 S 
ATOM     69  O   UNL A   1      35.319  29.733  27.772  1.00  0.00    -0.237 OA
ATOM     70  O   UNL A   1      35.008  31.174  29.744  1.00  0.00    -0.237 OA
ATOM     71  O   UNL A   1      36.559  31.857  27.965  1.00  0.00    -0.744 OA
ENDBRANCH  65  68
ENDBRANCH  47  61
BRANCH  48  72
ATOM     72  C   UNL A   1      48.366  27.371  25.610  1.00  0.00     0.023 A 
ATOM     73  C   UNL A   1      49.465  26.961  26.389  1.00  0.00     0.012 A 
ATOM     74  C   UNL A   1      48.531  27.535  24.221  1.00  0.00     0.148 A 
ATOM     75  C   UNL A   1      50.712  26.748  25.802  1.00  0.00     0.002 A 
ATOM     76  C   UNL A   1      49.761  27.265  23.634  1.00  0.00     0.091 A 
ATOM     77  F   UNL A   1      47.475  27.938  23.499  1.00  0.00    -0.205 F 
ATOM     78  C   UNL A   1      50.859  26.889  24.424  1.00  0.00     0.022 A 
BRANCH  76  79
ATOM     79  S   UNL A   1      50.003  27.287  21.854  1.00  0.00     0.127 S 
ATOM     80  O   UNL A   1      49.780  28.695  21.538  1.00  0.00    -0.237 OA
ATOM     81  O   UNL A   1      51.390  26.839  21.731  1.00  0.00    -0.237 OA
ATOM     82  O   UNL A   1      49.023  26.353  21.315  1.00  0.00    -0.744 OA
ENDBRANCH  76  79
ENDBRANCH  48  72
BRANCH  60  83
ATOM     83  C   UNL A   1      45.484  32.776  28.956  1.00  0.00     0.023 A 
ATOM     84  C   UNL A   1      46.126  33.013  30.188  1.00  0.00     0.012 A 
ATOM     85  C   UNL A   1      45.365  33.827  28.026  1.00  0.00     0.148 A 
ATOM     86  C   UNL A   1      46.606  34.284  30.506  1.00  0.00     0.002 A 
ATOM     87  C   UNL A   1      45.891  35.078  28.328  1.00  0.00     0.091 A 
ATOM     88  F   UNL A   1      44.734  33.588  26.867  1.00  0.00    -0.205 F 
ATOM     89  C   UNL A   1      46.499  35.311  29.573  1.00  0.00     0.022 A 
BRANCH  87  90
ATOM     90  S   UNL A   1      45.880  36.433  27.149  1.00  0.00     0.127 S 
ATOM     91  O   UNL A   1      44.460  36.778  27.105  1.00  0.00    -0.237 OA
ATOM     92  O   UNL A   1      46.729  37.427  27.809  1.00  0.00    -0.237 OA
ATOM     93  O   UNL A   1      46.435  35.892  25.916  1.00  0.00    -0.744 OA
ENDBRANCH  87  90
ENDBRANCH  60  83
ENDBRANCH  34  35
ENDBRANCH  26  29
ENDBRANCH  24  25
ENDBRANCH  23  24
ENDBRANCH  22  23
ENDBRANCH   1  22
TORSDOF 20
ENDMDL
