MODEL 1
REMARK VINA RESULT:     -11.7      0.000      0.000
REMARK SMILES Cn1ccnc(N[C@H]2C=C[C@H](C(=O)NCCCCCCNC(=O)c3ccc(-c4c5nc(c(-c6cccc(S(=O)(=O)[O-])c6F)c6ccc([nH]6)c(-c6cccc(S(=O)(=O)[O-])c6F)c6nc(c(-c7cccc(S(=O)(=O)[O-])c7F)c7ccc4[nH]7)C=C6)C=C5)cc3)C2)c1=O
REMARK SMILES IDX 18 1 17 2 16 3 15 4 14 5 12 6 13 7 11 9 8 10 9 11 87 12
REMARK SMILES IDX 10 13 7 14 6 16 1 17 2 18 3 19 88 20 4 21 89 22 5 23 19 24
REMARK SMILES IDX 20 25 21 26 22 27 23 29 24 30 25 31 86 32 26 33 85 34 27 35
REMARK SMILES IDX 28 36 29 37 79 38 30 39 84 40 78 41 80 42 31 43 83 44 77 45
REMARK SMILES IDX 76 46 32 48 64 49 44 50 63 51 45 52 48 53 62 54 81 55 46 56
REMARK SMILES IDX 47 57 61 59 82 60 49 61 33 62 34 63 42 64 35 65 37 66 43 67
REMARK SMILES IDX 36 68 38 69 39 70 40 71 41 72 65 73 66 74 74 75 67 76 69 77
REMARK SMILES IDX 75 78 68 79 70 80 71 81 72 82 73 83 50 84 51 85 59 86 52 87
REMARK SMILES IDX 54 88 60 89 53 90 55 91 56 92 57 93 58 94
REMARK H PARENT 14 8 7 15 21 28 80 47 48 58
REMARK Flexibility Score: inf
ROOT
ATOM      1  C   UNL A   1      31.725  30.440  26.755  1.00  0.00     0.002 C 
ENDROOT
BRANCH   1   2
ATOM      2  C   UNL A   1      31.790  29.801  25.365  1.00  0.00     0.002 C 
BRANCH   2   3
ATOM      3  C   UNL A   1      33.188  29.377  24.910  1.00  0.00     0.021 C 
BRANCH   3   4
ATOM      4  C   UNL A   1      33.327  29.168  23.406  1.00  0.00     0.116 C 
BRANCH   4   5
ATOM      5  N   UNL A   1      32.041  28.949  22.764  1.00  0.00    -0.356 N 
ATOM      6  C   UNL A   1      31.392  27.765  22.546  1.00  0.00     0.227 C 
ATOM      7  O   UNL A   1      30.266  27.790  22.049  1.00  0.00    -0.274 OA
ATOM      8  H   UNL A   1      31.578  29.758  22.443  1.00  0.00     0.163 HD
BRANCH   6   9
ATOM      9  C   UNL A   1      32.111  26.479  22.936  1.00  0.00     0.103 C 
ATOM     10  C   UNL A   1      31.170  24.217  22.813  1.00  0.00     0.104 C 
ATOM     11  C   UNL A   1      31.109  24.749  24.197  1.00  0.00    -0.006 C 
ATOM     12  C   UNL A   1      31.857  25.299  21.980  1.00  0.00     0.046 C 
ATOM     13  C   UNL A   1      31.597  25.990  24.265  1.00  0.00    -0.016 C 
BRANCH  10  14
ATOM     14  N   UNL A   1      31.807  22.930  22.766  1.00  0.00    -0.359 N 
ATOM     15  H   UNL A   1      31.389  22.312  22.122  1.00  0.00     0.162 HD
BRANCH  14  16
ATOM     16  C   UNL A   1      32.881  22.382  23.432  1.00  0.00     0.193 A 
ATOM     17  C   UNL A   1      36.654  22.637  24.118  1.00  0.00     0.153 C 
ATOM     18  N   UNL A   1      35.274  22.193  24.118  1.00  0.00    -0.314 N 
ATOM     19  C   UNL A   1      34.881  21.084  24.822  1.00  0.00     0.109 A 
ATOM     20  C   UNL A   1      34.348  22.928  23.383  1.00  0.00     0.293 A 
ATOM     21  C   UNL A   1      33.604  20.693  24.818  1.00  0.00     0.131 A 
ATOM     22  O   UNL A   1      34.659  23.916  22.733  1.00  0.00    -0.265 OA
ATOM     23  N   UNL A   1      32.588  21.313  24.141  1.00  0.00    -0.233 NA
ENDBRANCH  14  16
ENDBRANCH  10  14
ENDBRANCH   6   9
ENDBRANCH   4   5
ENDBRANCH   3   4
ENDBRANCH   2   3
ENDBRANCH   1   2
BRANCH   1  24
ATOM     24  C   UNL A   1      31.597  31.965  26.762  1.00  0.00     0.021 C 
BRANCH  24  25
ATOM     25  C   UNL A   1      32.829  32.706  27.269  1.00  0.00     0.116 C 
BRANCH  25  26
ATOM     26  N   UNL A   1      32.535  34.085  27.626  1.00  0.00    -0.352 N 
ATOM     27  C   UNL A   1      33.064  34.851  28.634  1.00  0.00     0.251 C 
ATOM     28  H   UNL A   1      31.862  34.533  27.064  1.00  0.00     0.163 HD
ATOM     29  O   UNL A   1      32.568  35.941  28.904  1.00  0.00    -0.269 OA
BRANCH  27  30
ATOM     30  C   UNL A   1      34.218  34.346  29.408  1.00  0.00     0.039 A 
ATOM     31  C   UNL A   1      33.984  33.659  30.601  1.00  0.00     0.014 A 
ATOM     32  C   UNL A   1      35.526  34.543  28.954  1.00  0.00     0.014 A 
ATOM     33  C   UNL A   1      35.059  33.120  31.309  1.00  0.00     0.010 A 
ATOM     34  C   UNL A   1      36.588  33.937  29.618  1.00  0.00     0.010 A 
ATOM     35  C   UNL A   1      36.368  33.225  30.807  1.00  0.00    -0.014 A 
BRANCH  35  36
ATOM     36  C   UNL A   1      37.513  32.586  31.505  1.00  0.00     0.031 A 
ATOM     37  C   UNL A   1      38.243  31.433  30.871  1.00  0.00     0.074 A 
ATOM     38  C   UNL A   1      37.850  32.996  32.745  1.00  0.00     0.049 A 
ATOM     39  N   UNL A   1      39.231  30.721  31.347  1.00  0.00    -0.248 NA
ATOM     40  C   UNL A   1      37.788  31.005  29.537  1.00  0.00     0.031 C 
ATOM     41  C   UNL A   1      37.171  34.053  33.499  1.00  0.00     0.029 A 
ATOM     42  N   UNL A   1      38.827  32.554  33.601  1.00  0.00    -0.354 N 
ATOM     43  C   UNL A   1      39.493  29.744  30.394  1.00  0.00     0.074 A 
ATOM     44  C   UNL A   1      38.538  29.932  29.325  1.00  0.00     0.031 C 
ATOM     45  C   UNL A   1      37.757  34.181  34.701  1.00  0.00     0.029 A 
ATOM     46  C   UNL A   1      38.825  33.195  34.819  1.00  0.00     0.049 A 
ATOM     47  H   UNL A   1      39.470  31.846  33.366  1.00  0.00     0.167 HD
ATOM     48  C   UNL A   1      40.457  28.794  30.394  1.00  0.00     0.034 A 
ATOM     49  C   UNL A   1      39.586  33.000  35.914  1.00  0.00     0.034 A 
ATOM     50  C   UNL A   1      41.427  28.631  31.444  1.00  0.00     0.049 A 
ATOM     51  C   UNL A   1      40.667  31.952  35.877  1.00  0.00     0.074 A 
ATOM     52  C   UNL A   1      42.496  27.754  31.496  1.00  0.00     0.029 A 
ATOM     53  N   UNL A   1      41.440  29.348  32.629  1.00  0.00    -0.354 N 
ATOM     54  N   UNL A   1      40.997  31.143  34.901  1.00  0.00    -0.248 NA
ATOM     55  C   UNL A   1      41.502  31.816  37.079  1.00  0.00     0.031 C 
ATOM     56  C   UNL A   1      43.133  27.914  32.731  1.00  0.00     0.029 A 
ATOM     57  C   UNL A   1      42.488  28.922  33.428  1.00  0.00     0.049 A 
ATOM     58  H   UNL A   1      40.799  30.055  32.869  1.00  0.00     0.167 HD
ATOM     59  C   UNL A   1      42.101  30.429  35.355  1.00  0.00     0.074 A 
ATOM     60  C   UNL A   1      42.395  30.918  36.686  1.00  0.00     0.031 C 
ATOM     61  C   UNL A   1      42.802  29.451  34.731  1.00  0.00     0.034 A 
BRANCH  48  62
ATOM     62  C   UNL A   1      40.539  27.874  29.203  1.00  0.00     0.023 A 
ATOM     63  C   UNL A   1      39.662  26.773  29.106  1.00  0.00     0.012 A 
ATOM     64  C   UNL A   1      41.435  28.136  28.149  1.00  0.00     0.148 A 
ATOM     65  C   UNL A   1      39.699  25.930  27.996  1.00  0.00     0.002 A 
ATOM     66  C   UNL A   1      41.433  27.321  27.024  1.00  0.00     0.091 A 
ATOM     67  F   UNL A   1      42.274  29.176  28.266  1.00  0.00    -0.205 F 
ATOM     68  C   UNL A   1      40.576  26.211  26.952  1.00  0.00     0.022 A 
BRANCH  66  69
ATOM     69  S   UNL A   1      42.462  27.643  25.588  1.00  0.00     0.127 S 
ATOM     70  O   UNL A   1      43.794  27.706  26.188  1.00  0.00    -0.237 OA
ATOM     71  O   UNL A   1      42.219  26.460  24.764  1.00  0.00    -0.237 OA
ATOM     72  O   UNL A   1      41.979  28.893  25.017  1.00  0.00    -0.744 OA
ENDBRANCH  66  69
ENDBRANCH  48  62
BRANCH  49  73
ATOM     73  C   UNL A   1      39.386  33.846  37.124  1.00  0.00     0.023 A 
ATOM     74  C   UNL A   1      39.853  35.176  37.130  1.00  0.00     0.012 A 
ATOM     75  C   UNL A   1      38.729  33.345  38.265  1.00  0.00     0.148 A 
ATOM     76  C   UNL A   1      39.705  35.977  38.263  1.00  0.00     0.002 A 
ATOM     77  C   UNL A   1      38.533  34.166  39.368  1.00  0.00     0.091 A 
ATOM     78  F   UNL A   1      38.302  32.074  38.244  1.00  0.00    -0.205 F 
ATOM     79  C   UNL A   1      39.037  35.476  39.377  1.00  0.00     0.022 A 
BRANCH  77  80
ATOM     80  S   UNL A   1      37.572  33.649  40.795  1.00  0.00     0.127 S 
ATOM     81  O   UNL A   1      36.391  33.065  40.163  1.00  0.00    -0.237 OA
ATOM     82  O   UNL A   1      38.472  32.686  41.429  1.00  0.00    -0.237 OA
ATOM     83  O   UNL A   1      37.341  34.857  41.573  1.00  0.00    -0.744 OA
ENDBRANCH  77  80
ENDBRANCH  49  73
BRANCH  61  84
ATOM     84  C   UNL A   1      43.989  28.869  35.454  1.00  0.00     0.023 A 
ATOM     85  C   UNL A   1      45.270  29.425  35.274  1.00  0.00     0.012 A 
ATOM     86  C   UNL A   1      43.816  27.812  36.371  1.00  0.00     0.148 A 
ATOM     87  C   UNL A   1      46.368  28.913  35.965  1.00  0.00     0.002 A 
ATOM     88  C   UNL A   1      44.904  27.345  37.097  1.00  0.00     0.091 A 
ATOM     89  F   UNL A   1      42.591  27.286  36.517  1.00  0.00    -0.205 F 
ATOM     90  C   UNL A   1      46.183  27.883  36.885  1.00  0.00     0.022 A 
BRANCH  88  91
ATOM     91  S   UNL A   1      44.744  26.091  38.374  1.00  0.00     0.127 S 
ATOM     92  O   UNL A   1      44.251  24.947  37.608  1.00  0.00    -0.237 OA
ATOM     93  O   UNL A   1      46.122  25.959  38.849  1.00  0.00    -0.237 OA
ATOM     94  O   UNL A   1      43.814  26.631  39.356  1.00  0.00    -0.744 OA
ENDBRANCH  88  91
ENDBRANCH  61  84
ENDBRANCH  35  36
ENDBRANCH  27  30
ENDBRANCH  25  26
ENDBRANCH  24  25
ENDBRANCH   1  24
TORSDOF 18
ENDMDL
MODEL 2
REMARK VINA RESULT:     -11.2      5.600      8.842
REMARK SMILES Cn1ccnc(N[C@H]2C=C[C@H](C(=O)NCCCCCCNC(=O)c3ccc(-c4c5nc(c(-c6cccc(S(=O)(=O)[O-])c6F)c6ccc([nH]6)c(-c6cccc(S(=O)(=O)[O-])c6F)c6nc(c(-c7cccc(S(=O)(=O)[O-])c7F)c7ccc4[nH]7)C=C6)C=C5)cc3)C2)c1=O
REMARK SMILES IDX 18 1 17 2 16 3 15 4 14 5 12 6 13 7 11 9 8 10 9 11 87 12
REMARK SMILES IDX 10 13 7 14 6 16 1 17 2 18 3 19 88 20 4 21 89 22 5 23 19 24
REMARK SMILES IDX 20 25 21 26 22 27 23 29 24 30 25 31 86 32 26 33 85 34 27 35
REMARK SMILES IDX 28 36 29 37 79 38 30 39 84 40 78 41 80 42 31 43 83 44 77 45
REMARK SMILES IDX 76 46 32 48 64 49 44 50 63 51 45 52 48 53 62 54 81 55 46 56
REMARK SMILES IDX 47 57 61 59 82 60 49 61 33 62 34 63 42 64 35 65 37 66 43 67
REMARK SMILES IDX 36 68 38 69 39 70 40 71 41 72 65 73 66 74 74 75 67 76 69 77
REMARK SMILES IDX 75 78 68 79 70 80 71 81 72 82 73 83 50 84 51 85 59 86 52 87
REMARK SMILES IDX 54 88 60 89 53 90 55 91 56 92 57 93 58 94
REMARK H PARENT 14 8 7 15 21 28 80 47 48 58
REMARK Flexibility Score: inf
ROOT
ATOM      1  C   UNL A   1      35.485  21.470  26.034  1.00  0.00     0.002 C 
ENDROOT
BRANCH   1   2
ATOM      2  C   UNL A   1      35.178  20.521  24.873  1.00  0.00     0.002 C 
BRANCH   2   3
ATOM      3  C   UNL A   1      33.812  19.834  24.940  1.00  0.00     0.021 C 
BRANCH   3   4
ATOM      4  C   UNL A   1      32.664  20.653  24.357  1.00  0.00     0.116 C 
BRANCH   4   5
ATOM      5  N   UNL A   1      31.728  21.087  25.381  1.00  0.00    -0.356 N 
ATOM      6  C   UNL A   1      31.256  22.349  25.618  1.00  0.00     0.227 C 
ATOM      7  O   UNL A   1      30.403  22.507  26.492  1.00  0.00    -0.274 OA
ATOM      8  H   UNL A   1      31.391  20.383  25.981  1.00  0.00     0.163 HD
BRANCH   6   9
ATOM      9  C   UNL A   1      31.822  23.488  24.779  1.00  0.00     0.103 C 
ATOM     10  C   UNL A   1      31.072  25.823  24.843  1.00  0.00     0.104 C 
ATOM     11  C   UNL A   1      30.482  25.102  23.689  1.00  0.00    -0.006 C 
ATOM     12  C   UNL A   1      31.983  24.815  25.544  1.00  0.00     0.046 C 
ATOM     13  C   UNL A   1      30.866  23.823  23.664  1.00  0.00    -0.016 C 
BRANCH  10  14
ATOM     14  N   UNL A   1      31.725  27.036  24.434  1.00  0.00    -0.359 N 
ATOM     15  H   UNL A   1      32.021  27.022  23.495  1.00  0.00     0.162 HD
BRANCH  14  16
ATOM     16  C   UNL A   1      32.021  28.216  25.083  1.00  0.00     0.193 A 
ATOM     17  C   UNL A   1      34.465  30.008  27.446  1.00  0.00     0.153 C 
ATOM     18  N   UNL A   1      33.342  29.718  26.576  1.00  0.00    -0.314 N 
ATOM     19  C   UNL A   1      32.382  30.660  26.313  1.00  0.00     0.109 A 
ATOM     20  C   UNL A   1      33.264  28.450  26.007  1.00  0.00     0.293 A 
ATOM     21  C   UNL A   1      31.357  30.378  25.503  1.00  0.00     0.131 A 
ATOM     22  O   UNL A   1      34.094  27.579  26.225  1.00  0.00    -0.265 OA
ATOM     23  N   UNL A   1      31.149  29.180  24.877  1.00  0.00    -0.233 NA
ENDBRANCH  14  16
ENDBRANCH  10  14
ENDBRANCH   6   9
ENDBRANCH   4   5
ENDBRANCH   3   4
ENDBRANCH   2   3
ENDBRANCH   1   2
BRANCH   1  24
ATOM     24  C   UNL A   1      35.600  22.947  25.652  1.00  0.00     0.021 C 
BRANCH  24  25
ATOM     25  C   UNL A   1      37.020  23.426  25.375  1.00  0.00     0.116 C 
BRANCH  25  26
ATOM     26  N   UNL A   1      38.022  22.491  25.863  1.00  0.00    -0.352 N 
ATOM     27  C   UNL A   1      39.206  22.747  26.508  1.00  0.00     0.251 C 
ATOM     28  H   UNL A   1      37.822  21.539  25.710  1.00  0.00     0.163 HD
ATOM     29  O   UNL A   1      40.016  21.843  26.689  1.00  0.00    -0.269 OA
BRANCH  27  30
ATOM     30  C   UNL A   1      39.509  24.121  26.962  1.00  0.00     0.039 A 
ATOM     31  C   UNL A   1      39.206  24.480  28.277  1.00  0.00     0.014 A 
ATOM     32  C   UNL A   1      40.096  25.049  26.096  1.00  0.00     0.014 A 
ATOM     33  C   UNL A   1      39.545  25.753  28.741  1.00  0.00     0.010 A 
ATOM     34  C   UNL A   1      40.505  26.287  26.583  1.00  0.00     0.010 A 
ATOM     35  C   UNL A   1      40.227  26.656  27.908  1.00  0.00    -0.014 A 
BRANCH  35  36
ATOM     36  C   UNL A   1      40.669  27.983  28.410  1.00  0.00     0.031 A 
ATOM     37  C   UNL A   1      42.133  28.276  28.600  1.00  0.00     0.074 A 
ATOM     38  C   UNL A   1      39.747  28.900  28.767  1.00  0.00     0.049 A 
ATOM     39  N   UNL A   1      42.703  29.354  29.070  1.00  0.00    -0.248 NA
ATOM     40  C   UNL A   1      43.081  27.208  28.237  1.00  0.00     0.031 C 
ATOM     41  C   UNL A   1      38.296  28.709  28.703  1.00  0.00     0.029 A 
ATOM     42  N   UNL A   1      39.892  30.164  29.282  1.00  0.00    -0.354 N 
ATOM     43  C   UNL A   1      44.066  29.086  29.094  1.00  0.00     0.074 A 
ATOM     44  C   UNL A   1      44.238  27.730  28.623  1.00  0.00     0.031 C 
ATOM     45  C   UNL A   1      37.686  29.817  29.153  1.00  0.00     0.029 A 
ATOM     46  C   UNL A   1      38.697  30.781  29.573  1.00  0.00     0.049 A 
ATOM     47  H   UNL A   1      40.768  30.589  29.428  1.00  0.00     0.167 HD
ATOM     48  C   UNL A   1      45.086  29.902  29.451  1.00  0.00     0.034 A 
ATOM     49  C   UNL A   1      38.443  31.981  30.131  1.00  0.00     0.034 A 
ATOM     50  C   UNL A   1      44.915  31.262  29.888  1.00  0.00     0.049 A 
ATOM     51  C   UNL A   1      39.597  32.878  30.495  1.00  0.00     0.074 A 
ATOM     52  C   UNL A   1      45.890  32.196  30.189  1.00  0.00     0.029 A 
ATOM     53  N   UNL A   1      43.692  31.878  30.100  1.00  0.00    -0.354 N 
ATOM     54  N   UNL A   1      40.882  32.662  30.363  1.00  0.00    -0.248 NA
ATOM     55  C   UNL A   1      39.264  34.197  31.052  1.00  0.00     0.031 C 
ATOM     56  C   UNL A   1      45.257  33.366  30.621  1.00  0.00     0.029 A 
ATOM     57  C   UNL A   1      43.886  33.175  30.545  1.00  0.00     0.049 A 
ATOM     58  H   UNL A   1      42.814  31.456  29.957  1.00  0.00     0.167 HD
ATOM     59  C   UNL A   1      41.510  33.829  30.783  1.00  0.00     0.074 A 
ATOM     60  C   UNL A   1      40.461  34.757  31.153  1.00  0.00     0.031 C 
ATOM     61  C   UNL A   1      42.835  34.106  30.863  1.00  0.00     0.034 A 
BRANCH  48  62
ATOM     62  C   UNL A   1      46.489  29.361  29.349  1.00  0.00     0.023 A 
ATOM     63  C   UNL A   1      47.073  28.713  30.457  1.00  0.00     0.012 A 
ATOM     64  C   UNL A   1      47.204  29.433  28.137  1.00  0.00     0.148 A 
ATOM     65  C   UNL A   1      48.357  28.176  30.372  1.00  0.00     0.002 A 
ATOM     66  C   UNL A   1      48.463  28.853  28.045  1.00  0.00     0.091 A 
ATOM     67  F   UNL A   1      46.641  30.069  27.100  1.00  0.00    -0.205 F 
ATOM     68  C   UNL A   1      49.046  28.236  29.164  1.00  0.00     0.022 A 
BRANCH  66  69
ATOM     69  S   UNL A   1      49.399  28.801  26.513  1.00  0.00     0.127 S 
ATOM     70  O   UNL A   1      49.824  30.194  26.380  1.00  0.00    -0.237 OA
ATOM     71  O   UNL A   1      50.473  27.864  26.842  1.00  0.00    -0.237 OA
ATOM     72  O   UNL A   1      48.474  28.334  25.490  1.00  0.00    -0.744 OA
ENDBRANCH  66  69
ENDBRANCH  48  62
BRANCH  49  73
ATOM     73  C   UNL A   1      37.036  32.428  30.337  1.00  0.00     0.023 A 
ATOM     74  C   UNL A   1      36.401  32.180  31.570  1.00  0.00     0.012 A 
ATOM     75  C   UNL A   1      36.329  33.103  29.324  1.00  0.00     0.148 A 
ATOM     76  C   UNL A   1      35.074  32.561  31.775  1.00  0.00     0.002 A 
ATOM     77  C   UNL A   1      35.028  33.532  29.555  1.00  0.00     0.091 A 
ATOM     78  F   UNL A   1      36.948  33.320  28.154  1.00  0.00    -0.205 F 
ATOM     79  C   UNL A   1      34.391  33.245  30.773  1.00  0.00     0.022 A 
BRANCH  77  80
ATOM     80  S   UNL A   1      34.118  34.531  28.371  1.00  0.00     0.127 S 
ATOM     81  O   UNL A   1      32.845  33.818  28.295  1.00  0.00    -0.237 OA
ATOM     82  O   UNL A   1      34.061  35.825  29.052  1.00  0.00    -0.237 OA
ATOM     83  O   UNL A   1      34.919  34.527  27.155  1.00  0.00    -0.744 OA
ENDBRANCH  77  80
ENDBRANCH  49  73
BRANCH  61  84
ATOM     84  C   UNL A   1      43.236  35.483  31.326  1.00  0.00     0.023 A 
ATOM     85  C   UNL A   1      43.439  35.739  32.696  1.00  0.00     0.012 A 
ATOM     86  C   UNL A   1      43.484  36.505  30.388  1.00  0.00     0.148 A 
ATOM     87  C   UNL A   1      43.843  37.001  33.129  1.00  0.00     0.002 A 
ATOM     88  C   UNL A   1      43.941  37.743  30.822  1.00  0.00     0.091 A 
ATOM     89  F   UNL A   1      43.271  36.247  29.089  1.00  0.00    -0.205 F 
ATOM     90  C   UNL A   1      44.105  37.998  32.193  1.00  0.00     0.022 A 
BRANCH  88  91
ATOM     91  S   UNL A   1      44.400  39.055  29.683  1.00  0.00     0.127 S 
ATOM     92  O   UNL A   1      45.367  38.377  28.822  1.00  0.00    -0.237 OA
ATOM     93  O   UNL A   1      43.122  39.366  29.041  1.00  0.00    -0.237 OA
ATOM     94  O   UNL A   1      44.943  40.129  30.504  1.00  0.00    -0.744 OA
ENDBRANCH  88  91
ENDBRANCH  61  84
ENDBRANCH  35  36
ENDBRANCH  27  30
ENDBRANCH  25  26
ENDBRANCH  24  25
ENDBRANCH   1  24
TORSDOF 18
ENDMDL
MODEL 3
REMARK VINA RESULT:     -11.1      6.362     11.780
REMARK SMILES Cn1ccnc(N[C@H]2C=C[C@H](C(=O)NCCCCCCNC(=O)c3ccc(-c4c5nc(c(-c6cccc(S(=O)(=O)[O-])c6F)c6ccc([nH]6)c(-c6cccc(S(=O)(=O)[O-])c6F)c6nc(c(-c7cccc(S(=O)(=O)[O-])c7F)c7ccc4[nH]7)C=C6)C=C5)cc3)C2)c1=O
REMARK SMILES IDX 18 1 17 2 16 3 15 4 14 5 12 6 13 7 11 9 8 10 9 11 87 12
REMARK SMILES IDX 10 13 7 14 6 16 1 17 2 18 3 19 88 20 4 21 89 22 5 23 19 24
REMARK SMILES IDX 20 25 21 26 22 27 23 29 24 30 25 31 86 32 26 33 85 34 27 35
REMARK SMILES IDX 28 36 29 37 79 38 30 39 84 40 78 41 80 42 31 43 83 44 77 45
REMARK SMILES IDX 76 46 32 48 64 49 44 50 63 51 45 52 48 53 62 54 81 55 46 56
REMARK SMILES IDX 47 57 61 59 82 60 49 61 33 62 34 63 42 64 35 65 37 66 43 67
REMARK SMILES IDX 36 68 38 69 39 70 40 71 41 72 65 73 66 74 74 75 67 76 69 77
REMARK SMILES IDX 75 78 68 79 70 80 71 81 72 82 73 83 50 84 51 85 59 86 52 87
REMARK SMILES IDX 54 88 60 89 53 90 55 91 56 92 57 93 58 94
REMARK H PARENT 14 8 7 15 21 28 80 47 48 58
REMARK Flexibility Score: inf
ROOT
ATOM      1  C   UNL A   1      37.006  20.614  24.774  1.00  0.00     0.002 C 
ENDROOT
BRANCH   1   2
ATOM      2  C   UNL A   1      37.396  22.078  24.559  1.00  0.00     0.002 C 
BRANCH   2   3
ATOM      3  C   UNL A   1      36.473  23.100  25.226  1.00  0.00     0.021 C 
BRANCH   3   4
ATOM      4  C   UNL A   1      34.985  22.845  25.008  1.00  0.00     0.116 C 
BRANCH   4   5
ATOM      5  N   UNL A   1      34.269  22.683  26.262  1.00  0.00    -0.356 N 
ATOM      6  C   UNL A   1      33.137  23.327  26.682  1.00  0.00     0.227 C 
ATOM      7  O   UNL A   1      32.632  22.998  27.756  1.00  0.00    -0.274 OA
ATOM      8  H   UNL A   1      34.646  22.026  26.891  1.00  0.00     0.163 HD
BRANCH   6   9
ATOM      9  C   UNL A   1      32.570  24.422  25.787  1.00  0.00     0.103 C 
ATOM     10  C   UNL A   1      32.847  26.836  26.125  1.00  0.00     0.104 C 
ATOM     11  C   UNL A   1      31.523  26.375  26.610  1.00  0.00    -0.006 C 
ATOM     12  C   UNL A   1      33.532  25.600  25.543  1.00  0.00     0.046 C 
ATOM     13  C   UNL A   1      31.377  25.057  26.453  1.00  0.00    -0.016 C 
BRANCH  10  14
ATOM     14  N   UNL A   1      32.724  27.938  25.211  1.00  0.00    -0.359 N 
ATOM     15  H   UNL A   1      33.513  28.528  25.203  1.00  0.00     0.162 HD
BRANCH  14  16
ATOM     16  C   UNL A   1      31.732  28.340  24.343  1.00  0.00     0.193 A 
ATOM     17  C   UNL A   1      29.118  31.042  23.547  1.00  0.00     0.153 C 
ATOM     18  N   UNL A   1      29.931  29.844  23.490  1.00  0.00    -0.314 N 
ATOM     19  C   UNL A   1      29.759  28.912  22.500  1.00  0.00     0.109 A 
ATOM     20  C   UNL A   1      30.900  29.661  24.472  1.00  0.00     0.293 A 
ATOM     21  C   UNL A   1      30.521  27.815  22.458  1.00  0.00     0.131 A 
ATOM     22  O   UNL A   1      31.077  30.462  25.379  1.00  0.00    -0.265 OA
ATOM     23  N   UNL A   1      31.507  27.502  23.354  1.00  0.00    -0.233 NA
ENDBRANCH  14  16
ENDBRANCH  10  14
ENDBRANCH   6   9
ENDBRANCH   4   5
ENDBRANCH   3   4
ENDBRANCH   2   3
ENDBRANCH   1   2
BRANCH   1  24
ATOM     24  C   UNL A   1      38.181  19.639  24.880  1.00  0.00     0.021 C 
BRANCH  24  25
ATOM     25  C   UNL A   1      39.031  19.799  26.134  1.00  0.00     0.116 C 
BRANCH  25  26
ATOM     26  N   UNL A   1      40.263  19.029  26.067  1.00  0.00    -0.352 N 
ATOM     27  C   UNL A   1      41.563  19.466  26.117  1.00  0.00     0.251 C 
ATOM     28  H   UNL A   1      40.149  18.055  25.974  1.00  0.00     0.163 HD
ATOM     29  O   UNL A   1      42.483  18.694  25.866  1.00  0.00    -0.269 OA
BRANCH  27  30
ATOM     30  C   UNL A   1      41.848  20.878  26.454  1.00  0.00     0.039 A 
ATOM     31  C   UNL A   1      42.272  21.192  27.746  1.00  0.00     0.014 A 
ATOM     32  C   UNL A   1      41.703  21.886  25.495  1.00  0.00     0.014 A 
ATOM     33  C   UNL A   1      42.607  22.510  28.062  1.00  0.00     0.010 A 
ATOM     34  C   UNL A   1      42.112  23.183  25.789  1.00  0.00     0.010 A 
ATOM     35  C   UNL A   1      42.562  23.512  27.077  1.00  0.00    -0.014 A 
BRANCH  35  36
ATOM     36  C   UNL A   1      42.993  24.902  27.373  1.00  0.00     0.031 A 
ATOM     37  C   UNL A   1      42.037  25.877  28.006  1.00  0.00     0.074 A 
ATOM     38  C   UNL A   1      44.224  25.311  27.003  1.00  0.00     0.049 A 
ATOM     39  N   UNL A   1      42.217  27.139  28.294  1.00  0.00    -0.248 NA
ATOM     40  C   UNL A   1      40.692  25.376  28.336  1.00  0.00     0.031 C 
ATOM     41  C   UNL A   1      45.217  24.484  26.313  1.00  0.00     0.029 A 
ATOM     42  N   UNL A   1      44.839  26.531  27.128  1.00  0.00    -0.354 N 
ATOM     43  C   UNL A   1      41.006  27.592  28.804  1.00  0.00     0.074 A 
ATOM     44  C   UNL A   1      40.086  26.478  28.756  1.00  0.00     0.031 C 
ATOM     45  C   UNL A   1      46.317  25.218  26.083  1.00  0.00     0.029 A 
ATOM     46  C   UNL A   1      46.097  26.574  26.573  1.00  0.00     0.049 A 
ATOM     47  H   UNL A   1      44.420  27.302  27.575  1.00  0.00     0.167 HD
ATOM     48  C   UNL A   1      40.695  28.815  29.293  1.00  0.00     0.034 A 
ATOM     49  C   UNL A   1      46.970  27.594  26.456  1.00  0.00     0.034 A 
ATOM     50  C   UNL A   1      41.623  29.912  29.372  1.00  0.00     0.049 A 
ATOM     51  C   UNL A   1      46.606  28.938  27.031  1.00  0.00     0.074 A 
ATOM     52  C   UNL A   1      41.428  31.163  29.929  1.00  0.00     0.029 A 
ATOM     53  N   UNL A   1      42.913  29.895  28.866  1.00  0.00    -0.354 N 
ATOM     54  N   UNL A   1      45.510  29.300  27.650  1.00  0.00    -0.248 NA
ATOM     55  C   UNL A   1      47.614  30.002  26.922  1.00  0.00     0.031 C 
ATOM     56  C   UNL A   1      42.589  31.917  29.727  1.00  0.00     0.029 A 
ATOM     57  C   UNL A   1      43.522  31.120  29.083  1.00  0.00     0.049 A 
ATOM     58  H   UNL A   1      43.335  29.127  28.418  1.00  0.00     0.167 HD
ATOM     59  C   UNL A   1      45.711  30.620  28.039  1.00  0.00     0.074 A 
ATOM     60  C   UNL A   1      47.043  30.985  27.604  1.00  0.00     0.031 C 
ATOM     61  C   UNL A   1      44.866  31.457  28.690  1.00  0.00     0.034 A 
BRANCH  48  62
ATOM     62  C   UNL A   1      39.300  29.028  29.822  1.00  0.00     0.023 A 
ATOM     63  C   UNL A   1      38.980  28.631  31.136  1.00  0.00     0.012 A 
ATOM     64  C   UNL A   1      38.325  29.684  29.043  1.00  0.00     0.148 A 
ATOM     65  C   UNL A   1      37.705  28.850  31.656  1.00  0.00     0.002 A 
ATOM     66  C   UNL A   1      37.072  29.943  29.585  1.00  0.00     0.091 A 
ATOM     67  F   UNL A   1      38.641  30.038  27.789  1.00  0.00    -0.205 F 
ATOM     68  C   UNL A   1      36.756  29.516  30.885  1.00  0.00     0.022 A 
BRANCH  66  69
ATOM     69  S   UNL A   1      35.807  30.867  28.706  1.00  0.00     0.127 S 
ATOM     70  O   UNL A   1      36.613  31.829  27.956  1.00  0.00    -0.237 OA
ATOM     71  O   UNL A   1      35.179  29.828  27.890  1.00  0.00    -0.237 OA
ATOM     72  O   UNL A   1      34.945  31.444  29.728  1.00  0.00    -0.744 OA
ENDBRANCH  66  69
ENDBRANCH  48  62
BRANCH  49  73
ATOM     73  C   UNL A   1      48.294  27.376  25.807  1.00  0.00     0.023 A 
ATOM     74  C   UNL A   1      49.400  26.992  26.592  1.00  0.00     0.012 A 
ATOM     75  C   UNL A   1      48.461  27.537  24.418  1.00  0.00     0.148 A 
ATOM     76  C   UNL A   1      50.656  26.813  26.011  1.00  0.00     0.002 A 
ATOM     77  C   UNL A   1      49.701  27.299  23.837  1.00  0.00     0.091 A 
ATOM     78  F   UNL A   1      47.399  27.912  23.690  1.00  0.00    -0.205 F 
ATOM     79  C   UNL A   1      50.804  26.956  24.634  1.00  0.00     0.022 A 
BRANCH  77  80
ATOM     80  S   UNL A   1      49.954  27.334  22.059  1.00  0.00     0.127 S 
ATOM     81  O   UNL A   1      48.915  26.419  21.592  1.00  0.00    -0.237 OA
ATOM     82  O   UNL A   1      49.718  28.744  21.750  1.00  0.00    -0.237 OA
ATOM     83  O   UNL A   1      51.326  26.894  21.848  1.00  0.00    -0.744 OA
ENDBRANCH  77  80
ENDBRANCH  49  73
BRANCH  61  84
ATOM     84  C   UNL A   1      45.364  32.841  29.018  1.00  0.00     0.023 A 
ATOM     85  C   UNL A   1      46.123  33.063  30.184  1.00  0.00     0.012 A 
ATOM     86  C   UNL A   1      45.140  33.908  28.125  1.00  0.00     0.148 A 
ATOM     87  C   UNL A   1      46.616  34.333  30.477  1.00  0.00     0.002 A 
ATOM     88  C   UNL A   1      45.681  35.158  28.395  1.00  0.00     0.091 A 
ATOM     89  F   UNL A   1      44.402  33.681  27.028  1.00  0.00    -0.205 F 
ATOM     90  C   UNL A   1      46.406  35.377  29.578  1.00  0.00     0.022 A 
BRANCH  88  91
ATOM     91  S   UNL A   1      45.549  36.535  27.249  1.00  0.00     0.127 S 
ATOM     92  O   UNL A   1      46.319  37.571  27.937  1.00  0.00    -0.237 OA
ATOM     93  O   UNL A   1      46.186  35.997  26.047  1.00  0.00    -0.237 OA
ATOM     94  O   UNL A   1      44.125  36.808  27.109  1.00  0.00    -0.744 OA
ENDBRANCH  88  91
ENDBRANCH  61  84
ENDBRANCH  35  36
ENDBRANCH  27  30
ENDBRANCH  25  26
ENDBRANCH  24  25
ENDBRANCH   1  24
TORSDOF 18
ENDMDL
