MODEL 1
REMARK VINA RESULT:     -12.2      0.000      0.000
REMARK SMILES Cc1noc(C)c1CCC(=O)N1CCC2(CC1)NC(=O)C[C@@H]2C(=O)NCCCCCCNC(=O)c1ccc(-c2c3nc(c(-c4cccc(S(=O)(=O)[O-])c4F)c4ccc([nH]4)c(-c4cccc(S(=O)(=O)[O-])c4F)c4nc(c(-c5cccc(S(=O)(=O)[O-])c5F)c5ccc2[nH]5)C=C4)C=C3)cc1
REMARK SMILES IDX 28 1 27 2 26 3 25 4 23 5 24 6 22 8 10 9 11 10 12 11 13 12
REMARK SMILES IDX 17 13 14 14 16 15 15 16 18 17 19 18 21 20 20 21 9 22 8 23
REMARK SMILES IDX 7 24 1 25 2 26 3 27 4 28 5 29 6 30 29 31 30 32 31 33 32 34
REMARK SMILES IDX 33 35 34 37 35 38 36 39 97 40 37 41 96 42 38 43 39 44 40 45
REMARK SMILES IDX 90 46 41 47 95 48 89 49 91 50 42 51 94 52 88 53 87 54 43 56
REMARK SMILES IDX 75 57 55 58 74 59 56 60 59 61 73 62 92 63 57 64 58 65 72 67
REMARK SMILES IDX 93 68 60 69 44 70 45 71 53 72 46 73 48 74 54 75 47 76 49 77
REMARK SMILES IDX 50 78 51 79 52 80 76 81 77 82 85 83 78 84 80 85 86 86 79 87
REMARK SMILES IDX 81 88 82 89 83 90 84 91 61 92 62 93 70 94 63 95 65 96 71 97
REMARK SMILES IDX 64 98 66 99 67 100 68 101 69 102
REMARK H PARENT 25 7 18 19 32 36 91 55 59 66
REMARK Flexibility Score: inf
ROOT
ATOM      1  C   UNL A   1      34.074  30.536  27.391  1.00  0.00     0.002 C 
ENDROOT
BRANCH   1   2
ATOM      2  C   UNL A   1      34.718  29.149  27.346  1.00  0.00     0.021 C 
BRANCH   2   3
ATOM      3  C   UNL A   1      33.803  28.066  26.815  1.00  0.00     0.116 C 
BRANCH   3   4
ATOM      4  N   UNL A   1      33.966  27.652  25.447  1.00  0.00    -0.356 N 
ATOM      5  C   UNL A   1      33.133  28.144  24.483  1.00  0.00     0.226 C 
ATOM      6  O   UNL A   1      33.664  28.901  23.657  1.00  0.00    -0.275 OA
ATOM      7  H   UNL A   1      34.676  27.014  25.206  1.00  0.00     0.163 HD
BRANCH   5   8
ATOM      8  C   UNL A   1      31.710  27.622  24.188  1.00  0.00     0.113 C 
ATOM      9  C   UNL A   1      33.038  22.988  23.192  1.00  0.00     0.222 C 
ATOM     10  O   UNL A   1      34.263  23.101  23.092  1.00  0.00    -0.275 OA
ATOM     11  N   UNL A   1      32.177  24.064  22.904  1.00  0.00    -0.343 N 
ATOM     12  C   UNL A   1      32.819  25.157  22.230  1.00  0.00     0.122 C 
ATOM     13  C   UNL A   1      31.118  24.414  23.833  1.00  0.00     0.122 C 
ATOM     14  C   UNL A   1      31.896  26.301  21.820  1.00  0.00     0.051 C 
ATOM     15  C   UNL A   1      30.256  25.613  23.472  1.00  0.00     0.051 C 
ATOM     16  C   UNL A   1      31.069  26.843  22.984  1.00  0.00     0.055 C 
ATOM     17  N   UNL A   1      30.084  27.778  22.461  1.00  0.00    -0.350 N 
ATOM     18  C   UNL A   1      29.806  28.837  23.278  1.00  0.00     0.221 C 
ATOM     19  H   UNL A   1      29.650  27.658  21.585  1.00  0.00     0.164 HD
ATOM     20  C   UNL A   1      30.828  28.887  24.363  1.00  0.00     0.116 C 
ATOM     21  O   UNL A   1      28.879  29.610  23.128  1.00  0.00    -0.275 OA
BRANCH   9  22
ATOM     22  C   UNL A   1      32.419  21.670  23.603  1.00  0.00     0.105 C 
BRANCH  22  23
ATOM     23  C   UNL A   1      32.933  21.120  24.932  1.00  0.00     0.051 C 
BRANCH  23  24
ATOM     24  C   UNL A   1      33.922  20.005  24.812  1.00  0.00     0.018 A 
ATOM     25  C   UNL A   1      32.423  18.017  23.973  1.00  0.00     0.071 C 
ATOM     26  C   UNL A   1      33.687  18.653  24.422  1.00  0.00     0.084 A 
ATOM     27  N   UNL A   1      34.827  17.953  24.373  1.00  0.00    -0.085 NA
ATOM     28  O   UNL A   1      35.829  18.837  24.712  1.00  0.00    -0.361 OA
ATOM     29  C   UNL A   1      35.295  20.063  24.958  1.00  0.00     0.137 A 
ATOM     30  C   UNL A   1      36.267  21.150  25.198  1.00  0.00     0.091 C 
ENDBRANCH  23  24
ENDBRANCH  22  23
ENDBRANCH   9  22
ENDBRANCH   5   8
ENDBRANCH   3   4
ENDBRANCH   2   3
ENDBRANCH   1   2
BRANCH   1  31
ATOM     31  C   UNL A   1      32.570  30.652  27.090  1.00  0.00     0.002 C 
BRANCH  31  32
ATOM     32  C   UNL A   1      31.926  32.039  27.148  1.00  0.00     0.021 C 
BRANCH  32  33
ATOM     33  C   UNL A   1      32.856  33.233  26.951  1.00  0.00     0.116 C 
BRANCH  33  34
ATOM     34  N   UNL A   1      32.569  34.333  27.860  1.00  0.00    -0.352 N 
ATOM     35  C   UNL A   1      33.154  34.688  29.048  1.00  0.00     0.251 C 
ATOM     36  H   UNL A   1      31.831  34.919  27.574  1.00  0.00     0.163 HD
ATOM     37  O   UNL A   1      32.662  35.593  29.718  1.00  0.00    -0.269 OA
BRANCH  35  38
ATOM     38  C   UNL A   1      34.353  33.979  29.539  1.00  0.00     0.039 A 
ATOM     39  C   UNL A   1      35.613  34.445  29.148  1.00  0.00     0.014 A 
ATOM     40  C   UNL A   1      34.246  32.857  30.364  1.00  0.00     0.014 A 
ATOM     41  C   UNL A   1      36.765  33.834  29.645  1.00  0.00     0.010 A 
ATOM     42  C   UNL A   1      35.395  32.287  30.907  1.00  0.00     0.010 A 
ATOM     43  C   UNL A   1      36.664  32.776  30.562  1.00  0.00    -0.014 A 
BRANCH  43  44
ATOM     44  C   UNL A   1      37.868  32.197  31.212  1.00  0.00     0.031 A 
ATOM     45  C   UNL A   1      38.594  31.043  30.581  1.00  0.00     0.074 A 
ATOM     46  C   UNL A   1      38.233  32.642  32.431  1.00  0.00     0.049 A 
ATOM     47  N   UNL A   1      39.589  30.339  31.053  1.00  0.00    -0.248 NA
ATOM     48  C   UNL A   1      38.124  30.605  29.256  1.00  0.00     0.031 C 
ATOM     49  C   UNL A   1      37.562  33.711  33.175  1.00  0.00     0.029 A 
ATOM     50  N   UNL A   1      39.230  32.225  33.278  1.00  0.00    -0.354 N 
ATOM     51  C   UNL A   1      39.840  29.353  30.106  1.00  0.00     0.074 A 
ATOM     52  C   UNL A   1      38.879  29.536  29.041  1.00  0.00     0.031 C 
ATOM     53  C   UNL A   1      38.157  33.855  34.370  1.00  0.00     0.029 A 
ATOM     54  C   UNL A   1      39.222  32.867  34.495  1.00  0.00     0.049 A 
ATOM     55  H   UNL A   1      39.888  31.532  33.037  1.00  0.00     0.167 HD
ATOM     56  C   UNL A   1      40.798  28.395  30.116  1.00  0.00     0.034 A 
ATOM     57  C   UNL A   1      39.970  32.667  35.598  1.00  0.00     0.034 A 
ATOM     58  C   UNL A   1      41.773  28.241  31.162  1.00  0.00     0.049 A 
ATOM     59  C   UNL A   1      41.040  31.609  35.573  1.00  0.00     0.074 A 
ATOM     60  C   UNL A   1      42.844  27.367  31.216  1.00  0.00     0.029 A 
ATOM     61  N   UNL A   1      41.788  28.965  32.344  1.00  0.00    -0.354 N 
ATOM     62  N   UNL A   1      41.371  30.795  34.599  1.00  0.00    -0.248 NA
ATOM     63  C   UNL A   1      41.859  31.459  36.783  1.00  0.00     0.031 C 
ATOM     64  C   UNL A   1      43.486  27.539  32.446  1.00  0.00     0.029 A 
ATOM     65  C   UNL A   1      42.835  28.542  33.145  1.00  0.00     0.049 A 
ATOM     66  H   UNL A   1      41.149  29.676  32.579  1.00  0.00     0.167 HD
ATOM     67  C   UNL A   1      42.451  30.056  35.069  1.00  0.00     0.074 A 
ATOM     68  C   UNL A   1      42.735  30.537  36.405  1.00  0.00     0.031 C 
ATOM     69  C   UNL A   1      43.133  29.058  34.456  1.00  0.00     0.034 A 
BRANCH  56  70
ATOM     70  C   UNL A   1      40.867  27.459  28.937  1.00  0.00     0.023 A 
ATOM     71  C   UNL A   1      39.943  26.398  28.834  1.00  0.00     0.012 A 
ATOM     72  C   UNL A   1      41.798  27.667  27.900  1.00  0.00     0.148 A 
ATOM     73  C   UNL A   1      39.966  25.541  27.735  1.00  0.00     0.002 A 
ATOM     74  C   UNL A   1      41.785  26.835  26.787  1.00  0.00     0.091 A 
ATOM     75  F   UNL A   1      42.680  28.668  28.025  1.00  0.00    -0.205 F 
ATOM     76  C   UNL A   1      40.879  25.765  26.709  1.00  0.00     0.022 A 
BRANCH  74  77
ATOM     77  S   UNL A   1      42.867  27.087  25.376  1.00  0.00     0.127 S 
ATOM     78  O   UNL A   1      44.168  27.239  26.026  1.00  0.00    -0.237 OA
ATOM     79  O   UNL A   1      42.699  25.837  24.633  1.00  0.00    -0.237 OA
ATOM     80  O   UNL A   1      42.369  28.273  24.692  1.00  0.00    -0.744 OA
ENDBRANCH  74  77
ENDBRANCH  56  70
BRANCH  57  81
ATOM     81  C   UNL A   1      39.756  33.515  36.804  1.00  0.00     0.023 A 
ATOM     82  C   UNL A   1      38.730  33.184  37.711  1.00  0.00     0.012 A 
ATOM     83  C   UNL A   1      40.581  34.625  37.078  1.00  0.00     0.148 A 
ATOM     84  C   UNL A   1      38.510  33.958  38.850  1.00  0.00     0.002 A 
ATOM     85  C   UNL A   1      40.393  35.359  38.244  1.00  0.00     0.091 A 
ATOM     86  F   UNL A   1      41.545  34.933  36.198  1.00  0.00    -0.205 F 
ATOM     87  C   UNL A   1      39.348  35.037  39.122  1.00  0.00     0.022 A 
BRANCH  85  88
ATOM     88  S   UNL A   1      41.503  36.685  38.738  1.00  0.00     0.127 S 
ATOM     89  O   UNL A   1      40.564  37.732  39.131  1.00  0.00    -0.237 OA
ATOM     90  O   UNL A   1      42.238  36.070  39.844  1.00  0.00    -0.237 OA
ATOM     91  O   UNL A   1      42.322  36.978  37.568  1.00  0.00    -0.744 OA
ENDBRANCH  85  88
ENDBRANCH  57  81
BRANCH  69  92
ATOM     92  C   UNL A   1      44.272  28.422  35.211  1.00  0.00     0.023 A 
ATOM     93  C   UNL A   1      45.592  28.849  34.971  1.00  0.00     0.012 A 
ATOM     94  C   UNL A   1      44.024  27.470  36.219  1.00  0.00     0.148 A 
ATOM     95  C   UNL A   1      46.653  28.320  35.705  1.00  0.00     0.002 A 
ATOM     96  C   UNL A   1      45.081  26.984  36.981  1.00  0.00     0.091 A 
ATOM     97  F   UNL A   1      42.762  27.066  36.421  1.00  0.00    -0.205 F 
ATOM     98  C   UNL A   1      46.396  27.399  36.718  1.00  0.00     0.022 A 
BRANCH  96  99
ATOM     99  S   UNL A   1      44.840  25.868  38.367  1.00  0.00     0.127 S 
ATOM    100  O   UNL A   1      44.264  24.696  37.710  1.00  0.00    -0.237 OA
ATOM    101  O   UNL A   1      46.207  25.683  38.856  1.00  0.00    -0.237 OA
ATOM    102  O   UNL A   1      43.953  26.558  39.294  1.00  0.00    -0.744 OA
ENDBRANCH  96  99
ENDBRANCH  69  92
ENDBRANCH  43  44
ENDBRANCH  35  38
ENDBRANCH  33  34
ENDBRANCH  32  33
ENDBRANCH  31  32
ENDBRANCH   1  31
TORSDOF 19
ENDMDL
MODEL 2
REMARK VINA RESULT:     -12.1      6.028     10.415
REMARK SMILES Cc1noc(C)c1CCC(=O)N1CCC2(CC1)NC(=O)C[C@@H]2C(=O)NCCCCCCNC(=O)c1ccc(-c2c3nc(c(-c4cccc(S(=O)(=O)[O-])c4F)c4ccc([nH]4)c(-c4cccc(S(=O)(=O)[O-])c4F)c4nc(c(-c5cccc(S(=O)(=O)[O-])c5F)c5ccc2[nH]5)C=C4)C=C3)cc1
REMARK SMILES IDX 28 1 27 2 26 3 25 4 23 5 24 6 22 8 10 9 11 10 12 11 13 12
REMARK SMILES IDX 17 13 14 14 16 15 15 16 18 17 19 18 21 20 20 21 9 22 8 23
REMARK SMILES IDX 7 24 1 25 2 26 3 27 4 28 5 29 6 30 29 31 30 32 31 33 32 34
REMARK SMILES IDX 33 35 34 37 35 38 36 39 97 40 37 41 96 42 38 43 39 44 40 45
REMARK SMILES IDX 90 46 41 47 95 48 89 49 91 50 42 51 94 52 88 53 87 54 43 56
REMARK SMILES IDX 75 57 55 58 74 59 56 60 59 61 73 62 92 63 57 64 58 65 72 67
REMARK SMILES IDX 93 68 60 69 44 70 45 71 53 72 46 73 48 74 54 75 47 76 49 77
REMARK SMILES IDX 50 78 51 79 52 80 76 81 77 82 85 83 78 84 80 85 86 86 79 87
REMARK SMILES IDX 81 88 82 89 83 90 84 91 61 92 62 93 70 94 63 95 65 96 71 97
REMARK SMILES IDX 64 98 66 99 67 100 68 101 69 102
REMARK H PARENT 25 7 18 19 32 36 91 55 59 66
REMARK Flexibility Score: inf
ROOT
ATOM      1  C   UNL A   1      36.509  23.380  24.498  1.00  0.00     0.002 C 
ENDROOT
BRANCH   1   2
ATOM      2  C   UNL A   1      35.041  23.782  24.345  1.00  0.00     0.021 C 
BRANCH   2   3
ATOM      3  C   UNL A   1      34.768  24.658  23.141  1.00  0.00     0.116 C 
BRANCH   3   4
ATOM      4  N   UNL A   1      33.686  25.603  23.222  1.00  0.00    -0.356 N 
ATOM      5  C   UNL A   1      33.537  26.374  24.339  1.00  0.00     0.226 C 
ATOM      6  O   UNL A   1      33.748  27.586  24.182  1.00  0.00    -0.275 OA
ATOM      7  H   UNL A   1      33.053  25.693  22.473  1.00  0.00     0.163 HD
BRANCH   5   8
ATOM      8  C   UNL A   1      32.872  25.912  25.654  1.00  0.00     0.113 C 
ATOM      9  C   UNL A   1      32.340  21.195  24.356  1.00  0.00     0.222 C 
ATOM     10  O   UNL A   1      32.576  21.246  23.146  1.00  0.00    -0.275 OA
ATOM     11  N   UNL A   1      31.814  22.302  25.048  1.00  0.00    -0.343 N 
ATOM     12  C   UNL A   1      31.325  23.344  24.189  1.00  0.00     0.122 C 
ATOM     13  C   UNL A   1      32.414  22.728  26.298  1.00  0.00     0.122 C 
ATOM     14  C   UNL A   1      30.663  24.519  24.903  1.00  0.00     0.051 C 
ATOM     15  C   UNL A   1      31.815  23.956  26.966  1.00  0.00     0.051 C 
ATOM     16  C   UNL A   1      31.550  25.132  25.985  1.00  0.00     0.055 C 
ATOM     17  N   UNL A   1      30.766  26.098  26.740  1.00  0.00    -0.350 N 
ATOM     18  C   UNL A   1      31.462  27.191  27.172  1.00  0.00     0.221 C 
ATOM     19  H   UNL A   1      29.807  25.974  26.926  1.00  0.00     0.164 HD
ATOM     20  C   UNL A   1      32.783  27.223  26.482  1.00  0.00     0.116 C 
ATOM     21  O   UNL A   1      31.054  28.003  27.981  1.00  0.00    -0.275 OA
BRANCH   9  22
ATOM     22  C   UNL A   1      32.585  19.919  25.134  1.00  0.00     0.105 C 
BRANCH  22  23
ATOM     23  C   UNL A   1      33.964  19.303  24.912  1.00  0.00     0.051 C 
BRANCH  23  24
ATOM     24  C   UNL A   1      33.953  17.919  24.346  1.00  0.00     0.018 A 
ATOM     25  C   UNL A   1      32.388  18.184  22.252  1.00  0.00     0.071 C 
ATOM     26  C   UNL A   1      33.244  17.436  23.206  1.00  0.00     0.084 A 
ATOM     27  N   UNL A   1      33.525  16.149  22.966  1.00  0.00    -0.085 NA
ATOM     28  O   UNL A   1      34.435  15.773  23.930  1.00  0.00    -0.361 OA
ATOM     29  C   UNL A   1      34.704  16.829  24.743  1.00  0.00     0.137 A 
ATOM     30  C   UNL A   1      35.772  16.614  25.742  1.00  0.00     0.091 C 
ENDBRANCH  23  24
ENDBRANCH  22  23
ENDBRANCH   9  22
ENDBRANCH   5   8
ENDBRANCH   3   4
ENDBRANCH   2   3
ENDBRANCH   1   2
BRANCH   1  31
ATOM     31  C   UNL A   1      37.011  22.143  23.733  1.00  0.00     0.002 C 
BRANCH  31  32
ATOM     32  C   UNL A   1      37.305  20.871  24.531  1.00  0.00     0.021 C 
BRANCH  32  33
ATOM     33  C   UNL A   1      38.246  21.014  25.723  1.00  0.00     0.116 C 
BRANCH  33  34
ATOM     34  N   UNL A   1      39.239  19.952  25.796  1.00  0.00    -0.352 N 
ATOM     35  C   UNL A   1      40.580  19.998  26.075  1.00  0.00     0.251 C 
ATOM     36  H   UNL A   1      38.888  19.050  25.612  1.00  0.00     0.163 HD
ATOM     37  O   UNL A   1      41.258  18.981  25.956  1.00  0.00    -0.269 OA
BRANCH  35  38
ATOM     38  C   UNL A   1      41.220  21.263  26.493  1.00  0.00     0.039 A 
ATOM     39  C   UNL A   1      41.838  22.054  25.519  1.00  0.00     0.014 A 
ATOM     40  C   UNL A   1      41.227  21.663  27.831  1.00  0.00     0.014 A 
ATOM     41  C   UNL A   1      42.397  23.282  25.875  1.00  0.00     0.010 A 
ATOM     42  C   UNL A   1      41.731  22.916  28.174  1.00  0.00     0.010 A 
ATOM     43  C   UNL A   1      42.310  23.742  27.198  1.00  0.00    -0.014 A 
BRANCH  43  44
ATOM     44  C   UNL A   1      42.772  25.102  27.577  1.00  0.00     0.031 A 
ATOM     45  C   UNL A   1      41.818  26.087  28.191  1.00  0.00     0.074 A 
ATOM     46  C   UNL A   1      44.025  25.482  27.258  1.00  0.00     0.049 A 
ATOM     47  N   UNL A   1      42.009  27.347  28.482  1.00  0.00    -0.248 NA
ATOM     48  C   UNL A   1      40.462  25.600  28.494  1.00  0.00     0.031 C 
ATOM     49  C   UNL A   1      45.022  24.635  26.597  1.00  0.00     0.029 A 
ATOM     50  N   UNL A   1      44.664  26.689  27.407  1.00  0.00    -0.354 N 
ATOM     51  C   UNL A   1      40.793  27.814  28.965  1.00  0.00     0.074 A 
ATOM     52  C   UNL A   1      39.862  26.708  28.908  1.00  0.00     0.031 C 
ATOM     53  C   UNL A   1      46.137  25.352  26.386  1.00  0.00     0.029 A 
ATOM     54  C   UNL A   1      45.926  26.715  26.859  1.00  0.00     0.049 A 
ATOM     55  H   UNL A   1      44.258  27.461  27.864  1.00  0.00     0.167 HD
ATOM     56  C   UNL A   1      40.486  29.048  29.432  1.00  0.00     0.034 A 
ATOM     57  C   UNL A   1      46.804  27.728  26.726  1.00  0.00     0.034 A 
ATOM     58  C   UNL A   1      41.425  30.134  29.518  1.00  0.00     0.049 A 
ATOM     59  C   UNL A   1      46.444  29.083  27.272  1.00  0.00     0.074 A 
ATOM     60  C   UNL A   1      41.238  31.390  30.068  1.00  0.00     0.029 A 
ATOM     61  N   UNL A   1      42.722  30.100  29.029  1.00  0.00    -0.354 N 
ATOM     62  N   UNL A   1      45.344  29.462  27.877  1.00  0.00    -0.248 NA
ATOM     63  C   UNL A   1      47.453  30.144  27.144  1.00  0.00     0.031 C 
ATOM     64  C   UNL A   1      42.411  32.127  29.880  1.00  0.00     0.029 A 
ATOM     65  C   UNL A   1      43.340  31.321  29.242  1.00  0.00     0.049 A 
ATOM     66  H   UNL A   1      43.142  29.323  28.596  1.00  0.00     0.167 HD
ATOM     67  C   UNL A   1      45.538  30.794  28.225  1.00  0.00     0.074 A 
ATOM     68  C   UNL A   1      46.871  31.149  27.785  1.00  0.00     0.031 C 
ATOM     69  C   UNL A   1      44.683  31.649  28.837  1.00  0.00     0.034 A 
BRANCH  56  70
ATOM     70  C   UNL A   1      39.082  29.284  29.926  1.00  0.00     0.023 A 
ATOM     71  C   UNL A   1      38.721  28.874  31.226  1.00  0.00     0.012 A 
ATOM     72  C   UNL A   1      38.141  29.970  29.133  1.00  0.00     0.148 A 
ATOM     73  C   UNL A   1      37.439  29.113  31.717  1.00  0.00     0.002 A 
ATOM     74  C   UNL A   1      36.878  30.243  29.645  1.00  0.00     0.091 A 
ATOM     75  F   UNL A   1      38.495  30.335  27.893  1.00  0.00    -0.205 F 
ATOM     76  C   UNL A   1      36.522  29.805  30.931  1.00  0.00     0.022 A 
BRANCH  74  77
ATOM     77  S   UNL A   1      35.652  31.197  28.744  1.00  0.00     0.127 S 
ATOM     78  O   UNL A   1      34.964  30.151  27.988  1.00  0.00    -0.237 OA
ATOM     79  O   UNL A   1      34.863  31.784  29.827  1.00  0.00    -0.237 OA
ATOM     80  O   UNL A   1      36.397  32.158  27.943  1.00  0.00    -0.744 OA
ENDBRANCH  74  77
ENDBRANCH  56  70
BRANCH  57  81
ATOM     81  C   UNL A   1      48.126  27.485  26.081  1.00  0.00     0.023 A 
ATOM     82  C   UNL A   1      49.223  27.099  26.875  1.00  0.00     0.012 A 
ATOM     83  C   UNL A   1      48.295  27.600  24.686  1.00  0.00     0.148 A 
ATOM     84  C   UNL A   1      50.470  26.861  26.297  1.00  0.00     0.002 A 
ATOM     85  C   UNL A   1      49.525  27.307  24.110  1.00  0.00     0.091 A 
ATOM     86  F   UNL A   1      47.242  27.980  23.947  1.00  0.00    -0.205 F 
ATOM     87  C   UNL A   1      50.619  26.954  24.916  1.00  0.00     0.022 A 
BRANCH  85  88
ATOM     88  S   UNL A   1      49.774  27.276  22.329  1.00  0.00     0.127 S 
ATOM     89  O   UNL A   1      49.502  28.663  21.963  1.00  0.00    -0.237 OA
ATOM     90  O   UNL A   1      51.177  26.875  22.225  1.00  0.00    -0.237 OA
ATOM     91  O   UNL A   1      48.832  26.291  21.811  1.00  0.00    -0.744 OA
ENDBRANCH  85  88
ENDBRANCH  57  81
BRANCH  69  92
ATOM     92  C   UNL A   1      45.161  33.056  29.090  1.00  0.00     0.023 A 
ATOM     93  C   UNL A   1      45.811  33.364  30.301  1.00  0.00     0.012 A 
ATOM     94  C   UNL A   1      45.046  34.045  28.094  1.00  0.00     0.148 A 
ATOM     95  C   UNL A   1      46.319  34.643  30.527  1.00  0.00     0.002 A 
ATOM     96  C   UNL A   1      45.599  35.303  28.306  1.00  0.00     0.091 A 
ATOM     97  F   UNL A   1      44.410  33.734  26.955  1.00  0.00    -0.205 F 
ATOM     98  C   UNL A   1      46.225  35.606  29.526  1.00  0.00     0.022 A 
BRANCH  96  99
ATOM     99  S   UNL A   1      45.611  36.579  27.042  1.00  0.00     0.127 S 
ATOM    100  O   UNL A   1      44.183  36.811  26.840  1.00  0.00    -0.237 OA
ATOM    101  O   UNL A   1      46.318  37.670  27.714  1.00  0.00    -0.237 OA
ATOM    102  O   UNL A   1      46.316  36.012  25.901  1.00  0.00    -0.744 OA
ENDBRANCH  96  99
ENDBRANCH  69  92
ENDBRANCH  43  44
ENDBRANCH  35  38
ENDBRANCH  33  34
ENDBRANCH  32  33
ENDBRANCH  31  32
ENDBRANCH   1  31
TORSDOF 19
ENDMDL
MODEL 3
REMARK VINA RESULT:     -12.0      5.421     11.211
REMARK SMILES Cc1noc(C)c1CCC(=O)N1CCC2(CC1)NC(=O)C[C@@H]2C(=O)NCCCCCCNC(=O)c1ccc(-c2c3nc(c(-c4cccc(S(=O)(=O)[O-])c4F)c4ccc([nH]4)c(-c4cccc(S(=O)(=O)[O-])c4F)c4nc(c(-c5cccc(S(=O)(=O)[O-])c5F)c5ccc2[nH]5)C=C4)C=C3)cc1
REMARK SMILES IDX 28 1 27 2 26 3 25 4 23 5 24 6 22 8 10 9 11 10 12 11 13 12
REMARK SMILES IDX 17 13 14 14 16 15 15 16 18 17 19 18 21 20 20 21 9 22 8 23
REMARK SMILES IDX 7 24 1 25 2 26 3 27 4 28 5 29 6 30 29 31 30 32 31 33 32 34
REMARK SMILES IDX 33 35 34 37 35 38 36 39 97 40 37 41 96 42 38 43 39 44 40 45
REMARK SMILES IDX 90 46 41 47 95 48 89 49 91 50 42 51 94 52 88 53 87 54 43 56
REMARK SMILES IDX 75 57 55 58 74 59 56 60 59 61 73 62 92 63 57 64 58 65 72 67
REMARK SMILES IDX 93 68 60 69 44 70 45 71 53 72 46 73 48 74 54 75 47 76 49 77
REMARK SMILES IDX 50 78 51 79 52 80 76 81 77 82 85 83 78 84 80 85 86 86 79 87
REMARK SMILES IDX 81 88 82 89 83 90 84 91 61 92 62 93 70 94 63 95 65 96 71 97
REMARK SMILES IDX 64 98 66 99 67 100 68 101 69 102
REMARK H PARENT 25 7 18 19 32 36 91 55 59 66
REMARK Flexibility Score: inf
ROOT
ATOM      1  C   UNL A   1      35.416  21.712  25.098  1.00  0.00     0.002 C 
ENDROOT
BRANCH   1   2
ATOM      2  C   UNL A   1      34.117  21.791  24.293  1.00  0.00     0.021 C 
BRANCH   2   3
ATOM      3  C   UNL A   1      34.031  22.999  23.385  1.00  0.00     0.116 C 
BRANCH   3   4
ATOM      4  N   UNL A   1      33.857  24.291  23.990  1.00  0.00    -0.356 N 
ATOM      5  C   UNL A   1      33.095  24.420  25.116  1.00  0.00     0.226 C 
ATOM      6  O   UNL A   1      33.716  24.719  26.148  1.00  0.00    -0.275 OA
ATOM      7  H   UNL A   1      34.286  25.084  23.593  1.00  0.00     0.163 HD
BRANCH   5   8
ATOM      8  C   UNL A   1      31.553  24.502  25.141  1.00  0.00     0.113 C 
ATOM      9  C   UNL A   1      31.221  28.925  23.007  1.00  0.00     0.222 C 
ATOM     10  O   UNL A   1      32.392  29.311  23.061  1.00  0.00    -0.275 OA
ATOM     11  N   UNL A   1      30.703  28.022  23.955  1.00  0.00    -0.343 N 
ATOM     12  C   UNL A   1      31.545  27.840  25.103  1.00  0.00     0.122 C 
ATOM     13  C   UNL A   1      29.953  26.860  23.515  1.00  0.00     0.122 C 
ATOM     14  C   UNL A   1      30.971  26.939  26.194  1.00  0.00     0.051 C 
ATOM     15  C   UNL A   1      29.460  25.911  24.595  1.00  0.00     0.051 C 
ATOM     16  C   UNL A   1      30.533  25.574  25.668  1.00  0.00     0.055 C 
ATOM     17  N   UNL A   1      29.820  24.872  26.724  1.00  0.00    -0.350 N 
ATOM     18  C   UNL A   1      30.007  23.519  26.744  1.00  0.00     0.221 C 
ATOM     19  H   UNL A   1      29.246  25.337  27.376  1.00  0.00     0.164 HD
ATOM     20  C   UNL A   1      31.142  23.178  25.840  1.00  0.00     0.116 C 
ATOM     21  O   UNL A   1      29.353  22.734  27.403  1.00  0.00    -0.275 OA
BRANCH   9  22
ATOM     22  C   UNL A   1      30.292  29.437  21.928  1.00  0.00     0.105 C 
BRANCH  22  23
ATOM     23  C   UNL A   1      28.920  29.874  22.435  1.00  0.00     0.051 C 
BRANCH  23  24
ATOM     24  C   UNL A   1      28.692  31.352  22.446  1.00  0.00     0.018 A 
ATOM     25  C   UNL A   1      29.814  32.072  24.711  1.00  0.00     0.071 C 
ATOM     26  C   UNL A   1      29.060  32.295  23.452  1.00  0.00     0.084 A 
ATOM     27  N   UNL A   1      28.745  33.545  23.088  1.00  0.00    -0.085 NA
ATOM     28  O   UNL A   1      28.184  33.444  21.833  1.00  0.00    -0.361 OA
ATOM     29  C   UNL A   1      28.167  32.142  21.442  1.00  0.00     0.137 A 
ATOM     30  C   UNL A   1      27.719  31.894  20.055  1.00  0.00     0.091 C 
ENDBRANCH  23  24
ENDBRANCH  22  23
ENDBRANCH   9  22
ENDBRANCH   5   8
ENDBRANCH   3   4
ENDBRANCH   2   3
ENDBRANCH   1   2
BRANCH   1  31
ATOM     31  C   UNL A   1      36.733  21.489  24.336  1.00  0.00     0.002 C 
BRANCH  31  32
ATOM     32  C   UNL A   1      37.627  20.324  24.764  1.00  0.00     0.021 C 
BRANCH  32  33
ATOM     33  C   UNL A   1      38.692  20.628  25.813  1.00  0.00     0.116 C 
BRANCH  33  34
ATOM     34  N   UNL A   1      39.720  19.601  25.895  1.00  0.00    -0.352 N 
ATOM     35  C   UNL A   1      41.068  19.699  26.130  1.00  0.00     0.251 C 
ATOM     36  H   UNL A   1      39.393  18.682  25.759  1.00  0.00     0.163 HD
ATOM     37  O   UNL A   1      41.774  18.699  26.030  1.00  0.00    -0.269 OA
BRANCH  35  38
ATOM     38  C   UNL A   1      41.679  20.998  26.478  1.00  0.00     0.039 A 
ATOM     39  C   UNL A   1      41.962  21.902  25.448  1.00  0.00     0.014 A 
ATOM     40  C   UNL A   1      41.987  21.323  27.800  1.00  0.00     0.014 A 
ATOM     41  C   UNL A   1      42.483  23.160  25.752  1.00  0.00     0.010 A 
ATOM     42  C   UNL A   1      42.450  22.601  28.107  1.00  0.00     0.010 A 
ATOM     43  C   UNL A   1      42.691  23.535  27.088  1.00  0.00    -0.014 A 
BRANCH  43  44
ATOM     44  C   UNL A   1      43.114  24.913  27.449  1.00  0.00     0.031 A 
ATOM     45  C   UNL A   1      42.134  25.874  28.060  1.00  0.00     0.074 A 
ATOM     46  C   UNL A   1      44.352  25.328  27.115  1.00  0.00     0.049 A 
ATOM     47  N   UNL A   1      42.288  27.142  28.337  1.00  0.00    -0.248 NA
ATOM     48  C   UNL A   1      40.797  25.348  28.380  1.00  0.00     0.031 C 
ATOM     49  C   UNL A   1      45.369  24.506  26.454  1.00  0.00     0.029 A 
ATOM     50  N   UNL A   1      44.954  26.556  27.246  1.00  0.00    -0.354 N 
ATOM     51  C   UNL A   1      41.062  27.577  28.825  1.00  0.00     0.074 A 
ATOM     52  C   UNL A   1      40.166  26.441  28.788  1.00  0.00     0.031 C 
ATOM     53  C   UNL A   1      46.459  25.255  26.226  1.00  0.00     0.029 A 
ATOM     54  C   UNL A   1      46.209  26.616  26.686  1.00  0.00     0.049 A 
ATOM     55  H   UNL A   1      44.527  27.320  27.698  1.00  0.00     0.167 HD
ATOM     56  C   UNL A   1      40.720  28.806  29.282  1.00  0.00     0.034 A 
ATOM     57  C   UNL A   1      47.054  27.654  26.535  1.00  0.00     0.034 A 
ATOM     58  C   UNL A   1      41.626  29.921  29.348  1.00  0.00     0.049 A 
ATOM     59  C   UNL A   1      46.656  29.003  27.070  1.00  0.00     0.074 A 
ATOM     60  C   UNL A   1      41.404  31.177  29.886  1.00  0.00     0.029 A 
ATOM     61  N   UNL A   1      42.919  29.923  28.849  1.00  0.00    -0.354 N 
ATOM     62  N   UNL A   1      45.550  29.354  27.681  1.00  0.00    -0.248 NA
ATOM     63  C   UNL A   1      47.630  30.094  26.922  1.00  0.00     0.031 C 
ATOM     64  C   UNL A   1      42.552  31.948  29.681  1.00  0.00     0.029 A 
ATOM     65  C   UNL A   1      43.501  31.164  29.044  1.00  0.00     0.049 A 
ATOM     66  H   UNL A   1      43.360  29.154  28.420  1.00  0.00     0.167 HD
ATOM     67  C   UNL A   1      45.705  30.695  28.013  1.00  0.00     0.074 A 
ATOM     68  C   UNL A   1      47.023  31.087  27.558  1.00  0.00     0.031 C 
ATOM     69  C   UNL A   1      44.829  31.530  28.624  1.00  0.00     0.034 A 
BRANCH  56  70
ATOM     70  C   UNL A   1      39.314  29.002  29.785  1.00  0.00     0.023 A 
ATOM     71  C   UNL A   1      38.978  28.598  31.094  1.00  0.00     0.012 A 
ATOM     72  C   UNL A   1      38.344  29.647  28.992  1.00  0.00     0.148 A 
ATOM     73  C   UNL A   1      37.693  28.803  31.593  1.00  0.00     0.002 A 
ATOM     74  C   UNL A   1      37.078  29.887  29.512  1.00  0.00     0.091 A 
ATOM     75  F   UNL A   1      38.676  30.007  27.744  1.00  0.00    -0.205 F 
ATOM     76  C   UNL A   1      36.747  29.455  30.807  1.00  0.00     0.022 A 
BRANCH  74  77
ATOM     77  S   UNL A   1      35.814  30.789  28.610  1.00  0.00     0.127 S 
ATOM     78  O   UNL A   1      36.608  31.820  27.943  1.00  0.00    -0.237 OA
ATOM     79  O   UNL A   1      35.280  29.759  27.718  1.00  0.00    -0.237 OA
ATOM     80  O   UNL A   1      34.874  31.275  29.610  1.00  0.00    -0.744 OA
ENDBRANCH  74  77
ENDBRANCH  56  70
BRANCH  57  81
ATOM     81  C   UNL A   1      48.377  27.446  25.882  1.00  0.00     0.023 A 
ATOM     82  C   UNL A   1      49.485  27.068  26.665  1.00  0.00     0.012 A 
ATOM     83  C   UNL A   1      48.539  27.585  24.488  1.00  0.00     0.148 A 
ATOM     84  C   UNL A   1      50.734  26.862  26.079  1.00  0.00     0.002 A 
ATOM     85  C   UNL A   1      49.772  27.323  23.903  1.00  0.00     0.091 A 
ATOM     86  F   UNL A   1      47.476  27.957  23.759  1.00  0.00    -0.205 F 
ATOM     87  C   UNL A   1      50.875  26.979  24.698  1.00  0.00     0.022 A 
BRANCH  85  88
ATOM     88  S   UNL A   1      50.013  27.324  22.121  1.00  0.00     0.127 S 
ATOM     89  O   UNL A   1      51.409  26.911  22.006  1.00  0.00    -0.237 OA
ATOM     90  O   UNL A   1      49.037  26.327  21.681  1.00  0.00    -0.237 OA
ATOM     91  O   UNL A   1      49.719  28.682  21.678  1.00  0.00    -0.744 OA
ENDBRANCH  85  88
ENDBRANCH  57  81
BRANCH  69  92
ATOM     92  C   UNL A   1      45.264  32.953  28.858  1.00  0.00     0.023 A 
ATOM     93  C   UNL A   1      44.960  33.941  27.901  1.00  0.00     0.012 A 
ATOM     94  C   UNL A   1      45.891  33.325  30.063  1.00  0.00     0.148 A 
ATOM     95  C   UNL A   1      45.296  35.275  28.130  1.00  0.00     0.002 A 
ATOM     96  C   UNL A   1      46.178  34.664  30.305  1.00  0.00     0.091 A 
ATOM     97  F   UNL A   1      46.185  32.366  30.953  1.00  0.00    -0.205 F 
ATOM     98  C   UNL A   1      45.892  35.637  29.335  1.00  0.00     0.022 A 
BRANCH  96  99
ATOM     99  S   UNL A   1      46.858  35.240  31.865  1.00  0.00     0.127 S 
ATOM    100  O   UNL A   1      45.877  34.734  32.823  1.00  0.00    -0.237 OA
ATOM    101  O   UNL A   1      48.155  34.564  31.904  1.00  0.00    -0.237 OA
ATOM    102  O   UNL A   1      46.934  36.691  31.762  1.00  0.00    -0.744 OA
ENDBRANCH  96  99
ENDBRANCH  69  92
ENDBRANCH  43  44
ENDBRANCH  35  38
ENDBRANCH  33  34
ENDBRANCH  32  33
ENDBRANCH  31  32
ENDBRANCH   1  31
TORSDOF 19
ENDMDL
