MODEL 1
REMARK VINA RESULT:     -12.6      0.000      0.000
REMARK SMILES O=C(NCCCCCCNC(=O)[C@H]1C[C@H]2CCCC[C@@H]2[N@@H+]1C1CCSCC1)c1ccc(-c2c3nc(c(-c4cccc(S(=O)(=O)[O-])c4F)c4ccc([nH]4)c(-c4cccc(S(=O)(=O)[O-])c4F)c4nc(c(-c5cccc(S(=O)(=O)[O-])c5F)c5ccc2[nH]5)C=C4)C=C3)cc1
REMARK SMILES IDX 5 1 4 2 3 3 1 4 2 5 28 7 29 8 90 9 30 10 89 11 31 12 32 13
REMARK SMILES IDX 33 14 83 15 34 16 88 17 82 18 84 19 35 20 87 21 81 22 80 23
REMARK SMILES IDX 36 25 68 26 48 27 67 28 49 29 52 30 66 31 85 32 50 33 51 34
REMARK SMILES IDX 65 36 86 37 53 38 37 39 38 40 46 41 39 42 41 43 47 44 40 45
REMARK SMILES IDX 42 46 43 47 44 48 45 49 69 50 70 51 78 52 71 53 73 54 79 55
REMARK SMILES IDX 72 56 74 57 75 58 76 59 77 60 54 61 55 62 63 63 56 64 58 65
REMARK SMILES IDX 64 66 57 67 59 68 60 69 61 70 62 71 6 72 7 73 8 74 9 75
REMARK SMILES IDX 10 76 11 77 12 79 13 80 14 81 21 82 15 83 20 84 16 86 19 87
REMARK SMILES IDX 17 88 18 89 22 90 23 91 27 92 24 93 26 94 25 95
REMARK H PARENT 3 6 84 24 52 35 10 78 21 85
REMARK Flexibility Score: inf
ROOT
ATOM      1  C   UNL A   1      34.971  21.504  25.308  1.00  0.00     0.021 C 
ENDROOT
BRANCH   1   2
ATOM      2  C   UNL A   1      36.393  22.012  25.489  1.00  0.00     0.116 C 
BRANCH   2   3
ATOM      3  N   UNL A   1      37.385  20.953  25.516  1.00  0.00    -0.352 N 
ATOM      4  O   UNL A   1      39.423  20.020  25.723  1.00  0.00    -0.269 OA
ATOM      5  C   UNL A   1      38.717  21.005  25.870  1.00  0.00     0.251 C 
ATOM      6  H   UNL A   1      37.060  20.066  25.240  1.00  0.00     0.163 HD
BRANCH   5   7
ATOM      7  C   UNL A   1      39.291  22.271  26.389  1.00  0.00     0.039 A 
ATOM      8  C   UNL A   1      38.778  23.509  25.997  1.00  0.00     0.014 A 
ATOM      9  C   UNL A   1      40.375  22.212  27.269  1.00  0.00     0.014 A 
ATOM     10  C   UNL A   1      39.453  24.675  26.340  1.00  0.00     0.010 A 
ATOM     11  C   UNL A   1      40.992  23.393  27.693  1.00  0.00     0.010 A 
ATOM     12  C   UNL A   1      40.568  24.635  27.194  1.00  0.00    -0.014 A 
BRANCH  12  13
ATOM     13  C   UNL A   1      41.242  25.905  27.575  1.00  0.00     0.031 A 
ATOM     14  C   UNL A   1      42.637  26.224  27.106  1.00  0.00     0.074 A 
ATOM     15  C   UNL A   1      40.572  26.788  28.342  1.00  0.00     0.049 A 
ATOM     16  N   UNL A   1      43.339  27.313  27.299  1.00  0.00    -0.248 NA
ATOM     17  C   UNL A   1      43.343  25.193  26.329  1.00  0.00     0.031 C 
ATOM     18  C   UNL A   1      39.235  26.571  28.900  1.00  0.00     0.029 A 
ATOM     19  N   UNL A   1      40.914  28.042  28.779  1.00  0.00    -0.354 N 
ATOM     20  C   UNL A   1      44.579  27.082  26.715  1.00  0.00     0.074 A 
ATOM     21  C   UNL A   1      44.538  25.745  26.162  1.00  0.00     0.031 C 
ATOM     22  C   UNL A   1      38.854  27.669  29.570  1.00  0.00     0.029 A 
ATOM     23  C   UNL A   1      39.936  28.646  29.534  1.00  0.00     0.049 A 
ATOM     24  H   UNL A   1      41.777  28.469  28.573  1.00  0.00     0.167 HD
ATOM     25  C   UNL A   1      45.649  27.910  26.633  1.00  0.00     0.034 A 
ATOM     26  C   UNL A   1      39.909  29.851  30.135  1.00  0.00     0.034 A 
ATOM     27  C   UNL A   1      45.670  29.256  27.143  1.00  0.00     0.049 A 
ATOM     28  C   UNL A   1      41.091  30.765  29.984  1.00  0.00     0.074 A 
ATOM     29  C   UNL A   1      46.678  30.199  27.042  1.00  0.00     0.029 A 
ATOM     30  N   UNL A   1      44.640  29.850  27.856  1.00  0.00    -0.354 N 
ATOM     31  N   UNL A   1      42.197  30.577  29.308  1.00  0.00    -0.248 NA
ATOM     32  C   UNL A   1      41.007  32.070  30.654  1.00  0.00     0.031 C 
ATOM     33  C   UNL A   1      46.265  31.357  27.710  1.00  0.00     0.029 A 
ATOM     34  C   UNL A   1      44.989  31.144  28.208  1.00  0.00     0.049 A 
ATOM     35  H   UNL A   1      43.785  29.417  28.081  1.00  0.00     0.167 HD
ATOM     36  C   UNL A   1      42.928  31.751  29.442  1.00  0.00     0.074 A 
ATOM     37  C   UNL A   1      42.126  32.653  30.245  1.00  0.00     0.031 C 
ATOM     38  C   UNL A   1      44.159  32.050  28.959  1.00  0.00     0.034 A 
BRANCH  25  39
ATOM     39  C   UNL A   1      46.884  27.403  25.932  1.00  0.00     0.023 A 
ATOM     40  C   UNL A   1      47.760  26.527  26.605  1.00  0.00     0.012 A 
ATOM     41  C   UNL A   1      47.139  27.734  24.586  1.00  0.00     0.148 A 
ATOM     42  C   UNL A   1      48.886  26.013  25.962  1.00  0.00     0.002 A 
ATOM     43  C   UNL A   1      48.241  27.184  23.938  1.00  0.00     0.091 A 
ATOM     44  F   UNL A   1      46.308  28.584  23.967  1.00  0.00    -0.205 F 
ATOM     45  C   UNL A   1      49.120  26.333  24.627  1.00  0.00     0.022 A 
BRANCH  43  46
ATOM     46  S   UNL A   1      48.582  27.474  22.197  1.00  0.00     0.127 S 
ATOM     47  O   UNL A   1      49.842  28.211  22.263  1.00  0.00    -0.237 OA
ATOM     48  O   UNL A   1      48.700  26.112  21.675  1.00  0.00    -0.237 OA
ATOM     49  O   UNL A   1      47.441  28.220  21.686  1.00  0.00    -0.744 OA
ENDBRANCH  43  46
ENDBRANCH  25  39
BRANCH  26  50
ATOM     50  C   UNL A   1      38.690  30.281  30.876  1.00  0.00     0.023 A 
ATOM     51  C   UNL A   1      38.596  30.026  32.257  1.00  0.00     0.012 A 
ATOM     52  C   UNL A   1      37.651  30.979  30.232  1.00  0.00     0.148 A 
ATOM     53  C   UNL A   1      37.474  30.436  32.980  1.00  0.00     0.002 A 
ATOM     54  C   UNL A   1      36.565  31.437  30.970  1.00  0.00     0.091 A 
ATOM     55  F   UNL A   1      37.753  31.199  28.914  1.00  0.00    -0.205 F 
ATOM     56  C   UNL A   1      36.467  31.152  32.340  1.00  0.00     0.022 A 
BRANCH  54  57
ATOM     57  S   UNL A   1      35.298  32.489  30.253  1.00  0.00     0.127 S 
ATOM     58  O   UNL A   1      34.791  31.650  29.171  1.00  0.00    -0.237 OA
ATOM     59  O   UNL A   1      34.379  32.667  31.378  1.00  0.00    -0.237 OA
ATOM     60  O   UNL A   1      35.987  33.707  29.846  1.00  0.00    -0.744 OA
ENDBRANCH  54  57
ENDBRANCH  26  50
BRANCH  38  61
ATOM     61  C   UNL A   1      44.704  33.423  29.251  1.00  0.00     0.023 A 
ATOM     62  C   UNL A   1      45.369  33.670  30.468  1.00  0.00     0.012 A 
ATOM     63  C   UNL A   1      44.602  34.453  28.297  1.00  0.00     0.148 A 
ATOM     64  C   UNL A   1      45.892  34.931  30.747  1.00  0.00     0.002 A 
ATOM     65  C   UNL A   1      45.170  35.695  28.560  1.00  0.00     0.091 A 
ATOM     66  F   UNL A   1      43.946  34.207  27.154  1.00  0.00    -0.205 F 
ATOM     67  C   UNL A   1      45.804  35.940  29.789  1.00  0.00     0.022 A 
BRANCH  65  68
ATOM     68  S   UNL A   1      45.183  37.015  27.342  1.00  0.00     0.127 S 
ATOM     69  O   UNL A   1      45.801  38.107  28.092  1.00  0.00    -0.237 OA
ATOM     70  O   UNL A   1      46.018  36.455  26.280  1.00  0.00    -0.237 OA
ATOM     71  O   UNL A   1      43.790  37.219  26.966  1.00  0.00    -0.744 OA
ENDBRANCH  65  68
ENDBRANCH  38  61
ENDBRANCH  12  13
ENDBRANCH   5   7
ENDBRANCH   2   3
ENDBRANCH   1   2
BRANCH   1  72
ATOM     72  C   UNL A   1      34.097  21.469  26.562  1.00  0.00     0.002 C 
BRANCH  72  73
ATOM     73  C   UNL A   1      33.271  22.719  26.872  1.00  0.00     0.002 C 
BRANCH  73  74
ATOM     74  C   UNL A   1      31.755  22.618  26.706  1.00  0.00     0.021 C 
BRANCH  74  75
ATOM     75  C   UNL A   1      31.067  23.748  25.957  1.00  0.00     0.116 C 
BRANCH  75  76
ATOM     76  N   UNL A   1      31.094  25.028  26.631  1.00  0.00    -0.351 N 
ATOM     77  C   UNL A   1      30.721  26.248  26.112  1.00  0.00     0.278 C 
ATOM     78  H   UNL A   1      31.414  25.027  27.562  1.00  0.00     0.163 HD
ATOM     79  O   UNL A   1      30.707  27.214  26.876  1.00  0.00    -0.268 OA
BRANCH  77  80
ATOM     80  C   UNL A   1      30.437  26.339  24.588  1.00  0.00     0.275 C 
ATOM     81  C   UNL A   1      28.952  26.626  24.287  1.00  0.00     0.085 C 
ATOM     82  N   UNL A   1      31.203  27.444  23.950  1.00  0.00    -0.320 N 
ATOM     83  C   UNL A   1      28.994  27.682  23.210  1.00  0.00     0.054 C 
ATOM     84  C   UNL A   1      30.218  28.486  23.616  1.00  0.00     0.188 C 
ATOM     85  H   UNL A   1      31.882  27.804  24.621  1.00  0.00     0.349 HD
ATOM     86  C   UNL A   1      27.750  28.545  23.081  1.00  0.00     0.010 C 
ATOM     87  C   UNL A   1      30.505  29.589  22.597  1.00  0.00     0.065 C 
ATOM     88  C   UNL A   1      28.008  29.665  22.072  1.00  0.00     0.001 C 
ATOM     89  C   UNL A   1      29.261  30.475  22.421  1.00  0.00     0.006 C 
BRANCH  82  90
ATOM     90  C   UNL A   1      32.248  27.126  22.964  1.00  0.00     0.186 C 
ATOM     91  C   UNL A   1      33.651  26.995  23.589  1.00  0.00     0.076 C 
ATOM     92  C   UNL A   1      31.996  25.999  21.942  1.00  0.00     0.076 C 
ATOM     93  C   UNL A   1      33.989  25.664  24.243  1.00  0.00     0.075 C 
ATOM     94  C   UNL A   1      32.161  24.570  22.434  1.00  0.00     0.075 C 
ATOM     95  S   UNL A   1      33.811  24.247  23.118  1.00  0.00    -0.162 SA
ENDBRANCH  82  90
ENDBRANCH  77  80
ENDBRANCH  75  76
ENDBRANCH  74  75
ENDBRANCH  73  74
ENDBRANCH  72  73
ENDBRANCH   1  72
TORSDOF 17
ENDMDL
MODEL 2
REMARK VINA RESULT:     -12.5      5.223     10.510
REMARK SMILES O=C(NCCCCCCNC(=O)[C@H]1C[C@H]2CCCC[C@@H]2[N@@H+]1C1CCSCC1)c1ccc(-c2c3nc(c(-c4cccc(S(=O)(=O)[O-])c4F)c4ccc([nH]4)c(-c4cccc(S(=O)(=O)[O-])c4F)c4nc(c(-c5cccc(S(=O)(=O)[O-])c5F)c5ccc2[nH]5)C=C4)C=C3)cc1
REMARK SMILES IDX 5 1 4 2 3 3 1 4 2 5 28 7 29 8 90 9 30 10 89 11 31 12 32 13
REMARK SMILES IDX 33 14 83 15 34 16 88 17 82 18 84 19 35 20 87 21 81 22 80 23
REMARK SMILES IDX 36 25 68 26 48 27 67 28 49 29 52 30 66 31 85 32 50 33 51 34
REMARK SMILES IDX 65 36 86 37 53 38 37 39 38 40 46 41 39 42 41 43 47 44 40 45
REMARK SMILES IDX 42 46 43 47 44 48 45 49 69 50 70 51 78 52 71 53 73 54 79 55
REMARK SMILES IDX 72 56 74 57 75 58 76 59 77 60 54 61 55 62 63 63 56 64 58 65
REMARK SMILES IDX 64 66 57 67 59 68 60 69 61 70 62 71 6 72 7 73 8 74 9 75
REMARK SMILES IDX 10 76 11 77 12 79 13 80 14 81 21 82 15 83 20 84 16 86 19 87
REMARK SMILES IDX 17 88 18 89 22 90 23 91 27 92 24 93 26 94 25 95
REMARK H PARENT 3 6 84 24 52 35 10 78 21 85
REMARK Flexibility Score: inf
ROOT
ATOM      1  C   UNL A   1      32.090  29.272  24.867  1.00  0.00     0.021 C 
ENDROOT
BRANCH   1   2
ATOM      2  C   UNL A   1      32.109  29.685  26.330  1.00  0.00     0.116 C 
BRANCH   2   3
ATOM      3  N   UNL A   1      31.904  31.107  26.532  1.00  0.00    -0.352 N 
ATOM      4  O   UNL A   1      32.293  33.167  27.351  1.00  0.00    -0.269 OA
ATOM      5  C   UNL A   1      32.692  32.024  27.194  1.00  0.00     0.251 C 
ATOM      6  H   UNL A   1      31.078  31.472  26.137  1.00  0.00     0.163 HD
BRANCH   5   7
ATOM      7  C   UNL A   1      34.002  31.603  27.748  1.00  0.00     0.039 A 
ATOM      8  C   UNL A   1      34.274  30.260  28.014  1.00  0.00     0.014 A 
ATOM      9  C   UNL A   1      34.966  32.578  28.022  1.00  0.00     0.014 A 
ATOM     10  C   UNL A   1      35.427  29.914  28.710  1.00  0.00     0.010 A 
ATOM     11  C   UNL A   1      36.169  32.213  28.635  1.00  0.00     0.010 A 
ATOM     12  C   UNL A   1      36.391  30.885  29.030  1.00  0.00    -0.014 A 
BRANCH  12  13
ATOM     13  C   UNL A   1      37.633  30.475  29.739  1.00  0.00     0.031 A 
ATOM     14  C   UNL A   1      37.892  30.881  31.166  1.00  0.00     0.074 A 
ATOM     15  C   UNL A   1      38.528  29.707  29.085  1.00  0.00     0.049 A 
ATOM     16  N   UNL A   1      38.895  30.554  31.943  1.00  0.00    -0.248 NA
ATOM     17  C   UNL A   1      36.912  31.774  31.804  1.00  0.00     0.031 C 
ATOM     18  C   UNL A   1      38.413  29.290  27.686  1.00  0.00     0.029 A 
ATOM     19  N   UNL A   1      39.702  29.137  29.506  1.00  0.00    -0.354 N 
ATOM     20  C   UNL A   1      38.694  31.235  33.138  1.00  0.00     0.074 A 
ATOM     21  C   UNL A   1      37.475  32.000  32.984  1.00  0.00     0.031 C 
ATOM     22  C   UNL A   1      39.451  28.498  27.376  1.00  0.00     0.029 A 
ATOM     23  C   UNL A   1      40.330  28.393  28.534  1.00  0.00     0.049 A 
ATOM     24  H   UNL A   1      40.061  29.249  30.415  1.00  0.00     0.167 HD
ATOM     25  C   UNL A   1      39.447  31.216  34.265  1.00  0.00     0.034 A 
ATOM     26  C   UNL A   1      41.486  27.703  28.567  1.00  0.00     0.034 A 
ATOM     27  C   UNL A   1      40.633  30.417  34.431  1.00  0.00     0.049 A 
ATOM     28  C   UNL A   1      42.272  27.660  29.846  1.00  0.00     0.074 A 
ATOM     29  C   UNL A   1      41.421  30.271  35.560  1.00  0.00     0.029 A 
ATOM     30  N   UNL A   1      41.208  29.636  33.441  1.00  0.00    -0.354 N 
ATOM     31  N   UNL A   1      41.989  28.200  31.006  1.00  0.00    -0.248 NA
ATOM     32  C   UNL A   1      43.522  26.888  29.829  1.00  0.00     0.031 C 
ATOM     33  C   UNL A   1      42.483  29.415  35.246  1.00  0.00     0.029 A 
ATOM     34  C   UNL A   1      42.344  29.011  33.928  1.00  0.00     0.049 A 
ATOM     35  H   UNL A   1      40.861  29.540  32.525  1.00  0.00     0.167 HD
ATOM     36  C   UNL A   1      43.006  27.806  31.866  1.00  0.00     0.074 A 
ATOM     37  C   UNL A   1      43.899  26.962  31.098  1.00  0.00     0.031 C 
ATOM     38  C   UNL A   1      43.193  28.128  33.169  1.00  0.00     0.034 A 
BRANCH  25  39
ATOM     39  C   UNL A   1      38.994  32.056  35.432  1.00  0.00     0.023 A 
ATOM     40  C   UNL A   1      39.182  33.453  35.404  1.00  0.00     0.012 A 
ATOM     41  C   UNL A   1      38.318  31.475  36.524  1.00  0.00     0.148 A 
ATOM     42  C   UNL A   1      38.733  34.254  36.453  1.00  0.00     0.002 A 
ATOM     43  C   UNL A   1      37.837  32.284  37.548  1.00  0.00     0.091 A 
ATOM     44  F   UNL A   1      38.166  30.143  36.547  1.00  0.00    -0.205 F 
ATOM     45  C   UNL A   1      38.052  33.672  37.519  1.00  0.00     0.022 A 
BRANCH  43  46
ATOM     46  S   UNL A   1      36.879  31.635  38.924  1.00  0.00     0.127 S 
ATOM     47  O   UNL A   1      37.823  31.775  40.031  1.00  0.00    -0.237 OA
ATOM     48  O   UNL A   1      35.744  32.558  38.972  1.00  0.00    -0.237 OA
ATOM     49  O   UNL A   1      36.532  30.269  38.560  1.00  0.00    -0.744 OA
ENDBRANCH  43  46
ENDBRANCH  25  39
BRANCH  26  50
ATOM     50  C   UNL A   1      41.927  26.942  27.364  1.00  0.00     0.023 A 
ATOM     51  C   UNL A   1      42.540  27.630  26.299  1.00  0.00     0.012 A 
ATOM     52  C   UNL A   1      41.788  25.544  27.291  1.00  0.00     0.148 A 
ATOM     53  C   UNL A   1      42.982  26.940  25.169  1.00  0.00     0.002 A 
ATOM     54  C   UNL A   1      42.284  24.856  26.189  1.00  0.00     0.091 A 
ATOM     55  F   UNL A   1      41.188  24.910  28.309  1.00  0.00    -0.205 F 
ATOM     56  C   UNL A   1      42.866  25.553  25.120  1.00  0.00     0.022 A 
BRANCH  54  57
ATOM     57  S   UNL A   1      42.305  23.061  26.112  1.00  0.00     0.127 S 
ATOM     58  O   UNL A   1      42.924  22.826  24.811  1.00  0.00    -0.237 OA
ATOM     59  O   UNL A   1      43.138  22.718  27.265  1.00  0.00    -0.237 OA
ATOM     60  O   UNL A   1      40.912  22.650  26.238  1.00  0.00    -0.744 OA
ENDBRANCH  54  57
ENDBRANCH  26  50
BRANCH  38  61
ATOM     61  C   UNL A   1      44.390  27.536  33.864  1.00  0.00     0.023 A 
ATOM     62  C   UNL A   1      45.620  28.224  33.854  1.00  0.00     0.012 A 
ATOM     63  C   UNL A   1      44.283  26.324  34.572  1.00  0.00     0.148 A 
ATOM     64  C   UNL A   1      46.733  27.697  34.506  1.00  0.00     0.002 A 
ATOM     65  C   UNL A   1      45.383  25.828  35.262  1.00  0.00     0.091 A 
ATOM     66  F   UNL A   1      43.111  25.671  34.552  1.00  0.00    -0.205 F 
ATOM     67  C   UNL A   1      46.612  26.506  35.220  1.00  0.00     0.022 A 
BRANCH  65  68
ATOM     68  S   UNL A   1      45.285  24.353  36.282  1.00  0.00     0.127 S 
ATOM     69  O   UNL A   1      45.165  23.301  35.274  1.00  0.00    -0.237 OA
ATOM     70  O   UNL A   1      46.563  24.376  36.992  1.00  0.00    -0.237 OA
ATOM     71  O   UNL A   1      44.120  24.540  37.137  1.00  0.00    -0.744 OA
ENDBRANCH  65  68
ENDBRANCH  38  61
ENDBRANCH  12  13
ENDBRANCH   5   7
ENDBRANCH   2   3
ENDBRANCH   1   2
BRANCH   1  72
ATOM     72  C   UNL A   1      33.388  28.691  24.307  1.00  0.00     0.002 C 
BRANCH  72  73
ATOM     73  C   UNL A   1      33.288  27.868  23.021  1.00  0.00     0.002 C 
BRANCH  73  74
ATOM     74  C   UNL A   1      31.952  27.187  22.726  1.00  0.00     0.021 C 
BRANCH  74  75
ATOM     75  C   UNL A   1      32.000  25.721  22.325  1.00  0.00     0.116 C 
BRANCH  75  76
ATOM     76  N   UNL A   1      33.327  25.147  22.280  1.00  0.00    -0.351 N 
ATOM     77  C   UNL A   1      33.689  23.863  22.626  1.00  0.00     0.278 C 
ATOM     78  H   UNL A   1      34.051  25.737  21.968  1.00  0.00     0.163 HD
ATOM     79  O   UNL A   1      34.853  23.521  22.413  1.00  0.00    -0.268 OA
BRANCH  77  80
ATOM     80  C   UNL A   1      32.637  22.974  23.341  1.00  0.00     0.275 C 
ATOM     81  C   UNL A   1      32.192  21.781  22.470  1.00  0.00     0.085 C 
ATOM     82  N   UNL A   1      33.177  22.384  24.596  1.00  0.00    -0.320 N 
ATOM     83  C   UNL A   1      32.190  20.612  23.425  1.00  0.00     0.054 C 
ATOM     84  C   UNL A   1      33.366  20.949  24.325  1.00  0.00     0.188 C 
ATOM     85  H   UNL A   1      34.072  22.823  24.807  1.00  0.00     0.349 HD
ATOM     86  C   UNL A   1      32.321  19.238  22.788  1.00  0.00     0.010 C 
ATOM     87  C   UNL A   1      33.507  19.915  25.444  1.00  0.00     0.065 C 
ATOM     88  C   UNL A   1      32.471  18.181  23.882  1.00  0.00     0.001 C 
ATOM     89  C   UNL A   1      33.621  18.505  24.841  1.00  0.00     0.006 C 
BRANCH  82  90
ATOM     90  C   UNL A   1      32.601  22.782  25.890  1.00  0.00     0.186 C 
ATOM     91  C   UNL A   1      33.402  23.897  26.591  1.00  0.00     0.076 C 
ATOM     92  C   UNL A   1      31.086  23.054  25.985  1.00  0.00     0.076 C 
ATOM     93  C   UNL A   1      33.135  25.323  26.135  1.00  0.00     0.075 C 
ATOM     94  C   UNL A   1      30.588  24.391  25.460  1.00  0.00     0.075 C 
ATOM     95  S   UNL A   1      31.388  25.806  26.271  1.00  0.00    -0.162 SA
ENDBRANCH  82  90
ENDBRANCH  77  80
ENDBRANCH  75  76
ENDBRANCH  74  75
ENDBRANCH  73  74
ENDBRANCH  72  73
ENDBRANCH   1  72
TORSDOF 17
ENDMDL
MODEL 3
REMARK VINA RESULT:     -12.4      5.299      8.657
REMARK SMILES O=C(NCCCCCCNC(=O)[C@H]1C[C@H]2CCCC[C@@H]2[N@@H+]1C1CCSCC1)c1ccc(-c2c3nc(c(-c4cccc(S(=O)(=O)[O-])c4F)c4ccc([nH]4)c(-c4cccc(S(=O)(=O)[O-])c4F)c4nc(c(-c5cccc(S(=O)(=O)[O-])c5F)c5ccc2[nH]5)C=C4)C=C3)cc1
REMARK SMILES IDX 5 1 4 2 3 3 1 4 2 5 28 7 29 8 90 9 30 10 89 11 31 12 32 13
REMARK SMILES IDX 33 14 83 15 34 16 88 17 82 18 84 19 35 20 87 21 81 22 80 23
REMARK SMILES IDX 36 25 68 26 48 27 67 28 49 29 52 30 66 31 85 32 50 33 51 34
REMARK SMILES IDX 65 36 86 37 53 38 37 39 38 40 46 41 39 42 41 43 47 44 40 45
REMARK SMILES IDX 42 46 43 47 44 48 45 49 69 50 70 51 78 52 71 53 73 54 79 55
REMARK SMILES IDX 72 56 74 57 75 58 76 59 77 60 54 61 55 62 63 63 56 64 58 65
REMARK SMILES IDX 64 66 57 67 59 68 60 69 61 70 62 71 6 72 7 73 8 74 9 75
REMARK SMILES IDX 10 76 11 77 12 79 13 80 14 81 21 82 15 83 20 84 16 86 19 87
REMARK SMILES IDX 17 88 18 89 22 90 23 91 27 92 24 93 26 94 25 95
REMARK H PARENT 3 6 84 24 52 35 10 78 21 85
REMARK Flexibility Score: inf
ROOT
ATOM      1  C   UNL A   1      31.342  31.668  26.733  1.00  0.00     0.021 C 
ENDROOT
BRANCH   1   2
ATOM      2  C   UNL A   1      32.509  32.622  26.532  1.00  0.00     0.116 C 
BRANCH   2   3
ATOM      3  N   UNL A   1      32.361  33.876  27.247  1.00  0.00    -0.352 N 
ATOM      4  O   UNL A   1      32.722  35.403  28.860  1.00  0.00    -0.269 OA
ATOM      5  C   UNL A   1      33.071  34.363  28.324  1.00  0.00     0.251 C 
ATOM      6  H   UNL A   1      31.647  34.467  26.914  1.00  0.00     0.163 HD
BRANCH   5   7
ATOM      7  C   UNL A   1      34.228  33.598  28.849  1.00  0.00     0.039 A 
ATOM      8  C   UNL A   1      34.061  32.323  29.394  1.00  0.00     0.014 A 
ATOM      9  C   UNL A   1      35.498  34.179  28.809  1.00  0.00     0.014 A 
ATOM     10  C   UNL A   1      35.121  31.711  30.053  1.00  0.00     0.010 A 
ATOM     11  C   UNL A   1      36.585  33.515  29.387  1.00  0.00     0.010 A 
ATOM     12  C   UNL A   1      36.398  32.297  30.059  1.00  0.00    -0.014 A 
BRANCH  12  13
ATOM     13  C   UNL A   1      37.520  31.595  30.737  1.00  0.00     0.031 A 
ATOM     14  C   UNL A   1      38.376  30.594  30.007  1.00  0.00     0.074 A 
ATOM     15  C   UNL A   1      37.778  31.884  32.029  1.00  0.00     0.049 A 
ATOM     16  N   UNL A   1      39.428  29.944  30.439  1.00  0.00    -0.248 NA
ATOM     17  C   UNL A   1      38.005  30.270  28.621  1.00  0.00     0.031 C 
ATOM     18  C   UNL A   1      36.989  32.799  32.858  1.00  0.00     0.029 A 
ATOM     19  N   UNL A   1      38.771  31.450  32.868  1.00  0.00    -0.354 N 
ATOM     20  C   UNL A   1      39.814  29.103  29.401  1.00  0.00     0.074 A 
ATOM     21  C   UNL A   1      38.880  29.320  28.318  1.00  0.00     0.031 C 
ATOM     22  C   UNL A   1      37.551  32.888  34.073  1.00  0.00     0.029 A 
ATOM     23  C   UNL A   1      38.707  32.001  34.127  1.00  0.00     0.049 A 
ATOM     24  H   UNL A   1      39.463  30.805  32.597  1.00  0.00     0.167 HD
ATOM     25  C   UNL A   1      40.857  28.239  29.350  1.00  0.00     0.034 A 
ATOM     26  C   UNL A   1      39.488  31.815  35.208  1.00  0.00     0.034 A 
ATOM     27  C   UNL A   1      41.812  28.061  30.412  1.00  0.00     0.049 A 
ATOM     28  C   UNL A   1      40.666  30.889  35.103  1.00  0.00     0.074 A 
ATOM     29  C   UNL A   1      42.947  27.267  30.426  1.00  0.00     0.029 A 
ATOM     30  N   UNL A   1      41.743  28.677  31.653  1.00  0.00    -0.354 N 
ATOM     31  N   UNL A   1      41.092  30.211  34.066  1.00  0.00    -0.248 NA
ATOM     32  C   UNL A   1      41.490  30.727  36.309  1.00  0.00     0.031 C 
ATOM     33  C   UNL A   1      43.553  27.389  31.681  1.00  0.00     0.029 A 
ATOM     34  C   UNL A   1      42.810  28.277  32.442  1.00  0.00     0.049 A 
ATOM     35  H   UNL A   1      41.040  29.306  31.932  1.00  0.00     0.167 HD
ATOM     36  C   UNL A   1      42.250  29.567  34.483  1.00  0.00     0.074 A 
ATOM     37  C   UNL A   1      42.472  29.957  35.861  1.00  0.00     0.031 C 
ATOM     38  C   UNL A   1      43.049  28.717  33.793  1.00  0.00     0.034 A 
BRANCH  25  39
ATOM     39  C   UNL A   1      41.053  27.441  28.086  1.00  0.00     0.023 A 
ATOM     40  C   UNL A   1      41.617  28.056  26.950  1.00  0.00     0.012 A 
ATOM     41  C   UNL A   1      40.746  26.066  28.043  1.00  0.00     0.148 A 
ATOM     42  C   UNL A   1      41.845  27.326  25.784  1.00  0.00     0.002 A 
ATOM     43  C   UNL A   1      41.014  25.334  26.890  1.00  0.00     0.091 A 
ATOM     44  F   UNL A   1      40.190  25.500  29.124  1.00  0.00    -0.205 F 
ATOM     45  C   UNL A   1      41.554  25.965  25.757  1.00  0.00     0.022 A 
BRANCH  43  46
ATOM     46  S   UNL A   1      40.747  23.560  26.787  1.00  0.00     0.127 S 
ATOM     47  O   UNL A   1      41.118  23.128  28.133  1.00  0.00    -0.237 OA
ATOM     48  O   UNL A   1      39.314  23.480  26.496  1.00  0.00    -0.237 OA
ATOM     49  O   UNL A   1      41.608  23.088  25.713  1.00  0.00    -0.744 OA
ENDBRANCH  43  46
ENDBRANCH  25  39
BRANCH  26  50
ATOM     50  C   UNL A   1      39.215  32.577  36.458  1.00  0.00     0.023 A 
ATOM     51  C   UNL A   1      39.813  33.838  36.644  1.00  0.00     0.012 A 
ATOM     52  C   UNL A   1      38.333  32.083  37.438  1.00  0.00     0.148 A 
ATOM     53  C   UNL A   1      39.558  34.582  37.797  1.00  0.00     0.002 A 
ATOM     54  C   UNL A   1      38.037  32.856  38.555  1.00  0.00     0.091 A 
ATOM     55  F   UNL A   1      37.785  30.874  37.249  1.00  0.00    -0.205 F 
ATOM     56  C   UNL A   1      38.661  34.097  38.745  1.00  0.00     0.022 A 
BRANCH  54  57
ATOM     57  S   UNL A   1      36.785  32.371  39.749  1.00  0.00     0.127 S 
ATOM     58  O   UNL A   1      37.295  31.082  40.208  1.00  0.00    -0.237 OA
ATOM     59  O   UNL A   1      36.866  33.453  40.730  1.00  0.00    -0.237 OA
ATOM     60  O   UNL A   1      35.532  32.332  39.005  1.00  0.00    -0.744 OA
ENDBRANCH  54  57
ENDBRANCH  26  50
BRANCH  38  61
ATOM     61  C   UNL A   1      44.262  28.176  34.502  1.00  0.00     0.023 A 
ATOM     62  C   UNL A   1      45.479  28.883  34.449  1.00  0.00     0.012 A 
ATOM     63  C   UNL A   1      44.182  26.995  35.264  1.00  0.00     0.148 A 
ATOM     64  C   UNL A   1      46.607  28.404  35.114  1.00  0.00     0.002 A 
ATOM     65  C   UNL A   1      45.296  26.549  35.964  1.00  0.00     0.091 A 
ATOM     66  F   UNL A   1      43.022  26.322  35.284  1.00  0.00    -0.205 F 
ATOM     67  C   UNL A   1      46.514  27.244  35.880  1.00  0.00     0.022 A 
BRANCH  65  68
ATOM     68  S   UNL A   1      45.232  25.118  37.049  1.00  0.00     0.127 S 
ATOM     69  O   UNL A   1      44.902  24.047  36.111  1.00  0.00    -0.237 OA
ATOM     70  O   UNL A   1      46.594  25.066  37.581  1.00  0.00    -0.237 OA
ATOM     71  O   UNL A   1      44.211  25.422  38.043  1.00  0.00    -0.744 OA
ENDBRANCH  65  68
ENDBRANCH  38  61
ENDBRANCH  12  13
ENDBRANCH   5   7
ENDBRANCH   2   3
ENDBRANCH   1   2
BRANCH   1  72
ATOM     72  C   UNL A   1      31.646  30.178  26.570  1.00  0.00     0.002 C 
BRANCH  72  73
ATOM     73  C   UNL A   1      32.987  29.676  27.111  1.00  0.00     0.002 C 
BRANCH  73  74
ATOM     74  C   UNL A   1      33.223  28.166  27.107  1.00  0.00     0.021 C 
BRANCH  74  75
ATOM     75  C   UNL A   1      32.342  27.333  26.191  1.00  0.00     0.116 C 
BRANCH  75  76
ATOM     76  N   UNL A   1      31.692  26.209  26.830  1.00  0.00    -0.351 N 
ATOM     77  C   UNL A   1      31.981  24.873  26.656  1.00  0.00     0.278 C 
ATOM     78  H   UNL A   1      30.965  26.423  27.459  1.00  0.00     0.163 HD
ATOM     79  O   UNL A   1      31.393  24.064  27.375  1.00  0.00    -0.268 OA
BRANCH  77  80
ATOM     80  C   UNL A   1      32.950  24.477  25.510  1.00  0.00     0.275 C 
ATOM     81  C   UNL A   1      34.329  24.036  26.038  1.00  0.00     0.085 C 
ATOM     82  N   UNL A   1      32.428  23.328  24.721  1.00  0.00    -0.320 N 
ATOM     83  C   UNL A   1      34.652  22.801  25.232  1.00  0.00     0.054 C 
ATOM     84  C   UNL A   1      33.277  22.176  25.066  1.00  0.00     0.188 C 
ATOM     85  H   UNL A   1      31.463  23.150  24.998  1.00  0.00     0.349 HD
ATOM     86  C   UNL A   1      35.652  21.844  25.859  1.00  0.00     0.010 C 
ATOM     87  C   UNL A   1      33.353  20.923  24.192  1.00  0.00     0.065 C 
ATOM     88  C   UNL A   1      35.746  20.575  25.012  1.00  0.00     0.001 C 
ATOM     89  C   UNL A   1      34.373  19.935  24.782  1.00  0.00     0.006 C 
BRANCH  82  90
ATOM     90  C   UNL A   1      32.056  23.527  23.311  1.00  0.00     0.186 C 
ATOM     91  C   UNL A   1      30.642  24.116  23.135  1.00  0.00     0.076 C 
ATOM     92  C   UNL A   1      33.057  24.215  22.361  1.00  0.00     0.076 C 
ATOM     93  C   UNL A   1      30.502  25.622  23.291  1.00  0.00     0.075 C 
ATOM     94  C   UNL A   1      33.164  25.729  22.446  1.00  0.00     0.075 C 
ATOM     95  S   UNL A   1      31.576  26.563  22.165  1.00  0.00    -0.162 SA
ENDBRANCH  82  90
ENDBRANCH  77  80
ENDBRANCH  75  76
ENDBRANCH  74  75
ENDBRANCH  73  74
ENDBRANCH  72  73
ENDBRANCH   1  72
TORSDOF 17
ENDMDL
