MODEL 1
REMARK VINA RESULT:     -12.8      0.000      0.000
REMARK SMILES C[NH+]1CCC([NH+]2CCC(Oc3ccc4ccccc4c3)(C(=O)NCCCCCCNC(=O)c3ccc(-c4c5nc(c(-c6cccc(S(=O)(=O)[O-])c6F)c6ccc([nH]6)c(-c6cccc(S(=O)(=O)[O-])c6F)c6nc(c(-c7cccc(S(=O)(=O)[O-])c7F)c7ccc4[nH]7)C=C6)C=C5)cc3)CC2)CC1
REMARK SMILES IDX 27 1 26 2 25 3 24 4 23 5 21 6 22 7 9 9 6 10 7 11 97 12 8 14
REMARK SMILES IDX 96 15 5 16 1 17 2 18 3 19 99 20 4 22 98 23 10 24 11 25 12 26
REMARK SMILES IDX 20 27 13 28 19 29 14 30 18 31 15 32 17 33 16 34 28 35 29 36
REMARK SMILES IDX 30 37 31 38 32 40 33 41 34 42 95 43 35 44 94 45 36 46 37 47
REMARK SMILES IDX 38 48 88 49 39 50 93 51 87 52 89 53 40 54 92 55 86 56 85 57
REMARK SMILES IDX 41 59 73 60 53 61 72 62 54 63 57 64 71 65 90 66 55 67 56 68
REMARK SMILES IDX 70 70 91 71 58 72 42 73 43 74 51 75 44 76 46 77 52 78 45 79
REMARK SMILES IDX 47 80 48 81 49 82 50 83 74 84 75 85 83 86 76 87 78 88 84 89
REMARK SMILES IDX 77 90 79 91 80 92 81 93 82 94 59 95 60 96 68 97 61 98 63 99
REMARK SMILES IDX 69 100 62 101 64 102 65 103 66 104 67 105
REMARK H PARENT 23 8 6 13 2 21 30 39 89 58 57 69
REMARK Flexibility Score: inf
ROOT
ATOM      1  C   UNL A   1      32.178  28.287  27.485  1.00  0.00     0.002 C 
ENDROOT
BRANCH   1   2
ATOM      2  C   UNL A   1      32.242  27.159  26.451  1.00  0.00     0.002 C 
BRANCH   2   3
ATOM      3  C   UNL A   1      33.655  26.794  25.979  1.00  0.00     0.021 C 
BRANCH   3   4
ATOM      4  C   UNL A   1      33.993  25.310  26.126  1.00  0.00     0.116 C 
BRANCH   4   5
ATOM      5  N   UNL A   1      34.732  24.836  24.972  1.00  0.00    -0.353 N 
ATOM      6  C   UNL A   1      34.294  24.433  23.744  1.00  0.00     0.264 C 
ATOM      7  O   UNL A   1      35.175  24.113  22.936  1.00  0.00    -0.270 OA
ATOM      8  H   UNL A   1      35.708  24.798  25.095  1.00  0.00     0.163 HD
BRANCH   6   9
ATOM      9  C   UNL A   1      32.777  24.394  23.390  1.00  0.00     0.197 C 
ATOM     10  N   UNL A   1      31.994  21.575  23.737  1.00  0.00    -0.332 N 
ATOM     11  C   UNL A   1      32.307  22.426  24.888  1.00  0.00     0.267 C 
ATOM     12  C   UNL A   1      32.771  21.974  22.550  1.00  0.00     0.267 C 
ATOM     13  H   UNL A   1      31.009  21.730  23.520  1.00  0.00     0.348 HD
ATOM     14  C   UNL A   1      31.939  23.862  24.556  1.00  0.00     0.120 C 
ATOM     15  C   UNL A   1      32.563  23.456  22.181  1.00  0.00     0.120 C 
BRANCH  10  16
ATOM     16  C   UNL A   1      32.088  20.124  24.031  1.00  0.00     0.195 C 
ATOM     17  C   UNL A   1      33.821  16.231  24.699  1.00  0.00     0.332 C 
ATOM     18  N   UNL A   1      33.589  17.635  24.374  1.00  0.00    -0.337 N 
ATOM     19  C   UNL A   1      33.126  18.375  25.555  1.00  0.00     0.268 C 
ATOM     20  C   UNL A   1      32.637  17.771  23.268  1.00  0.00     0.268 C 
ATOM     21  H   UNL A   1      34.477  18.037  24.075  1.00  0.00     0.347 HD
ATOM     22  C   UNL A   1      33.010  19.865  25.241  1.00  0.00     0.126 C 
ATOM     23  C   UNL A   1      32.507  19.236  22.846  1.00  0.00     0.126 C 
ENDBRANCH  10  16
BRANCH   9  24
ATOM     24  O   UNL A   1      32.558  25.788  23.052  1.00  0.00    -0.477 OA
BRANCH  24  25
ATOM     25  C   UNL A   1      31.303  26.309  23.131  1.00  0.00     0.121 A 
ATOM     26  C   UNL A   1      30.272  25.677  23.818  1.00  0.00     0.047 A 
ATOM     27  C   UNL A   1      31.120  27.603  22.645  1.00  0.00     0.055 A 
ATOM     28  C   UNL A   1      29.019  26.282  23.913  1.00  0.00     0.012 A 
ATOM     29  C   UNL A   1      29.877  28.245  22.768  1.00  0.00    -0.015 A 
ATOM     30  C   UNL A   1      28.805  27.562  23.385  1.00  0.00    -0.018 A 
ATOM     31  C   UNL A   1      29.676  29.556  22.304  1.00  0.00     0.009 A 
ATOM     32  C   UNL A   1      27.554  28.189  23.488  1.00  0.00     0.009 A 
ATOM     33  C   UNL A   1      28.430  30.172  22.429  1.00  0.00     0.001 A 
ATOM     34  C   UNL A   1      27.368  29.486  23.010  1.00  0.00     0.001 A 
ENDBRANCH  24  25
ENDBRANCH   9  24
ENDBRANCH   6   9
ENDBRANCH   4   5
ENDBRANCH   3   4
ENDBRANCH   2   3
ENDBRANCH   1   2
BRANCH   1  35
ATOM     35  C   UNL A   1      31.821  29.664  26.918  1.00  0.00     0.021 C 
BRANCH  35  36
ATOM     36  C   UNL A   1      33.007  30.448  26.369  1.00  0.00     0.116 C 
BRANCH  36  37
ATOM     37  N   UNL A   1      32.921  31.861  26.698  1.00  0.00    -0.352 N 
ATOM     38  C   UNL A   1      33.664  32.584  27.592  1.00  0.00     0.251 C 
ATOM     39  H   UNL A   1      32.232  32.369  26.210  1.00  0.00     0.163 HD
ATOM     40  O   UNL A   1      33.312  33.728  27.893  1.00  0.00    -0.269 OA
BRANCH  38  41
ATOM     41  C   UNL A   1      34.877  31.999  28.201  1.00  0.00     0.039 A 
ATOM     42  C   UNL A   1      34.789  30.743  28.809  1.00  0.00     0.014 A 
ATOM     43  C   UNL A   1      36.088  32.698  28.206  1.00  0.00     0.014 A 
ATOM     44  C   UNL A   1      35.921  30.183  29.404  1.00  0.00     0.010 A 
ATOM     45  C   UNL A   1      37.232  32.103  28.731  1.00  0.00     0.010 A 
ATOM     46  C   UNL A   1      37.155  30.854  29.363  1.00  0.00    -0.014 A 
BRANCH  46  47
ATOM     47  C   UNL A   1      38.358  30.282  30.018  1.00  0.00     0.031 A 
ATOM     48  C   UNL A   1      38.737  30.716  31.412  1.00  0.00     0.074 A 
ATOM     49  C   UNL A   1      39.142  29.417  29.346  1.00  0.00     0.049 A 
ATOM     50  N   UNL A   1      39.754  30.344  32.144  1.00  0.00    -0.248 NA
ATOM     51  C   UNL A   1      37.876  31.725  32.054  1.00  0.00     0.031 C 
ATOM     52  C   UNL A   1      38.931  28.981  27.964  1.00  0.00     0.029 A 
ATOM     53  N   UNL A   1      40.287  28.764  29.729  1.00  0.00    -0.354 N 
ATOM     54  C   UNL A   1      39.677  31.095  33.312  1.00  0.00     0.074 A 
ATOM     55  C   UNL A   1      38.538  31.975  33.173  1.00  0.00     0.031 C 
ATOM     56  C   UNL A   1      39.908  28.126  27.620  1.00  0.00     0.029 A 
ATOM     57  C   UNL A   1      40.823  27.968  28.745  1.00  0.00     0.049 A 
ATOM     58  H   UNL A   1      40.685  28.857  30.625  1.00  0.00     0.167 HD
ATOM     59  C   UNL A   1      40.459  31.035  34.416  1.00  0.00     0.034 A 
ATOM     60  C   UNL A   1      41.926  27.193  28.753  1.00  0.00     0.034 A 
ATOM     61  C   UNL A   1      41.559  30.122  34.573  1.00  0.00     0.049 A 
ATOM     62  C   UNL A   1      42.737  27.092  30.017  1.00  0.00     0.074 A 
ATOM     63  C   UNL A   1      42.362  29.922  35.681  1.00  0.00     0.029 A 
ATOM     64  N   UNL A   1      42.011  29.255  33.590  1.00  0.00    -0.354 N 
ATOM     65  N   UNL A   1      42.555  27.693  31.168  1.00  0.00    -0.248 NA
ATOM     66  C   UNL A   1      43.882  26.169  29.997  1.00  0.00     0.031 C 
ATOM     67  C   UNL A   1      43.312  28.945  35.362  1.00  0.00     0.029 A 
ATOM     68  C   UNL A   1      43.083  28.517  34.064  1.00  0.00     0.049 A 
ATOM     69  H   UNL A   1      41.627  29.176  32.686  1.00  0.00     0.167 HD
ATOM     70  C   UNL A   1      43.532  27.191  32.020  1.00  0.00     0.074 A 
ATOM     71  C   UNL A   1      44.289  26.219  31.258  1.00  0.00     0.031 C 
ATOM     72  C   UNL A   1      43.790  27.514  33.312  1.00  0.00     0.034 A 
BRANCH  59  73
ATOM     73  C   UNL A   1      40.114  31.945  35.567  1.00  0.00     0.023 A 
ATOM     74  C   UNL A   1      40.859  33.127  35.769  1.00  0.00     0.012 A 
ATOM     75  C   UNL A   1      39.030  31.661  36.420  1.00  0.00     0.148 A 
ATOM     76  C   UNL A   1      40.558  33.988  36.822  1.00  0.00     0.002 A 
ATOM     77  C   UNL A   1      38.705  32.550  37.440  1.00  0.00     0.091 A 
ATOM     78  F   UNL A   1      38.346  30.525  36.229  1.00  0.00    -0.205 F 
ATOM     79  C   UNL A   1      39.475  33.705  37.651  1.00  0.00     0.022 A 
BRANCH  77  80
ATOM     80  S   UNL A   1      37.281  32.318  38.510  1.00  0.00     0.127 S 
ATOM     81  O   UNL A   1      37.138  30.862  38.499  1.00  0.00    -0.237 OA
ATOM     82  O   UNL A   1      37.757  32.873  39.779  1.00  0.00    -0.237 OA
ATOM     83  O   UNL A   1      36.190  33.059  37.895  1.00  0.00    -0.744 OA
ENDBRANCH  77  80
ENDBRANCH  59  73
BRANCH  60  84
ATOM     84  C   UNL A   1      42.278  26.385  27.552  1.00  0.00     0.023 A 
ATOM     85  C   UNL A   1      43.005  26.984  26.504  1.00  0.00     0.012 A 
ATOM     86  C   UNL A   1      41.918  25.028  27.449  1.00  0.00     0.148 A 
ATOM     87  C   UNL A   1      43.332  26.259  25.358  1.00  0.00     0.002 A 
ATOM     88  C   UNL A   1      42.295  24.296  26.328  1.00  0.00     0.091 A 
ATOM     89  F   UNL A   1      41.220  24.478  28.452  1.00  0.00    -0.205 F 
ATOM     90  C   UNL A   1      42.985  24.913  25.274  1.00  0.00     0.022 A 
BRANCH  88  91
ATOM     91  S   UNL A   1      42.004  22.528  26.192  1.00  0.00     0.127 S 
ATOM     92  O   UNL A   1      42.690  22.208  24.943  1.00  0.00    -0.237 OA
ATOM     93  O   UNL A   1      42.655  22.021  27.400  1.00  0.00    -0.237 OA
ATOM     94  O   UNL A   1      40.556  22.368  26.180  1.00  0.00    -0.744 OA
ENDBRANCH  88  91
ENDBRANCH  60  84
BRANCH  72  95
ATOM     95  C   UNL A   1      44.911  26.779  34.001  1.00  0.00     0.023 A 
ATOM     96  C   UNL A   1      46.230  27.268  33.918  1.00  0.00     0.012 A 
ATOM     97  C   UNL A   1      44.647  25.631  34.773  1.00  0.00     0.148 A 
ATOM     98  C   UNL A   1      47.275  26.600  34.555  1.00  0.00     0.002 A 
ATOM     99  C   UNL A   1      45.687  25.000  35.447  1.00  0.00     0.091 A 
ATOM    100  F   UNL A   1      43.390  25.167  34.826  1.00  0.00    -0.205 F 
ATOM    101  C   UNL A   1      47.003  25.474  35.326  1.00  0.00     0.022 A 
BRANCH  99 102
ATOM    102  S   UNL A   1      45.404  23.605  36.543  1.00  0.00     0.127 S 
ATOM    103  O   UNL A   1      44.339  24.112  37.404  1.00  0.00    -0.237 OA
ATOM    104  O   UNL A   1      44.988  22.554  35.612  1.00  0.00    -0.237 OA
ATOM    105  O   UNL A   1      46.680  23.352  37.200  1.00  0.00    -0.744 OA
ENDBRANCH  99 102
ENDBRANCH  72  95
ENDBRANCH  46  47
ENDBRANCH  38  41
ENDBRANCH  36  37
ENDBRANCH  35  36
ENDBRANCH   1  35
TORSDOF 19
ENDMDL
MODEL 2
REMARK VINA RESULT:     -12.8      1.895      2.466
REMARK SMILES C[NH+]1CCC([NH+]2CCC(Oc3ccc4ccccc4c3)(C(=O)NCCCCCCNC(=O)c3ccc(-c4c5nc(c(-c6cccc(S(=O)(=O)[O-])c6F)c6ccc([nH]6)c(-c6cccc(S(=O)(=O)[O-])c6F)c6nc(c(-c7cccc(S(=O)(=O)[O-])c7F)c7ccc4[nH]7)C=C6)C=C5)cc3)CC2)CC1
REMARK SMILES IDX 27 1 26 2 25 3 24 4 23 5 21 6 22 7 9 9 6 10 7 11 97 12 8 14
REMARK SMILES IDX 96 15 5 16 1 17 2 18 3 19 99 20 4 22 98 23 10 24 11 25 12 26
REMARK SMILES IDX 20 27 13 28 19 29 14 30 18 31 15 32 17 33 16 34 28 35 29 36
REMARK SMILES IDX 30 37 31 38 32 40 33 41 34 42 95 43 35 44 94 45 36 46 37 47
REMARK SMILES IDX 38 48 88 49 39 50 93 51 87 52 89 53 40 54 92 55 86 56 85 57
REMARK SMILES IDX 41 59 73 60 53 61 72 62 54 63 57 64 71 65 90 66 55 67 56 68
REMARK SMILES IDX 70 70 91 71 58 72 42 73 43 74 51 75 44 76 46 77 52 78 45 79
REMARK SMILES IDX 47 80 48 81 49 82 50 83 74 84 75 85 83 86 76 87 78 88 84 89
REMARK SMILES IDX 77 90 79 91 80 92 81 93 82 94 59 95 60 96 68 97 61 98 63 99
REMARK SMILES IDX 69 100 62 101 64 102 65 103 66 104 67 105
REMARK H PARENT 23 8 6 13 2 21 30 39 89 58 57 69
REMARK Flexibility Score: inf
ROOT
ATOM      1  C   UNL A   1      31.621  30.437  25.750  1.00  0.00     0.002 C 
ENDROOT
BRANCH   1   2
ATOM      2  C   UNL A   1      31.828  29.212  26.646  1.00  0.00     0.002 C 
BRANCH   2   3
ATOM      3  C   UNL A   1      32.989  28.299  26.235  1.00  0.00     0.021 C 
BRANCH   3   4
ATOM      4  C   UNL A   1      32.696  26.808  26.410  1.00  0.00     0.116 C 
BRANCH   4   5
ATOM      5  N   UNL A   1      33.828  26.010  25.979  1.00  0.00    -0.353 N 
ATOM      6  C   UNL A   1      34.002  25.248  24.860  1.00  0.00     0.264 C 
ATOM      7  O   UNL A   1      35.106  24.704  24.745  1.00  0.00    -0.270 OA
ATOM      8  H   UNL A   1      34.596  26.018  26.595  1.00  0.00     0.163 HD
BRANCH   6   9
ATOM      9  C   UNL A   1      32.873  25.092  23.796  1.00  0.00     0.197 C 
ATOM     10  N   UNL A   1      32.348  22.196  23.673  1.00  0.00    -0.332 N 
ATOM     11  C   UNL A   1      31.952  22.993  24.837  1.00  0.00     0.267 C 
ATOM     12  C   UNL A   1      33.559  22.744  23.037  1.00  0.00     0.267 C 
ATOM     13  H   UNL A   1      31.590  22.272  22.996  1.00  0.00     0.348 HD
ATOM     14  C   UNL A   1      31.635  24.407  24.382  1.00  0.00     0.120 C 
ATOM     15  C   UNL A   1      33.394  24.222  22.631  1.00  0.00     0.120 C 
BRANCH  10  16
ATOM     16  C   UNL A   1      32.450  20.743  23.958  1.00  0.00     0.195 C 
ATOM     17  C   UNL A   1      33.941  16.696  23.888  1.00  0.00     0.332 C 
ATOM     18  N   UNL A   1      33.701  18.116  23.647  1.00  0.00    -0.337 N 
ATOM     19  C   UNL A   1      33.951  18.902  24.861  1.00  0.00     0.268 C 
ATOM     20  C   UNL A   1      32.342  18.345  23.148  1.00  0.00     0.268 C 
ATOM     21  H   UNL A   1      34.355  18.425  22.928  1.00  0.00     0.347 HD
ATOM     22  C   UNL A   1      33.824  20.395  24.567  1.00  0.00     0.126 C 
ATOM     23  C   UNL A   1      32.148  19.814  22.769  1.00  0.00     0.126 C 
ENDBRANCH  10  16
BRANCH   9  24
ATOM     24  O   UNL A   1      32.692  26.479  23.411  1.00  0.00    -0.477 OA
BRANCH  24  25
ATOM     25  C   UNL A   1      31.434  26.981  23.281  1.00  0.00     0.121 A 
ATOM     26  C   UNL A   1      30.328  26.393  23.883  1.00  0.00     0.047 A 
ATOM     27  C   UNL A   1      31.306  28.223  22.660  1.00  0.00     0.055 A 
ATOM     28  C   UNL A   1      29.069  26.981  23.761  1.00  0.00     0.012 A 
ATOM     29  C   UNL A   1      30.054  28.851  22.564  1.00  0.00    -0.015 A 
ATOM     30  C   UNL A   1      28.916  28.205  23.097  1.00  0.00    -0.018 A 
ATOM     31  C   UNL A   1      29.905  30.111  21.962  1.00  0.00     0.009 A 
ATOM     32  C   UNL A   1      27.658  28.814  22.982  1.00  0.00     0.009 A 
ATOM     33  C   UNL A   1      28.649  30.712  21.869  1.00  0.00     0.001 A 
ATOM     34  C   UNL A   1      27.525  30.060  22.369  1.00  0.00     0.001 A 
ENDBRANCH  24  25
ENDBRANCH   9  24
ENDBRANCH   6   9
ENDBRANCH   4   5
ENDBRANCH   3   4
ENDBRANCH   2   3
ENDBRANCH   1   2
BRANCH   1  35
ATOM     35  C   UNL A   1      31.415  31.757  26.499  1.00  0.00     0.021 C 
BRANCH  35  36
ATOM     36  C   UNL A   1      32.644  32.257  27.248  1.00  0.00     0.116 C 
BRANCH  36  37
ATOM     37  N   UNL A   1      32.529  33.663  27.599  1.00  0.00    -0.352 N 
ATOM     38  C   UNL A   1      33.222  34.375  28.542  1.00  0.00     0.251 C 
ATOM     39  H   UNL A   1      31.860  34.174  27.088  1.00  0.00     0.163 HD
ATOM     40  O   UNL A   1      32.845  35.510  28.846  1.00  0.00    -0.269 OA
BRANCH  38  41
ATOM     41  C   UNL A   1      34.408  33.788  29.198  1.00  0.00     0.039 A 
ATOM     42  C   UNL A   1      35.680  34.214  28.803  1.00  0.00     0.014 A 
ATOM     43  C   UNL A   1      34.274  32.795  30.173  1.00  0.00     0.014 A 
ATOM     44  C   UNL A   1      36.813  33.658  29.400  1.00  0.00     0.010 A 
ATOM     45  C   UNL A   1      35.401  32.300  30.822  1.00  0.00     0.010 A 
ATOM     46  C   UNL A   1      36.684  32.701  30.421  1.00  0.00    -0.014 A 
BRANCH  46  47
ATOM     47  C   UNL A   1      37.880  32.081  31.044  1.00  0.00     0.031 A 
ATOM     48  C   UNL A   1      38.445  32.647  32.322  1.00  0.00     0.074 A 
ATOM     49  C   UNL A   1      38.495  31.047  30.436  1.00  0.00     0.049 A 
ATOM     50  N   UNL A   1      39.487  32.256  33.009  1.00  0.00    -0.248 NA
ATOM     51  C   UNL A   1      37.767  33.827  32.887  1.00  0.00     0.031 C 
ATOM     52  C   UNL A   1      38.097  30.462  29.154  1.00  0.00     0.029 A 
ATOM     53  N   UNL A   1      39.596  30.319  30.806  1.00  0.00    -0.354 N 
ATOM     54  C   UNL A   1      39.611  33.157  34.060  1.00  0.00     0.074 A 
ATOM     55  C   UNL A   1      38.564  34.141  33.897  1.00  0.00     0.031 C 
ATOM     56  C   UNL A   1      38.936  29.458  28.850  1.00  0.00     0.029 A 
ATOM     57  C   UNL A   1      39.941  29.341  29.902  1.00  0.00     0.049 A 
ATOM     58  H   UNL A   1      40.092  30.480  31.641  1.00  0.00     0.167 HD
ATOM     59  C   UNL A   1      40.492  33.150  35.088  1.00  0.00     0.034 A 
ATOM     60  C   UNL A   1      40.950  28.448  29.924  1.00  0.00     0.034 A 
ATOM     61  C   UNL A   1      41.498  32.140  35.277  1.00  0.00     0.049 A 
ATOM     62  C   UNL A   1      41.872  28.418  31.114  1.00  0.00     0.074 A 
ATOM     63  C   UNL A   1      42.386  31.994  36.328  1.00  0.00     0.029 A 
ATOM     64  N   UNL A   1      41.752  31.104  34.391  1.00  0.00    -0.354 N 
ATOM     65  N   UNL A   1      41.874  29.183  32.179  1.00  0.00    -0.248 NA
ATOM     66  C   UNL A   1      42.903  27.370  31.126  1.00  0.00     0.031 C 
ATOM     67  C   UNL A   1      43.188  30.877  36.069  1.00  0.00     0.029 A 
ATOM     68  C   UNL A   1      42.782  30.312  34.870  1.00  0.00     0.049 A 
ATOM     69  H   UNL A   1      41.271  30.953  33.545  1.00  0.00     0.167 HD
ATOM     70  C   UNL A   1      42.875  28.684  33.005  1.00  0.00     0.074 A 
ATOM     71  C   UNL A   1      43.441  27.537  32.326  1.00  0.00     0.031 C 
ATOM     72  C   UNL A   1      43.298  29.141  34.210  1.00  0.00     0.034 A 
BRANCH  59  73
ATOM     73  C   UNL A   1      40.366  34.239  36.123  1.00  0.00     0.023 A 
ATOM     74  C   UNL A   1      40.711  35.565  35.785  1.00  0.00     0.012 A 
ATOM     75  C   UNL A   1      39.866  33.965  37.411  1.00  0.00     0.148 A 
ATOM     76  C   UNL A   1      40.600  36.591  36.722  1.00  0.00     0.002 A 
ATOM     77  C   UNL A   1      39.712  35.003  38.325  1.00  0.00     0.091 A 
ATOM     78  F   UNL A   1      39.563  32.697  37.723  1.00  0.00    -0.205 F 
ATOM     79  C   UNL A   1      40.091  36.312  37.987  1.00  0.00     0.022 A 
BRANCH  77  80
ATOM     80  S   UNL A   1      38.990  34.762  39.952  1.00  0.00     0.127 S 
ATOM     81  O   UNL A   1      38.690  36.138  40.349  1.00  0.00    -0.237 OA
ATOM     82  O   UNL A   1      37.814  33.946  39.648  1.00  0.00    -0.237 OA
ATOM     83  O   UNL A   1      40.007  34.089  40.747  1.00  0.00    -0.744 OA
ENDBRANCH  77  80
ENDBRANCH  59  73
BRANCH  60  84
ATOM     84  C   UNL A   1      41.088  27.452  28.824  1.00  0.00     0.023 A 
ATOM     85  C   UNL A   1      40.280  26.298  28.831  1.00  0.00     0.012 A 
ATOM     86  C   UNL A   1      41.996  27.648  27.767  1.00  0.00     0.148 A 
ATOM     87  C   UNL A   1      40.401  25.338  27.826  1.00  0.00     0.002 A 
ATOM     88  C   UNL A   1      42.072  26.715  26.739  1.00  0.00     0.091 A 
ATOM     89  F   UNL A   1      42.762  28.749  27.783  1.00  0.00    -0.205 F 
ATOM     90  C   UNL A   1      41.290  25.550  26.776  1.00  0.00     0.022 A 
BRANCH  88  91
ATOM     91  S   UNL A   1      43.094  26.968  25.283  1.00  0.00     0.127 S 
ATOM     92  O   UNL A   1      43.020  25.661  24.635  1.00  0.00    -0.237 OA
ATOM     93  O   UNL A   1      42.375  28.040  24.592  1.00  0.00    -0.237 OA
ATOM     94  O   UNL A   1      44.405  27.354  25.786  1.00  0.00    -0.744 OA
ENDBRANCH  88  91
ENDBRANCH  60  84
BRANCH  72  95
ATOM     95  C   UNL A   1      44.398  28.375  34.896  1.00  0.00     0.023 A 
ATOM     96  C   UNL A   1      45.743  28.602  34.541  1.00  0.00     0.012 A 
ATOM     97  C   UNL A   1      44.102  27.464  35.930  1.00  0.00     0.148 A 
ATOM     98  C   UNL A   1      46.772  27.903  35.171  1.00  0.00     0.002 A 
ATOM     99  C   UNL A   1      45.136  26.809  36.589  1.00  0.00     0.091 A 
ATOM    100  F   UNL A   1      42.817  27.244  36.242  1.00  0.00    -0.205 F 
ATOM    101  C   UNL A   1      46.469  27.015  36.200  1.00  0.00     0.022 A 
BRANCH  99 102
ATOM    102  S   UNL A   1      44.839  25.728  37.992  1.00  0.00     0.127 S 
ATOM    103  O   UNL A   1      44.293  24.539  37.343  1.00  0.00    -0.237 OA
ATOM    104  O   UNL A   1      46.183  25.558  38.548  1.00  0.00    -0.237 OA
ATOM    105  O   UNL A   1      43.919  26.451  38.861  1.00  0.00    -0.744 OA
ENDBRANCH  99 102
ENDBRANCH  72  95
ENDBRANCH  46  47
ENDBRANCH  38  41
ENDBRANCH  36  37
ENDBRANCH  35  36
ENDBRANCH   1  35
TORSDOF 19
ENDMDL
MODEL 3
REMARK VINA RESULT:     -12.7      2.198      7.693
REMARK SMILES C[NH+]1CCC([NH+]2CCC(Oc3ccc4ccccc4c3)(C(=O)NCCCCCCNC(=O)c3ccc(-c4c5nc(c(-c6cccc(S(=O)(=O)[O-])c6F)c6ccc([nH]6)c(-c6cccc(S(=O)(=O)[O-])c6F)c6nc(c(-c7cccc(S(=O)(=O)[O-])c7F)c7ccc4[nH]7)C=C6)C=C5)cc3)CC2)CC1
REMARK SMILES IDX 27 1 26 2 25 3 24 4 23 5 21 6 22 7 9 9 6 10 7 11 97 12 8 14
REMARK SMILES IDX 96 15 5 16 1 17 2 18 3 19 99 20 4 22 98 23 10 24 11 25 12 26
REMARK SMILES IDX 20 27 13 28 19 29 14 30 18 31 15 32 17 33 16 34 28 35 29 36
REMARK SMILES IDX 30 37 31 38 32 40 33 41 34 42 95 43 35 44 94 45 36 46 37 47
REMARK SMILES IDX 38 48 88 49 39 50 93 51 87 52 89 53 40 54 92 55 86 56 85 57
REMARK SMILES IDX 41 59 73 60 53 61 72 62 54 63 57 64 71 65 90 66 55 67 56 68
REMARK SMILES IDX 70 70 91 71 58 72 42 73 43 74 51 75 44 76 46 77 52 78 45 79
REMARK SMILES IDX 47 80 48 81 49 82 50 83 74 84 75 85 83 86 76 87 78 88 84 89
REMARK SMILES IDX 77 90 79 91 80 92 81 93 82 94 59 95 60 96 68 97 61 98 63 99
REMARK SMILES IDX 69 100 62 101 64 102 65 103 66 104 67 105
REMARK H PARENT 23 8 6 13 2 21 30 39 89 58 57 69
REMARK Flexibility Score: inf
ROOT
ATOM      1  C   UNL A   1      31.629  30.618  26.575  1.00  0.00     0.002 C 
ENDROOT
BRANCH   1   2
ATOM      2  C   UNL A   1      33.072  30.115  26.478  1.00  0.00     0.002 C 
BRANCH   2   3
ATOM      3  C   UNL A   1      33.347  28.794  27.207  1.00  0.00     0.021 C 
BRANCH   3   4
ATOM      4  C   UNL A   1      33.421  27.580  26.281  1.00  0.00     0.116 C 
BRANCH   4   5
ATOM      5  N   UNL A   1      32.347  26.649  26.571  1.00  0.00    -0.353 N 
ATOM      6  C   UNL A   1      31.722  25.739  25.768  1.00  0.00     0.264 C 
ATOM      7  O   UNL A   1      30.853  25.047  26.313  1.00  0.00    -0.270 OA
ATOM      8  H   UNL A   1      32.015  26.679  27.497  1.00  0.00     0.163 HD
BRANCH   6   9
ATOM      9  C   UNL A   1      32.097  25.584  24.263  1.00  0.00     0.197 C 
ATOM     10  N   UNL A   1      32.455  22.686  23.871  1.00  0.00    -0.332 N 
ATOM     11  C   UNL A   1      31.127  23.266  24.089  1.00  0.00     0.267 C 
ATOM     12  C   UNL A   1      33.498  23.461  24.565  1.00  0.00     0.267 C 
ATOM     13  H   UNL A   1      32.643  22.755  22.871  1.00  0.00     0.348 HD
ATOM     14  C   UNL A   1      31.107  24.677  23.526  1.00  0.00     0.120 C 
ATOM     15  C   UNL A   1      33.500  24.947  24.154  1.00  0.00     0.120 C 
BRANCH  10  16
ATOM     16  C   UNL A   1      32.521  21.233  24.164  1.00  0.00     0.195 C 
ATOM     17  C   UNL A   1      33.883  17.141  24.081  1.00  0.00     0.332 C 
ATOM     18  N   UNL A   1      33.680  18.566  23.836  1.00  0.00    -0.337 N 
ATOM     19  C   UNL A   1      33.991  19.352  25.036  1.00  0.00     0.268 C 
ATOM     20  C   UNL A   1      32.313  18.833  23.377  1.00  0.00     0.268 C 
ATOM     21  H   UNL A   1      34.321  18.849  23.095  1.00  0.00     0.347 HD
ATOM     22  C   UNL A   1      33.902  20.847  24.734  1.00  0.00     0.126 C 
ATOM     23  C   UNL A   1      32.153  20.305  22.992  1.00  0.00     0.126 C 
ENDBRANCH  10  16
BRANCH   9  24
ATOM     24  O   UNL A   1      32.089  26.975  23.854  1.00  0.00    -0.477 OA
BRANCH  24  25
ATOM     25  C   UNL A   1      30.903  27.598  23.614  1.00  0.00     0.121 A 
ATOM     26  C   UNL A   1      29.701  26.907  23.514  1.00  0.00     0.047 A 
ATOM     27  C   UNL A   1      30.899  28.992  23.646  1.00  0.00     0.055 A 
ATOM     28  C   UNL A   1      28.507  27.601  23.322  1.00  0.00     0.012 A 
ATOM     29  C   UNL A   1      29.701  29.709  23.496  1.00  0.00    -0.015 A 
ATOM     30  C   UNL A   1      28.493  29.002  23.302  1.00  0.00    -0.018 A 
ATOM     31  C   UNL A   1      29.671  31.112  23.546  1.00  0.00     0.009 A 
ATOM     32  C   UNL A   1      27.297  29.713  23.125  1.00  0.00     0.009 A 
ATOM     33  C   UNL A   1      28.470  31.805  23.385  1.00  0.00     0.001 A 
ATOM     34  C   UNL A   1      27.286  31.107  23.164  1.00  0.00     0.001 A 
ENDBRANCH  24  25
ENDBRANCH   9  24
ENDBRANCH   6   9
ENDBRANCH   4   5
ENDBRANCH   3   4
ENDBRANCH   2   3
ENDBRANCH   1   2
BRANCH   1  35
ATOM     35  C   UNL A   1      31.485  32.114  26.874  1.00  0.00     0.021 C 
BRANCH  35  36
ATOM     36  C   UNL A   1      32.798  32.826  27.177  1.00  0.00     0.116 C 
BRANCH  36  37
ATOM     37  N   UNL A   1      32.582  34.192  27.627  1.00  0.00    -0.352 N 
ATOM     38  C   UNL A   1      33.126  34.841  28.701  1.00  0.00     0.251 C 
ATOM     39  H   UNL A   1      31.956  34.723  27.082  1.00  0.00     0.163 HD
ATOM     40  O   UNL A   1      32.668  35.931  29.051  1.00  0.00    -0.269 OA
BRANCH  38  41
ATOM     41  C   UNL A   1      34.251  34.238  29.446  1.00  0.00     0.039 A 
ATOM     42  C   UNL A   1      35.551  34.399  28.955  1.00  0.00     0.014 A 
ATOM     43  C   UNL A   1      34.028  33.487  30.604  1.00  0.00     0.014 A 
ATOM     44  C   UNL A   1      36.624  33.822  29.636  1.00  0.00     0.010 A 
ATOM     45  C   UNL A   1      35.107  32.980  31.323  1.00  0.00     0.010 A 
ATOM     46  C   UNL A   1      36.413  33.114  30.832  1.00  0.00    -0.014 A 
BRANCH  46  47
ATOM     47  C   UNL A   1      37.542  32.471  31.549  1.00  0.00     0.031 A 
ATOM     48  C   UNL A   1      38.297  31.336  30.905  1.00  0.00     0.074 A 
ATOM     49  C   UNL A   1      37.857  32.865  32.799  1.00  0.00     0.049 A 
ATOM     50  N   UNL A   1      39.299  30.639  31.374  1.00  0.00    -0.248 NA
ATOM     51  C   UNL A   1      37.846  30.906  29.570  1.00  0.00     0.031 C 
ATOM     52  C   UNL A   1      37.150  33.895  33.564  1.00  0.00     0.029 A 
ATOM     53  N   UNL A   1      38.839  32.433  33.652  1.00  0.00    -0.354 N 
ATOM     54  C   UNL A   1      39.573  29.671  30.415  1.00  0.00     0.074 A 
ATOM     55  C   UNL A   1      38.604  29.843  29.355  1.00  0.00     0.031 C 
ATOM     56  C   UNL A   1      37.730  34.021  34.769  1.00  0.00     0.029 A 
ATOM     57  C   UNL A   1      38.832  33.070  34.871  1.00  0.00     0.049 A 
ATOM     58  H   UNL A   1      39.489  31.732  33.414  1.00  0.00     0.167 HD
ATOM     59  C   UNL A   1      40.562  28.747  30.397  1.00  0.00     0.034 A 
ATOM     60  C   UNL A   1      39.630  32.909  35.945  1.00  0.00     0.034 A 
ATOM     61  C   UNL A   1      41.556  28.613  31.427  1.00  0.00     0.049 A 
ATOM     62  C   UNL A   1      40.764  31.923  35.870  1.00  0.00     0.074 A 
ATOM     63  C   UNL A   1      42.649  27.766  31.466  1.00  0.00     0.029 A 
ATOM     64  N   UNL A   1      41.578  29.348  32.602  1.00  0.00    -0.354 N 
ATOM     65  N   UNL A   1      41.104  31.125  34.886  1.00  0.00    -0.248 NA
ATOM     66  C   UNL A   1      41.654  31.847  37.038  1.00  0.00     0.031 C 
ATOM     67  C   UNL A   1      43.323  27.977  32.674  1.00  0.00     0.029 A 
ATOM     68  C   UNL A   1      42.665  28.975  33.375  1.00  0.00     0.049 A 
ATOM     69  H   UNL A   1      40.917  30.034  32.852  1.00  0.00     0.167 HD
ATOM     70  C   UNL A   1      42.268  30.486  35.298  1.00  0.00     0.074 A 
ATOM     71  C   UNL A   1      42.587  31.007  36.611  1.00  0.00     0.031 C 
ATOM     72  C   UNL A   1      43.000  29.542  34.655  1.00  0.00     0.034 A 
BRANCH  59  73
ATOM     73  C   UNL A   1      40.652  27.844  29.192  1.00  0.00     0.023 A 
ATOM     74  C   UNL A   1      39.839  26.692  29.123  1.00  0.00     0.012 A 
ATOM     75  C   UNL A   1      41.500  28.153  28.112  1.00  0.00     0.148 A 
ATOM     76  C   UNL A   1      39.899  25.842  28.020  1.00  0.00     0.002 A 
ATOM     77  C   UNL A   1      41.519  27.327  26.993  1.00  0.00     0.091 A 
ATOM     78  F   UNL A   1      42.282  29.239  28.202  1.00  0.00    -0.205 F 
ATOM     79  C   UNL A   1      40.731  26.165  26.951  1.00  0.00     0.022 A 
BRANCH  77  80
ATOM     80  S   UNL A   1      42.494  27.698  25.531  1.00  0.00     0.127 S 
ATOM     81  O   UNL A   1      41.902  28.963  25.094  1.00  0.00    -0.237 OA
ATOM     82  O   UNL A   1      43.844  27.817  26.084  1.00  0.00    -0.237 OA
ATOM     83  O   UNL A   1      42.306  26.573  24.625  1.00  0.00    -0.744 OA
ENDBRANCH  77  80
ENDBRANCH  59  73
BRANCH  60  84
ATOM     84  C   UNL A   1      39.437  33.763  37.151  1.00  0.00     0.023 A 
ATOM     85  C   UNL A   1      39.915  35.089  37.143  1.00  0.00     0.012 A 
ATOM     86  C   UNL A   1      38.772  33.280  38.293  1.00  0.00     0.148 A 
ATOM     87  C   UNL A   1      39.767  35.906  38.264  1.00  0.00     0.002 A 
ATOM     88  C   UNL A   1      38.579  34.118  39.386  1.00  0.00     0.091 A 
ATOM     89  F   UNL A   1      38.332  32.014  38.285  1.00  0.00    -0.205 F 
ATOM     90  C   UNL A   1      39.092  35.424  39.382  1.00  0.00     0.022 A 
BRANCH  88  91
ATOM     91  S   UNL A   1      37.610  33.624  40.817  1.00  0.00     0.127 S 
ATOM     92  O   UNL A   1      36.417  33.060  40.189  1.00  0.00    -0.237 OA
ATOM     93  O   UNL A   1      38.491  32.646  41.455  1.00  0.00    -0.237 OA
ATOM     94  O   UNL A   1      37.404  34.840  41.591  1.00  0.00    -0.744 OA
ENDBRANCH  88  91
ENDBRANCH  60  84
BRANCH  72  95
ATOM     95  C   UNL A   1      44.244  29.042  35.342  1.00  0.00     0.023 A 
ATOM     96  C   UNL A   1      45.490  29.640  35.067  1.00  0.00     0.012 A 
ATOM     97  C   UNL A   1      44.170  28.010  36.299  1.00  0.00     0.148 A 
ATOM     98  C   UNL A   1      46.649  29.190  35.699  1.00  0.00     0.002 A 
ATOM     99  C   UNL A   1      45.322  27.602  36.963  1.00  0.00     0.091 A 
ATOM    100  F   UNL A   1      42.981  27.437  36.534  1.00  0.00    -0.205 F 
ATOM    101  C   UNL A   1      46.563  28.180  36.653  1.00  0.00     0.022 A 
BRANCH  99 102
ATOM    102  S   UNL A   1      45.281  26.378  38.277  1.00  0.00     0.127 S 
ATOM    103  O   UNL A   1      45.339  25.128  37.523  1.00  0.00    -0.237 OA
ATOM    104  O   UNL A   1      46.494  26.690  39.034  1.00  0.00    -0.237 OA
ATOM    105  O   UNL A   1      44.041  26.619  39.004  1.00  0.00    -0.744 OA
ENDBRANCH  99 102
ENDBRANCH  72  95
ENDBRANCH  46  47
ENDBRANCH  38  41
ENDBRANCH  36  37
ENDBRANCH  35  36
ENDBRANCH   1  35
TORSDOF 19
ENDMDL
