MODEL 1
REMARK VINA RESULT:     -11.5      0.000      0.000
REMARK SMILES C[C@]12CC[C@@H]3[C@@H](CCC4=C/C(=N\OCC(=O)N5CCC[C@@H]5C(=O)NCCCCCCNC(=O)c5ccc(-c6c7nc(c(-c8cccc(S(=O)(=O)[O-])c8F)c8ccc([nH]8)c(-c8cccc(S(=O)(=O)[O-])c8F)c8nc(c(-c9cccc(S(=O)(=O)[O-])c9F)c9ccc6[nH]9)C=C8)C=C7)cc5)CC[C@@]43C)[C@@H]1CC[C@@H]2O
REMARK SMILES IDX 26 1 25 2 24 3 22 4 23 5 21 7 17 8 18 9 19 10 20 11 15 12
REMARK SMILES IDX 16 13 14 14 13 15 12 16 1 17 2 18 3 19 101 20 104 21 4 22
REMARK SMILES IDX 6 23 102 24 103 25 5 26 7 27 99 28 8 29 9 30 98 31 100 32
REMARK SMILES IDX 10 33 97 34 11 35 105 36 27 38 28 39 29 40 30 41 31 42 32 43
REMARK SMILES IDX 33 45 34 46 35 47 96 48 36 49 95 50 37 51 38 52 39 53 89 54
REMARK SMILES IDX 40 55 94 56 88 57 90 58 41 59 93 60 87 61 86 62 42 64 74 65
REMARK SMILES IDX 54 66 73 67 55 68 58 69 72 70 91 71 56 72 57 73 71 75 92 76
REMARK SMILES IDX 59 77 43 78 44 79 52 80 45 81 47 82 53 83 46 84 48 85 49 86
REMARK SMILES IDX 50 87 51 88 75 89 76 90 84 91 77 92 79 93 85 94 78 95 80 96
REMARK SMILES IDX 81 97 82 98 83 99 60 100 61 101 69 102 62 103 64 104 70 105
REMARK SMILES IDX 63 106 65 107 66 108 67 109 68 110
REMARK H PARENT 24 6 105 37 31 44 90 63 58 74
REMARK Flexibility Score: inf
ROOT
ATOM      1  C   UNL A   1      40.009  25.754  28.376  1.00  0.00     0.021 C 
ENDROOT
BRANCH   1   2
ATOM      2  C   UNL A   1      41.294  25.428  27.624  1.00  0.00     0.116 C 
BRANCH   2   3
ATOM      3  N   UNL A   1      42.113  24.467  28.332  1.00  0.00    -0.354 N 
ATOM      4  C   UNL A   1      42.858  23.431  27.859  1.00  0.00     0.242 C 
ATOM      5  O   UNL A   1      43.492  22.769  28.693  1.00  0.00    -0.273 OA
ATOM      6  H   UNL A   1      42.133  24.580  29.310  1.00  0.00     0.163 HD
BRANCH   4   7
ATOM      7  C   UNL A   1      42.817  22.927  26.404  1.00  0.00     0.174 C 
ATOM      8  N   UNL A   1      42.939  21.506  26.093  1.00  0.00    -0.328 N 
ATOM      9  C   UNL A   1      44.213  21.222  25.444  1.00  0.00     0.120 C 
ATOM     10  C   UNL A   1      45.060  22.458  25.683  1.00  0.00     0.024 C 
ATOM     11  C   UNL A   1      44.019  23.568  25.685  1.00  0.00     0.037 C 
BRANCH   8  12
ATOM     12  C   UNL A   1      41.992  20.513  26.193  1.00  0.00     0.264 C 
ATOM     13  O   UNL A   1      42.334  19.382  26.561  1.00  0.00    -0.271 OA
BRANCH  12  14
ATOM     14  C   UNL A   1      40.509  20.749  25.844  1.00  0.00     0.363 C 
BRANCH  14  15
ATOM     15  O   UNL A   1      39.543  21.112  26.815  1.00  0.00    -0.385 OA
BRANCH  15  16
ATOM     16  N   UNL A   1      39.104  22.404  26.522  1.00  0.00    -0.091 NA
ATOM     17  C   UNL A   1      30.938  24.632  24.102  1.00  0.00     0.014 C 
ATOM     18  C   UNL A   1      32.129  24.278  25.047  1.00  0.00    -0.003 C 
ATOM     19  C   UNL A   1      33.300  25.103  24.536  1.00  0.00     0.010 C 
ATOM     20  C   UNL A   1      32.447  22.763  25.175  1.00  0.00     0.001 C 
ATOM     21  C   UNL A   1      31.772  24.475  26.532  1.00  0.00     0.120 C 
ATOM     22  C   UNL A   1      33.892  24.476  23.265  1.00  0.00     0.005 C 
ATOM     23  C   UNL A   1      33.076  22.134  23.935  1.00  0.00    -0.003 C 
ATOM     24  C   UNL A   1      31.132  22.239  25.799  1.00  0.00     0.007 C 
ATOM     25  C   UNL A   1      30.680  23.412  26.726  1.00  0.00     0.032 C 
ATOM     26  C   UNL A   1      34.270  22.987  23.424  1.00  0.00     0.002 C 
ATOM     27  C   UNL A   1      33.548  20.681  24.092  1.00  0.00     0.008 C 
ATOM     28  C   UNL A   1      35.689  22.794  24.114  1.00  0.00    -0.008 C 
ATOM     29  C   UNL A   1      34.786  20.468  24.971  1.00  0.00     0.032 C 
ATOM     30  C   UNL A   1      35.876  21.514  24.932  1.00  0.00    -0.062 C 
ATOM     31  C   UNL A   1      36.079  23.935  25.093  1.00  0.00     0.018 C 
ATOM     32  C   UNL A   1      36.687  22.804  22.921  1.00  0.00     0.016 C 
ATOM     33  C   UNL A   1      36.951  21.353  25.744  1.00  0.00     0.027 C 
ATOM     34  C   UNL A   1      37.499  23.865  25.617  1.00  0.00     0.061 C 
ATOM     35  C   UNL A   1      37.926  22.464  25.989  1.00  0.00     0.080 C 
BRANCH  21  36
ATOM     36  O   UNL A   1      31.399  25.781  26.890  1.00  0.00    -0.393 OA
ATOM     37  H   UNL A   1      32.193  26.297  27.102  1.00  0.00     0.210 HD
ENDBRANCH  21  36
ENDBRANCH  15  16
ENDBRANCH  14  15
ENDBRANCH  12  14
ENDBRANCH   8  12
ENDBRANCH   4   7
ENDBRANCH   2   3
ENDBRANCH   1   2
BRANCH   1  38
ATOM     38  C   UNL A   1      39.848  27.217  28.792  1.00  0.00     0.002 C 
BRANCH  38  39
ATOM     39  C   UNL A   1      39.886  27.491  30.298  1.00  0.00     0.002 C 
BRANCH  39  40
ATOM     40  C   UNL A   1      38.589  27.220  31.062  1.00  0.00     0.021 C 
BRANCH  40  41
ATOM     41  C   UNL A   1      38.592  27.613  32.536  1.00  0.00     0.116 C 
BRANCH  41  42
ATOM     42  N   UNL A   1      37.703  28.725  32.831  1.00  0.00    -0.352 N 
ATOM     43  C   UNL A   1      37.910  30.068  32.646  1.00  0.00     0.251 C 
ATOM     44  H   UNL A   1      36.832  28.480  33.217  1.00  0.00     0.163 HD
ATOM     45  O   UNL A   1      37.083  30.879  33.069  1.00  0.00    -0.269 OA
BRANCH  43  46
ATOM     46  C   UNL A   1      39.133  30.545  31.966  1.00  0.00     0.039 A 
ATOM     47  C   UNL A   1      39.097  30.750  30.585  1.00  0.00     0.014 A 
ATOM     48  C   UNL A   1      40.304  30.801  32.683  1.00  0.00     0.014 A 
ATOM     49  C   UNL A   1      40.220  31.263  29.931  1.00  0.00     0.010 A 
ATOM     50  C   UNL A   1      41.396  31.384  32.042  1.00  0.00     0.010 A 
ATOM     51  C   UNL A   1      41.367  31.616  30.659  1.00  0.00    -0.014 A 
BRANCH  51  52
ATOM     52  C   UNL A   1      42.541  32.236  29.989  1.00  0.00     0.031 A 
ATOM     53  C   UNL A   1      43.757  31.410  29.663  1.00  0.00     0.074 A 
ATOM     54  C   UNL A   1      42.543  33.562  29.743  1.00  0.00     0.049 A 
ATOM     55  N   UNL A   1      44.887  31.785  29.124  1.00  0.00    -0.248 NA
ATOM     56  C   UNL A   1      43.706  29.981  30.012  1.00  0.00     0.031 C 
ATOM     57  C   UNL A   1      41.457  34.486  30.079  1.00  0.00     0.029 A 
ATOM     58  N   UNL A   1      43.499  34.368  29.177  1.00  0.00    -0.354 N 
ATOM     59  C   UNL A   1      45.692  30.652  29.101  1.00  0.00     0.074 A 
ATOM     60  C   UNL A   1      44.934  29.583  29.712  1.00  0.00     0.031 C 
ATOM     61  C   UNL A   1      41.805  35.728  29.709  1.00  0.00     0.029 A 
ATOM     62  C   UNL A   1      43.149  35.698  29.140  1.00  0.00     0.049 A 
ATOM     63  H   UNL A   1      44.354  34.026  28.829  1.00  0.00     0.167 HD
ATOM     64  C   UNL A   1      46.940  30.507  28.593  1.00  0.00     0.034 A 
ATOM     65  C   UNL A   1      43.836  36.774  28.711  1.00  0.00     0.034 A 
ATOM     66  C   UNL A   1      47.678  31.563  27.955  1.00  0.00     0.049 A 
ATOM     67  C   UNL A   1      45.210  36.580  28.127  1.00  0.00     0.074 A 
ATOM     68  C   UNL A   1      48.913  31.496  27.333  1.00  0.00     0.029 A 
ATOM     69  N   UNL A   1      47.260  32.882  27.870  1.00  0.00    -0.354 N 
ATOM     70  N   UNL A   1      45.891  35.471  27.970  1.00  0.00    -0.248 NA
ATOM     71  C   UNL A   1      45.896  37.780  27.626  1.00  0.00     0.031 C 
ATOM     72  C   UNL A   1      49.255  32.780  26.902  1.00  0.00     0.029 A 
ATOM     73  C   UNL A   1      48.217  33.642  27.219  1.00  0.00     0.049 A 
ATOM     74  H   UNL A   1      46.408  33.228  28.221  1.00  0.00     0.167 HD
ATOM     75  C   UNL A   1      47.065  35.832  27.320  1.00  0.00     0.074 A 
ATOM     76  C   UNL A   1      46.994  37.262  27.095  1.00  0.00     0.031 C 
ATOM     77  C   UNL A   1      48.114  35.055  26.954  1.00  0.00     0.034 A 
BRANCH  64  78
ATOM     78  C   UNL A   1      47.573  29.141  28.667  1.00  0.00     0.023 A 
ATOM     79  C   UNL A   1      48.219  28.733  29.854  1.00  0.00     0.012 A 
ATOM     80  C   UNL A   1      47.477  28.239  27.590  1.00  0.00     0.148 A 
ATOM     81  C   UNL A   1      48.792  27.466  29.952  1.00  0.00     0.002 A 
ATOM     82  C   UNL A   1      48.009  26.959  27.713  1.00  0.00     0.091 A 
ATOM     83  F   UNL A   1      46.876  28.649  26.464  1.00  0.00    -0.205 F 
ATOM     84  C   UNL A   1      48.678  26.577  28.887  1.00  0.00     0.022 A 
BRANCH  82  85
ATOM     85  S   UNL A   1      47.841  25.712  26.432  1.00  0.00     0.127 S 
ATOM     86  O   UNL A   1      48.928  26.077  25.523  1.00  0.00    -0.237 OA
ATOM     87  O   UNL A   1      48.063  24.473  27.180  1.00  0.00    -0.237 OA
ATOM     88  O   UNL A   1      46.498  25.865  25.892  1.00  0.00    -0.744 OA
ENDBRANCH  82  85
ENDBRANCH  64  78
BRANCH  65  89
ATOM     89  C   UNL A   1      43.215  38.128  28.764  1.00  0.00     0.023 A 
ATOM     90  C   UNL A   1      42.343  38.533  27.735  1.00  0.00     0.012 A 
ATOM     91  C   UNL A   1      43.468  39.009  29.835  1.00  0.00     0.148 A 
ATOM     92  C   UNL A   1      41.763  39.803  27.751  1.00  0.00     0.002 A 
ATOM     93  C   UNL A   1      42.843  40.249  29.873  1.00  0.00     0.091 A 
ATOM     94  F   UNL A   1      44.309  38.608  30.799  1.00  0.00    -0.205 F 
ATOM     95  C   UNL A   1      42.006  40.656  28.823  1.00  0.00     0.022 A 
BRANCH  93  96
ATOM     96  S   UNL A   1      42.996  41.363  31.274  1.00  0.00     0.127 S 
ATOM     97  O   UNL A   1      42.411  40.570  32.352  1.00  0.00    -0.237 OA
ATOM     98  O   UNL A   1      44.446  41.542  31.358  1.00  0.00    -0.237 OA
ATOM     99  O   UNL A   1      42.262  42.565  30.903  1.00  0.00    -0.744 OA
ENDBRANCH  93  96
ENDBRANCH  65  89
BRANCH  77 100
ATOM    100  C   UNL A   1      49.258  35.715  26.229  1.00  0.00     0.023 A 
ATOM    101  C   UNL A   1      49.364  35.604  24.829  1.00  0.00     0.012 A 
ATOM    102  C   UNL A   1      50.187  36.508  26.933  1.00  0.00     0.148 A 
ATOM    103  C   UNL A   1      50.399  36.241  24.144  1.00  0.00     0.002 A 
ATOM    104  C   UNL A   1      51.183  37.183  26.238  1.00  0.00     0.091 A 
ATOM    105  F   UNL A   1      50.079  36.587  28.267  1.00  0.00    -0.205 F 
ATOM    106  C   UNL A   1      51.299  37.040  24.845  1.00  0.00     0.022 A 
BRANCH 104 107
ATOM    107  S   UNL A   1      52.324  38.312  27.043  1.00  0.00     0.127 S 
ATOM    108  O   UNL A   1      51.409  39.285  27.639  1.00  0.00    -0.237 OA
ATOM    109  O   UNL A   1      52.995  37.438  28.006  1.00  0.00    -0.237 OA
ATOM    110  O   UNL A   1      53.188  38.830  25.992  1.00  0.00    -0.744 OA
ENDBRANCH 104 107
ENDBRANCH  77 100
ENDBRANCH  51  52
ENDBRANCH  43  46
ENDBRANCH  41  42
ENDBRANCH  40  41
ENDBRANCH  39  40
ENDBRANCH  38  39
ENDBRANCH   1  38
TORSDOF 21
ENDMDL
MODEL 2
REMARK VINA RESULT:     -11.3      6.428      8.819
REMARK SMILES C[C@]12CC[C@@H]3[C@@H](CCC4=C/C(=N\OCC(=O)N5CCC[C@@H]5C(=O)NCCCCCCNC(=O)c5ccc(-c6c7nc(c(-c8cccc(S(=O)(=O)[O-])c8F)c8ccc([nH]8)c(-c8cccc(S(=O)(=O)[O-])c8F)c8nc(c(-c9cccc(S(=O)(=O)[O-])c9F)c9ccc6[nH]9)C=C8)C=C7)cc5)CC[C@@]43C)[C@@H]1CC[C@@H]2O
REMARK SMILES IDX 26 1 25 2 24 3 22 4 23 5 21 7 17 8 18 9 19 10 20 11 15 12
REMARK SMILES IDX 16 13 14 14 13 15 12 16 1 17 2 18 3 19 101 20 104 21 4 22
REMARK SMILES IDX 6 23 102 24 103 25 5 26 7 27 99 28 8 29 9 30 98 31 100 32
REMARK SMILES IDX 10 33 97 34 11 35 105 36 27 38 28 39 29 40 30 41 31 42 32 43
REMARK SMILES IDX 33 45 34 46 35 47 96 48 36 49 95 50 37 51 38 52 39 53 89 54
REMARK SMILES IDX 40 55 94 56 88 57 90 58 41 59 93 60 87 61 86 62 42 64 74 65
REMARK SMILES IDX 54 66 73 67 55 68 58 69 72 70 91 71 56 72 57 73 71 75 92 76
REMARK SMILES IDX 59 77 43 78 44 79 52 80 45 81 47 82 53 83 46 84 48 85 49 86
REMARK SMILES IDX 50 87 51 88 75 89 76 90 84 91 77 92 79 93 85 94 78 95 80 96
REMARK SMILES IDX 81 97 82 98 83 99 60 100 61 101 69 102 62 103 64 104 70 105
REMARK SMILES IDX 63 106 65 107 66 108 67 109 68 110
REMARK H PARENT 24 6 105 37 31 44 90 63 58 74
REMARK Flexibility Score: inf
ROOT
ATOM      1  C   UNL A   1      39.834  28.153  27.729  1.00  0.00     0.021 C 
ENDROOT
BRANCH   1   2
ATOM      2  C   UNL A   1      39.247  26.757  27.905  1.00  0.00     0.116 C 
BRANCH   2   3
ATOM      3  N   UNL A   1      40.146  25.871  28.613  1.00  0.00    -0.354 N 
ATOM      4  C   UNL A   1      40.896  24.832  28.154  1.00  0.00     0.242 C 
ATOM      5  O   UNL A   1      41.609  24.247  28.982  1.00  0.00    -0.273 OA
ATOM      6  H   UNL A   1      40.228  26.048  29.578  1.00  0.00     0.163 HD
BRANCH   4   7
ATOM      7  C   UNL A   1      40.776  24.234  26.739  1.00  0.00     0.174 C 
ATOM      8  N   UNL A   1      41.042  22.820  26.492  1.00  0.00    -0.328 N 
ATOM      9  C   UNL A   1      42.272  22.647  25.728  1.00  0.00     0.120 C 
ATOM     10  C   UNL A   1      42.979  23.987  25.813  1.00  0.00     0.024 C 
ATOM     11  C   UNL A   1      41.814  24.964  25.866  1.00  0.00     0.037 C 
BRANCH   8  12
ATOM     12  C   UNL A   1      40.239  21.731  26.742  1.00  0.00     0.264 C 
ATOM     13  O   UNL A   1      40.404  21.081  27.782  1.00  0.00    -0.271 OA
BRANCH  12  14
ATOM     14  C   UNL A   1      39.143  21.272  25.760  1.00  0.00     0.363 C 
BRANCH  14  15
ATOM     15  O   UNL A   1      37.779  21.620  25.918  1.00  0.00    -0.385 OA
BRANCH  15  16
ATOM     16  N   UNL A   1      37.351  22.225  24.735  1.00  0.00    -0.091 NA
ATOM     17  C   UNL A   1      30.134  27.182  23.819  1.00  0.00     0.014 C 
ATOM     18  C   UNL A   1      31.612  26.816  24.159  1.00  0.00    -0.003 C 
ATOM     19  C   UNL A   1      32.103  26.002  22.971  1.00  0.00     0.010 C 
ATOM     20  C   UNL A   1      31.824  26.108  25.526  1.00  0.00     0.001 C 
ATOM     21  C   UNL A   1      32.454  28.057  24.510  1.00  0.00     0.120 C 
ATOM     22  C   UNL A   1      31.549  24.570  23.029  1.00  0.00     0.005 C 
ATOM     23  C   UNL A   1      31.318  24.669  25.586  1.00  0.00    -0.003 C 
ATOM     24  C   UNL A   1      31.336  27.205  26.502  1.00  0.00     0.007 C 
ATOM     25  C   UNL A   1      31.773  28.531  25.803  1.00  0.00     0.032 C 
ATOM     26  C   UNL A   1      31.826  23.850  24.367  1.00  0.00     0.002 C 
ATOM     27  C   UNL A   1      31.660  23.897  26.869  1.00  0.00     0.008 C 
ATOM     28  C   UNL A   1      33.288  23.229  24.429  1.00  0.00    -0.008 C 
ATOM     29  C   UNL A   1      33.132  23.510  27.047  1.00  0.00     0.032 C 
ATOM     30  C   UNL A   1      33.923  23.127  25.818  1.00  0.00    -0.062 C 
ATOM     31  C   UNL A   1      34.339  23.995  23.581  1.00  0.00     0.018 C 
ATOM     32  C   UNL A   1      33.113  21.805  23.828  1.00  0.00     0.016 C 
ATOM     33  C   UNL A   1      35.239  22.831  25.966  1.00  0.00     0.027 C 
ATOM     34  C   UNL A   1      35.690  23.317  23.478  1.00  0.00     0.061 C 
ATOM     35  C   UNL A   1      36.160  22.729  24.789  1.00  0.00     0.080 C 
BRANCH  21  36
ATOM     36  O   UNL A   1      32.543  29.026  23.497  1.00  0.00    -0.393 OA
ATOM     37  H   UNL A   1      32.782  29.881  23.887  1.00  0.00     0.210 HD
ENDBRANCH  21  36
ENDBRANCH  15  16
ENDBRANCH  14  15
ENDBRANCH  12  14
ENDBRANCH   8  12
ENDBRANCH   4   7
ENDBRANCH   2   3
ENDBRANCH   1   2
BRANCH   1  38
ATOM     38  C   UNL A   1      39.164  29.252  28.555  1.00  0.00     0.002 C 
BRANCH  38  39
ATOM     39  C   UNL A   1      38.101  30.080  27.828  1.00  0.00     0.002 C 
BRANCH  39  40
ATOM     40  C   UNL A   1      36.762  30.237  28.550  1.00  0.00     0.021 C 
BRANCH  40  41
ATOM     41  C   UNL A   1      36.549  29.331  29.759  1.00  0.00     0.116 C 
BRANCH  41  42
ATOM     42  N   UNL A   1      36.293  30.068  30.986  1.00  0.00    -0.352 N 
ATOM     43  C   UNL A   1      37.092  30.210  32.091  1.00  0.00     0.251 C 
ATOM     44  H   UNL A   1      35.425  30.530  31.028  1.00  0.00     0.163 HD
ATOM     45  O   UNL A   1      36.656  30.780  33.094  1.00  0.00    -0.269 OA
BRANCH  43  46
ATOM     46  C   UNL A   1      38.464  29.659  32.092  1.00  0.00     0.039 A 
ATOM     47  C   UNL A   1      39.543  30.542  31.998  1.00  0.00     0.014 A 
ATOM     48  C   UNL A   1      38.690  28.284  32.196  1.00  0.00     0.014 A 
ATOM     49  C   UNL A   1      40.849  30.050  32.063  1.00  0.00     0.010 A 
ATOM     50  C   UNL A   1      39.990  27.804  32.337  1.00  0.00     0.010 A 
ATOM     51  C   UNL A   1      41.083  28.681  32.267  1.00  0.00    -0.014 A 
BRANCH  51  52
ATOM     52  C   UNL A   1      42.465  28.152  32.417  1.00  0.00     0.031 A 
ATOM     53  C   UNL A   1      43.295  27.831  31.203  1.00  0.00     0.074 A 
ATOM     54  C   UNL A   1      42.946  27.888  33.649  1.00  0.00     0.049 A 
ATOM     55  N   UNL A   1      44.497  27.323  31.137  1.00  0.00    -0.248 NA
ATOM     56  C   UNL A   1      42.683  28.092  29.889  1.00  0.00     0.031 C 
ATOM     57  C   UNL A   1      42.214  28.084  34.903  1.00  0.00     0.029 A 
ATOM     58  N   UNL A   1      44.155  27.375  34.050  1.00  0.00    -0.354 N 
ATOM     59  C   UNL A   1      44.773  27.171  29.784  1.00  0.00     0.074 A 
ATOM     60  C   UNL A   1      43.599  27.608  29.062  1.00  0.00     0.031 C 
ATOM     61  C   UNL A   1      42.989  27.701  35.929  1.00  0.00     0.029 A 
ATOM     62  C   UNL A   1      44.257  27.202  35.411  1.00  0.00     0.049 A 
ATOM     63  H   UNL A   1      44.879  27.152  33.421  1.00  0.00     0.167 HD
ATOM     64  C   UNL A   1      45.911  26.731  29.192  1.00  0.00     0.034 A 
ATOM     65  C   UNL A   1      45.255  26.687  36.156  1.00  0.00     0.034 A 
ATOM     66  C   UNL A   1      47.089  26.330  29.912  1.00  0.00     0.049 A 
ATOM     67  C   UNL A   1      46.518  26.232  35.475  1.00  0.00     0.074 A 
ATOM     68  C   UNL A   1      48.320  25.952  29.404  1.00  0.00     0.029 A 
ATOM     69  N   UNL A   1      47.182  26.238  31.292  1.00  0.00    -0.354 N 
ATOM     70  N   UNL A   1      46.818  26.244  34.199  1.00  0.00    -0.248 NA
ATOM     71  C   UNL A   1      47.594  25.726  36.339  1.00  0.00     0.031 C 
ATOM     72  C   UNL A   1      49.145  25.600  30.475  1.00  0.00     0.029 A 
ATOM     73  C   UNL A   1      48.443  25.796  31.653  1.00  0.00     0.049 A 
ATOM     74  H   UNL A   1      46.458  26.457  31.922  1.00  0.00     0.167 HD
ATOM     75  C   UNL A   1      48.127  25.786  34.110  1.00  0.00     0.074 A 
ATOM     76  C   UNL A   1      48.569  25.523  35.465  1.00  0.00     0.031 C 
ATOM     77  C   UNL A   1      48.890  25.587  33.007  1.00  0.00     0.034 A 
BRANCH  64  78
ATOM     78  C   UNL A   1      45.952  26.702  27.685  1.00  0.00     0.023 A 
ATOM     79  C   UNL A   1      45.934  27.914  26.962  1.00  0.00     0.012 A 
ATOM     80  C   UNL A   1      46.070  25.485  26.987  1.00  0.00     0.148 A 
ATOM     81  C   UNL A   1      45.994  27.912  25.569  1.00  0.00     0.002 A 
ATOM     82  C   UNL A   1      46.178  25.494  25.601  1.00  0.00     0.091 A 
ATOM     83  F   UNL A   1      46.068  24.342  27.689  1.00  0.00    -0.205 F 
ATOM     84  C   UNL A   1      46.127  26.704  24.891  1.00  0.00     0.022 A 
BRANCH  82  85
ATOM     85  S   UNL A   1      46.436  23.999  24.638  1.00  0.00     0.127 S 
ATOM     86  O   UNL A   1      45.141  23.849  23.976  1.00  0.00    -0.237 OA
ATOM     87  O   UNL A   1      47.532  24.391  23.751  1.00  0.00    -0.237 OA
ATOM     88  O   UNL A   1      46.771  22.955  25.596  1.00  0.00    -0.744 OA
ENDBRANCH  82  85
ENDBRANCH  64  78
BRANCH  65  89
ATOM     89  C   UNL A   1      45.124  26.626  37.639  1.00  0.00     0.023 A 
ATOM     90  C   UNL A   1      44.755  25.413  38.254  1.00  0.00     0.012 A 
ATOM     91  C   UNL A   1      45.381  27.752  38.445  1.00  0.00     0.148 A 
ATOM     92  C   UNL A   1      44.606  25.333  39.640  1.00  0.00     0.002 A 
ATOM     93  C   UNL A   1      45.286  27.650  39.828  1.00  0.00     0.091 A 
ATOM     94  F   UNL A   1      45.722  28.899  37.841  1.00  0.00    -0.205 F 
ATOM     95  C   UNL A   1      44.880  26.448  40.426  1.00  0.00     0.022 A 
BRANCH  93  96
ATOM     96  S   UNL A   1      45.742  28.995  40.928  1.00  0.00     0.127 S 
ATOM     97  O   UNL A   1      46.136  28.274  42.135  1.00  0.00    -0.237 OA
ATOM     98  O   UNL A   1      46.845  29.620  40.196  1.00  0.00    -0.237 OA
ATOM     99  O   UNL A   1      44.553  29.827  41.047  1.00  0.00    -0.744 OA
ENDBRANCH  93  96
ENDBRANCH  65  89
BRANCH  77 100
ATOM    100  C   UNL A   1      50.303  25.103  33.209  1.00  0.00     0.023 A 
ATOM    101  C   UNL A   1      51.330  26.023  33.496  1.00  0.00     0.012 A 
ATOM    102  C   UNL A   1      50.596  23.724  33.186  1.00  0.00     0.148 A 
ATOM    103  C   UNL A   1      52.634  25.582  33.721  1.00  0.00     0.002 A 
ATOM    104  C   UNL A   1      51.886  23.289  33.463  1.00  0.00     0.091 A 
ATOM    105  F   UNL A   1      49.608  22.866  32.894  1.00  0.00    -0.205 F 
ATOM    106  C   UNL A   1      52.909  24.217  33.717  1.00  0.00     0.022 A 
BRANCH 104 107
ATOM    107  S   UNL A   1      52.311  21.548  33.580  1.00  0.00     0.127 S 
ATOM    108  O   UNL A   1      52.035  21.082  32.221  1.00  0.00    -0.237 OA
ATOM    109  O   UNL A   1      53.731  21.599  33.929  1.00  0.00    -0.237 OA
ATOM    110  O   UNL A   1      51.452  20.991  34.616  1.00  0.00    -0.744 OA
ENDBRANCH 104 107
ENDBRANCH  77 100
ENDBRANCH  51  52
ENDBRANCH  43  46
ENDBRANCH  41  42
ENDBRANCH  40  41
ENDBRANCH  39  40
ENDBRANCH  38  39
ENDBRANCH   1  38
TORSDOF 21
ENDMDL
MODEL 3
REMARK VINA RESULT:     -11.2      5.842      8.979
REMARK SMILES C[C@]12CC[C@@H]3[C@@H](CCC4=C/C(=N\OCC(=O)N5CCC[C@@H]5C(=O)NCCCCCCNC(=O)c5ccc(-c6c7nc(c(-c8cccc(S(=O)(=O)[O-])c8F)c8ccc([nH]8)c(-c8cccc(S(=O)(=O)[O-])c8F)c8nc(c(-c9cccc(S(=O)(=O)[O-])c9F)c9ccc6[nH]9)C=C8)C=C7)cc5)CC[C@@]43C)[C@@H]1CC[C@@H]2O
REMARK SMILES IDX 26 1 25 2 24 3 22 4 23 5 21 7 17 8 18 9 19 10 20 11 15 12
REMARK SMILES IDX 16 13 14 14 13 15 12 16 1 17 2 18 3 19 101 20 104 21 4 22
REMARK SMILES IDX 6 23 102 24 103 25 5 26 7 27 99 28 8 29 9 30 98 31 100 32
REMARK SMILES IDX 10 33 97 34 11 35 105 36 27 38 28 39 29 40 30 41 31 42 32 43
REMARK SMILES IDX 33 45 34 46 35 47 96 48 36 49 95 50 37 51 38 52 39 53 89 54
REMARK SMILES IDX 40 55 94 56 88 57 90 58 41 59 93 60 87 61 86 62 42 64 74 65
REMARK SMILES IDX 54 66 73 67 55 68 58 69 72 70 91 71 56 72 57 73 71 75 92 76
REMARK SMILES IDX 59 77 43 78 44 79 52 80 45 81 47 82 53 83 46 84 48 85 49 86
REMARK SMILES IDX 50 87 51 88 75 89 76 90 84 91 77 92 79 93 85 94 78 95 80 96
REMARK SMILES IDX 81 97 82 98 83 99 60 100 61 101 69 102 62 103 64 104 70 105
REMARK SMILES IDX 63 106 65 107 66 108 67 109 68 110
REMARK H PARENT 24 6 105 37 31 44 90 63 58 74
REMARK Flexibility Score: inf
ROOT
ATOM      1  C   UNL A   1      40.343  26.060  26.837  1.00  0.00     0.021 C 
ENDROOT
BRANCH   1   2
ATOM      2  C   UNL A   1      41.763  25.907  26.305  1.00  0.00     0.116 C 
BRANCH   2   3
ATOM      3  N   UNL A   1      42.585  25.085  27.167  1.00  0.00    -0.354 N 
ATOM      4  C   UNL A   1      43.128  23.856  26.951  1.00  0.00     0.242 C 
ATOM      5  O   UNL A   1      43.821  23.381  27.862  1.00  0.00    -0.273 OA
ATOM      6  H   UNL A   1      42.781  25.476  28.049  1.00  0.00     0.163 HD
BRANCH   4   7
ATOM      7  C   UNL A   1      42.791  22.960  25.744  1.00  0.00     0.174 C 
ATOM      8  N   UNL A   1      42.896  21.506  25.831  1.00  0.00    -0.328 N 
ATOM      9  C   UNL A   1      44.008  21.015  25.027  1.00  0.00     0.120 C 
ATOM     10  C   UNL A   1      44.840  22.245  24.714  1.00  0.00     0.024 C 
ATOM     11  C   UNL A   1      43.784  23.336  24.628  1.00  0.00     0.037 C 
BRANCH   8  12
ATOM     12  C   UNL A   1      42.031  20.609  26.414  1.00  0.00     0.264 C 
ATOM     13  O   UNL A   1      42.270  19.397  26.336  1.00  0.00    -0.271 OA
BRANCH  12  14
ATOM     14  C   UNL A   1      40.753  21.054  27.152  1.00  0.00     0.363 C 
BRANCH  14  15
ATOM     15  O   UNL A   1      39.465  20.976  26.567  1.00  0.00    -0.385 OA
BRANCH  15  16
ATOM     16  N   UNL A   1      39.034  22.276  26.302  1.00  0.00    -0.091 NA
ATOM     17  C   UNL A   1      30.845  24.620  24.078  1.00  0.00     0.014 C 
ATOM     18  C   UNL A   1      32.050  24.240  24.993  1.00  0.00    -0.003 C 
ATOM     19  C   UNL A   1      33.219  25.062  24.472  1.00  0.00     0.010 C 
ATOM     20  C   UNL A   1      32.356  22.720  25.094  1.00  0.00     0.001 C 
ATOM     21  C   UNL A   1      31.725  24.419  26.489  1.00  0.00     0.120 C 
ATOM     22  C   UNL A   1      33.779  24.448  23.180  1.00  0.00     0.005 C 
ATOM     23  C   UNL A   1      32.954  22.104  23.832  1.00  0.00    -0.003 C 
ATOM     24  C   UNL A   1      31.048  22.200  25.736  1.00  0.00     0.007 C 
ATOM     25  C   UNL A   1      30.626  23.364  26.689  1.00  0.00     0.032 C 
ATOM     26  C   UNL A   1      34.146  22.953  23.309  1.00  0.00     0.002 C 
ATOM     27  C   UNL A   1      33.414  20.644  23.958  1.00  0.00     0.008 C 
ATOM     28  C   UNL A   1      35.576  22.735  23.968  1.00  0.00    -0.008 C 
ATOM     29  C   UNL A   1      34.667  20.406  24.809  1.00  0.00     0.032 C 
ATOM     30  C   UNL A   1      35.766  21.441  24.763  1.00  0.00    -0.062 C 
ATOM     31  C   UNL A   1      35.997  23.858  24.955  1.00  0.00     0.018 C 
ATOM     32  C   UNL A   1      36.550  22.754  22.756  1.00  0.00     0.016 C 
ATOM     33  C   UNL A   1      36.856  21.258  25.552  1.00  0.00     0.027 C 
ATOM     34  C   UNL A   1      37.426  23.766  25.451  1.00  0.00     0.061 C 
ATOM     35  C   UNL A   1      37.846  22.356  25.794  1.00  0.00     0.080 C 
BRANCH  21  36
ATOM     36  O   UNL A   1      31.373  25.723  26.873  1.00  0.00    -0.393 OA
ATOM     37  H   UNL A   1      31.693  25.892  27.773  1.00  0.00     0.210 HD
ENDBRANCH  21  36
ENDBRANCH  15  16
ENDBRANCH  14  15
ENDBRANCH  12  14
ENDBRANCH   8  12
ENDBRANCH   4   7
ENDBRANCH   2   3
ENDBRANCH   1   2
BRANCH   1  38
ATOM     38  C   UNL A   1      40.161  27.125  27.920  1.00  0.00     0.002 C 
BRANCH  38  39
ATOM     39  C   UNL A   1      39.205  28.270  27.577  1.00  0.00     0.002 C 
BRANCH  39  40
ATOM     40  C   UNL A   1      38.328  28.779  28.723  1.00  0.00     0.021 C 
BRANCH  40  41
ATOM     41  C   UNL A   1      38.431  30.271  29.025  1.00  0.00     0.116 C 
BRANCH  41  42
ATOM     42  N   UNL A   1      37.893  30.626  30.329  1.00  0.00    -0.352 N 
ATOM     43  C   UNL A   1      38.405  30.368  31.574  1.00  0.00     0.251 C 
ATOM     44  H   UNL A   1      37.042  31.122  30.314  1.00  0.00     0.163 HD
ATOM     45  O   UNL A   1      37.743  30.645  32.577  1.00  0.00    -0.269 OA
BRANCH  43  46
ATOM     46  C   UNL A   1      39.733  29.735  31.715  1.00  0.00     0.039 A 
ATOM     47  C   UNL A   1      40.869  30.548  31.701  1.00  0.00     0.014 A 
ATOM     48  C   UNL A   1      39.861  28.352  31.871  1.00  0.00     0.014 A 
ATOM     49  C   UNL A   1      42.130  29.979  31.899  1.00  0.00     0.010 A 
ATOM     50  C   UNL A   1      41.110  27.798  32.143  1.00  0.00     0.010 A 
ATOM     51  C   UNL A   1      42.258  28.605  32.155  1.00  0.00    -0.014 A 
BRANCH  51  52
ATOM     52  C   UNL A   1      43.585  27.998  32.445  1.00  0.00     0.031 A 
ATOM     53  C   UNL A   1      44.463  27.513  31.323  1.00  0.00     0.074 A 
ATOM     54  C   UNL A   1      43.966  27.813  33.725  1.00  0.00     0.049 A 
ATOM     55  N   UNL A   1      45.626  26.920  31.385  1.00  0.00    -0.248 NA
ATOM     56  C   UNL A   1      43.957  27.697  29.953  1.00  0.00     0.031 C 
ATOM     57  C   UNL A   1      43.172  28.170  34.905  1.00  0.00     0.029 A 
ATOM     58  N   UNL A   1      45.105  27.255  34.251  1.00  0.00    -0.354 N 
ATOM     59  C   UNL A   1      45.974  26.628  30.071  1.00  0.00     0.074 A 
ATOM     60  C   UNL A   1      44.884  27.079  29.235  1.00  0.00     0.031 C 
ATOM     61  C   UNL A   1      43.850  27.828  36.011  1.00  0.00     0.029 A 
ATOM     62  C   UNL A   1      45.108  27.198  35.626  1.00  0.00     0.049 A 
ATOM     63  H   UNL A   1      45.849  26.928  33.696  1.00  0.00     0.167 HD
ATOM     64  C   UNL A   1      47.111  26.060  29.600  1.00  0.00     0.034 A 
ATOM     65  C   UNL A   1      46.015  26.685  36.479  1.00  0.00     0.034 A 
ATOM     66  C   UNL A   1      48.208  25.644  30.431  1.00  0.00     0.049 A 
ATOM     67  C   UNL A   1      47.281  26.084  35.929  1.00  0.00     0.074 A 
ATOM     68  C   UNL A   1      49.437  25.138  30.043  1.00  0.00     0.029 A 
ATOM     69  N   UNL A   1      48.207  25.670  31.817  1.00  0.00    -0.354 N 
ATOM     70  N   UNL A   1      47.661  25.961  34.681  1.00  0.00    -0.248 NA
ATOM     71  C   UNL A   1      48.259  25.585  36.905  1.00  0.00     0.031 C 
ATOM     72  C   UNL A   1      50.164  24.827  31.195  1.00  0.00     0.029 A 
ATOM     73  C   UNL A   1      49.406  25.177  32.301  1.00  0.00     0.049 A 
ATOM     74  H   UNL A   1      47.463  25.994  32.374  1.00  0.00     0.167 HD
ATOM     75  C   UNL A   1      48.936  25.408  34.722  1.00  0.00     0.074 A 
ATOM     76  C   UNL A   1      49.270  25.237  36.121  1.00  0.00     0.031 C 
ATOM     77  C   UNL A   1      49.750  25.059  33.696  1.00  0.00     0.034 A 
BRANCH  64  78
ATOM     78  C   UNL A   1      47.245  25.893  28.107  1.00  0.00     0.023 A 
ATOM     79  C   UNL A   1      46.941  24.651  27.512  1.00  0.00     0.012 A 
ATOM     80  C   UNL A   1      47.612  26.979  27.288  1.00  0.00     0.148 A 
ATOM     81  C   UNL A   1      47.037  24.481  26.132  1.00  0.00     0.002 A 
ATOM     82  C   UNL A   1      47.659  26.814  25.907  1.00  0.00     0.091 A 
ATOM     83  F   UNL A   1      47.916  28.147  27.871  1.00  0.00    -0.205 F 
ATOM     84  C   UNL A   1      47.385  25.564  25.330  1.00  0.00     0.022 A 
BRANCH  82  85
ATOM     85  S   UNL A   1      48.015  28.168  24.781  1.00  0.00     0.127 S 
ATOM     86  O   UNL A   1      46.797  28.970  24.893  1.00  0.00    -0.237 OA
ATOM     87  O   UNL A   1      49.200  28.771  25.393  1.00  0.00    -0.237 OA
ATOM     88  O   UNL A   1      48.244  27.560  23.478  1.00  0.00    -0.744 OA
ENDBRANCH  82  85
ENDBRANCH  64  78
BRANCH  65  89
ATOM     89  C   UNL A   1      45.787  26.765  37.950  1.00  0.00     0.023 A 
ATOM     90  C   UNL A   1      45.142  25.702  38.612  1.00  0.00     0.012 A 
ATOM     91  C   UNL A   1      46.219  27.877  38.699  1.00  0.00     0.148 A 
ATOM     92  C   UNL A   1      44.898  25.760  39.985  1.00  0.00     0.002 A 
ATOM     93  C   UNL A   1      46.024  27.904  40.075  1.00  0.00     0.091 A 
ATOM     94  F   UNL A   1      46.823  28.883  38.050  1.00  0.00    -0.205 F 
ATOM     95  C   UNL A   1      45.346  26.856  40.717  1.00  0.00     0.022 A 
BRANCH  93  96
ATOM     96  S   UNL A   1      46.678  29.212  41.117  1.00  0.00     0.127 S 
ATOM     97  O   UNL A   1      46.151  28.842  42.428  1.00  0.00    -0.237 OA
ATOM     98  O   UNL A   1      48.121  29.027  40.959  1.00  0.00    -0.237 OA
ATOM     99  O   UNL A   1      46.166  30.455  40.557  1.00  0.00    -0.744 OA
ENDBRANCH  93  96
ENDBRANCH  65  89
BRANCH  77 100
ATOM    100  C   UNL A   1      51.107  24.499  34.036  1.00  0.00     0.023 A 
ATOM    101  C   UNL A   1      52.154  25.364  34.408  1.00  0.00     0.012 A 
ATOM    102  C   UNL A   1      51.320  23.105  34.055  1.00  0.00     0.148 A 
ATOM    103  C   UNL A   1      53.404  24.853  34.760  1.00  0.00     0.002 A 
ATOM    104  C   UNL A   1      52.550  22.602  34.458  1.00  0.00     0.091 A 
ATOM    105  F   UNL A   1      50.315  22.300  33.681  1.00  0.00    -0.205 F 
ATOM    106  C   UNL A   1      53.598  23.474  34.797  1.00  0.00     0.022 A 
BRANCH 104 107
ATOM    107  S   UNL A   1      52.861  20.842  34.633  1.00  0.00     0.127 S 
ATOM    108  O   UNL A   1      51.868  20.463  35.639  1.00  0.00    -0.237 OA
ATOM    109  O   UNL A   1      52.584  20.343  33.286  1.00  0.00    -0.237 OA
ATOM    110  O   UNL A   1      54.250  20.717  35.051  1.00  0.00    -0.744 OA
ENDBRANCH 104 107
ENDBRANCH  77 100
ENDBRANCH  51  52
ENDBRANCH  43  46
ENDBRANCH  41  42
ENDBRANCH  40  41
ENDBRANCH  39  40
ENDBRANCH  38  39
ENDBRANCH   1  38
TORSDOF 21
ENDMDL
