MODEL 1
REMARK VINA RESULT:     -11.4      0.000      0.000
REMARK SMILES O=C(C[NH+]1CCN(c2ncc(C(F)(F)F)cc2Cl)CC1)NCCCCCCNC(=O)c1ccc(-c2c3nc(c(-c4cccc(S(=O)(=O)[O-])c4F)c4ccc([nH]4)c(-c4cccc(S(=O)(=O)[O-])c4F)c4nc(c(-c5cccc(S(=O)(=O)[O-])c5F)c5ccc2[nH]5)C=C4)C=C3)cc1
REMARK SMILES IDX 24 1 23 2 22 3 21 4 1 5 2 6 3 8 4 9 5 10 20 11 6 13 19 14
REMARK SMILES IDX 7 15 8 16 9 17 17 18 10 19 16 20 18 21 11 22 12 23 13 24
REMARK SMILES IDX 14 25 15 26 25 27 26 28 27 29 28 30 29 31 30 33 31 34 32 35
REMARK SMILES IDX 93 36 33 37 92 38 34 39 35 40 36 41 86 42 37 43 91 44 85 45
REMARK SMILES IDX 87 46 38 47 90 48 84 49 83 50 39 52 71 53 51 54 70 55 52 56
REMARK SMILES IDX 55 57 69 58 88 59 53 60 54 61 68 63 89 64 56 65 40 66 41 67
REMARK SMILES IDX 49 68 42 69 44 70 50 71 43 72 45 73 46 74 47 75 48 76 72 77
REMARK SMILES IDX 73 78 81 79 74 80 76 81 82 82 75 83 77 84 78 85 79 86 80 87
REMARK SMILES IDX 57 88 58 89 66 90 59 91 61 92 67 93 60 94 62 95 63 96 64 97
REMARK SMILES IDX 65 98
REMARK H PARENT 21 7 4 12 28 32 87 51 55 62
REMARK Flexibility Score: inf
ROOT
ATOM      1  C   UNL A   1      35.316  20.289  24.831  1.00  0.00     0.002 C 
ENDROOT
BRANCH   1   2
ATOM      2  C   UNL A   1      34.086  19.393  25.048  1.00  0.00     0.021 C 
BRANCH   2   3
ATOM      3  C   UNL A   1      32.937  19.637  24.070  1.00  0.00     0.116 C 
BRANCH   3   4
ATOM      4  N   UNL A   1      32.193  20.815  24.455  1.00  0.00    -0.351 N 
ATOM      5  O   UNL A   1      33.036  22.240  22.863  1.00  0.00    -0.269 OA
ATOM      6  C   UNL A   1      32.277  22.023  23.803  1.00  0.00     0.275 C 
ATOM      7  H   UNL A   1      31.591  20.749  25.231  1.00  0.00     0.163 HD
BRANCH   6   8
ATOM      8  C   UNL A   1      31.377  23.105  24.413  1.00  0.00     0.363 C 
BRANCH   8   9
ATOM      9  N   UNL A   1      32.106  24.372  24.644  1.00  0.00    -0.324 N 
ATOM     10  C   UNL A   1      32.272  25.217  23.432  1.00  0.00     0.284 C 
ATOM     11  C   UNL A   1      31.404  25.180  25.675  1.00  0.00     0.284 C 
ATOM     12  H   UNL A   1      33.038  24.091  24.947  1.00  0.00     0.348 HD
ATOM     13  C   UNL A   1      30.966  25.842  22.874  1.00  0.00     0.179 C 
ATOM     14  C   UNL A   1      30.087  25.846  25.204  1.00  0.00     0.179 C 
ATOM     15  N   UNL A   1      30.312  26.567  23.955  1.00  0.00    -0.344 N 
BRANCH  15  16
ATOM     16  C   UNL A   1      29.839  27.834  23.730  1.00  0.00     0.147 A 
ATOM     17  N   UNL A   1      28.649  27.939  23.089  1.00  0.00    -0.237 NA
ATOM     18  C   UNL A   1      30.560  28.986  24.086  1.00  0.00     0.084 A 
ATOM     19  C   UNL A   1      28.151  29.173  22.836  1.00  0.00     0.126 A 
ATOM     20  C   UNL A   1      30.034  30.246  23.799  1.00  0.00     0.039 A 
ATOM     21  Cl  UNL A   1      32.142  28.939  24.784  1.00  0.00    -0.080 Cl
ATOM     22  C   UNL A   1      28.796  30.352  23.167  1.00  0.00     0.075 A 
BRANCH  22  23
ATOM     23  C   UNL A   1      28.172  31.672  22.847  1.00  0.00     0.417 C 
ATOM     24  F   UNL A   1      27.725  31.748  21.565  1.00  0.00    -0.166 F 
ATOM     25  F   UNL A   1      27.098  31.945  23.637  1.00  0.00    -0.166 F 
ATOM     26  F   UNL A   1      29.024  32.725  23.005  1.00  0.00    -0.166 F 
ENDBRANCH  22  23
ENDBRANCH  15  16
ENDBRANCH   8   9
ENDBRANCH   6   8
ENDBRANCH   3   4
ENDBRANCH   2   3
ENDBRANCH   1   2
BRANCH   1  27
ATOM     27  C   UNL A   1      35.538  21.363  25.900  1.00  0.00     0.002 C 
BRANCH  27  28
ATOM     28  C   UNL A   1      35.590  22.795  25.369  1.00  0.00     0.021 C 
BRANCH  28  29
ATOM     29  C   UNL A   1      36.964  23.453  25.440  1.00  0.00     0.116 C 
BRANCH  29  30
ATOM     30  N   UNL A   1      38.003  22.530  25.873  1.00  0.00    -0.352 N 
ATOM     31  C   UNL A   1      39.195  22.802  26.496  1.00  0.00     0.251 C 
ATOM     32  H   UNL A   1      37.826  21.578  25.693  1.00  0.00     0.163 HD
ATOM     33  O   UNL A   1      40.031  21.914  26.643  1.00  0.00    -0.269 OA
BRANCH  31  34
ATOM     34  C   UNL A   1      39.479  24.176  26.967  1.00  0.00     0.039 A 
ATOM     35  C   UNL A   1      39.170  24.518  28.286  1.00  0.00     0.014 A 
ATOM     36  C   UNL A   1      40.066  25.116  26.115  1.00  0.00     0.014 A 
ATOM     37  C   UNL A   1      39.506  25.785  28.767  1.00  0.00     0.010 A 
ATOM     38  C   UNL A   1      40.471  26.348  26.620  1.00  0.00     0.010 A 
ATOM     39  C   UNL A   1      40.192  26.700  27.949  1.00  0.00    -0.014 A 
BRANCH  39  40
ATOM     40  C   UNL A   1      40.642  28.015  28.473  1.00  0.00     0.031 A 
ATOM     41  C   UNL A   1      42.107  28.303  28.656  1.00  0.00     0.074 A 
ATOM     42  C   UNL A   1      39.726  28.920  28.870  1.00  0.00     0.049 A 
ATOM     43  N   UNL A   1      42.682  29.373  29.141  1.00  0.00    -0.248 NA
ATOM     44  C   UNL A   1      43.047  27.239  28.270  1.00  0.00     0.031 C 
ATOM     45  C   UNL A   1      38.275  28.730  28.826  1.00  0.00     0.029 A 
ATOM     46  N   UNL A   1      39.879  30.172  29.416  1.00  0.00    -0.354 N 
ATOM     47  C   UNL A   1      44.044  29.101  29.152  1.00  0.00     0.074 A 
ATOM     48  C   UNL A   1      44.206  27.749  28.662  1.00  0.00     0.031 C 
ATOM     49  C   UNL A   1      37.671  29.822  29.319  1.00  0.00     0.029 A 
ATOM     50  C   UNL A   1      38.690  30.778  29.747  1.00  0.00     0.049 A 
ATOM     51  H   UNL A   1      40.757  30.594  29.556  1.00  0.00     0.167 HD
ATOM     52  C   UNL A   1      45.071  29.909  29.511  1.00  0.00     0.034 A 
ATOM     53  C   UNL A   1      38.443  31.961  30.339  1.00  0.00     0.034 A 
ATOM     54  C   UNL A   1      44.908  31.260  29.974  1.00  0.00     0.049 A 
ATOM     55  C   UNL A   1      39.597  32.855  30.702  1.00  0.00     0.074 A 
ATOM     56  C   UNL A   1      45.887  32.191  30.275  1.00  0.00     0.029 A 
ATOM     57  N   UNL A   1      43.688  31.871  30.223  1.00  0.00    -0.354 N 
ATOM     58  N   UNL A   1      40.882  32.645  30.550  1.00  0.00    -0.248 NA
ATOM     59  C   UNL A   1      39.267  34.165  31.281  1.00  0.00     0.031 C 
ATOM     60  C   UNL A   1      45.259  33.351  30.741  1.00  0.00     0.029 A 
ATOM     61  C   UNL A   1      43.888  33.159  30.692  1.00  0.00     0.049 A 
ATOM     62  H   UNL A   1      42.809  31.450  30.087  1.00  0.00     0.167 HD
ATOM     63  C   UNL A   1      41.513  33.804  30.985  1.00  0.00     0.074 A 
ATOM     64  C   UNL A   1      40.465  34.723  31.385  1.00  0.00     0.031 C 
ATOM     65  C   UNL A   1      42.839  34.080  31.054  1.00  0.00     0.034 A 
BRANCH  52  66
ATOM     66  C   UNL A   1      46.469  29.355  29.381  1.00  0.00     0.023 A 
ATOM     67  C   UNL A   1      47.046  28.651  30.459  1.00  0.00     0.012 A 
ATOM     68  C   UNL A   1      47.200  29.502  28.186  1.00  0.00     0.148 A 
ATOM     69  C   UNL A   1      48.343  28.149  30.369  1.00  0.00     0.002 A 
ATOM     70  C   UNL A   1      48.473  28.954  28.085  1.00  0.00     0.091 A 
ATOM     71  F   UNL A   1      46.646  30.191  27.177  1.00  0.00    -0.205 F 
ATOM     72  C   UNL A   1      49.053  28.292  29.179  1.00  0.00     0.022 A 
BRANCH  70  73
ATOM     73  S   UNL A   1      49.434  29.012  26.569  1.00  0.00     0.127 S 
ATOM     74  O   UNL A   1      50.584  28.178  26.916  1.00  0.00    -0.237 OA
ATOM     75  O   UNL A   1      48.518  28.413  25.599  1.00  0.00    -0.237 OA
ATOM     76  O   UNL A   1      49.729  30.419  26.335  1.00  0.00    -0.744 OA
ENDBRANCH  70  73
ENDBRANCH  52  66
BRANCH  53  77
ATOM     77  C   UNL A   1      37.034  32.387  30.573  1.00  0.00     0.023 A 
ATOM     78  C   UNL A   1      36.478  32.274  31.862  1.00  0.00     0.012 A 
ATOM     79  C   UNL A   1      36.265  32.953  29.538  1.00  0.00     0.148 A 
ATOM     80  C   UNL A   1      35.171  32.694  32.110  1.00  0.00     0.002 A 
ATOM     81  C   UNL A   1      34.984  33.422  29.805  1.00  0.00     0.091 A 
ATOM     82  F   UNL A   1      36.814  33.046  28.318  1.00  0.00    -0.205 F 
ATOM     83  C   UNL A   1      34.429  33.278  31.087  1.00  0.00     0.022 A 
BRANCH  81  84
ATOM     84  S   UNL A   1      34.007  34.309  28.588  1.00  0.00     0.127 S 
ATOM     85  O   UNL A   1      34.852  35.467  28.312  1.00  0.00    -0.237 OA
ATOM     86  O   UNL A   1      33.926  33.331  27.502  1.00  0.00    -0.237 OA
ATOM     87  O   UNL A   1      32.735  34.598  29.236  1.00  0.00    -0.744 OA
ENDBRANCH  81  84
ENDBRANCH  53  77
BRANCH  65  88
ATOM     88  C   UNL A   1      43.245  35.444  31.551  1.00  0.00     0.023 A 
ATOM     89  C   UNL A   1      43.402  35.675  32.932  1.00  0.00     0.012 A 
ATOM     90  C   UNL A   1      43.543  36.478  30.640  1.00  0.00     0.148 A 
ATOM     91  C   UNL A   1      43.814  36.923  33.400  1.00  0.00     0.002 A 
ATOM     92  C   UNL A   1      44.003  37.701  31.111  1.00  0.00     0.091 A 
ATOM     93  F   UNL A   1      43.371  36.245  29.331  1.00  0.00    -0.205 F 
ATOM     94  C   UNL A   1      44.126  37.930  32.490  1.00  0.00     0.022 A 
BRANCH  92  95
ATOM     95  S   UNL A   1      44.524  39.024  30.012  1.00  0.00     0.127 S 
ATOM     96  O   UNL A   1      43.247  39.465  29.452  1.00  0.00    -0.237 OA
ATOM     97  O   UNL A   1      45.143  39.971  30.939  1.00  0.00    -0.237 OA
ATOM     98  O   UNL A   1      45.444  38.418  29.060  1.00  0.00    -0.744 OA
ENDBRANCH  92  95
ENDBRANCH  65  88
ENDBRANCH  39  40
ENDBRANCH  31  34
ENDBRANCH  29  30
ENDBRANCH  28  29
ENDBRANCH  27  28
ENDBRANCH   1  27
TORSDOF 19
ENDMDL
MODEL 2
REMARK VINA RESULT:     -11.4      1.711      2.181
REMARK SMILES O=C(C[NH+]1CCN(c2ncc(C(F)(F)F)cc2Cl)CC1)NCCCCCCNC(=O)c1ccc(-c2c3nc(c(-c4cccc(S(=O)(=O)[O-])c4F)c4ccc([nH]4)c(-c4cccc(S(=O)(=O)[O-])c4F)c4nc(c(-c5cccc(S(=O)(=O)[O-])c5F)c5ccc2[nH]5)C=C4)C=C3)cc1
REMARK SMILES IDX 24 1 23 2 22 3 21 4 1 5 2 6 3 8 4 9 5 10 20 11 6 13 19 14
REMARK SMILES IDX 7 15 8 16 9 17 17 18 10 19 16 20 18 21 11 22 12 23 13 24
REMARK SMILES IDX 14 25 15 26 25 27 26 28 27 29 28 30 29 31 30 33 31 34 32 35
REMARK SMILES IDX 93 36 33 37 92 38 34 39 35 40 36 41 86 42 37 43 91 44 85 45
REMARK SMILES IDX 87 46 38 47 90 48 84 49 83 50 39 52 71 53 51 54 70 55 52 56
REMARK SMILES IDX 55 57 69 58 88 59 53 60 54 61 68 63 89 64 56 65 40 66 41 67
REMARK SMILES IDX 49 68 42 69 44 70 50 71 43 72 45 73 46 74 47 75 48 76 72 77
REMARK SMILES IDX 73 78 81 79 74 80 76 81 82 82 75 83 77 84 78 85 79 86 80 87
REMARK SMILES IDX 57 88 58 89 66 90 59 91 61 92 67 93 60 94 62 95 63 96 64 97
REMARK SMILES IDX 65 98
REMARK H PARENT 21 7 4 12 28 32 87 51 55 62
REMARK Flexibility Score: inf
ROOT
ATOM      1  C   UNL A   1      35.104  19.422  24.633  1.00  0.00     0.002 C 
ENDROOT
BRANCH   1   2
ATOM      2  C   UNL A   1      33.658  18.942  24.840  1.00  0.00     0.021 C 
BRANCH   2   3
ATOM      3  C   UNL A   1      32.651  19.499  23.834  1.00  0.00     0.116 C 
BRANCH   3   4
ATOM      4  N   UNL A   1      32.059  20.717  24.340  1.00  0.00    -0.351 N 
ATOM      5  O   UNL A   1      32.967  22.158  22.799  1.00  0.00    -0.269 OA
ATOM      6  C   UNL A   1      32.238  21.954  23.766  1.00  0.00     0.275 C 
ATOM      7  H   UNL A   1      31.494  20.658  25.143  1.00  0.00     0.163 HD
BRANCH   6   8
ATOM      8  C   UNL A   1      31.494  23.076  24.498  1.00  0.00     0.363 C 
BRANCH   8   9
ATOM      9  N   UNL A   1      32.279  24.330  24.545  1.00  0.00    -0.324 N 
ATOM     10  C   UNL A   1      32.269  25.111  23.280  1.00  0.00     0.284 C 
ATOM     11  C   UNL A   1      31.770  25.207  25.631  1.00  0.00     0.284 C 
ATOM     12  H   UNL A   1      33.241  24.034  24.710  1.00  0.00     0.348 HD
ATOM     13  C   UNL A   1      30.905  25.750  22.906  1.00  0.00     0.179 C 
ATOM     14  C   UNL A   1      30.410  25.890  25.342  1.00  0.00     0.179 C 
ATOM     15  N   UNL A   1      30.449  26.544  24.038  1.00  0.00    -0.344 N 
BRANCH  15  16
ATOM     16  C   UNL A   1      29.976  27.813  23.826  1.00  0.00     0.147 A 
ATOM     17  N   UNL A   1      28.741  27.923  23.278  1.00  0.00    -0.237 NA
ATOM     18  C   UNL A   1      30.737  28.962  24.102  1.00  0.00     0.084 A 
ATOM     19  C   UNL A   1      28.240  29.160  23.041  1.00  0.00     0.126 A 
ATOM     20  C   UNL A   1      30.206  30.223  23.832  1.00  0.00     0.039 A 
ATOM     21  Cl  UNL A   1      32.368  28.906  24.674  1.00  0.00    -0.080 Cl
ATOM     22  C   UNL A   1      28.923  30.336  23.297  1.00  0.00     0.075 A 
BRANCH  22  23
ATOM     23  C   UNL A   1      28.292  31.658  23.002  1.00  0.00     0.417 C 
ATOM     24  F   UNL A   1      28.122  31.876  21.670  1.00  0.00    -0.166 F 
ATOM     25  F   UNL A   1      27.060  31.784  23.564  1.00  0.00    -0.166 F 
ATOM     26  F   UNL A   1      29.018  32.717  23.461  1.00  0.00    -0.166 F 
ENDBRANCH  22  23
ENDBRANCH  15  16
ENDBRANCH   8   9
ENDBRANCH   6   8
ENDBRANCH   3   4
ENDBRANCH   2   3
ENDBRANCH   1   2
BRANCH   1  27
ATOM     27  C   UNL A   1      35.482  20.701  25.385  1.00  0.00     0.002 C 
BRANCH  27  28
ATOM     28  C   UNL A   1      36.007  21.833  24.502  1.00  0.00     0.021 C 
BRANCH  28  29
ATOM     29  C   UNL A   1      37.410  22.317  24.852  1.00  0.00     0.116 C 
BRANCH  29  30
ATOM     30  N   UNL A   1      38.237  21.265  25.425  1.00  0.00    -0.352 N 
ATOM     31  C   UNL A   1      39.368  21.378  26.196  1.00  0.00     0.251 C 
ATOM     32  H   UNL A   1      37.945  20.344  25.233  1.00  0.00     0.163 HD
ATOM     33  O   UNL A   1      40.037  20.382  26.458  1.00  0.00    -0.269 OA
BRANCH  31  34
ATOM     34  C   UNL A   1      39.790  22.708  26.687  1.00  0.00     0.039 A 
ATOM     35  C   UNL A   1      40.792  22.786  27.657  1.00  0.00     0.014 A 
ATOM     36  C   UNL A   1      39.211  23.875  26.178  1.00  0.00     0.014 A 
ATOM     37  C   UNL A   1      41.257  24.037  28.071  1.00  0.00     0.010 A 
ATOM     38  C   UNL A   1      39.731  25.116  26.533  1.00  0.00     0.010 A 
ATOM     39  C   UNL A   1      40.755  25.213  27.487  1.00  0.00    -0.014 A 
BRANCH  39  40
ATOM     40  C   UNL A   1      41.305  26.545  27.845  1.00  0.00     0.031 A 
ATOM     41  C   UNL A   1      42.743  26.881  27.558  1.00  0.00     0.074 A 
ATOM     42  C   UNL A   1      40.531  27.425  28.511  1.00  0.00     0.049 A 
ATOM     43  N   UNL A   1      43.406  27.972  27.840  1.00  0.00    -0.248 NA
ATOM     44  C   UNL A   1      43.548  25.844  26.894  1.00  0.00     0.031 C 
ATOM     45  C   UNL A   1      39.147  27.189  28.926  1.00  0.00     0.029 A 
ATOM     46  N   UNL A   1      40.808  28.685  28.984  1.00  0.00    -0.354 N 
ATOM     47  C   UNL A   1      44.711  27.742  27.421  1.00  0.00     0.074 A 
ATOM     48  C   UNL A   1      44.754  26.393  26.902  1.00  0.00     0.031 C 
ATOM     49  C   UNL A   1      38.695  28.266  29.586  1.00  0.00     0.029 A 
ATOM     50  C   UNL A   1      39.765  29.257  29.673  1.00  0.00     0.049 A 
ATOM     51  H   UNL A   1      41.672  29.136  28.841  1.00  0.00     0.167 HD
ATOM     52  C   UNL A   1      45.772  28.585  27.439  1.00  0.00     0.034 A 
ATOM     53  C   UNL A   1      39.679  30.437  30.315  1.00  0.00     0.034 A 
ATOM     54  C   UNL A   1      45.719  29.935  27.933  1.00  0.00     0.049 A 
ATOM     55  C   UNL A   1      40.858  31.370  30.297  1.00  0.00     0.074 A 
ATOM     56  C   UNL A   1      46.713  30.898  27.912  1.00  0.00     0.029 A 
ATOM     57  N   UNL A   1      44.621  30.510  28.554  1.00  0.00    -0.354 N 
ATOM     58  N   UNL A   1      42.036  31.199  29.749  1.00  0.00    -0.248 NA
ATOM     59  C   UNL A   1      40.685  32.674  30.953  1.00  0.00     0.031 C 
ATOM     60  C   UNL A   1      46.226  32.042  28.555  1.00  0.00     0.029 A 
ATOM     61  C   UNL A   1      44.916  31.806  28.938  1.00  0.00     0.049 A 
ATOM     62  H   UNL A   1      43.757  30.060  28.701  1.00  0.00     0.167 HD
ATOM     63  C   UNL A   1      42.735  32.380  29.965  1.00  0.00     0.074 A 
ATOM     64  C   UNL A   1      41.837  33.269  30.676  1.00  0.00     0.031 C 
ATOM     65  C   UNL A   1      44.006  32.698  29.614  1.00  0.00     0.034 A 
BRANCH  52  66
ATOM     66  C   UNL A   1      47.075  28.075  26.876  1.00  0.00     0.023 A 
ATOM     67  C   UNL A   1      48.118  27.701  27.749  1.00  0.00     0.012 A 
ATOM     68  C   UNL A   1      47.259  27.933  25.486  1.00  0.00     0.148 A 
ATOM     69  C   UNL A   1      49.338  27.246  27.250  1.00  0.00     0.002 A 
ATOM     70  C   UNL A   1      48.459  27.430  24.997  1.00  0.00     0.091 A 
ATOM     71  F   UNL A   1      46.266  28.310  24.667  1.00  0.00    -0.205 F 
ATOM     72  C   UNL A   1      49.504  27.102  25.876  1.00  0.00     0.022 A 
BRANCH  70  73
ATOM     73  S   UNL A   1      48.741  27.127  23.249  1.00  0.00     0.127 S 
ATOM     74  O   UNL A   1      50.202  27.091  23.188  1.00  0.00    -0.237 OA
ATOM     75  O   UNL A   1      48.090  25.833  23.051  1.00  0.00    -0.237 OA
ATOM     76  O   UNL A   1      48.112  28.236  22.544  1.00  0.00    -0.744 OA
ENDBRANCH  70  73
ENDBRANCH  52  66
BRANCH  53  77
ATOM     77  C   UNL A   1      38.402  30.821  30.981  1.00  0.00     0.023 A 
ATOM     78  C   UNL A   1      38.226  30.556  32.353  1.00  0.00     0.012 A 
ATOM     79  C   UNL A   1      37.387  31.494  30.274  1.00  0.00     0.148 A 
ATOM     80  C   UNL A   1      37.051  30.933  33.003  1.00  0.00     0.002 A 
ATOM     81  C   UNL A   1      36.244  31.918  30.940  1.00  0.00     0.091 A 
ATOM     82  F   UNL A   1      37.575  31.731  28.967  1.00  0.00    -0.205 F 
ATOM     83  C   UNL A   1      36.066  31.624  32.302  1.00  0.00     0.022 A 
BRANCH  81  84
ATOM     84  S   UNL A   1      34.986  32.929  30.154  1.00  0.00     0.127 S 
ATOM     85  O   UNL A   1      34.081  33.201  31.268  1.00  0.00    -0.237 OA
ATOM     86  O   UNL A   1      35.770  34.080  29.701  1.00  0.00    -0.237 OA
ATOM     87  O   UNL A   1      34.436  32.114  29.081  1.00  0.00    -0.744 OA
ENDBRANCH  81  84
ENDBRANCH  53  77
BRANCH  65  88
ATOM     88  C   UNL A   1      44.503  34.078  29.960  1.00  0.00     0.023 A 
ATOM     89  C   UNL A   1      45.241  34.286  31.142  1.00  0.00     0.012 A 
ATOM     90  C   UNL A   1      44.300  35.155  29.073  1.00  0.00     0.148 A 
ATOM     91  C   UNL A   1      45.739  35.552  31.453  1.00  0.00     0.002 A 
ATOM     92  C   UNL A   1      44.843  36.400  29.364  1.00  0.00     0.091 A 
ATOM     93  F   UNL A   1      43.580  34.941  27.963  1.00  0.00    -0.205 F 
ATOM     94  C   UNL A   1      45.550  36.604  30.559  1.00  0.00     0.022 A 
BRANCH  92  95
ATOM     95  S   UNL A   1      44.737  37.788  28.228  1.00  0.00     0.127 S 
ATOM     96  O   UNL A   1      45.406  37.254  27.043  1.00  0.00    -0.237 OA
ATOM     97  O   UNL A   1      43.291  37.962  28.087  1.00  0.00    -0.237 OA
ATOM     98  O   UNL A   1      45.420  38.896  28.882  1.00  0.00    -0.744 OA
ENDBRANCH  92  95
ENDBRANCH  65  88
ENDBRANCH  39  40
ENDBRANCH  31  34
ENDBRANCH  29  30
ENDBRANCH  28  29
ENDBRANCH  27  28
ENDBRANCH   1  27
TORSDOF 19
ENDMDL
MODEL 3
REMARK VINA RESULT:     -11.4      2.867      8.158
REMARK SMILES O=C(C[NH+]1CCN(c2ncc(C(F)(F)F)cc2Cl)CC1)NCCCCCCNC(=O)c1ccc(-c2c3nc(c(-c4cccc(S(=O)(=O)[O-])c4F)c4ccc([nH]4)c(-c4cccc(S(=O)(=O)[O-])c4F)c4nc(c(-c5cccc(S(=O)(=O)[O-])c5F)c5ccc2[nH]5)C=C4)C=C3)cc1
REMARK SMILES IDX 24 1 23 2 22 3 21 4 1 5 2 6 3 8 4 9 5 10 20 11 6 13 19 14
REMARK SMILES IDX 7 15 8 16 9 17 17 18 10 19 16 20 18 21 11 22 12 23 13 24
REMARK SMILES IDX 14 25 15 26 25 27 26 28 27 29 28 30 29 31 30 33 31 34 32 35
REMARK SMILES IDX 93 36 33 37 92 38 34 39 35 40 36 41 86 42 37 43 91 44 85 45
REMARK SMILES IDX 87 46 38 47 90 48 84 49 83 50 39 52 71 53 51 54 70 55 52 56
REMARK SMILES IDX 55 57 69 58 88 59 53 60 54 61 68 63 89 64 56 65 40 66 41 67
REMARK SMILES IDX 49 68 42 69 44 70 50 71 43 72 45 73 46 74 47 75 48 76 72 77
REMARK SMILES IDX 73 78 81 79 74 80 76 81 82 82 75 83 77 84 78 85 79 86 80 87
REMARK SMILES IDX 57 88 58 89 66 90 59 91 61 92 67 93 60 94 62 95 63 96 64 97
REMARK SMILES IDX 65 98
REMARK H PARENT 21 7 4 12 28 32 87 51 55 62
REMARK Flexibility Score: inf
ROOT
ATOM      1  C   UNL A   1      36.046  21.594  25.378  1.00  0.00     0.002 C 
ENDROOT
BRANCH   1   2
ATOM      2  C   UNL A   1      35.014  20.453  25.371  1.00  0.00     0.021 C 
BRANCH   2   3
ATOM      3  C   UNL A   1      33.779  20.714  24.509  1.00  0.00     0.116 C 
BRANCH   3   4
ATOM      4  N   UNL A   1      33.862  22.022  23.898  1.00  0.00    -0.351 N 
ATOM      5  O   UNL A   1      32.209  23.036  25.128  1.00  0.00    -0.269 OA
ATOM      6  C   UNL A   1      33.089  23.095  24.275  1.00  0.00     0.275 C 
ATOM      7  H   UNL A   1      34.511  22.152  23.169  1.00  0.00     0.163 HD
BRANCH   6   8
ATOM      8  C   UNL A   1      33.383  24.366  23.469  1.00  0.00     0.363 C 
BRANCH   8   9
ATOM      9  N   UNL A   1      32.292  24.693  22.523  1.00  0.00    -0.324 N 
ATOM     10  C   UNL A   1      30.974  24.939  23.163  1.00  0.00     0.284 C 
ATOM     11  C   UNL A   1      32.651  25.897  21.730  1.00  0.00     0.284 C 
ATOM     12  H   UNL A   1      32.193  23.864  21.936  1.00  0.00     0.348 HD
ATOM     13  C   UNL A   1      30.883  26.231  24.017  1.00  0.00     0.179 C 
ATOM     14  C   UNL A   1      32.586  27.237  22.505  1.00  0.00     0.179 C 
ATOM     15  N   UNL A   1      31.303  27.354  23.190  1.00  0.00    -0.344 N 
BRANCH  15  16
ATOM     16  C   UNL A   1      30.551  28.500  23.173  1.00  0.00     0.147 A 
ATOM     17  N   UNL A   1      29.692  28.653  22.135  1.00  0.00    -0.237 NA
ATOM     18  C   UNL A   1      30.684  29.508  24.142  1.00  0.00     0.084 A 
ATOM     19  C   UNL A   1      28.937  29.777  22.074  1.00  0.00     0.126 A 
ATOM     20  C   UNL A   1      29.909  30.664  24.046  1.00  0.00     0.039 A 
ATOM     21  Cl  UNL A   1      31.849  29.451  25.419  1.00  0.00    -0.080 Cl
ATOM     22  C   UNL A   1      29.003  30.807  22.996  1.00  0.00     0.075 A 
BRANCH  22  23
ATOM     23  C   UNL A   1      28.133  32.014  22.848  1.00  0.00     0.417 C 
ATOM     24  F   UNL A   1      27.670  32.178  21.579  1.00  0.00    -0.166 F 
ATOM     25  F   UNL A   1      27.033  31.962  23.647  1.00  0.00    -0.166 F 
ATOM     26  F   UNL A   1      28.767  33.178  23.166  1.00  0.00    -0.166 F 
ENDBRANCH  22  23
ENDBRANCH  15  16
ENDBRANCH   8   9
ENDBRANCH   6   8
ENDBRANCH   3   4
ENDBRANCH   2   3
ENDBRANCH   1   2
BRANCH   1  27
ATOM     27  C   UNL A   1      37.299  21.346  24.534  1.00  0.00     0.002 C 
BRANCH  27  28
ATOM     28  C   UNL A   1      38.082  20.086  24.901  1.00  0.00     0.021 C 
BRANCH  28  29
ATOM     29  C   UNL A   1      39.114  20.276  26.008  1.00  0.00     0.116 C 
BRANCH  29  30
ATOM     30  N   UNL A   1      40.154  19.258  25.981  1.00  0.00    -0.352 N 
ATOM     31  C   UNL A   1      41.516  19.413  26.056  1.00  0.00     0.251 C 
ATOM     32  H   UNL A   1      39.837  18.329  25.898  1.00  0.00     0.163 HD
ATOM     33  O   UNL A   1      42.258  18.455  25.853  1.00  0.00    -0.269 OA
BRANCH  31  34
ATOM     34  C   UNL A   1      42.087  20.744  26.358  1.00  0.00     0.039 A 
ATOM     35  C   UNL A   1      42.370  21.615  25.303  1.00  0.00     0.014 A 
ATOM     36  C   UNL A   1      42.324  21.137  27.678  1.00  0.00     0.014 A 
ATOM     37  C   UNL A   1      42.833  22.904  25.577  1.00  0.00     0.010 A 
ATOM     38  C   UNL A   1      42.710  22.447  27.950  1.00  0.00     0.010 A 
ATOM     39  C   UNL A   1      42.974  23.344  26.905  1.00  0.00    -0.014 A 
BRANCH  39  40
ATOM     40  C   UNL A   1      43.373  24.740  27.215  1.00  0.00     0.031 A 
ATOM     41  C   UNL A   1      42.397  25.689  27.857  1.00  0.00     0.074 A 
ATOM     42  C   UNL A   1      44.588  25.183  26.837  1.00  0.00     0.049 A 
ATOM     43  N   UNL A   1      42.554  26.952  28.159  1.00  0.00    -0.248 NA
ATOM     44  C   UNL A   1      41.063  25.156  28.175  1.00  0.00     0.031 C 
ATOM     45  C   UNL A   1      45.594  24.390  26.129  1.00  0.00     0.029 A 
ATOM     46  N   UNL A   1      45.174  26.419  26.968  1.00  0.00    -0.354 N 
ATOM     47  C   UNL A   1      41.332  27.374  28.669  1.00  0.00     0.074 A 
ATOM     48  C   UNL A   1      40.433  26.242  28.599  1.00  0.00     0.031 C 
ATOM     49  C   UNL A   1      46.672  25.153  25.892  1.00  0.00     0.029 A 
ATOM     50  C   UNL A   1      46.422  26.500  26.398  1.00  0.00     0.049 A 
ATOM     51  H   UNL A   1      44.740  27.174  27.427  1.00  0.00     0.167 HD
ATOM     52  C   UNL A   1      40.993  28.585  29.176  1.00  0.00     0.034 A 
ATOM     53  C   UNL A   1      47.268  27.542  26.282  1.00  0.00     0.034 A 
ATOM     54  C   UNL A   1      41.897  29.700  29.267  1.00  0.00     0.049 A 
ATOM     55  C   UNL A   1      46.885  28.869  26.878  1.00  0.00     0.074 A 
ATOM     56  C   UNL A   1      41.680  30.938  29.846  1.00  0.00     0.029 A 
ATOM     57  N   UNL A   1      43.183  29.723  28.750  1.00  0.00    -0.354 N 
ATOM     58  N   UNL A   1      45.784  29.203  27.506  1.00  0.00    -0.248 NA
ATOM     59  C   UNL A   1      47.875  29.951  26.784  1.00  0.00     0.031 C 
ATOM     60  C   UNL A   1      42.822  31.721  29.646  1.00  0.00     0.029 A 
ATOM     61  C   UNL A   1      43.766  30.957  28.979  1.00  0.00     0.049 A 
ATOM     62  H   UNL A   1      43.618  28.970  28.288  1.00  0.00     0.167 HD
ATOM     63  C   UNL A   1      45.959  30.521  27.909  1.00  0.00     0.074 A 
ATOM     64  C   UNL A   1      47.283  30.917  27.473  1.00  0.00     0.031 C 
ATOM     65  C   UNL A   1      45.098  31.332  28.573  1.00  0.00     0.034 A 
BRANCH  52  66
ATOM     66  C   UNL A   1      39.589  28.750  29.702  1.00  0.00     0.023 A 
ATOM     67  C   UNL A   1      39.285  28.350  31.021  1.00  0.00     0.012 A 
ATOM     68  C   UNL A   1      38.579  29.327  28.908  1.00  0.00     0.148 A 
ATOM     69  C   UNL A   1      37.989  28.473  31.522  1.00  0.00     0.002 A 
ATOM     70  C   UNL A   1      37.303  29.494  29.432  1.00  0.00     0.091 A 
ATOM     71  F   UNL A   1      38.878  29.684  27.651  1.00  0.00    -0.205 F 
ATOM     72  C   UNL A   1      37.002  29.054  30.731  1.00  0.00     0.022 A 
BRANCH  70  73
ATOM     73  S   UNL A   1      35.983  30.307  28.524  1.00  0.00     0.127 S 
ATOM     74  O   UNL A   1      34.960  29.263  28.491  1.00  0.00    -0.237 OA
ATOM     75  O   UNL A   1      35.666  31.443  29.389  1.00  0.00    -0.237 OA
ATOM     76  O   UNL A   1      36.550  30.670  27.232  1.00  0.00    -0.744 OA
ENDBRANCH  70  73
ENDBRANCH  52  66
BRANCH  53  77
ATOM     77  C   UNL A   1      48.587  27.347  25.617  1.00  0.00     0.023 A 
ATOM     78  C   UNL A   1      49.693  26.917  26.376  1.00  0.00     0.012 A 
ATOM     79  C   UNL A   1      48.736  27.535  24.229  1.00  0.00     0.148 A 
ATOM     80  C   UNL A   1      50.929  26.700  25.769  1.00  0.00     0.002 A 
ATOM     81  C   UNL A   1      49.955  27.262  23.621  1.00  0.00     0.091 A 
ATOM     82  F   UNL A   1      47.671  27.950  23.528  1.00  0.00    -0.205 F 
ATOM     83  C   UNL A   1      51.058  26.861  24.392  1.00  0.00     0.022 A 
BRANCH  81  84
ATOM     84  S   UNL A   1      50.178  27.309  21.840  1.00  0.00     0.127 S 
ATOM     85  O   UNL A   1      50.146  28.745  21.573  1.00  0.00    -0.237 OA
ATOM     86  O   UNL A   1      51.493  26.683  21.689  1.00  0.00    -0.237 OA
ATOM     87  O   UNL A   1      49.076  26.539  21.282  1.00  0.00    -0.744 OA
ENDBRANCH  81  84
ENDBRANCH  53  77
BRANCH  65  88
ATOM     88  C   UNL A   1      45.565  32.726  28.904  1.00  0.00     0.023 A 
ATOM     89  C   UNL A   1      46.270  32.970  30.100  1.00  0.00     0.012 A 
ATOM     90  C   UNL A   1      45.368  33.783  27.992  1.00  0.00     0.148 A 
ATOM     91  C   UNL A   1      46.739  34.250  30.398  1.00  0.00     0.002 A 
ATOM     92  C   UNL A   1      45.884  35.042  28.272  1.00  0.00     0.091 A 
ATOM     93  F   UNL A   1      44.679  33.536  26.869  1.00  0.00    -0.205 F 
ATOM     94  C   UNL A   1      46.557  35.281  29.480  1.00  0.00     0.022 A 
BRANCH  92  95
ATOM     95  S   UNL A   1      45.785  36.406  27.106  1.00  0.00     0.127 S 
ATOM     96  O   UNL A   1      44.342  36.505  26.886  1.00  0.00    -0.237 OA
ATOM     97  O   UNL A   1      46.363  37.510  27.872  1.00  0.00    -0.237 OA
ATOM     98  O   UNL A   1      46.565  36.001  25.945  1.00  0.00    -0.744 OA
ENDBRANCH  92  95
ENDBRANCH  65  88
ENDBRANCH  39  40
ENDBRANCH  31  34
ENDBRANCH  29  30
ENDBRANCH  28  29
ENDBRANCH  27  28
ENDBRANCH   1  27
TORSDOF 19
ENDMDL
