MODEL 1
REMARK VINA RESULT:     -11.3      0.000      0.000
REMARK SMILES COc1ccc(/C=C/c2cc(OC)cc(OC)c2/C=C/C(=O)NCCCCCCNC(=O)c2ccc(-c3c4nc(c(-c5cccc(S(=O)(=O)[O-])c5F)c5ccc([nH]5)c(-c5cccc(S(=O)(=O)[O-])c5F)c5nc(c(-c6cccc(S(=O)(=O)[O-])c6F)c6ccc3[nH]6)C=C5)C=C4)cc2)cc1
REMARK SMILES IDX 26 1 25 2 24 3 23 4 21 5 22 6 20 8 19 9 18 10 9 11 10 12
REMARK SMILES IDX 11 13 15 14 14 15 8 16 7 17 6 18 3 19 4 20 97 21 5 22 96 23
REMARK SMILES IDX 2 24 1 25 12 26 13 27 16 28 17 29 27 30 28 31 29 32 30 33
REMARK SMILES IDX 31 34 32 36 33 37 34 38 95 39 35 40 94 41 36 42 37 43 38 44
REMARK SMILES IDX 88 45 39 46 93 47 87 48 89 49 40 50 92 51 86 52 85 53 41 55
REMARK SMILES IDX 73 56 53 57 72 58 54 59 57 60 71 61 90 62 55 63 56 64 70 66
REMARK SMILES IDX 91 67 58 68 42 69 43 70 51 71 44 72 46 73 52 74 45 75 47 76
REMARK SMILES IDX 48 77 49 78 50 79 74 80 75 81 83 82 76 83 78 84 84 85 77 86
REMARK SMILES IDX 79 87 80 88 81 89 82 90 59 91 60 92 68 93 61 94 63 95 69 96
REMARK SMILES IDX 62 97 64 98 65 99 66 100 67 101
REMARK H PARENT 23 7 30 35 89 54 57 65
REMARK Flexibility Score: inf
ROOT
ATOM      1  C   UNL A   1      34.599  31.404  28.053  1.00  0.00     0.002 C 
ENDROOT
BRANCH   1   2
ATOM      2  C   UNL A   1      35.275  30.086  27.655  1.00  0.00     0.021 C 
BRANCH   2   3
ATOM      3  C   UNL A   1      34.340  29.098  26.968  1.00  0.00     0.116 C 
BRANCH   3   4
ATOM      4  N   UNL A   1      33.061  29.028  27.642  1.00  0.00    -0.353 N 
ATOM      5  C   UNL A   1      32.074  28.108  27.488  1.00  0.00     0.244 C 
ATOM      6  O   UNL A   1      31.060  28.148  28.176  1.00  0.00    -0.270 OA
ATOM      7  H   UNL A   1      32.885  29.739  28.300  1.00  0.00     0.163 HD
BRANCH   5   8
ATOM      8  C   UNL A   1      32.253  27.017  26.508  1.00  0.00     0.072 C 
ATOM      9  C   UNL A   1      31.387  25.995  26.454  1.00  0.00     0.018 C 
BRANCH   9  10
ATOM     10  C   UNL A   1      31.629  24.798  25.633  1.00  0.00     0.024 A 
ATOM     11  C   UNL A   1      31.453  24.895  24.222  1.00  0.00    -0.011 A 
ATOM     12  C   UNL A   1      31.610  23.757  23.412  1.00  0.00     0.055 A 
ATOM     13  C   UNL A   1      31.921  22.521  23.966  1.00  0.00     0.123 A 
ATOM     14  C   UNL A   1      31.968  23.542  26.187  1.00  0.00     0.130 A 
ATOM     15  C   UNL A   1      32.120  22.430  25.337  1.00  0.00     0.093 A 
BRANCH  11  16
ATOM     16  C   UNL A   1      31.045  26.124  23.507  1.00  0.00     0.009 C 
ATOM     17  C   UNL A   1      29.872  26.742  23.720  1.00  0.00     0.009 C 
BRANCH  17  18
ATOM     18  C   UNL A   1      29.389  27.966  23.043  1.00  0.00    -0.025 A 
ATOM     19  C   UNL A   1      28.629  30.383  21.768  1.00  0.00     0.118 A 
ATOM     20  C   UNL A   1      27.683  29.594  22.425  1.00  0.00     0.047 A 
ATOM     21  C   UNL A   1      29.949  29.945  21.716  1.00  0.00     0.047 A 
ATOM     22  C   UNL A   1      28.056  28.396  23.052  1.00  0.00     0.012 A 
ATOM     23  C   UNL A   1      30.323  28.752  22.351  1.00  0.00     0.012 A 
BRANCH  19  24
ATOM     24  O   UNL A   1      28.156  31.565  21.269  1.00  0.00    -0.497 OA
ATOM     25  C   UNL A   1      28.249  32.702  22.117  1.00  0.00     0.278 C 
ENDBRANCH  19  24
ENDBRANCH  17  18
ENDBRANCH  11  16
BRANCH  13  26
ATOM     26  O   UNL A   1      32.000  21.478  23.085  1.00  0.00    -0.497 OA
ATOM     27  C   UNL A   1      32.388  20.222  23.633  1.00  0.00     0.278 C 
ENDBRANCH  13  26
BRANCH  14  28
ATOM     28  O   UNL A   1      32.152  23.148  27.485  1.00  0.00    -0.496 OA
ATOM     29  C   UNL A   1      33.212  22.306  27.892  1.00  0.00     0.278 C 
ENDBRANCH  14  28
ENDBRANCH   9  10
ENDBRANCH   5   8
ENDBRANCH   3   4
ENDBRANCH   2   3
ENDBRANCH   1   2
BRANCH   1  30
ATOM     30  C   UNL A   1      35.482  32.651  27.929  1.00  0.00     0.002 C 
BRANCH  30  31
ATOM     31  C   UNL A   1      34.719  33.976  27.899  1.00  0.00     0.021 C 
BRANCH  31  32
ATOM     32  C   UNL A   1      33.239  33.863  28.241  1.00  0.00     0.116 C 
BRANCH  32  33
ATOM     33  N   UNL A   1      32.867  34.803  29.284  1.00  0.00    -0.352 N 
ATOM     34  C   UNL A   1      33.302  34.876  30.583  1.00  0.00     0.251 C 
ATOM     35  H   UNL A   1      32.208  35.486  29.020  1.00  0.00     0.163 HD
ATOM     36  O   UNL A   1      32.673  35.558  31.389  1.00  0.00    -0.269 OA
BRANCH  34  37
ATOM     37  C   UNL A   1      34.513  34.141  31.022  1.00  0.00     0.039 A 
ATOM     38  C   UNL A   1      34.358  32.874  31.592  1.00  0.00     0.014 A 
ATOM     39  C   UNL A   1      35.788  34.707  30.931  1.00  0.00     0.014 A 
ATOM     40  C   UNL A   1      35.480  32.164  32.035  1.00  0.00     0.010 A 
ATOM     41  C   UNL A   1      36.911  33.969  31.303  1.00  0.00     0.010 A 
ATOM     42  C   UNL A   1      36.769  32.698  31.879  1.00  0.00    -0.014 A 
BRANCH  42  43
ATOM     43  C   UNL A   1      37.972  31.945  32.327  1.00  0.00     0.031 A 
ATOM     44  C   UNL A   1      38.665  32.315  33.611  1.00  0.00     0.074 A 
ATOM     45  C   UNL A   1      38.483  30.970  31.547  1.00  0.00     0.049 A 
ATOM     46  N   UNL A   1      39.740  31.793  34.145  1.00  0.00    -0.248 NA
ATOM     47  C   UNL A   1      38.093  33.427  34.389  1.00  0.00     0.031 C 
ATOM     48  C   UNL A   1      37.952  30.572  30.245  1.00  0.00     0.029 A 
ATOM     49  N   UNL A   1      39.577  30.158  31.717  1.00  0.00    -0.354 N 
ATOM     50  C   UNL A   1      39.994  32.534  35.293  1.00  0.00     0.074 A 
ATOM     51  C   UNL A   1      38.976  33.558  35.369  1.00  0.00     0.031 C 
ATOM     52  C   UNL A   1      38.719  29.600  29.728  1.00  0.00     0.029 A 
ATOM     53  C   UNL A   1      39.815  29.323  30.649  1.00  0.00     0.049 A 
ATOM     54  H   UNL A   1      40.139  30.172  32.525  1.00  0.00     0.167 HD
ATOM     55  C   UNL A   1      40.972  32.361  36.213  1.00  0.00     0.034 A 
ATOM     56  C   UNL A   1      40.810  28.442  30.427  1.00  0.00     0.034 A 
ATOM     57  C   UNL A   1      41.953  31.310  36.160  1.00  0.00     0.049 A 
ATOM     58  C   UNL A   1      41.854  28.240  31.491  1.00  0.00     0.074 A 
ATOM     59  C   UNL A   1      42.917  30.990  37.099  1.00  0.00     0.029 A 
ATOM     60  N   UNL A   1      42.106  30.421  35.108  1.00  0.00    -0.354 N 
ATOM     61  N   UNL A   1      41.970  28.834  32.655  1.00  0.00    -0.248 NA
ATOM     62  C   UNL A   1      42.882  27.220  31.233  1.00  0.00     0.031 C 
ATOM     63  C   UNL A   1      43.676  29.927  36.601  1.00  0.00     0.029 A 
ATOM     64  C   UNL A   1      43.159  29.561  35.369  1.00  0.00     0.049 A 
ATOM     65  H   UNL A   1      41.548  30.403  34.298  1.00  0.00     0.167 HD
ATOM     66  C   UNL A   1      43.056  28.233  33.281  1.00  0.00     0.074 A 
ATOM     67  C   UNL A   1      43.549  27.214  32.379  1.00  0.00     0.031 C 
ATOM     68  C   UNL A   1      43.605  28.513  34.489  1.00  0.00     0.034 A 
BRANCH  55  69
ATOM     69  C   UNL A   1      41.011  33.297  37.391  1.00  0.00     0.023 A 
ATOM     70  C   UNL A   1      41.905  34.386  37.389  1.00  0.00     0.012 A 
ATOM     71  C   UNL A   1      40.097  33.153  38.454  1.00  0.00     0.148 A 
ATOM     72  C   UNL A   1      41.904  35.306  38.436  1.00  0.00     0.002 A 
ATOM     73  C   UNL A   1      40.071  34.100  39.471  1.00  0.00     0.091 A 
ATOM     74  F   UNL A   1      39.268  32.099  38.445  1.00  0.00    -0.205 F 
ATOM     75  C   UNL A   1      40.980  35.171  39.469  1.00  0.00     0.022 A 
BRANCH  73  76
ATOM     76  S   UNL A   1      38.865  34.064  40.803  1.00  0.00     0.127 S 
ATOM     77  O   UNL A   1      38.892  35.452  41.261  1.00  0.00    -0.237 OA
ATOM     78  O   UNL A   1      37.644  33.677  40.097  1.00  0.00    -0.237 OA
ATOM     79  O   UNL A   1      39.353  33.085  41.763  1.00  0.00    -0.744 OA
ENDBRANCH  73  76
ENDBRANCH  55  69
BRANCH  56  80
ATOM     80  C   UNL A   1      40.845  27.646  29.167  1.00  0.00     0.023 A 
ATOM     81  C   UNL A   1      39.975  26.548  29.010  1.00  0.00     0.012 A 
ATOM     82  C   UNL A   1      41.734  27.969  28.123  1.00  0.00     0.148 A 
ATOM     83  C   UNL A   1      40.022  25.759  27.860  1.00  0.00     0.002 A 
ATOM     84  C   UNL A   1      41.734  27.215  26.954  1.00  0.00     0.091 A 
ATOM     85  F   UNL A   1      42.563  29.008  28.291  1.00  0.00    -0.205 F 
ATOM     86  C   UNL A   1      40.895  26.097  26.829  1.00  0.00     0.022 A 
BRANCH  84  87
ATOM     87  S   UNL A   1      42.726  27.660  25.525  1.00  0.00     0.127 S 
ATOM     88  O   UNL A   1      42.036  28.853  25.042  1.00  0.00    -0.237 OA
ATOM     89  O   UNL A   1      44.036  27.908  26.131  1.00  0.00    -0.237 OA
ATOM     90  O   UNL A   1      42.687  26.501  24.645  1.00  0.00    -0.744 OA
ENDBRANCH  84  87
ENDBRANCH  56  80
BRANCH  68  91
ATOM     91  C   UNL A   1      44.775  27.676  34.935  1.00  0.00     0.023 A 
ATOM     92  C   UNL A   1      46.091  28.118  34.693  1.00  0.00     0.012 A 
ATOM     93  C   UNL A   1      44.566  26.485  35.659  1.00  0.00     0.148 A 
ATOM     94  C   UNL A   1      47.180  27.369  35.133  1.00  0.00     0.002 A 
ATOM     95  C   UNL A   1      45.657  25.773  36.141  1.00  0.00     0.091 A 
ATOM     96  F   UNL A   1      43.307  26.073  35.863  1.00  0.00    -0.205 F 
ATOM     97  C   UNL A   1      46.965  26.205  35.867  1.00  0.00     0.022 A 
BRANCH  95  98
ATOM     98  S   UNL A   1      45.473  24.319  37.179  1.00  0.00     0.127 S 
ATOM     99  O   UNL A   1      44.837  23.376  36.260  1.00  0.00    -0.237 OA
ATOM    100  O   UNL A   1      46.861  24.000  37.514  1.00  0.00    -0.237 OA
ATOM    101  O   UNL A   1      44.657  24.733  38.312  1.00  0.00    -0.744 OA
ENDBRANCH  95  98
ENDBRANCH  68  91
ENDBRANCH  42  43
ENDBRANCH  34  37
ENDBRANCH  32  33
ENDBRANCH  31  32
ENDBRANCH  30  31
ENDBRANCH   1  30
TORSDOF 22
ENDMDL
MODEL 2
REMARK VINA RESULT:     -10.9      1.765      2.206
REMARK SMILES COc1ccc(/C=C/c2cc(OC)cc(OC)c2/C=C/C(=O)NCCCCCCNC(=O)c2ccc(-c3c4nc(c(-c5cccc(S(=O)(=O)[O-])c5F)c5ccc([nH]5)c(-c5cccc(S(=O)(=O)[O-])c5F)c5nc(c(-c6cccc(S(=O)(=O)[O-])c6F)c6ccc3[nH]6)C=C5)C=C4)cc2)cc1
REMARK SMILES IDX 26 1 25 2 24 3 23 4 21 5 22 6 20 8 19 9 18 10 9 11 10 12
REMARK SMILES IDX 11 13 15 14 14 15 8 16 7 17 6 18 3 19 4 20 97 21 5 22 96 23
REMARK SMILES IDX 2 24 1 25 12 26 13 27 16 28 17 29 27 30 28 31 29 32 30 33
REMARK SMILES IDX 31 34 32 36 33 37 34 38 95 39 35 40 94 41 36 42 37 43 38 44
REMARK SMILES IDX 88 45 39 46 93 47 87 48 89 49 40 50 92 51 86 52 85 53 41 55
REMARK SMILES IDX 73 56 53 57 72 58 54 59 57 60 71 61 90 62 55 63 56 64 70 66
REMARK SMILES IDX 91 67 58 68 42 69 43 70 51 71 44 72 46 73 52 74 45 75 47 76
REMARK SMILES IDX 48 77 49 78 50 79 74 80 75 81 83 82 76 83 78 84 84 85 77 86
REMARK SMILES IDX 79 87 80 88 81 89 82 90 59 91 60 92 68 93 61 94 63 95 69 96
REMARK SMILES IDX 62 97 64 98 65 99 66 100 67 101
REMARK H PARENT 23 7 30 35 89 54 57 65
REMARK Flexibility Score: inf
ROOT
ATOM      1  C   UNL A   1      34.627  31.302  27.754  1.00  0.00     0.002 C 
ENDROOT
BRANCH   1   2
ATOM      2  C   UNL A   1      35.327  29.942  27.651  1.00  0.00     0.021 C 
BRANCH   2   3
ATOM      3  C   UNL A   1      34.436  28.832  27.106  1.00  0.00     0.116 C 
BRANCH   3   4
ATOM      4  N   UNL A   1      33.119  28.874  27.705  1.00  0.00    -0.353 N 
ATOM      5  C   UNL A   1      32.054  28.066  27.461  1.00  0.00     0.244 C 
ATOM      6  O   UNL A   1      31.010  28.191  28.091  1.00  0.00    -0.270 OA
ATOM      7  H   UNL A   1      32.976  29.579  28.376  1.00  0.00     0.163 HD
BRANCH   5   8
ATOM      8  C   UNL A   1      32.180  26.994  26.454  1.00  0.00     0.072 C 
ATOM      9  C   UNL A   1      31.520  25.835  26.600  1.00  0.00     0.018 C 
BRANCH   9  10
ATOM     10  C   UNL A   1      31.763  24.674  25.730  1.00  0.00     0.024 A 
ATOM     11  C   UNL A   1      31.551  24.818  24.328  1.00  0.00    -0.011 A 
ATOM     12  C   UNL A   1      31.709  23.713  23.474  1.00  0.00     0.055 A 
ATOM     13  C   UNL A   1      32.055  22.464  23.975  1.00  0.00     0.123 A 
ATOM     14  C   UNL A   1      32.137  23.405  26.230  1.00  0.00     0.130 A 
ATOM     15  C   UNL A   1      32.289  22.327  25.337  1.00  0.00     0.093 A 
BRANCH  11  16
ATOM     16  C   UNL A   1      31.105  26.065  23.669  1.00  0.00     0.009 C 
ATOM     17  C   UNL A   1      29.876  26.582  23.833  1.00  0.00     0.009 C 
BRANCH  17  18
ATOM     18  C   UNL A   1      29.352  27.815  23.205  1.00  0.00    -0.025 A 
ATOM     19  C   UNL A   1      28.190  30.092  21.976  1.00  0.00     0.118 A 
ATOM     20  C   UNL A   1      29.566  29.868  21.909  1.00  0.00     0.047 A 
ATOM     21  C   UNL A   1      27.399  29.196  22.690  1.00  0.00     0.047 A 
ATOM     22  C   UNL A   1      30.143  28.745  22.519  1.00  0.00     0.012 A 
ATOM     23  C   UNL A   1      27.975  28.069  23.291  1.00  0.00     0.012 A 
BRANCH  19  24
ATOM     24  O   UNL A   1      27.740  31.175  21.272  1.00  0.00    -0.497 OA
ATOM     25  C   UNL A   1      28.395  32.413  21.513  1.00  0.00     0.278 C 
ENDBRANCH  19  24
ENDBRANCH  17  18
ENDBRANCH  11  16
BRANCH  13  26
ATOM     26  O   UNL A   1      32.131  21.455  23.055  1.00  0.00    -0.497 OA
ATOM     27  C   UNL A   1      32.392  20.154  23.570  1.00  0.00     0.278 C 
ENDBRANCH  13  26
BRANCH  14  28
ATOM     28  O   UNL A   1      32.360  22.967  27.508  1.00  0.00    -0.496 OA
ATOM     29  C   UNL A   1      33.547  22.307  27.901  1.00  0.00     0.278 C 
ENDBRANCH  14  28
ENDBRANCH   9  10
ENDBRANCH   5   8
ENDBRANCH   3   4
ENDBRANCH   2   3
ENDBRANCH   1   2
BRANCH   1  30
ATOM     30  C   UNL A   1      35.566  32.512  27.844  1.00  0.00     0.002 C 
BRANCH  30  31
ATOM     31  C   UNL A   1      34.859  33.864  27.943  1.00  0.00     0.021 C 
BRANCH  31  32
ATOM     32  C   UNL A   1      33.371  33.781  28.258  1.00  0.00     0.116 C 
BRANCH  32  33
ATOM     33  N   UNL A   1      33.004  34.713  29.310  1.00  0.00    -0.352 N 
ATOM     34  C   UNL A   1      33.425  34.761  30.615  1.00  0.00     0.251 C 
ATOM     35  H   UNL A   1      32.359  35.410  29.048  1.00  0.00     0.163 HD
ATOM     36  O   UNL A   1      32.798  35.442  31.423  1.00  0.00    -0.269 OA
BRANCH  34  37
ATOM     37  C   UNL A   1      34.618  34.000  31.057  1.00  0.00     0.039 A 
ATOM     38  C   UNL A   1      35.876  34.600  30.945  1.00  0.00     0.014 A 
ATOM     39  C   UNL A   1      34.518  32.686  31.525  1.00  0.00     0.014 A 
ATOM     40  C   UNL A   1      37.022  33.899  31.334  1.00  0.00     0.010 A 
ATOM     41  C   UNL A   1      35.652  32.017  31.984  1.00  0.00     0.010 A 
ATOM     42  C   UNL A   1      36.920  32.606  31.875  1.00  0.00    -0.014 A 
BRANCH  42  43
ATOM     43  C   UNL A   1      38.129  31.858  32.311  1.00  0.00     0.031 A 
ATOM     44  C   UNL A   1      38.823  32.218  33.598  1.00  0.00     0.074 A 
ATOM     45  C   UNL A   1      38.647  30.896  31.518  1.00  0.00     0.049 A 
ATOM     46  N   UNL A   1      39.903  31.698  34.122  1.00  0.00    -0.248 NA
ATOM     47  C   UNL A   1      38.244  33.316  34.390  1.00  0.00     0.031 C 
ATOM     48  C   UNL A   1      38.115  30.509  30.213  1.00  0.00     0.029 A 
ATOM     49  N   UNL A   1      39.747  30.091  31.676  1.00  0.00    -0.354 N 
ATOM     50  C   UNL A   1      40.154  32.427  35.279  1.00  0.00     0.074 A 
ATOM     51  C   UNL A   1      39.129  33.442  35.370  1.00  0.00     0.031 C 
ATOM     52  C   UNL A   1      38.888  29.550  29.682  1.00  0.00     0.029 A 
ATOM     53  C   UNL A   1      39.989  29.270  30.597  1.00  0.00     0.049 A 
ATOM     54  H   UNL A   1      40.310  30.099  32.483  1.00  0.00     0.167 HD
ATOM     55  C   UNL A   1      41.135  32.251  36.194  1.00  0.00     0.034 A 
ATOM     56  C   UNL A   1      40.990  28.400  30.362  1.00  0.00     0.034 A 
ATOM     57  C   UNL A   1      42.124  31.209  36.126  1.00  0.00     0.049 A 
ATOM     58  C   UNL A   1      42.038  28.194  31.422  1.00  0.00     0.074 A 
ATOM     59  C   UNL A   1      43.094  30.885  37.059  1.00  0.00     0.029 A 
ATOM     60  N   UNL A   1      42.282  30.333  35.064  1.00  0.00    -0.354 N 
ATOM     61  N   UNL A   1      42.152  28.774  32.592  1.00  0.00    -0.248 NA
ATOM     62  C   UNL A   1      43.073  27.185  31.149  1.00  0.00     0.031 C 
ATOM     63  C   UNL A   1      43.859  29.834  36.546  1.00  0.00     0.029 A 
ATOM     64  C   UNL A   1      43.343  29.479  35.311  1.00  0.00     0.049 A 
ATOM     65  H   UNL A   1      41.723  30.320  34.255  1.00  0.00     0.167 HD
ATOM     66  C   UNL A   1      43.245  28.175  33.208  1.00  0.00     0.074 A 
ATOM     67  C   UNL A   1      43.743  27.170  32.293  1.00  0.00     0.031 C 
ATOM     68  C   UNL A   1      43.794  28.444  34.418  1.00  0.00     0.034 A 
BRANCH  55  69
ATOM     69  C   UNL A   1      41.170  33.173  37.384  1.00  0.00     0.023 A 
ATOM     70  C   UNL A   1      40.422  32.856  38.535  1.00  0.00     0.012 A 
ATOM     71  C   UNL A   1      42.018  34.298  37.397  1.00  0.00     0.148 A 
ATOM     72  C   UNL A   1      40.500  33.657  39.674  1.00  0.00     0.002 A 
ATOM     73  C   UNL A   1      42.125  35.065  38.551  1.00  0.00     0.091 A 
ATOM     74  F   UNL A   1      42.707  34.591  36.284  1.00  0.00    -0.205 F 
ATOM     75  C   UNL A   1      41.360  34.752  39.686  1.00  0.00     0.022 A 
BRANCH  73  76
ATOM     76  S   UNL A   1      43.266  36.446  38.698  1.00  0.00     0.127 S 
ATOM     77  O   UNL A   1      43.003  36.899  40.063  1.00  0.00    -0.237 OA
ATOM     78  O   UNL A   1      44.560  35.793  38.509  1.00  0.00    -0.237 OA
ATOM     79  O   UNL A   1      42.897  37.388  37.651  1.00  0.00    -0.744 OA
ENDBRANCH  73  76
ENDBRANCH  55  69
BRANCH  56  80
ATOM     80  C   UNL A   1      41.028  27.619  29.092  1.00  0.00     0.023 A 
ATOM     81  C   UNL A   1      40.214  26.478  28.950  1.00  0.00     0.012 A 
ATOM     82  C   UNL A   1      41.865  28.000  28.025  1.00  0.00     0.148 A 
ATOM     83  C   UNL A   1      40.268  25.704  27.790  1.00  0.00     0.002 A 
ATOM     84  C   UNL A   1      41.868  27.259  26.849  1.00  0.00     0.091 A 
ATOM     85  F   UNL A   1      42.641  29.082  28.180  1.00  0.00    -0.205 F 
ATOM     86  C   UNL A   1      41.087  26.099  26.737  1.00  0.00     0.022 A 
BRANCH  84  87
ATOM     87  S   UNL A   1      42.789  27.772  25.395  1.00  0.00     0.127 S 
ATOM     88  O   UNL A   1      42.677  26.594  24.538  1.00  0.00    -0.237 OA
ATOM     89  O   UNL A   1      42.022  28.936  24.945  1.00  0.00    -0.237 OA
ATOM     90  O   UNL A   1      44.128  28.088  25.871  1.00  0.00    -0.744 OA
ENDBRANCH  84  87
ENDBRANCH  56  80
BRANCH  68  91
ATOM     91  C   UNL A   1      44.972  27.611  34.851  1.00  0.00     0.023 A 
ATOM     92  C   UNL A   1      44.767  26.435  35.598  1.00  0.00     0.012 A 
ATOM     93  C   UNL A   1      46.278  27.960  34.453  1.00  0.00     0.148 A 
ATOM     94  C   UNL A   1      45.847  25.637  35.972  1.00  0.00     0.002 A 
ATOM     95  C   UNL A   1      47.343  27.132  34.785  1.00  0.00     0.091 A 
ATOM     96  F   UNL A   1      46.454  29.093  33.758  1.00  0.00    -0.205 F 
ATOM     97  C   UNL A   1      47.132  25.978  35.557  1.00  0.00     0.022 A 
BRANCH  95  98
ATOM     98  S   UNL A   1      49.015  27.439  34.207  1.00  0.00     0.127 S 
ATOM     99  O   UNL A   1      49.751  26.336  34.825  1.00  0.00    -0.237 OA
ATOM    100  O   UNL A   1      48.866  27.334  32.755  1.00  0.00    -0.237 OA
ATOM    101  O   UNL A   1      49.368  28.770  34.683  1.00  0.00    -0.744 OA
ENDBRANCH  95  98
ENDBRANCH  68  91
ENDBRANCH  42  43
ENDBRANCH  34  37
ENDBRANCH  32  33
ENDBRANCH  31  32
ENDBRANCH  30  31
ENDBRANCH   1  30
TORSDOF 22
ENDMDL
MODEL 3
REMARK VINA RESULT:     -10.6      6.671     13.812
REMARK SMILES COc1ccc(/C=C/c2cc(OC)cc(OC)c2/C=C/C(=O)NCCCCCCNC(=O)c2ccc(-c3c4nc(c(-c5cccc(S(=O)(=O)[O-])c5F)c5ccc([nH]5)c(-c5cccc(S(=O)(=O)[O-])c5F)c5nc(c(-c6cccc(S(=O)(=O)[O-])c6F)c6ccc3[nH]6)C=C5)C=C4)cc2)cc1
REMARK SMILES IDX 26 1 25 2 24 3 23 4 21 5 22 6 20 8 19 9 18 10 9 11 10 12
REMARK SMILES IDX 11 13 15 14 14 15 8 16 7 17 6 18 3 19 4 20 97 21 5 22 96 23
REMARK SMILES IDX 2 24 1 25 12 26 13 27 16 28 17 29 27 30 28 31 29 32 30 33
REMARK SMILES IDX 31 34 32 36 33 37 34 38 95 39 35 40 94 41 36 42 37 43 38 44
REMARK SMILES IDX 88 45 39 46 93 47 87 48 89 49 40 50 92 51 86 52 85 53 41 55
REMARK SMILES IDX 73 56 53 57 72 58 54 59 57 60 71 61 90 62 55 63 56 64 70 66
REMARK SMILES IDX 91 67 58 68 42 69 43 70 51 71 44 72 46 73 52 74 45 75 47 76
REMARK SMILES IDX 48 77 49 78 50 79 74 80 75 81 83 82 76 83 78 84 84 85 77 86
REMARK SMILES IDX 79 87 80 88 81 89 82 90 59 91 60 92 68 93 61 94 63 95 69 96
REMARK SMILES IDX 62 97 64 98 65 99 66 100 67 101
REMARK H PARENT 23 7 30 35 89 54 57 65
REMARK Flexibility Score: inf
ROOT
ATOM      1  C   UNL A   1      44.115  24.355  25.344  1.00  0.00     0.002 C 
ENDROOT
BRANCH   1   2
ATOM      2  C   UNL A   1      45.551  24.558  24.848  1.00  0.00     0.021 C 
BRANCH   2   3
ATOM      3  C   UNL A   1      46.218  25.816  25.391  1.00  0.00     0.116 C 
BRANCH   3   4
ATOM      4  N   UNL A   1      46.099  26.918  24.460  1.00  0.00    -0.353 N 
ATOM      5  C   UNL A   1      47.063  27.780  24.044  1.00  0.00     0.244 C 
ATOM      6  O   UNL A   1      46.822  28.637  23.201  1.00  0.00    -0.270 OA
ATOM      7  H   UNL A   1      45.204  27.060  24.077  1.00  0.00     0.163 HD
BRANCH   5   8
ATOM      8  C   UNL A   1      48.431  27.645  24.584  1.00  0.00     0.072 C 
ATOM      9  C   UNL A   1      49.200  26.598  24.250  1.00  0.00     0.018 C 
BRANCH   9  10
ATOM     10  C   UNL A   1      50.486  26.323  24.909  1.00  0.00     0.024 A 
ATOM     11  C   UNL A   1      50.475  25.716  26.198  1.00  0.00    -0.011 A 
ATOM     12  C   UNL A   1      51.681  25.499  26.887  1.00  0.00     0.055 A 
ATOM     13  C   UNL A   1      52.898  25.882  26.338  1.00  0.00     0.123 A 
ATOM     14  C   UNL A   1      51.731  26.689  24.346  1.00  0.00     0.130 A 
ATOM     15  C   UNL A   1      52.914  26.447  25.070  1.00  0.00     0.093 A 
BRANCH  11  16
ATOM     16  C   UNL A   1      49.251  25.331  26.936  1.00  0.00     0.009 C 
ATOM     17  C   UNL A   1      48.875  25.911  28.088  1.00  0.00     0.009 C 
BRANCH  17  18
ATOM     18  C   UNL A   1      47.675  25.579  28.887  1.00  0.00    -0.025 A 
ATOM     19  C   UNL A   1      45.286  24.911  30.262  1.00  0.00     0.118 A 
ATOM     20  C   UNL A   1      46.216  25.783  30.829  1.00  0.00     0.047 A 
ATOM     21  C   UNL A   1      45.568  24.342  29.023  1.00  0.00     0.047 A 
ATOM     22  C   UNL A   1      47.401  26.111  30.152  1.00  0.00     0.012 A 
ATOM     23  C   UNL A   1      46.747  24.678  28.343  1.00  0.00     0.012 A 
BRANCH  19  24
ATOM     24  O   UNL A   1      44.137  24.736  30.983  1.00  0.00    -0.497 OA
ATOM     25  C   UNL A   1      43.652  23.404  31.102  1.00  0.00     0.278 C 
ENDBRANCH  19  24
ENDBRANCH  17  18
ENDBRANCH  11  16
BRANCH  13  26
ATOM     26  O   UNL A   1      53.998  25.664  27.120  1.00  0.00    -0.497 OA
ATOM     27  C   UNL A   1      54.982  24.783  26.590  1.00  0.00     0.278 C 
ENDBRANCH  13  26
BRANCH  14  28
ATOM     28  O   UNL A   1      52.041  27.315  23.169  1.00  0.00    -0.496 OA
ATOM     29  C   UNL A   1      51.477  28.553  22.783  1.00  0.00     0.278 C 
ENDBRANCH  14  28
ENDBRANCH   9  10
ENDBRANCH   5   8
ENDBRANCH   3   4
ENDBRANCH   2   3
ENDBRANCH   1   2
BRANCH   1  30
ATOM     30  C   UNL A   1      43.360  23.190  24.693  1.00  0.00     0.002 C 
BRANCH  30  31
ATOM     31  C   UNL A   1      43.526  21.845  25.400  1.00  0.00     0.021 C 
BRANCH  31  32
ATOM     32  C   UNL A   1      42.656  21.666  26.637  1.00  0.00     0.116 C 
BRANCH  32  33
ATOM     33  N   UNL A   1      41.246  21.629  26.288  1.00  0.00    -0.352 N 
ATOM     34  C   UNL A   1      40.258  22.539  26.567  1.00  0.00     0.251 C 
ATOM     35  H   UNL A   1      40.960  20.836  25.779  1.00  0.00     0.163 HD
ATOM     36  O   UNL A   1      39.082  22.206  26.435  1.00  0.00    -0.269 OA
BRANCH  34  37
ATOM     37  C   UNL A   1      40.592  23.908  27.027  1.00  0.00     0.039 A 
ATOM     38  C   UNL A   1      40.379  24.980  26.154  1.00  0.00     0.014 A 
ATOM     39  C   UNL A   1      41.164  24.141  28.281  1.00  0.00     0.014 A 
ATOM     40  C   UNL A   1      40.704  26.281  26.551  1.00  0.00     0.010 A 
ATOM     41  C   UNL A   1      41.417  25.445  28.704  1.00  0.00     0.010 A 
ATOM     42  C   UNL A   1      41.210  26.529  27.838  1.00  0.00    -0.014 A 
BRANCH  42  43
ATOM     43  C   UNL A   1      41.542  27.910  28.280  1.00  0.00     0.031 A 
ATOM     44  C   UNL A   1      42.973  28.374  28.316  1.00  0.00     0.074 A 
ATOM     45  C   UNL A   1      40.561  28.729  28.716  1.00  0.00     0.049 A 
ATOM     46  N   UNL A   1      43.453  29.529  28.699  1.00  0.00    -0.248 NA
ATOM     47  C   UNL A   1      44.003  27.414  27.884  1.00  0.00     0.031 C 
ATOM     48  C   UNL A   1      39.147  28.371  28.806  1.00  0.00     0.029 A 
ATOM     49  N   UNL A   1      40.605  30.016  29.191  1.00  0.00    -0.354 N 
ATOM     50  C   UNL A   1      44.835  29.422  28.594  1.00  0.00     0.074 A 
ATOM     51  C   UNL A   1      45.121  28.082  28.133  1.00  0.00     0.031 C 
ATOM     52  C   UNL A   1      38.456  29.404  29.311  1.00  0.00     0.029 A 
ATOM     53  C   UNL A   1      39.382  30.492  29.608  1.00  0.00     0.049 A 
ATOM     54  H   UNL A   1      41.431  30.549  29.231  1.00  0.00     0.167 HD
ATOM     55  C   UNL A   1      45.778  30.362  28.836  1.00  0.00     0.034 A 
ATOM     56  C   UNL A   1      39.042  31.665  30.176  1.00  0.00     0.034 A 
ATOM     57  C   UNL A   1      45.487  31.710  29.247  1.00  0.00     0.049 A 
ATOM     58  C   UNL A   1      40.108  32.706  30.387  1.00  0.00     0.074 A 
ATOM     59  C   UNL A   1      46.368  32.764  29.415  1.00  0.00     0.029 A 
ATOM     60  N   UNL A   1      44.226  32.186  29.569  1.00  0.00    -0.354 N 
ATOM     61  N   UNL A   1      41.388  32.642  30.112  1.00  0.00    -0.248 NA
ATOM     62  C   UNL A   1      39.679  33.995  30.949  1.00  0.00     0.031 C 
ATOM     63  C   UNL A   1      45.644  33.869  29.871  1.00  0.00     0.029 A 
ATOM     64  C   UNL A   1      44.307  33.514  29.949  1.00  0.00     0.049 A 
ATOM     65  H   UNL A   1      43.397  31.658  29.532  1.00  0.00     0.167 HD
ATOM     66  C   UNL A   1      41.908  33.892  30.430  1.00  0.00     0.074 A 
ATOM     67  C   UNL A   1      40.800  34.700  30.895  1.00  0.00     0.031 C 
ATOM     68  C   UNL A   1      43.190  34.325  30.356  1.00  0.00     0.034 A 
BRANCH  55  69
ATOM     69  C   UNL A   1      47.221  29.993  28.618  1.00  0.00     0.023 A 
ATOM     70  C   UNL A   1      47.771  30.060  27.323  1.00  0.00     0.012 A 
ATOM     71  C   UNL A   1      48.054  29.675  29.709  1.00  0.00     0.148 A 
ATOM     72  C   UNL A   1      49.124  29.795  27.112  1.00  0.00     0.002 A 
ATOM     73  C   UNL A   1      49.410  29.456  29.497  1.00  0.00     0.091 A 
ATOM     74  F   UNL A   1      47.506  29.598  30.930  1.00  0.00    -0.205 F 
ATOM     75  C   UNL A   1      49.944  29.506  28.199  1.00  0.00     0.022 A 
BRANCH  73  76
ATOM     76  S   UNL A   1      50.568  29.160  30.839  1.00  0.00     0.127 S 
ATOM     77  O   UNL A   1      50.461  27.711  31.005  1.00  0.00    -0.237 OA
ATOM     78  O   UNL A   1      51.830  29.617  30.259  1.00  0.00    -0.237 OA
ATOM     79  O   UNL A   1      50.092  29.950  31.966  1.00  0.00    -0.744 OA
ENDBRANCH  73  76
ENDBRANCH  55  69
BRANCH  56  80
ATOM     80  C   UNL A   1      37.624  31.942  30.544  1.00  0.00     0.023 A 
ATOM     81  C   UNL A   1      37.137  31.535  31.802  1.00  0.00     0.012 A 
ATOM     82  C   UNL A   1      36.755  32.607  29.657  1.00  0.00     0.148 A 
ATOM     83  C   UNL A   1      35.802  31.741  32.151  1.00  0.00     0.002 A 
ATOM     84  C   UNL A   1      35.442  32.862  30.034  1.00  0.00     0.091 A 
ATOM     85  F   UNL A   1      37.230  32.978  28.460  1.00  0.00    -0.205 F 
ATOM     86  C   UNL A   1      34.957  32.411  31.271  1.00  0.00     0.022 A 
BRANCH  84  87
ATOM     87  S   UNL A   1      34.325  33.838  29.021  1.00  0.00     0.127 S 
ATOM     88  O   UNL A   1      33.290  34.205  29.984  1.00  0.00    -0.237 OA
ATOM     89  O   UNL A   1      35.189  34.941  28.594  1.00  0.00    -0.237 OA
ATOM     90  O   UNL A   1      33.906  32.957  27.941  1.00  0.00    -0.744 OA
ENDBRANCH  84  87
ENDBRANCH  56  80
BRANCH  68  91
ATOM     91  C   UNL A   1      43.468  35.754  30.744  1.00  0.00     0.023 A 
ATOM     92  C   UNL A   1      43.739  36.081  32.087  1.00  0.00     0.012 A 
ATOM     93  C   UNL A   1      43.531  36.761  29.760  1.00  0.00     0.148 A 
ATOM     94  C   UNL A   1      44.032  37.393  32.451  1.00  0.00     0.002 A 
ATOM     95  C   UNL A   1      43.877  38.056  30.123  1.00  0.00     0.091 A 
ATOM     96  F   UNL A   1      43.253  36.433  28.490  1.00  0.00    -0.205 F 
ATOM     97  C   UNL A   1      44.114  38.378  31.469  1.00  0.00     0.022 A 
BRANCH  95  98
ATOM     98  S   UNL A   1      44.104  39.365  28.914  1.00  0.00     0.127 S 
ATOM     99  O   UNL A   1      42.725  39.641  28.512  1.00  0.00    -0.237 OA
ATOM    100  O   UNL A   1      44.728  40.421  29.714  1.00  0.00    -0.237 OA
ATOM    101  O   UNL A   1      44.959  38.809  27.874  1.00  0.00    -0.744 OA
ENDBRANCH  95  98
ENDBRANCH  68  91
ENDBRANCH  42  43
ENDBRANCH  34  37
ENDBRANCH  32  33
ENDBRANCH  31  32
ENDBRANCH  30  31
ENDBRANCH   1  30
TORSDOF 22
ENDMDL
