MODEL 1
REMARK VINA RESULT:     -11.6      0.000      0.000
REMARK SMILES Cc1cc(C)n(CC(=O)N[C@H]2C=C[C@@H](C(=O)NCCCCCCNC(=O)c3ccc(-c4c5nc(c(-c6cccc(S(=O)(=O)[O-])c6F)c6ccc([nH]6)c(-c6cccc(S(=O)(=O)[O-])c6F)c6nc(c(-c7cccc(S(=O)(=O)[O-])c7F)c7ccc4[nH]7)C=C6)C=C5)cc3)C2)n1
REMARK SMILES IDX 20 1 19 2 18 3 17 4 15 5 16 6 14 8 11 9 12 10 90 11 13 12
REMARK SMILES IDX 10 13 8 14 9 15 7 17 6 18 1 19 2 20 3 21 91 22 4 23 5 24
REMARK SMILES IDX 21 25 22 26 23 27 24 28 25 29 26 31 27 32 28 33 89 34 29 35
REMARK SMILES IDX 88 36 30 37 31 38 32 39 82 40 33 41 87 42 81 43 83 44 34 45
REMARK SMILES IDX 86 46 80 47 79 48 35 50 67 51 47 52 66 53 48 54 51 55 65 56
REMARK SMILES IDX 84 57 49 58 50 59 64 61 85 62 52 63 36 64 37 65 45 66 38 67
REMARK SMILES IDX 40 68 46 69 39 70 41 71 42 72 43 73 44 74 68 75 69 76 77 77
REMARK SMILES IDX 70 78 72 79 78 80 71 81 73 82 74 83 75 84 76 85 53 86 54 87
REMARK SMILES IDX 62 88 55 89 57 90 63 91 56 92 58 93 59 94 60 95 61 96
REMARK H PARENT 17 7 10 16 24 30 83 49 51 60
REMARK Flexibility Score: inf
ROOT
ATOM      1  C   UNL A   1      32.588  28.061  27.499  1.00  0.00     0.002 C 
ENDROOT
BRANCH   1   2
ATOM      2  C   UNL A   1      32.445  26.967  26.445  1.00  0.00     0.021 C 
BRANCH   2   3
ATOM      3  C   UNL A   1      33.619  26.773  25.468  1.00  0.00     0.116 C 
BRANCH   3   4
ATOM      4  N   UNL A   1      33.662  27.812  24.450  1.00  0.00    -0.356 N 
ATOM      5  C   UNL A   1      32.898  28.121  23.365  1.00  0.00     0.227 C 
ATOM      6  O   UNL A   1      33.274  29.113  22.717  1.00  0.00    -0.274 OA
ATOM      7  H   UNL A   1      34.416  28.433  24.574  1.00  0.00     0.163 HD
BRANCH   5   8
ATOM      8  C   UNL A   1      31.579  27.425  22.942  1.00  0.00     0.103 C 
ATOM      9  C   UNL A   1      30.301  25.398  23.575  1.00  0.00     0.106 C 
ATOM     10  C   UNL A   1      29.671  26.651  24.086  1.00  0.00    -0.006 C 
ATOM     11  C   UNL A   1      31.526  25.888  22.804  1.00  0.00     0.047 C 
ATOM     12  C   UNL A   1      30.342  27.748  23.717  1.00  0.00    -0.016 C 
BRANCH   9  13
ATOM     13  N   UNL A   1      30.433  24.398  24.622  1.00  0.00    -0.348 N 
ATOM     14  C   UNL A   1      31.035  23.187  24.783  1.00  0.00     0.242 C 
ATOM     15  O   UNL A   1      31.027  22.725  25.928  1.00  0.00    -0.273 OA
ATOM     16  H   UNL A   1      29.954  24.670  25.438  1.00  0.00     0.164 HD
BRANCH  14  17
ATOM     17  C   UNL A   1      31.845  22.523  23.716  1.00  0.00     0.244 C 
BRANCH  17  18
ATOM     18  N   UNL A   1      32.844  21.555  24.125  1.00  0.00    -0.260 N 
ATOM     19  C   UNL A   1      33.398  18.154  24.790  1.00  0.00     0.069 C 
ATOM     20  C   UNL A   1      33.541  19.610  24.569  1.00  0.00     0.060 A 
ATOM     21  C   UNL A   1      34.559  20.503  24.956  1.00  0.00     0.048 A 
ATOM     22  N   UNL A   1      32.606  20.252  23.866  1.00  0.00    -0.178 NA
ATOM     23  C   UNL A   1      34.157  21.734  24.466  1.00  0.00     0.036 A 
ATOM     24  C   UNL A   1      34.871  23.023  24.344  1.00  0.00     0.066 C 
ENDBRANCH  17  18
ENDBRANCH  14  17
ENDBRANCH   9  13
ENDBRANCH   5   8
ENDBRANCH   3   4
ENDBRANCH   2   3
ENDBRANCH   1   2
BRANCH   1  25
ATOM     25  C   UNL A   1      31.973  29.417  27.132  1.00  0.00     0.002 C 
BRANCH  25  26
ATOM     26  C   UNL A   1      32.934  30.494  26.605  1.00  0.00     0.021 C 
BRANCH  26  27
ATOM     27  C   UNL A   1      34.208  30.644  27.423  1.00  0.00     0.116 C 
BRANCH  27  28
ATOM     28  N   UNL A   1      34.107  31.692  28.438  1.00  0.00    -0.352 N 
ATOM     29  C   UNL A   1      34.853  31.848  29.585  1.00  0.00     0.251 C 
ATOM     30  H   UNL A   1      33.415  32.374  28.282  1.00  0.00     0.163 HD
ATOM     31  O   UNL A   1      34.450  32.583  30.492  1.00  0.00    -0.269 OA
BRANCH  29  32
ATOM     32  C   UNL A   1      36.144  31.152  29.716  1.00  0.00     0.039 A 
ATOM     33  C   UNL A   1      36.216  29.763  29.877  1.00  0.00     0.014 A 
ATOM     34  C   UNL A   1      37.308  31.919  29.706  1.00  0.00     0.014 A 
ATOM     35  C   UNL A   1      37.467  29.162  29.989  1.00  0.00     0.010 A 
ATOM     36  C   UNL A   1      38.533  31.318  29.643  1.00  0.00     0.010 A 
ATOM     37  C   UNL A   1      38.620  29.953  29.869  1.00  0.00    -0.014 A 
BRANCH  37  38
ATOM     38  C   UNL A   1      39.951  29.368  29.838  1.00  0.00     0.031 A 
ATOM     39  C   UNL A   1      40.525  29.168  31.192  1.00  0.00     0.074 A 
ATOM     40  C   UNL A   1      40.483  28.834  28.716  1.00  0.00     0.049 A 
ATOM     41  N   UNL A   1      41.491  29.832  31.733  1.00  0.00    -0.248 NA
ATOM     42  C   UNL A   1      39.822  28.275  32.129  1.00  0.00     0.031 C 
ATOM     43  C   UNL A   1      39.858  28.699  27.391  1.00  0.00     0.029 A 
ATOM     44  N   UNL A   1      41.648  28.153  28.557  1.00  0.00    -0.354 N 
ATOM     45  C   UNL A   1      41.702  29.229  32.969  1.00  0.00     0.074 A 
ATOM     46  C   UNL A   1      40.503  28.489  33.257  1.00  0.00     0.031 C 
ATOM     47  C   UNL A   1      40.525  27.768  26.670  1.00  0.00     0.029 A 
ATOM     48  C   UNL A   1      41.704  27.362  27.408  1.00  0.00     0.049 A 
ATOM     49  H   UNL A   1      42.391  28.213  29.200  1.00  0.00     0.167 HD
ATOM     50  C   UNL A   1      42.958  29.130  33.485  1.00  0.00     0.034 A 
ATOM     51  C   UNL A   1      42.634  26.416  27.118  1.00  0.00     0.034 A 
ATOM     52  C   UNL A   1      43.876  29.993  32.776  1.00  0.00     0.049 A 
ATOM     53  C   UNL A   1      43.811  26.701  27.976  1.00  0.00     0.074 A 
ATOM     54  C   UNL A   1      43.919  31.342  32.479  1.00  0.00     0.029 A 
ATOM     55  N   UNL A   1      44.734  29.385  31.889  1.00  0.00    -0.354 N 
ATOM     56  N   UNL A   1      44.559  27.760  27.834  1.00  0.00    -0.248 NA
ATOM     57  C   UNL A   1      43.873  26.058  29.279  1.00  0.00     0.031 C 
ATOM     58  C   UNL A   1      44.399  31.404  31.137  1.00  0.00     0.029 A 
ATOM     59  C   UNL A   1      44.713  30.107  30.726  1.00  0.00     0.049 A 
ATOM     60  H   UNL A   1      45.269  28.577  32.060  1.00  0.00     0.167 HD
ATOM     61  C   UNL A   1      44.782  28.193  29.135  1.00  0.00     0.074 A 
ATOM     62  C   UNL A   1      44.435  27.048  29.980  1.00  0.00     0.031 C 
ATOM     63  C   UNL A   1      44.924  29.521  29.421  1.00  0.00     0.034 A 
BRANCH  50  64
ATOM     64  C   UNL A   1      43.470  27.969  34.317  1.00  0.00     0.023 A 
ATOM     65  C   UNL A   1      44.111  28.298  35.533  1.00  0.00     0.012 A 
ATOM     66  C   UNL A   1      43.624  26.641  33.855  1.00  0.00     0.148 A 
ATOM     67  C   UNL A   1      44.933  27.385  36.203  1.00  0.00     0.002 A 
ATOM     68  C   UNL A   1      44.379  25.714  34.564  1.00  0.00     0.091 A 
ATOM     69  F   UNL A   1      43.156  26.281  32.660  1.00  0.00    -0.205 F 
ATOM     70  C   UNL A   1      45.068  26.092  35.718  1.00  0.00     0.022 A 
BRANCH  68  71
ATOM     71  S   UNL A   1      44.553  24.013  34.008  1.00  0.00     0.127 S 
ATOM     72  O   UNL A   1      45.098  24.201  32.667  1.00  0.00    -0.237 OA
ATOM     73  O   UNL A   1      45.491  23.474  34.992  1.00  0.00    -0.237 OA
ATOM     74  O   UNL A   1      43.216  23.437  34.081  1.00  0.00    -0.744 OA
ENDBRANCH  68  71
ENDBRANCH  50  64
BRANCH  51  75
ATOM     75  C   UNL A   1      42.553  25.162  26.324  1.00  0.00     0.023 A 
ATOM     76  C   UNL A   1      43.602  24.836  25.437  1.00  0.00     0.012 A 
ATOM     77  C   UNL A   1      41.625  24.147  26.648  1.00  0.00     0.148 A 
ATOM     78  C   UNL A   1      43.751  23.537  24.931  1.00  0.00     0.002 A 
ATOM     79  C   UNL A   1      41.791  22.851  26.158  1.00  0.00     0.091 A 
ATOM     80  F   UNL A   1      40.611  24.440  27.473  1.00  0.00    -0.205 F 
ATOM     81  C   UNL A   1      42.859  22.540  25.309  1.00  0.00     0.022 A 
BRANCH  79  82
ATOM     82  S   UNL A   1      40.752  21.484  26.701  1.00  0.00     0.127 S 
ATOM     83  O   UNL A   1      39.460  21.839  26.118  1.00  0.00    -0.237 OA
ATOM     84  O   UNL A   1      41.400  20.322  26.095  1.00  0.00    -0.237 OA
ATOM     85  O   UNL A   1      40.822  21.513  28.153  1.00  0.00    -0.744 OA
ENDBRANCH  79  82
ENDBRANCH  51  75
BRANCH  63  86
ATOM     86  C   UNL A   1      45.076  30.484  28.268  1.00  0.00     0.023 A 
ATOM     87  C   UNL A   1      43.978  30.968  27.524  1.00  0.00     0.012 A 
ATOM     88  C   UNL A   1      46.347  31.032  28.026  1.00  0.00     0.148 A 
ATOM     89  C   UNL A   1      44.150  31.947  26.540  1.00  0.00     0.002 A 
ATOM     90  C   UNL A   1      46.507  32.036  27.079  1.00  0.00     0.091 A 
ATOM     91  F   UNL A   1      47.383  30.572  28.744  1.00  0.00    -0.205 F 
ATOM     92  C   UNL A   1      45.414  32.489  26.325  1.00  0.00     0.022 A 
BRANCH  90  93
ATOM     93  S   UNL A   1      48.089  32.848  26.843  1.00  0.00     0.127 S 
ATOM     94  O   UNL A   1      47.777  33.824  25.800  1.00  0.00    -0.237 OA
ATOM     95  O   UNL A   1      48.348  33.425  28.163  1.00  0.00    -0.237 OA
ATOM     96  O   UNL A   1      49.023  31.796  26.462  1.00  0.00    -0.744 OA
ENDBRANCH  90  93
ENDBRANCH  63  86
ENDBRANCH  37  38
ENDBRANCH  29  32
ENDBRANCH  27  28
ENDBRANCH  26  27
ENDBRANCH  25  26
ENDBRANCH   1  25
TORSDOF 19
ENDMDL
MODEL 2
REMARK VINA RESULT:     -11.5      1.503      1.961
REMARK SMILES Cc1cc(C)n(CC(=O)N[C@H]2C=C[C@@H](C(=O)NCCCCCCNC(=O)c3ccc(-c4c5nc(c(-c6cccc(S(=O)(=O)[O-])c6F)c6ccc([nH]6)c(-c6cccc(S(=O)(=O)[O-])c6F)c6nc(c(-c7cccc(S(=O)(=O)[O-])c7F)c7ccc4[nH]7)C=C6)C=C5)cc3)C2)n1
REMARK SMILES IDX 20 1 19 2 18 3 17 4 15 5 16 6 14 8 11 9 12 10 90 11 13 12
REMARK SMILES IDX 10 13 8 14 9 15 7 17 6 18 1 19 2 20 3 21 91 22 4 23 5 24
REMARK SMILES IDX 21 25 22 26 23 27 24 28 25 29 26 31 27 32 28 33 89 34 29 35
REMARK SMILES IDX 88 36 30 37 31 38 32 39 82 40 33 41 87 42 81 43 83 44 34 45
REMARK SMILES IDX 86 46 80 47 79 48 35 50 67 51 47 52 66 53 48 54 51 55 65 56
REMARK SMILES IDX 84 57 49 58 50 59 64 61 85 62 52 63 36 64 37 65 45 66 38 67
REMARK SMILES IDX 40 68 46 69 39 70 41 71 42 72 43 73 44 74 68 75 69 76 77 77
REMARK SMILES IDX 70 78 72 79 78 80 71 81 73 82 74 83 75 84 76 85 53 86 54 87
REMARK SMILES IDX 62 88 55 89 57 90 63 91 56 92 58 93 59 94 60 95 61 96
REMARK H PARENT 17 7 10 16 24 30 83 49 51 60
REMARK Flexibility Score: inf
ROOT
ATOM      1  C   UNL A   1      33.785  27.950  26.113  1.00  0.00     0.002 C 
ENDROOT
BRANCH   1   2
ATOM      2  C   UNL A   1      32.398  28.429  25.697  1.00  0.00     0.021 C 
BRANCH   2   3
ATOM      3  C   UNL A   1      32.306  29.312  24.439  1.00  0.00     0.116 C 
BRANCH   3   4
ATOM      4  N   UNL A   1      33.065  28.762  23.327  1.00  0.00    -0.356 N 
ATOM      5  C   UNL A   1      32.876  27.731  22.455  1.00  0.00     0.227 C 
ATOM      6  O   UNL A   1      33.784  27.567  21.623  1.00  0.00    -0.274 OA
ATOM      7  H   UNL A   1      33.909  29.244  23.168  1.00  0.00     0.163 HD
BRANCH   5   8
ATOM      8  C   UNL A   1      31.613  26.838  22.348  1.00  0.00     0.103 C 
ATOM      9  C   UNL A   1      30.312  25.334  23.827  1.00  0.00     0.106 C 
ATOM     10  C   UNL A   1      29.618  26.633  23.584  1.00  0.00    -0.006 C 
ATOM     11  C   UNL A   1      31.597  25.441  23.006  1.00  0.00     0.047 C 
ATOM     12  C   UNL A   1      30.304  27.433  22.760  1.00  0.00    -0.016 C 
BRANCH   9  13
ATOM     13  N   UNL A   1      30.361  25.007  25.242  1.00  0.00    -0.348 N 
ATOM     14  C   UNL A   1      30.726  23.948  26.016  1.00  0.00     0.242 C 
ATOM     15  O   UNL A   1      30.755  24.150  27.234  1.00  0.00    -0.273 OA
ATOM     16  H   UNL A   1      30.040  25.758  25.793  1.00  0.00     0.164 HD
BRANCH  14  17
ATOM     17  C   UNL A   1      31.264  22.668  25.459  1.00  0.00     0.244 C 
BRANCH  17  18
ATOM     18  N   UNL A   1      32.591  22.686  24.878  1.00  0.00    -0.260 N 
ATOM     19  C   UNL A   1      35.912  23.693  25.408  1.00  0.00     0.069 C 
ATOM     20  C   UNL A   1      34.661  23.111  24.871  1.00  0.00     0.060 A 
ATOM     21  C   UNL A   1      34.332  22.684  23.570  1.00  0.00     0.048 A 
ATOM     22  N   UNL A   1      33.640  22.893  25.702  1.00  0.00    -0.178 NA
ATOM     23  C   UNL A   1      33.029  22.223  23.667  1.00  0.00     0.036 A 
ATOM     24  C   UNL A   1      32.187  21.454  22.726  1.00  0.00     0.066 C 
ENDBRANCH  17  18
ENDBRANCH  14  17
ENDBRANCH   9  13
ENDBRANCH   5   8
ENDBRANCH   3   4
ENDBRANCH   2   3
ENDBRANCH   1   2
BRANCH   1  25
ATOM     25  C   UNL A   1      34.427  28.713  27.277  1.00  0.00     0.002 C 
BRANCH  25  26
ATOM     26  C   UNL A   1      33.778  30.050  27.670  1.00  0.00     0.021 C 
BRANCH  26  27
ATOM     27  C   UNL A   1      34.761  31.204  27.796  1.00  0.00     0.116 C 
BRANCH  27  28
ATOM     28  N   UNL A   1      34.596  31.952  29.042  1.00  0.00    -0.352 N 
ATOM     29  C   UNL A   1      35.246  31.769  30.243  1.00  0.00     0.251 C 
ATOM     30  H   UNL A   1      33.934  32.680  29.020  1.00  0.00     0.163 HD
ATOM     31  O   UNL A   1      34.783  32.256  31.279  1.00  0.00    -0.269 OA
BRANCH  29  32
ATOM     32  C   UNL A   1      36.507  31.009  30.281  1.00  0.00     0.039 A 
ATOM     33  C   UNL A   1      36.519  29.611  30.350  1.00  0.00     0.014 A 
ATOM     34  C   UNL A   1      37.704  31.723  30.279  1.00  0.00     0.014 A 
ATOM     35  C   UNL A   1      37.744  28.949  30.377  1.00  0.00     0.010 A 
ATOM     36  C   UNL A   1      38.898  31.074  30.133  1.00  0.00     0.010 A 
ATOM     37  C   UNL A   1      38.927  29.694  30.267  1.00  0.00    -0.014 A 
BRANCH  37  38
ATOM     38  C   UNL A   1      40.229  29.054  30.151  1.00  0.00     0.031 A 
ATOM     39  C   UNL A   1      40.851  28.769  31.467  1.00  0.00     0.074 A 
ATOM     40  C   UNL A   1      40.686  28.549  28.983  1.00  0.00     0.049 A 
ATOM     41  N   UNL A   1      41.869  29.366  31.992  1.00  0.00    -0.248 NA
ATOM     42  C   UNL A   1      40.150  27.866  32.396  1.00  0.00     0.031 C 
ATOM     43  C   UNL A   1      39.999  28.501  27.684  1.00  0.00     0.029 A 
ATOM     44  N   UNL A   1      41.811  27.827  28.743  1.00  0.00    -0.354 N 
ATOM     45  C   UNL A   1      42.106  28.699  33.190  1.00  0.00     0.074 A 
ATOM     46  C   UNL A   1      40.888  27.999  33.500  1.00  0.00     0.031 C 
ATOM     47  C   UNL A   1      40.591  27.576  26.894  1.00  0.00     0.029 A 
ATOM     48  C   UNL A   1      41.782  27.086  27.560  1.00  0.00     0.049 A 
ATOM     49  H   UNL A   1      42.584  27.825  29.353  1.00  0.00     0.167 HD
ATOM     50  C   UNL A   1      43.378  28.522  33.644  1.00  0.00     0.034 A 
ATOM     51  C   UNL A   1      42.655  26.114  27.187  1.00  0.00     0.034 A 
ATOM     52  C   UNL A   1      44.302  29.376  32.932  1.00  0.00     0.049 A 
ATOM     53  C   UNL A   1      43.880  26.309  28.002  1.00  0.00     0.074 A 
ATOM     54  C   UNL A   1      44.393  30.734  32.691  1.00  0.00     0.029 A 
ATOM     55  N   UNL A   1      45.092  28.772  31.981  1.00  0.00    -0.354 N 
ATOM     56  N   UNL A   1      44.667  27.340  27.872  1.00  0.00    -0.248 NA
ATOM     57  C   UNL A   1      43.969  25.607  29.272  1.00  0.00     0.031 C 
ATOM     58  C   UNL A   1      44.817  30.835  31.333  1.00  0.00     0.029 A 
ATOM     59  C   UNL A   1      45.053  29.546  30.852  1.00  0.00     0.049 A 
ATOM     60  H   UNL A   1      45.596  27.935  32.092  1.00  0.00     0.167 HD
ATOM     61  C   UNL A   1      44.967  27.704  29.179  1.00  0.00     0.074 A 
ATOM     62  C   UNL A   1      44.604  26.539  29.989  1.00  0.00     0.031 C 
ATOM     63  C   UNL A   1      45.180  29.011  29.515  1.00  0.00     0.034 A 
BRANCH  50  64
ATOM     64  C   UNL A   1      43.872  27.304  34.400  1.00  0.00     0.023 A 
ATOM     65  C   UNL A   1      43.780  26.063  33.728  1.00  0.00     0.012 A 
ATOM     66  C   UNL A   1      44.133  27.258  35.789  1.00  0.00     0.148 A 
ATOM     67  C   UNL A   1      43.852  24.847  34.415  1.00  0.00     0.002 A 
ATOM     68  C   UNL A   1      44.280  26.046  36.455  1.00  0.00     0.091 A 
ATOM     69  F   UNL A   1      44.115  28.372  36.520  1.00  0.00    -0.205 F 
ATOM     70  C   UNL A   1      44.101  24.838  35.781  1.00  0.00     0.022 A 
BRANCH  68  71
ATOM     71  S   UNL A   1      44.649  25.973  38.214  1.00  0.00     0.127 S 
ATOM     72  O   UNL A   1      43.453  26.585  38.786  1.00  0.00    -0.237 OA
ATOM     73  O   UNL A   1      44.775  24.532  38.430  1.00  0.00    -0.237 OA
ATOM     74  O   UNL A   1      45.892  26.713  38.386  1.00  0.00    -0.744 OA
ENDBRANCH  68  71
ENDBRANCH  50  64
BRANCH  51  75
ATOM     75  C   UNL A   1      42.482  24.903  26.344  1.00  0.00     0.023 A 
ATOM     76  C   UNL A   1      43.454  24.595  25.367  1.00  0.00     0.012 A 
ATOM     77  C   UNL A   1      41.555  23.894  26.690  1.00  0.00     0.148 A 
ATOM     78  C   UNL A   1      43.532  23.319  24.792  1.00  0.00     0.002 A 
ATOM     79  C   UNL A   1      41.651  22.619  26.129  1.00  0.00     0.091 A 
ATOM     80  F   UNL A   1      40.613  24.169  27.601  1.00  0.00    -0.205 F 
ATOM     81  C   UNL A   1      42.644  22.326  25.189  1.00  0.00     0.022 A 
BRANCH  79  82
ATOM     82  S   UNL A   1      40.620  21.252  26.686  1.00  0.00     0.127 S 
ATOM     83  O   UNL A   1      41.268  20.108  26.048  1.00  0.00    -0.237 OA
ATOM     84  O   UNL A   1      40.765  21.306  28.140  1.00  0.00    -0.237 OA
ATOM     85  O   UNL A   1      39.284  21.570  26.210  1.00  0.00    -0.744 OA
ENDBRANCH  79  82
ENDBRANCH  51  75
BRANCH  63  86
ATOM     86  C   UNL A   1      45.326  30.017  28.399  1.00  0.00     0.023 A 
ATOM     87  C   UNL A   1      44.220  30.570  27.716  1.00  0.00     0.012 A 
ATOM     88  C   UNL A   1      46.606  30.532  28.134  1.00  0.00     0.148 A 
ATOM     89  C   UNL A   1      44.391  31.583  26.769  1.00  0.00     0.002 A 
ATOM     90  C   UNL A   1      46.767  31.571  27.224  1.00  0.00     0.091 A 
ATOM     91  F   UNL A   1      47.649  30.007  28.794  1.00  0.00    -0.205 F 
ATOM     92  C   UNL A   1      45.665  32.092  26.531  1.00  0.00     0.022 A 
BRANCH  90  93
ATOM     93  S   UNL A   1      48.367  32.339  26.965  1.00  0.00     0.127 S 
ATOM     94  O   UNL A   1      49.176  31.211  26.509  1.00  0.00    -0.237 OA
ATOM     95  O   UNL A   1      48.076  33.339  25.936  1.00  0.00    -0.237 OA
ATOM     96  O   UNL A   1      48.749  32.908  28.252  1.00  0.00    -0.744 OA
ENDBRANCH  90  93
ENDBRANCH  63  86
ENDBRANCH  37  38
ENDBRANCH  29  32
ENDBRANCH  27  28
ENDBRANCH  26  27
ENDBRANCH  25  26
ENDBRANCH   1  25
TORSDOF 19
ENDMDL
MODEL 3
REMARK VINA RESULT:     -11.2      3.112      9.127
REMARK SMILES Cc1cc(C)n(CC(=O)N[C@H]2C=C[C@@H](C(=O)NCCCCCCNC(=O)c3ccc(-c4c5nc(c(-c6cccc(S(=O)(=O)[O-])c6F)c6ccc([nH]6)c(-c6cccc(S(=O)(=O)[O-])c6F)c6nc(c(-c7cccc(S(=O)(=O)[O-])c7F)c7ccc4[nH]7)C=C6)C=C5)cc3)C2)n1
REMARK SMILES IDX 20 1 19 2 18 3 17 4 15 5 16 6 14 8 11 9 12 10 90 11 13 12
REMARK SMILES IDX 10 13 8 14 9 15 7 17 6 18 1 19 2 20 3 21 91 22 4 23 5 24
REMARK SMILES IDX 21 25 22 26 23 27 24 28 25 29 26 31 27 32 28 33 89 34 29 35
REMARK SMILES IDX 88 36 30 37 31 38 32 39 82 40 33 41 87 42 81 43 83 44 34 45
REMARK SMILES IDX 86 46 80 47 79 48 35 50 67 51 47 52 66 53 48 54 51 55 65 56
REMARK SMILES IDX 84 57 49 58 50 59 64 61 85 62 52 63 36 64 37 65 45 66 38 67
REMARK SMILES IDX 40 68 46 69 39 70 41 71 42 72 43 73 44 74 68 75 69 76 77 77
REMARK SMILES IDX 70 78 72 79 78 80 71 81 73 82 74 83 75 84 76 85 53 86 54 87
REMARK SMILES IDX 62 88 55 89 57 90 63 91 56 92 58 93 59 94 60 95 61 96
REMARK H PARENT 17 7 10 16 24 30 83 49 51 60
REMARK Flexibility Score: inf
ROOT
ATOM      1  C   UNL A   1      41.642  21.073  27.289  1.00  0.00     0.002 C 
ENDROOT
BRANCH   1   2
ATOM      2  C   UNL A   1      40.752  21.465  26.114  1.00  0.00     0.021 C 
BRANCH   2   3
ATOM      3  C   UNL A   1      39.409  22.142  26.443  1.00  0.00     0.116 C 
BRANCH   3   4
ATOM      4  N   UNL A   1      38.275  21.385  25.935  1.00  0.00    -0.356 N 
ATOM      5  C   UNL A   1      37.132  21.706  25.266  1.00  0.00     0.227 C 
ATOM      6  O   UNL A   1      36.383  20.749  25.005  1.00  0.00    -0.274 OA
ATOM      7  H   UNL A   1      38.351  20.420  26.116  1.00  0.00     0.163 HD
BRANCH   5   8
ATOM      8  C   UNL A   1      36.746  23.107  24.726  1.00  0.00     0.103 C 
ATOM      9  C   UNL A   1      34.716  24.235  23.861  1.00  0.00     0.106 C 
ATOM     10  C   UNL A   1      35.070  24.680  25.241  1.00  0.00    -0.006 C 
ATOM     11  C   UNL A   1      35.814  23.234  23.501  1.00  0.00     0.047 C 
ATOM     12  C   UNL A   1      36.184  24.097  25.696  1.00  0.00    -0.016 C 
BRANCH   9  13
ATOM     13  N   UNL A   1      33.313  23.866  23.758  1.00  0.00    -0.348 N 
ATOM     14  C   UNL A   1      32.217  24.271  23.059  1.00  0.00     0.242 C 
ATOM     15  O   UNL A   1      31.213  23.559  23.164  1.00  0.00    -0.273 OA
ATOM     16  H   UNL A   1      33.096  23.119  24.363  1.00  0.00     0.164 HD
BRANCH  14  17
ATOM     17  C   UNL A   1      32.245  25.379  22.056  1.00  0.00     0.244 C 
BRANCH  17  18
ATOM     18  N   UNL A   1      31.683  26.659  22.442  1.00  0.00    -0.260 N 
ATOM     19  C   UNL A   1      28.682  28.384  23.022  1.00  0.00     0.069 C 
ATOM     20  C   UNL A   1      30.101  27.982  22.904  1.00  0.00     0.060 A 
ATOM     21  C   UNL A   1      31.274  28.759  22.843  1.00  0.00     0.048 A 
ATOM     22  N   UNL A   1      30.405  26.683  22.878  1.00  0.00    -0.178 NA
ATOM     23  C   UNL A   1      32.305  27.839  22.745  1.00  0.00     0.036 A 
ATOM     24  C   UNL A   1      33.771  27.991  22.863  1.00  0.00     0.066 C 
ENDBRANCH  17  18
ENDBRANCH  14  17
ENDBRANCH   9  13
ENDBRANCH   5   8
ENDBRANCH   3   4
ENDBRANCH   2   3
ENDBRANCH   1   2
BRANCH   1  25
ATOM     25  C   UNL A   1      41.949  19.576  27.416  1.00  0.00     0.002 C 
BRANCH  25  26
ATOM     26  C   UNL A   1      42.366  18.844  26.131  1.00  0.00     0.021 C 
BRANCH  26  27
ATOM     27  C   UNL A   1      43.867  18.634  25.994  1.00  0.00     0.116 C 
BRANCH  27  28
ATOM     28  N   UNL A   1      44.342  18.830  24.625  1.00  0.00    -0.352 N 
ATOM     29  C   UNL A   1      44.493  20.011  23.932  1.00  0.00     0.251 C 
ATOM     30  H   UNL A   1      44.585  18.013  24.135  1.00  0.00     0.163 HD
ATOM     31  O   UNL A   1      44.596  19.999  22.702  1.00  0.00    -0.269 OA
BRANCH  29  32
ATOM     32  C   UNL A   1      44.553  21.286  24.668  1.00  0.00     0.039 A 
ATOM     33  C   UNL A   1      43.716  22.360  24.343  1.00  0.00     0.014 A 
ATOM     34  C   UNL A   1      45.495  21.412  25.687  1.00  0.00     0.014 A 
ATOM     35  C   UNL A   1      43.815  23.537  25.080  1.00  0.00     0.010 A 
ATOM     36  C   UNL A   1      45.476  22.498  26.517  1.00  0.00     0.010 A 
ATOM     37  C   UNL A   1      44.700  23.592  26.166  1.00  0.00    -0.014 A 
BRANCH  37  38
ATOM     38  C   UNL A   1      44.751  24.742  27.057  1.00  0.00     0.031 A 
ATOM     39  C   UNL A   1      45.888  25.649  26.764  1.00  0.00     0.074 A 
ATOM     40  C   UNL A   1      43.729  25.067  27.879  1.00  0.00     0.049 A 
ATOM     41  N   UNL A   1      46.952  25.818  27.476  1.00  0.00    -0.248 NA
ATOM     42  C   UNL A   1      45.954  26.288  25.438  1.00  0.00     0.031 C 
ATOM     43  C   UNL A   1      42.422  24.405  28.008  1.00  0.00     0.029 A 
ATOM     44  N   UNL A   1      43.578  26.161  28.670  1.00  0.00    -0.354 N 
ATOM     45  C   UNL A   1      47.675  26.810  26.822  1.00  0.00     0.074 A 
ATOM     46  C   UNL A   1      47.163  26.853  25.479  1.00  0.00     0.031 C 
ATOM     47  C   UNL A   1      41.547  25.245  28.607  1.00  0.00     0.029 A 
ATOM     48  C   UNL A   1      42.260  26.429  29.043  1.00  0.00     0.049 A 
ATOM     49  H   UNL A   1      44.337  26.719  28.957  1.00  0.00     0.167 HD
ATOM     50  C   UNL A   1      48.398  27.721  27.531  1.00  0.00     0.034 A 
ATOM     51  C   UNL A   1      41.795  27.564  29.628  1.00  0.00     0.034 A 
ATOM     52  C   UNL A   1      48.560  27.295  28.903  1.00  0.00     0.049 A 
ATOM     53  C   UNL A   1      42.971  28.246  30.224  1.00  0.00     0.074 A 
ATOM     54  C   UNL A   1      49.053  26.163  29.524  1.00  0.00     0.029 A 
ATOM     55  N   UNL A   1      47.780  27.928  29.843  1.00  0.00    -0.354 N 
ATOM     56  N   UNL A   1      43.638  27.763  31.235  1.00  0.00    -0.248 NA
ATOM     57  C   UNL A   1      43.683  29.213  29.405  1.00  0.00     0.031 C 
ATOM     58  C   UNL A   1      48.159  25.923  30.609  1.00  0.00     0.029 A 
ATOM     59  C   UNL A   1      47.232  26.966  30.649  1.00  0.00     0.049 A 
ATOM     60  H   UNL A   1      47.640  28.899  29.922  1.00  0.00     0.167 HD
ATOM     61  C   UNL A   1      44.968  27.974  30.894  1.00  0.00     0.074 A 
ATOM     62  C   UNL A   1      44.931  28.967  29.817  1.00  0.00     0.031 C 
ATOM     63  C   UNL A   1      45.944  27.103  31.291  1.00  0.00     0.034 A 
BRANCH  50  64
ATOM     64  C   UNL A   1      48.590  29.175  27.144  1.00  0.00     0.023 A 
ATOM     65  C   UNL A   1      49.892  29.704  27.303  1.00  0.00     0.012 A 
ATOM     66  C   UNL A   1      47.547  30.105  26.925  1.00  0.00     0.148 A 
ATOM     67  C   UNL A   1      50.127  31.083  27.334  1.00  0.00     0.002 A 
ATOM     68  C   UNL A   1      47.797  31.472  26.881  1.00  0.00     0.091 A 
ATOM     69  F   UNL A   1      46.277  29.702  26.887  1.00  0.00    -0.205 F 
ATOM     70  C   UNL A   1      49.078  31.968  27.124  1.00  0.00     0.022 A 
BRANCH  68  71
ATOM     71  S   UNL A   1      46.487  32.663  26.567  1.00  0.00     0.127 S 
ATOM     72  O   UNL A   1      46.061  32.989  27.925  1.00  0.00    -0.237 OA
ATOM     73  O   UNL A   1      47.212  33.725  25.870  1.00  0.00    -0.237 OA
ATOM     74  O   UNL A   1      45.511  31.965  25.739  1.00  0.00    -0.744 OA
ENDBRANCH  68  71
ENDBRANCH  50  64
BRANCH  51  75
ATOM     75  C   UNL A   1      40.473  28.239  29.561  1.00  0.00     0.023 A 
ATOM     76  C   UNL A   1      39.717  28.166  28.371  1.00  0.00     0.012 A 
ATOM     77  C   UNL A   1      39.816  28.683  30.731  1.00  0.00     0.148 A 
ATOM     78  C   UNL A   1      38.350  28.475  28.355  1.00  0.00     0.002 A 
ATOM     79  C   UNL A   1      38.450  28.969  30.714  1.00  0.00     0.091 A 
ATOM     80  F   UNL A   1      40.518  28.778  31.869  1.00  0.00    -0.205 F 
ATOM     81  C   UNL A   1      37.712  28.856  29.530  1.00  0.00     0.022 A 
BRANCH  79  82
ATOM     82  S   UNL A   1      37.534  29.344  32.217  1.00  0.00     0.127 S 
ATOM     83  O   UNL A   1      37.628  28.083  32.949  1.00  0.00    -0.237 OA
ATOM     84  O   UNL A   1      38.299  30.448  32.797  1.00  0.00    -0.237 OA
ATOM     85  O   UNL A   1      36.204  29.717  31.764  1.00  0.00    -0.744 OA
ENDBRANCH  79  82
ENDBRANCH  51  75
BRANCH  63  86
ATOM     86  C   UNL A   1      45.583  26.048  32.309  1.00  0.00     0.023 A 
ATOM     87  C   UNL A   1      45.008  24.808  31.955  1.00  0.00     0.012 A 
ATOM     88  C   UNL A   1      45.975  26.253  33.642  1.00  0.00     0.148 A 
ATOM     89  C   UNL A   1      44.797  23.812  32.914  1.00  0.00     0.002 A 
ATOM     90  C   UNL A   1      45.804  25.245  34.584  1.00  0.00     0.091 A 
ATOM     91  F   UNL A   1      46.529  27.430  33.966  1.00  0.00    -0.205 F 
ATOM     92  C   UNL A   1      45.206  24.027  34.227  1.00  0.00     0.022 A 
BRANCH  90  93
ATOM     93  S   UNL A   1      46.416  25.425  36.260  1.00  0.00     0.127 S 
ATOM     94  O   UNL A   1      45.989  24.171  36.876  1.00  0.00    -0.237 OA
ATOM     95  O   UNL A   1      47.861  25.548  36.058  1.00  0.00    -0.237 OA
ATOM     96  O   UNL A   1      45.788  26.631  36.785  1.00  0.00    -0.744 OA
ENDBRANCH  90  93
ENDBRANCH  63  86
ENDBRANCH  37  38
ENDBRANCH  29  32
ENDBRANCH  27  28
ENDBRANCH  26  27
ENDBRANCH  25  26
ENDBRANCH   1  25
TORSDOF 19
ENDMDL
