MODEL 1
REMARK VINA RESULT:     -11.9      0.000      0.000
REMARK SMILES CCc1nc(C(=O)N2CC[NH+]([C@H](C)C(=O)NCCCCCCNC(=O)c3ccc(-c4c5nc(c(-c6cccc(S(=O)(=O)[O-])c6F)c6ccc([nH]6)c(-c6cccc(S(=O)(=O)[O-])c6F)c6nc(c(-c7cccc(S(=O)(=O)[O-])c7F)c7ccc4[nH]7)C=C6)C=C5)cc3)CC2)n[nH]1
REMARK SMILES IDX 19 1 18 2 17 3 16 4 14 5 15 6 12 8 13 9 11 10 6 11 7 12 8 13
REMARK SMILES IDX 9 14 90 15 10 16 89 17 5 19 3 20 4 21 92 22 91 23 2 25 1 26
REMARK SMILES IDX 20 27 21 28 22 29 23 30 24 31 25 33 26 34 27 35 88 36 28 37
REMARK SMILES IDX 87 38 29 39 30 40 31 41 81 42 32 43 86 44 80 45 82 46 33 47
REMARK SMILES IDX 85 48 79 49 78 50 34 52 66 53 46 54 65 55 47 56 50 57 64 58
REMARK SMILES IDX 83 59 48 60 49 61 63 63 84 64 51 65 35 66 36 67 44 68 37 69
REMARK SMILES IDX 39 70 45 71 38 72 40 73 41 74 42 75 43 76 67 77 68 78 76 79
REMARK SMILES IDX 69 80 71 81 77 82 70 83 72 84 73 85 74 86 75 87 52 88 53 89
REMARK SMILES IDX 61 90 54 91 56 92 62 93 55 94 57 95 58 96 59 97 60 98
REMARK H PARENT 16 7 11 18 92 24 23 32 82 51 50 62
REMARK Flexibility Score: inf
ROOT
ATOM      1  C   UNL A   1      31.548  29.342  25.551  1.00  0.00     0.002 C 
ENDROOT
BRANCH   1   2
ATOM      2  C   UNL A   1      32.534  29.013  24.426  1.00  0.00     0.021 C 
BRANCH   2   3
ATOM      3  C   UNL A   1      31.904  28.614  23.097  1.00  0.00     0.116 C 
BRANCH   3   4
ATOM      4  N   UNL A   1      32.765  27.795  22.267  1.00  0.00    -0.351 N 
ATOM      5  C   UNL A   1      32.872  26.436  22.176  1.00  0.00     0.278 C 
ATOM      6  O   UNL A   1      33.528  25.997  21.222  1.00  0.00    -0.268 OA
ATOM      7  H   UNL A   1      33.369  28.299  21.675  1.00  0.00     0.163 HD
BRANCH   5   8
ATOM      8  C   UNL A   1      32.251  25.468  23.218  1.00  0.00     0.271 C 
ATOM      9  C   UNL A   1      31.282  24.457  22.591  1.00  0.00     0.086 C 
BRANCH   8  10
ATOM     10  N   UNL A   1      33.199  24.988  24.266  1.00  0.00    -0.322 N 
ATOM     11  C   UNL A   1      35.102  21.630  25.353  1.00  0.00     0.293 C 
ATOM     12  O   UNL A   1      36.235  21.379  24.944  1.00  0.00    -0.265 OA
ATOM     13  N   UNL A   1      34.741  22.955  25.630  1.00  0.00    -0.325 N 
ATOM     14  C   UNL A   1      35.435  24.006  24.904  1.00  0.00     0.181 C 
ATOM     15  C   UNL A   1      33.506  23.409  26.249  1.00  0.00     0.181 C 
ATOM     16  C   UNL A   1      34.500  24.491  23.774  1.00  0.00     0.284 C 
ATOM     17  C   UNL A   1      32.560  24.007  25.185  1.00  0.00     0.284 C 
ATOM     18  H   UNL A   1      33.430  25.833  24.790  1.00  0.00     0.348 HD
BRANCH  11  19
ATOM     19  C   UNL A   1      34.055  20.578  25.417  1.00  0.00     0.239 A 
ATOM     20  C   UNL A   1      33.077  18.737  24.963  1.00  0.00     0.124 A 
ATOM     21  N   UNL A   1      33.827  19.658  24.397  1.00  0.00    -0.208 NA
ATOM     22  N   UNL A   1      32.812  19.113  26.248  1.00  0.00    -0.263 N 
ATOM     23  N   UNL A   1      33.378  20.284  26.540  1.00  0.00    -0.148 NA
ATOM     24  H   UNL A   1      32.271  18.586  26.879  1.00  0.00     0.192 HD
BRANCH  20  25
ATOM     25  C   UNL A   1      32.655  17.437  24.383  1.00  0.00     0.073 C 
ATOM     26  C   UNL A   1      33.772  16.742  23.626  1.00  0.00     0.012 C 
ENDBRANCH  20  25
ENDBRANCH  11  19
ENDBRANCH   8  10
ENDBRANCH   5   8
ENDBRANCH   3   4
ENDBRANCH   2   3
ENDBRANCH   1   2
BRANCH   1  27
ATOM     27  C   UNL A   1      32.125  30.050  26.781  1.00  0.00     0.002 C 
BRANCH  27  28
ATOM     28  C   UNL A   1      31.842  31.550  26.908  1.00  0.00     0.021 C 
BRANCH  28  29
ATOM     29  C   UNL A   1      33.004  32.417  27.381  1.00  0.00     0.116 C 
BRANCH  29  30
ATOM     30  N   UNL A   1      32.612  33.784  27.682  1.00  0.00    -0.352 N 
ATOM     31  C   UNL A   1      33.135  34.660  28.602  1.00  0.00     0.251 C 
ATOM     32  H   UNL A   1      31.862  34.132  27.149  1.00  0.00     0.163 HD
ATOM     33  O   UNL A   1      32.593  35.746  28.792  1.00  0.00    -0.269 OA
BRANCH  31  34
ATOM     34  C   UNL A   1      34.330  34.285  29.388  1.00  0.00     0.039 A 
ATOM     35  C   UNL A   1      34.156  33.564  30.574  1.00  0.00     0.014 A 
ATOM     36  C   UNL A   1      35.615  34.624  28.955  1.00  0.00     0.014 A 
ATOM     37  C   UNL A   1      35.273  33.109  31.280  1.00  0.00     0.010 A 
ATOM     38  C   UNL A   1      36.726  34.123  29.630  1.00  0.00     0.010 A 
ATOM     39  C   UNL A   1      36.567  33.348  30.790  1.00  0.00    -0.014 A 
BRANCH  39  40
ATOM     40  C   UNL A   1      37.763  32.746  31.432  1.00  0.00     0.031 A 
ATOM     41  C   UNL A   1      38.457  31.569  30.805  1.00  0.00     0.074 A 
ATOM     42  C   UNL A   1      38.153  33.190  32.644  1.00  0.00     0.049 A 
ATOM     43  N   UNL A   1      39.445  30.850  31.273  1.00  0.00    -0.248 NA
ATOM     44  C   UNL A   1      37.963  31.129  29.490  1.00  0.00     0.031 C 
ATOM     45  C   UNL A   1      37.517  34.278  33.389  1.00  0.00     0.029 A 
ATOM     46  N   UNL A   1      39.152  32.756  33.480  1.00  0.00    -0.354 N 
ATOM     47  C   UNL A   1      39.668  29.852  30.333  1.00  0.00     0.074 A 
ATOM     48  C   UNL A   1      38.700  30.047  29.274  1.00  0.00     0.031 C 
ATOM     49  C   UNL A   1      38.133  34.420  34.573  1.00  0.00     0.029 A 
ATOM     50  C   UNL A   1      39.185  33.415  34.687  1.00  0.00     0.049 A 
ATOM     51  H   UNL A   1      39.785  32.041  33.238  1.00  0.00     0.167 HD
ATOM     52  C   UNL A   1      40.610  28.878  30.338  1.00  0.00     0.034 A 
ATOM     53  C   UNL A   1      39.961  33.221  35.772  1.00  0.00     0.034 A 
ATOM     54  C   UNL A   1      41.599  28.716  31.368  1.00  0.00     0.049 A 
ATOM     55  C   UNL A   1      41.002  32.136  35.746  1.00  0.00     0.074 A 
ATOM     56  C   UNL A   1      42.661  27.829  31.408  1.00  0.00     0.029 A 
ATOM     57  N   UNL A   1      41.645  29.446  32.547  1.00  0.00    -0.354 N 
ATOM     58  N   UNL A   1      41.309  31.311  34.776  1.00  0.00    -0.248 NA
ATOM     59  C   UNL A   1      41.820  31.972  36.958  1.00  0.00     0.031 C 
ATOM     60  C   UNL A   1      43.336  28.008  32.620  1.00  0.00     0.029 A 
ATOM     61  C   UNL A   1      42.703  29.015  33.330  1.00  0.00     0.049 A 
ATOM     62  H   UNL A   1      41.018  30.165  32.790  1.00  0.00     0.167 HD
ATOM     63  C   UNL A   1      42.368  30.546  35.248  1.00  0.00     0.074 A 
ATOM     64  C   UNL A   1      42.668  31.023  36.582  1.00  0.00     0.031 C 
ATOM     65  C   UNL A   1      43.021  29.527  34.638  1.00  0.00     0.034 A 
BRANCH  52  66
ATOM     66  C   UNL A   1      40.656  27.942  29.160  1.00  0.00     0.023 A 
ATOM     67  C   UNL A   1      39.739  26.875  29.090  1.00  0.00     0.012 A 
ATOM     68  C   UNL A   1      41.554  28.155  28.095  1.00  0.00     0.148 A 
ATOM     69  C   UNL A   1      39.729  26.018  27.991  1.00  0.00     0.002 A 
ATOM     70  C   UNL A   1      41.513  27.319  26.985  1.00  0.00     0.091 A 
ATOM     71  F   UNL A   1      42.435  29.161  28.191  1.00  0.00    -0.205 F 
ATOM     72  C   UNL A   1      40.608  26.245  26.935  1.00  0.00     0.022 A 
BRANCH  70  73
ATOM     73  S   UNL A   1      42.558  27.571  25.546  1.00  0.00     0.127 S 
ATOM     74  O   UNL A   1      42.263  26.377  24.754  1.00  0.00    -0.237 OA
ATOM     75  O   UNL A   1      42.026  28.817  24.991  1.00  0.00    -0.237 OA
ATOM     76  O   UNL A   1      43.920  27.668  26.053  1.00  0.00    -0.744 OA
ENDBRANCH  70  73
ENDBRANCH  52  66
BRANCH  53  77
ATOM     77  C   UNL A   1      39.813  34.105  36.961  1.00  0.00     0.023 A 
ATOM     78  C   UNL A   1      40.237  35.446  36.879  1.00  0.00     0.012 A 
ATOM     79  C   UNL A   1      39.233  33.640  38.156  1.00  0.00     0.148 A 
ATOM     80  C   UNL A   1      40.107  36.302  37.974  1.00  0.00     0.002 A 
ATOM     81  C   UNL A   1      39.059  34.512  39.225  1.00  0.00     0.091 A 
ATOM     82  F   UNL A   1      38.857  32.355  38.219  1.00  0.00    -0.205 F 
ATOM     83  C   UNL A   1      39.508  35.838  39.141  1.00  0.00     0.022 A 
BRANCH  81  84
ATOM     84  S   UNL A   1      38.183  34.036  40.717  1.00  0.00     0.127 S 
ATOM     85  O   UNL A   1      37.957  35.332  41.354  1.00  0.00    -0.237 OA
ATOM     86  O   UNL A   1      36.983  33.398  40.173  1.00  0.00    -0.237 OA
ATOM     87  O   UNL A   1      39.086  33.130  41.410  1.00  0.00    -0.744 OA
ENDBRANCH  81  84
ENDBRANCH  53  77
BRANCH  65  88
ATOM     88  C   UNL A   1      44.133  28.857  35.399  1.00  0.00     0.023 A 
ATOM     89  C   UNL A   1      45.438  29.384  35.324  1.00  0.00     0.012 A 
ATOM     90  C   UNL A   1      43.877  27.759  36.243  1.00  0.00     0.148 A 
ATOM     91  C   UNL A   1      46.476  28.815  36.062  1.00  0.00     0.002 A 
ATOM     92  C   UNL A   1      44.907  27.224  37.009  1.00  0.00     0.091 A 
ATOM     93  F   UNL A   1      42.633  27.261  36.284  1.00  0.00    -0.205 F 
ATOM     94  C   UNL A   1      46.208  27.745  36.912  1.00  0.00     0.022 A 
BRANCH  92  95
ATOM     95  S   UNL A   1      44.641  25.904  38.197  1.00  0.00     0.127 S 
ATOM     96  O   UNL A   1      46.003  25.635  38.654  1.00  0.00    -0.237 OA
ATOM     97  O   UNL A   1      43.781  26.549  39.190  1.00  0.00    -0.237 OA
ATOM     98  O   UNL A   1      44.004  24.821  37.460  1.00  0.00    -0.744 OA
ENDBRANCH  92  95
ENDBRANCH  65  88
ENDBRANCH  39  40
ENDBRANCH  31  34
ENDBRANCH  29  30
ENDBRANCH  28  29
ENDBRANCH  27  28
ENDBRANCH   1  27
TORSDOF 19
ENDMDL
MODEL 2
REMARK VINA RESULT:     -11.5      1.730      2.143
REMARK SMILES CCc1nc(C(=O)N2CC[NH+]([C@H](C)C(=O)NCCCCCCNC(=O)c3ccc(-c4c5nc(c(-c6cccc(S(=O)(=O)[O-])c6F)c6ccc([nH]6)c(-c6cccc(S(=O)(=O)[O-])c6F)c6nc(c(-c7cccc(S(=O)(=O)[O-])c7F)c7ccc4[nH]7)C=C6)C=C5)cc3)CC2)n[nH]1
REMARK SMILES IDX 19 1 18 2 17 3 16 4 14 5 15 6 12 8 13 9 11 10 6 11 7 12 8 13
REMARK SMILES IDX 9 14 90 15 10 16 89 17 5 19 3 20 4 21 92 22 91 23 2 25 1 26
REMARK SMILES IDX 20 27 21 28 22 29 23 30 24 31 25 33 26 34 27 35 88 36 28 37
REMARK SMILES IDX 87 38 29 39 30 40 31 41 81 42 32 43 86 44 80 45 82 46 33 47
REMARK SMILES IDX 85 48 79 49 78 50 34 52 66 53 46 54 65 55 47 56 50 57 64 58
REMARK SMILES IDX 83 59 48 60 49 61 63 63 84 64 51 65 35 66 36 67 44 68 37 69
REMARK SMILES IDX 39 70 45 71 38 72 40 73 41 74 42 75 43 76 67 77 68 78 76 79
REMARK SMILES IDX 69 80 71 81 77 82 70 83 72 84 73 85 74 86 75 87 52 88 53 89
REMARK SMILES IDX 61 90 54 91 56 92 62 93 55 94 57 95 58 96 59 97 60 98
REMARK H PARENT 16 7 11 18 92 24 23 32 82 51 50 62
REMARK Flexibility Score: inf
ROOT
ATOM      1  C   UNL A   1      31.276  29.535  25.213  1.00  0.00     0.002 C 
ENDROOT
BRANCH   1   2
ATOM      2  C   UNL A   1      31.574  29.003  23.809  1.00  0.00     0.021 C 
BRANCH   2   3
ATOM      3  C   UNL A   1      30.622  27.928  23.298  1.00  0.00     0.116 C 
BRANCH   3   4
ATOM      4  N   UNL A   1      31.011  27.364  22.022  1.00  0.00    -0.351 N 
ATOM      5  C   UNL A   1      31.797  26.283  21.737  1.00  0.00     0.278 C 
ATOM      6  O   UNL A   1      31.782  25.885  20.564  1.00  0.00    -0.268 OA
ATOM      7  H   UNL A   1      30.653  27.834  21.235  1.00  0.00     0.163 HD
BRANCH   5   8
ATOM      8  C   UNL A   1      32.701  25.593  22.793  1.00  0.00     0.271 C 
ATOM      9  C   UNL A   1      33.875  26.474  23.240  1.00  0.00     0.086 C 
BRANCH   8  10
ATOM     10  N   UNL A   1      31.964  24.811  23.829  1.00  0.00    -0.322 N 
ATOM     11  C   UNL A   1      32.703  22.181  26.764  1.00  0.00     0.293 C 
ATOM     12  O   UNL A   1      32.894  22.553  27.921  1.00  0.00    -0.265 OA
ATOM     13  N   UNL A   1      31.781  22.860  25.957  1.00  0.00    -0.325 N 
ATOM     14  C   UNL A   1      31.533  24.261  26.254  1.00  0.00     0.181 C 
ATOM     15  C   UNL A   1      31.333  22.470  24.630  1.00  0.00     0.181 C 
ATOM     16  C   UNL A   1      32.325  25.104  25.231  1.00  0.00     0.284 C 
ATOM     17  C   UNL A   1      32.010  23.348  23.556  1.00  0.00     0.284 C 
ATOM     18  H   UNL A   1      31.001  25.136  23.740  1.00  0.00     0.348 HD
BRANCH  11  19
ATOM     19  C   UNL A   1      33.540  21.118  26.150  1.00  0.00     0.239 A 
ATOM     20  C   UNL A   1      34.000  19.411  24.956  1.00  0.00     0.124 A 
ATOM     21  N   UNL A   1      33.032  19.904  25.697  1.00  0.00    -0.208 NA
ATOM     22  N   UNL A   1      35.070  20.257  25.007  1.00  0.00    -0.263 N 
ATOM     23  N   UNL A   1      34.819  21.312  25.785  1.00  0.00    -0.148 NA
ATOM     24  H   UNL A   1      35.918  20.108  24.531  1.00  0.00     0.192 HD
BRANCH  20  25
ATOM     25  C   UNL A   1      33.952  18.199  24.100  1.00  0.00     0.073 C 
ATOM     26  C   UNL A   1      34.770  17.050  24.663  1.00  0.00     0.012 C 
ENDBRANCH  20  25
ENDBRANCH  11  19
ENDBRANCH   8  10
ENDBRANCH   5   8
ENDBRANCH   3   4
ENDBRANCH   2   3
ENDBRANCH   1   2
BRANCH   1  27
ATOM     27  C   UNL A   1      30.888  31.014  25.317  1.00  0.00     0.002 C 
BRANCH  27  28
ATOM     28  C   UNL A   1      31.166  31.706  26.655  1.00  0.00     0.021 C 
BRANCH  28  29
ATOM     29  C   UNL A   1      32.501  32.434  26.772  1.00  0.00     0.116 C 
BRANCH  29  30
ATOM     30  N   UNL A   1      32.396  33.715  27.451  1.00  0.00    -0.352 N 
ATOM     31  C   UNL A   1      33.195  34.253  28.431  1.00  0.00     0.251 C 
ATOM     32  H   UNL A   1      31.642  34.280  27.166  1.00  0.00     0.163 HD
ATOM     33  O   UNL A   1      32.879  35.312  28.968  1.00  0.00    -0.269 OA
BRANCH  31  34
ATOM     34  C   UNL A   1      34.417  33.541  28.865  1.00  0.00     0.039 A 
ATOM     35  C   UNL A   1      35.662  34.111  28.584  1.00  0.00     0.014 A 
ATOM     36  C   UNL A   1      34.339  32.330  29.558  1.00  0.00     0.014 A 
ATOM     37  C   UNL A   1      36.826  33.511  29.072  1.00  0.00     0.010 A 
ATOM     38  C   UNL A   1      35.496  31.763  30.090  1.00  0.00     0.010 A 
ATOM     39  C   UNL A   1      36.749  32.356  29.866  1.00  0.00    -0.014 A 
BRANCH  39  40
ATOM     40  C   UNL A   1      37.951  31.787  30.527  1.00  0.00     0.031 A 
ATOM     41  C   UNL A   1      38.767  30.723  29.848  1.00  0.00     0.074 A 
ATOM     42  C   UNL A   1      38.237  32.149  31.794  1.00  0.00     0.049 A 
ATOM     43  N   UNL A   1      39.779  30.038  30.314  1.00  0.00    -0.248 NA
ATOM     44  C   UNL A   1      38.381  30.367  28.473  1.00  0.00     0.031 C 
ATOM     45  C   UNL A   1      37.479  33.118  32.588  1.00  0.00     0.029 A 
ATOM     46  N   UNL A   1      39.220  31.715  32.651  1.00  0.00    -0.354 N 
ATOM     47  C   UNL A   1      40.130  29.146  29.309  1.00  0.00     0.074 A 
ATOM     48  C   UNL A   1      39.210  29.363  28.212  1.00  0.00     0.031 C 
ATOM     49  C   UNL A   1      38.017  33.199  33.816  1.00  0.00     0.029 A 
ATOM     50  C   UNL A   1      39.135  32.266  33.909  1.00  0.00     0.049 A 
ATOM     51  H   UNL A   1      39.918  31.071  32.389  1.00  0.00     0.167 HD
ATOM     52  C   UNL A   1      41.142  28.245  29.290  1.00  0.00     0.034 A 
ATOM     53  C   UNL A   1      39.862  32.032  35.020  1.00  0.00     0.034 A 
ATOM     54  C   UNL A   1      42.082  28.064  30.363  1.00  0.00     0.049 A 
ATOM     55  C   UNL A   1      40.982  31.032  34.967  1.00  0.00     0.074 A 
ATOM     56  C   UNL A   1      43.205  27.255  30.393  1.00  0.00     0.029 A 
ATOM     57  N   UNL A   1      42.007  28.688  31.599  1.00  0.00    -0.354 N 
ATOM     58  N   UNL A   1      41.405  30.320  33.952  1.00  0.00    -0.248 NA
ATOM     59  C   UNL A   1      41.742  30.820  36.209  1.00  0.00     0.031 C 
ATOM     60  C   UNL A   1      43.796  27.374  31.656  1.00  0.00     0.029 A 
ATOM     61  C   UNL A   1      43.049  28.266  32.407  1.00  0.00     0.049 A 
ATOM     62  H   UNL A   1      41.314  29.336  31.862  1.00  0.00     0.167 HD
ATOM     63  C   UNL A   1      42.492  29.593  34.422  1.00  0.00     0.074 A 
ATOM     64  C   UNL A   1      42.680  29.971  35.807  1.00  0.00     0.031 C 
ATOM     65  C   UNL A   1      43.254  28.682  33.770  1.00  0.00     0.034 A 
BRANCH  52  66
ATOM     66  C   UNL A   1      41.325  27.422  28.043  1.00  0.00     0.023 A 
ATOM     67  C   UNL A   1      41.949  28.000  26.920  1.00  0.00     0.012 A 
ATOM     68  C   UNL A   1      40.946  26.065  28.004  1.00  0.00     0.148 A 
ATOM     69  C   UNL A   1      42.171  27.249  25.767  1.00  0.00     0.002 A 
ATOM     70  C   UNL A   1      41.204  25.313  26.864  1.00  0.00     0.091 A 
ATOM     71  F   UNL A   1      40.332  25.541  29.075  1.00  0.00    -0.205 F 
ATOM     72  C   UNL A   1      41.809  25.904  25.742  1.00  0.00     0.022 A 
BRANCH  70  73
ATOM     73  S   UNL A   1      40.837  23.557  26.761  1.00  0.00     0.127 S 
ATOM     74  O   UNL A   1      41.311  23.080  28.059  1.00  0.00    -0.237 OA
ATOM     75  O   UNL A   1      39.382  23.553  26.604  1.00  0.00    -0.237 OA
ATOM     76  O   UNL A   1      41.572  23.063  25.605  1.00  0.00    -0.744 OA
ENDBRANCH  70  73
ENDBRANCH  52  66
BRANCH  53  77
ATOM     77  C   UNL A   1      39.581  32.795  36.267  1.00  0.00     0.023 A 
ATOM     78  C   UNL A   1      40.192  34.049  36.461  1.00  0.00     0.012 A 
ATOM     79  C   UNL A   1      38.695  32.304  37.245  1.00  0.00     0.148 A 
ATOM     80  C   UNL A   1      39.945  34.791  37.617  1.00  0.00     0.002 A 
ATOM     81  C   UNL A   1      38.414  33.073  38.370  1.00  0.00     0.091 A 
ATOM     82  F   UNL A   1      38.142  31.099  37.052  1.00  0.00    -0.205 F 
ATOM     83  C   UNL A   1      39.048  34.309  38.564  1.00  0.00     0.022 A 
BRANCH  81  84
ATOM     84  S   UNL A   1      37.177  32.588  39.576  1.00  0.00     0.127 S 
ATOM     85  O   UNL A   1      37.310  33.643  40.578  1.00  0.00    -0.237 OA
ATOM     86  O   UNL A   1      35.946  32.640  38.785  1.00  0.00    -0.237 OA
ATOM     87  O   UNL A   1      37.566  31.251  39.997  1.00  0.00    -0.744 OA
ENDBRANCH  81  84
ENDBRANCH  53  77
BRANCH  65  88
ATOM     88  C   UNL A   1      44.371  28.028  34.539  1.00  0.00     0.023 A 
ATOM     89  C   UNL A   1      45.637  28.646  34.580  1.00  0.00     0.012 A 
ATOM     90  C   UNL A   1      44.150  26.852  35.281  1.00  0.00     0.148 A 
ATOM     91  C   UNL A   1      46.673  28.090  35.330  1.00  0.00     0.002 A 
ATOM     92  C   UNL A   1      45.175  26.326  36.061  1.00  0.00     0.091 A 
ATOM     93  F   UNL A   1      42.945  26.270  35.213  1.00  0.00    -0.205 F 
ATOM     94  C   UNL A   1      46.438  26.939  36.078  1.00  0.00     0.022 A 
BRANCH  92  95
ATOM     95  S   UNL A   1      44.942  24.900  37.127  1.00  0.00     0.127 S 
ATOM     96  O   UNL A   1      46.323  24.528  37.432  1.00  0.00    -0.237 OA
ATOM     97  O   UNL A   1      44.203  25.472  38.252  1.00  0.00    -0.237 OA
ATOM     98  O   UNL A   1      44.192  23.929  36.343  1.00  0.00    -0.744 OA
ENDBRANCH  92  95
ENDBRANCH  65  88
ENDBRANCH  39  40
ENDBRANCH  31  34
ENDBRANCH  29  30
ENDBRANCH  28  29
ENDBRANCH  27  28
ENDBRANCH   1  27
TORSDOF 19
ENDMDL
MODEL 3
REMARK VINA RESULT:     -11.5      1.693      7.702
REMARK SMILES CCc1nc(C(=O)N2CC[NH+]([C@H](C)C(=O)NCCCCCCNC(=O)c3ccc(-c4c5nc(c(-c6cccc(S(=O)(=O)[O-])c6F)c6ccc([nH]6)c(-c6cccc(S(=O)(=O)[O-])c6F)c6nc(c(-c7cccc(S(=O)(=O)[O-])c7F)c7ccc4[nH]7)C=C6)C=C5)cc3)CC2)n[nH]1
REMARK SMILES IDX 19 1 18 2 17 3 16 4 14 5 15 6 12 8 13 9 11 10 6 11 7 12 8 13
REMARK SMILES IDX 9 14 90 15 10 16 89 17 5 19 3 20 4 21 92 22 91 23 2 25 1 26
REMARK SMILES IDX 20 27 21 28 22 29 23 30 24 31 25 33 26 34 27 35 88 36 28 37
REMARK SMILES IDX 87 38 29 39 30 40 31 41 81 42 32 43 86 44 80 45 82 46 33 47
REMARK SMILES IDX 85 48 79 49 78 50 34 52 66 53 46 54 65 55 47 56 50 57 64 58
REMARK SMILES IDX 83 59 48 60 49 61 63 63 84 64 51 65 35 66 36 67 44 68 37 69
REMARK SMILES IDX 39 70 45 71 38 72 40 73 41 74 42 75 43 76 67 77 68 78 76 79
REMARK SMILES IDX 69 80 71 81 77 82 70 83 72 84 73 85 74 86 75 87 52 88 53 89
REMARK SMILES IDX 61 90 54 91 56 92 62 93 55 94 57 95 58 96 59 97 60 98
REMARK H PARENT 16 7 11 18 92 24 23 32 82 51 50 62
REMARK Flexibility Score: inf
ROOT
ATOM      1  C   UNL A   1      31.499  29.266  25.480  1.00  0.00     0.002 C 
ENDROOT
BRANCH   1   2
ATOM      2  C   UNL A   1      32.588  29.239  24.404  1.00  0.00     0.021 C 
BRANCH   2   3
ATOM      3  C   UNL A   1      32.103  28.961  22.986  1.00  0.00     0.116 C 
BRANCH   3   4
ATOM      4  N   UNL A   1      32.927  28.013  22.264  1.00  0.00    -0.351 N 
ATOM      5  C   UNL A   1      32.923  26.646  22.280  1.00  0.00     0.278 C 
ATOM      6  O   UNL A   1      33.582  26.083  21.395  1.00  0.00    -0.268 OA
ATOM      7  H   UNL A   1      33.598  28.418  21.668  1.00  0.00     0.163 HD
BRANCH   5   8
ATOM      8  C   UNL A   1      32.177  25.816  23.357  1.00  0.00     0.271 C 
ATOM      9  C   UNL A   1      31.213  24.785  22.755  1.00  0.00     0.086 C 
BRANCH   8  10
ATOM     10  N   UNL A   1      33.015  25.411  24.524  1.00  0.00    -0.322 N 
ATOM     11  C   UNL A   1      35.038  22.218  25.863  1.00  0.00     0.293 C 
ATOM     12  O   UNL A   1      36.233  22.067  25.609  1.00  0.00    -0.265 OA
ATOM     13  N   UNL A   1      34.532  23.505  26.086  1.00  0.00    -0.325 N 
ATOM     14  C   UNL A   1      35.223  24.617  25.455  1.00  0.00     0.181 C 
ATOM     15  C   UNL A   1      33.192  23.847  26.534  1.00  0.00     0.181 C 
ATOM     16  C   UNL A   1      34.408  25.030  24.210  1.00  0.00     0.284 C 
ATOM     17  C   UNL A   1      32.347  24.370  25.353  1.00  0.00     0.284 C 
ATOM     18  H   UNL A   1      33.102  26.268  25.070  1.00  0.00     0.348 HD
BRANCH  11  19
ATOM     19  C   UNL A   1      34.087  21.080  25.790  1.00  0.00     0.239 A 
ATOM     20  C   UNL A   1      33.262  19.237  25.099  1.00  0.00     0.124 A 
ATOM     21  N   UNL A   1      33.920  20.287  24.658  1.00  0.00    -0.208 NA
ATOM     22  N   UNL A   1      32.987  19.415  26.424  1.00  0.00    -0.263 N 
ATOM     23  N   UNL A   1      33.456  20.582  26.867  1.00  0.00    -0.148 NA
ATOM     24  H   UNL A   1      32.503  18.763  26.981  1.00  0.00     0.192 HD
BRANCH  20  25
ATOM     25  C   UNL A   1      32.942  17.995  24.352  1.00  0.00     0.073 C 
ATOM     26  C   UNL A   1      32.532  16.852  25.264  1.00  0.00     0.012 C 
ENDBRANCH  20  25
ENDBRANCH  11  19
ENDBRANCH   8  10
ENDBRANCH   5   8
ENDBRANCH   3   4
ENDBRANCH   2   3
ENDBRANCH   1   2
BRANCH   1  27
ATOM     27  C   UNL A   1      31.832  30.017  26.773  1.00  0.00     0.002 C 
BRANCH  27  28
ATOM     28  C   UNL A   1      31.390  31.482  26.852  1.00  0.00     0.021 C 
BRANCH  28  29
ATOM     29  C   UNL A   1      32.427  32.521  26.437  1.00  0.00     0.116 C 
BRANCH  29  30
ATOM     30  N   UNL A   1      32.346  33.749  27.212  1.00  0.00    -0.352 N 
ATOM     31  C   UNL A   1      33.112  34.161  28.276  1.00  0.00     0.251 C 
ATOM     32  H   UNL A   1      31.640  34.375  26.935  1.00  0.00     0.163 HD
ATOM     33  O   UNL A   1      32.820  35.190  28.880  1.00  0.00    -0.269 OA
BRANCH  31  34
ATOM     34  C   UNL A   1      34.269  33.351  28.716  1.00  0.00     0.039 A 
ATOM     35  C   UNL A   1      35.523  33.963  28.806  1.00  0.00     0.014 A 
ATOM     36  C   UNL A   1      34.120  32.003  29.053  1.00  0.00     0.014 A 
ATOM     37  C   UNL A   1      36.609  33.247  29.316  1.00  0.00     0.010 A 
ATOM     38  C   UNL A   1      35.191  31.308  29.613  1.00  0.00     0.010 A 
ATOM     39  C   UNL A   1      36.442  31.928  29.764  1.00  0.00    -0.014 A 
BRANCH  39  40
ATOM     40  C   UNL A   1      37.535  31.196  30.453  1.00  0.00     0.031 A 
ATOM     41  C   UNL A   1      37.843  31.465  31.899  1.00  0.00     0.074 A 
ATOM     42  C   UNL A   1      38.327  30.372  29.737  1.00  0.00     0.049 A 
ATOM     43  N   UNL A   1      38.823  31.003  32.632  1.00  0.00    -0.248 NA
ATOM     44  C   UNL A   1      36.947  32.391  32.609  1.00  0.00     0.031 C 
ATOM     45  C   UNL A   1      38.176  30.084  28.310  1.00  0.00     0.029 A 
ATOM     46  N   UNL A   1      39.442  29.657  30.104  1.00  0.00    -0.354 N 
ATOM     47  C   UNL A   1      38.686  31.606  33.876  1.00  0.00     0.074 A 
ATOM     48  C   UNL A   1      37.537  32.483  33.794  1.00  0.00     0.031 C 
ATOM     49  C   UNL A   1      39.163  29.262  27.919  1.00  0.00     0.029 A 
ATOM     50  C   UNL A   1      40.036  28.990  29.057  1.00  0.00     0.049 A 
ATOM     51  H   UNL A   1      39.782  29.625  31.027  1.00  0.00     0.167 HD
ATOM     52  C   UNL A   1      39.433  31.427  34.992  1.00  0.00     0.034 A 
ATOM     53  C   UNL A   1      41.167  28.259  29.012  1.00  0.00     0.034 A 
ATOM     54  C   UNL A   1      40.545  30.521  35.083  1.00  0.00     0.049 A 
ATOM     55  C   UNL A   1      41.972  28.073  30.268  1.00  0.00     0.074 A 
ATOM     56  C   UNL A   1      41.294  30.189  36.199  1.00  0.00     0.029 A 
ATOM     57  N   UNL A   1      41.079  29.809  34.019  1.00  0.00    -0.354 N 
ATOM     58  N   UNL A   1      41.728  28.516  31.476  1.00  0.00    -0.248 NA
ATOM     59  C   UNL A   1      43.195  27.264  30.159  1.00  0.00     0.031 C 
ATOM     60  C   UNL A   1      42.294  29.294  35.805  1.00  0.00     0.029 A 
ATOM     61  C   UNL A   1      42.161  29.058  34.447  1.00  0.00     0.049 A 
ATOM     62  H   UNL A   1      40.739  29.835  33.096  1.00  0.00     0.167 HD
ATOM     63  C   UNL A   1      42.753  28.024  32.276  1.00  0.00     0.074 A 
ATOM     64  C   UNL A   1      43.605  27.225  31.420  1.00  0.00     0.031 C 
ATOM     65  C   UNL A   1      42.976  28.230  33.597  1.00  0.00     0.034 A 
BRANCH  52  66
ATOM     66  C   UNL A   1      39.035  32.185  36.230  1.00  0.00     0.023 A 
ATOM     67  C   UNL A   1      39.437  33.528  36.376  1.00  0.00     0.012 A 
ATOM     68  C   UNL A   1      38.212  31.598  37.211  1.00  0.00     0.148 A 
ATOM     69  C   UNL A   1      39.047  34.268  37.491  1.00  0.00     0.002 A 
ATOM     70  C   UNL A   1      37.797  32.353  38.302  1.00  0.00     0.091 A 
ATOM     71  F   UNL A   1      37.860  30.312  37.066  1.00  0.00    -0.205 F 
ATOM     72  C   UNL A   1      38.220  33.685  38.448  1.00  0.00     0.022 A 
BRANCH  70  73
ATOM     73  S   UNL A   1      36.676  31.713  39.551  1.00  0.00     0.127 S 
ATOM     74  O   UNL A   1      37.606  31.325  40.611  1.00  0.00    -0.237 OA
ATOM     75  O   UNL A   1      35.854  32.883  39.860  1.00  0.00    -0.237 OA
ATOM     76  O   UNL A   1      35.955  30.618  38.918  1.00  0.00    -0.744 OA
ENDBRANCH  70  73
ENDBRANCH  52  66
BRANCH  53  77
ATOM     77  C   UNL A   1      41.583  27.609  27.738  1.00  0.00     0.023 A 
ATOM     78  C   UNL A   1      42.006  28.411  26.661  1.00  0.00     0.012 A 
ATOM     79  C   UNL A   1      41.587  26.208  27.595  1.00  0.00     0.148 A 
ATOM     80  C   UNL A   1      42.406  27.832  25.456  1.00  0.00     0.002 A 
ATOM     81  C   UNL A   1      42.036  25.637  26.409  1.00  0.00     0.091 A 
ATOM     82  F   UNL A   1      41.159  25.465  28.625  1.00  0.00    -0.205 F 
ATOM     83  C   UNL A   1      42.433  26.446  25.335  1.00  0.00     0.022 A 
BRANCH  81  84
ATOM     84  S   UNL A   1      42.225  23.863  26.212  1.00  0.00     0.127 S 
ATOM     85  O   UNL A   1      40.836  23.410  26.262  1.00  0.00    -0.237 OA
ATOM     86  O   UNL A   1      42.856  23.771  24.894  1.00  0.00    -0.237 OA
ATOM     87  O   UNL A   1      43.075  23.450  27.317  1.00  0.00    -0.744 OA
ENDBRANCH  81  84
ENDBRANCH  53  77
BRANCH  65  88
ATOM     88  C   UNL A   1      44.187  27.579  34.209  1.00  0.00     0.023 A 
ATOM     89  C   UNL A   1      45.411  28.278  34.233  1.00  0.00     0.012 A 
ATOM     90  C   UNL A   1      44.099  26.317  34.826  1.00  0.00     0.148 A 
ATOM     91  C   UNL A   1      46.534  27.720  34.842  1.00  0.00     0.002 A 
ATOM     92  C   UNL A   1      45.211  25.785  35.470  1.00  0.00     0.091 A 
ATOM     93  F   UNL A   1      42.931  25.660  34.776  1.00  0.00    -0.205 F 
ATOM     94  C   UNL A   1      46.430  26.481  35.470  1.00  0.00     0.022 A 
BRANCH  92  95
ATOM     95  S   UNL A   1      45.151  24.238  36.382  1.00  0.00     0.127 S 
ATOM     96  O   UNL A   1      44.493  24.650  37.621  1.00  0.00    -0.237 OA
ATOM     97  O   UNL A   1      44.335  23.395  35.509  1.00  0.00    -0.237 OA
ATOM     98  O   UNL A   1      46.533  23.801  36.524  1.00  0.00    -0.744 OA
ENDBRANCH  92  95
ENDBRANCH  65  88
ENDBRANCH  39  40
ENDBRANCH  31  34
ENDBRANCH  29  30
ENDBRANCH  28  29
ENDBRANCH  27  28
ENDBRANCH   1  27
TORSDOF 19
ENDMDL
