MODEL 1
REMARK VINA RESULT:      -9.9      0.000      0.000
REMARK SMILES CCc1cccc(-c2ccc([C@@H](C)C(=O)NCCCCCCNC(=O)c3ccc(-c4c5nc(c(-c6cccc(S(=O)(=O)[O-])c6F)c6ccc([nH]6)c(-c6cccc(S(=O)(=O)[O-])c6F)c6nc(c(-c7cccc(S(=O)(=O)[O-])c7F)c7ccc4[nH]7)C=C6)C=C5)cc3)cc2)c1
REMARK SMILES IDX 19 1 18 2 17 3 16 4 14 5 15 6 12 8 13 9 11 10 8 11 9 12
REMARK SMILES IDX 90 13 10 14 89 15 7 16 3 17 4 18 91 19 5 20 6 21 2 22 1 23
REMARK SMILES IDX 20 24 21 25 22 26 23 27 24 28 25 30 26 31 27 32 88 33 28 34
REMARK SMILES IDX 87 35 29 36 30 37 31 38 81 39 32 40 86 41 80 42 82 43 33 44
REMARK SMILES IDX 85 45 79 46 78 47 34 49 66 50 46 51 65 52 47 53 50 54 64 55
REMARK SMILES IDX 83 56 48 57 49 58 63 60 84 61 51 62 35 63 36 64 44 65 37 66
REMARK SMILES IDX 39 67 45 68 38 69 40 70 41 71 42 72 43 73 67 74 68 75 76 76
REMARK SMILES IDX 69 77 71 78 77 79 70 80 72 81 73 82 74 83 75 84 52 85 53 86
REMARK SMILES IDX 61 87 54 88 56 89 62 90 55 91 57 92 58 93 59 94 60 95
REMARK H PARENT 16 7 23 29 82 48 50 59
REMARK Flexibility Score: inf
ROOT
ATOM      1  C   UNL A   1      33.778  36.159  29.688  1.00  0.00     0.002 C 
ENDROOT
BRANCH   1   2
ATOM      2  C   UNL A   1      33.125  36.452  31.042  1.00  0.00     0.021 C 
BRANCH   2   3
ATOM      3  C   UNL A   1      33.279  35.314  32.053  1.00  0.00     0.116 C 
BRANCH   3   4
ATOM      4  N   UNL A   1      34.420  35.525  32.919  1.00  0.00    -0.356 N 
ATOM      5  C   UNL A   1      35.597  34.852  33.031  1.00  0.00     0.227 C 
ATOM      6  O   UNL A   1      36.350  35.211  33.946  1.00  0.00    -0.274 OA
ATOM      7  H   UNL A   1      34.328  36.288  33.534  1.00  0.00     0.163 HD
BRANCH   5   8
ATOM      8  C   UNL A   1      36.026  33.722  32.081  1.00  0.00     0.105 C 
ATOM      9  C   UNL A   1      35.714  32.321  32.608  1.00  0.00     0.023 C 
BRANCH   8  10
ATOM     10  C   UNL A   1      37.409  33.916  31.481  1.00  0.00    -0.036 A 
ATOM     11  C   UNL A   1      39.944  34.434  30.259  1.00  0.00    -0.018 A 
ATOM     12  C   UNL A   1      39.778  34.454  31.650  1.00  0.00     0.009 A 
ATOM     13  C   UNL A   1      38.814  34.105  29.493  1.00  0.00     0.009 A 
ATOM     14  C   UNL A   1      38.548  34.159  32.249  1.00  0.00     0.005 A 
ATOM     15  C   UNL A   1      37.566  33.875  30.088  1.00  0.00     0.005 A 
BRANCH  11  16
ATOM     16  C   UNL A   1      41.255  34.738  29.637  1.00  0.00    -0.018 A 
ATOM     17  C   UNL A   1      43.715  34.582  29.643  1.00  0.00    -0.048 A 
ATOM     18  C   UNL A   1      43.749  35.315  28.450  1.00  0.00     0.004 A 
ATOM     19  C   UNL A   1      42.463  34.294  30.213  1.00  0.00     0.012 A 
ATOM     20  C   UNL A   1      42.572  35.753  27.850  1.00  0.00     0.001 A 
ATOM     21  C   UNL A   1      41.342  35.475  28.444  1.00  0.00     0.009 A 
BRANCH  17  22
ATOM     22  C   UNL A   1      45.030  34.186  30.273  1.00  0.00     0.032 C 
ATOM     23  C   UNL A   1      45.569  35.087  31.376  1.00  0.00     0.009 C 
ENDBRANCH  17  22
ENDBRANCH  11  16
ENDBRANCH   8  10
ENDBRANCH   5   8
ENDBRANCH   3   4
ENDBRANCH   2   3
ENDBRANCH   1   2
BRANCH   1  24
ATOM     24  C   UNL A   1      33.299  34.869  29.009  1.00  0.00     0.002 C 
BRANCH  24  25
ATOM     25  C   UNL A   1      34.146  33.629  29.302  1.00  0.00     0.021 C 
BRANCH  25  26
ATOM     26  C   UNL A   1      34.782  33.003  28.066  1.00  0.00     0.116 C 
BRANCH  26  27
ATOM     27  N   UNL A   1      34.017  31.856  27.595  1.00  0.00    -0.352 N 
ATOM     28  C   UNL A   1      34.433  30.560  27.416  1.00  0.00     0.251 C 
ATOM     29  H   UNL A   1      33.075  32.036  27.374  1.00  0.00     0.163 HD
ATOM     30  O   UNL A   1      33.749  29.768  26.780  1.00  0.00    -0.269 OA
BRANCH  28  31
ATOM     31  C   UNL A   1      35.721  30.137  28.002  1.00  0.00     0.039 A 
ATOM     32  C   UNL A   1      35.766  29.694  29.326  1.00  0.00     0.014 A 
ATOM     33  C   UNL A   1      36.882  30.170  27.224  1.00  0.00     0.014 A 
ATOM     34  C   UNL A   1      36.973  29.231  29.856  1.00  0.00     0.010 A 
ATOM     35  C   UNL A   1      38.061  29.638  27.729  1.00  0.00     0.010 A 
ATOM     36  C   UNL A   1      38.122  29.176  29.053  1.00  0.00    -0.014 A 
BRANCH  36  37
ATOM     37  C   UNL A   1      39.420  28.667  29.565  1.00  0.00     0.031 A 
ATOM     38  C   UNL A   1      40.116  29.415  30.672  1.00  0.00     0.074 A 
ATOM     39  C   UNL A   1      40.022  27.623  28.963  1.00  0.00     0.049 A 
ATOM     40  N   UNL A   1      41.318  29.241  31.156  1.00  0.00    -0.248 NA
ATOM     41  C   UNL A   1      39.377  30.528  31.293  1.00  0.00     0.031 C 
ATOM     42  C   UNL A   1      39.470  26.852  27.847  1.00  0.00     0.029 A 
ATOM     43  N   UNL A   1      41.251  27.052  29.184  1.00  0.00    -0.354 N 
ATOM     44  C   UNL A   1      41.498  30.252  32.091  1.00  0.00     0.074 A 
ATOM     45  C   UNL A   1      40.293  31.050  32.095  1.00  0.00     0.031 C 
ATOM     46  C   UNL A   1      40.359  25.916  27.476  1.00  0.00     0.029 A 
ATOM     47  C   UNL A   1      41.559  26.045  28.297  1.00  0.00     0.049 A 
ATOM     48  H   UNL A   1      41.857  27.337  29.905  1.00  0.00     0.167 HD
ATOM     49  C   UNL A   1      42.566  30.486  32.889  1.00  0.00     0.034 A 
ATOM     50  C   UNL A   1      42.689  25.324  28.149  1.00  0.00     0.034 A 
ATOM     51  C   UNL A   1      43.737  29.654  32.921  1.00  0.00     0.049 A 
ATOM     52  C   UNL A   1      43.848  25.586  29.076  1.00  0.00     0.074 A 
ATOM     53  C   UNL A   1      44.832  29.747  33.762  1.00  0.00     0.029 A 
ATOM     54  N   UNL A   1      43.969  28.583  32.074  1.00  0.00    -0.354 N 
ATOM     55  N   UNL A   1      43.945  26.458  30.050  1.00  0.00    -0.248 NA
ATOM     56  C   UNL A   1      45.042  24.744  28.906  1.00  0.00     0.031 C 
ATOM     57  C   UNL A   1      45.742  28.751  33.401  1.00  0.00     0.029 A 
ATOM     58  C   UNL A   1      45.194  28.011  32.365  1.00  0.00     0.049 A 
ATOM     59  H   UNL A   1      43.354  28.275  31.370  1.00  0.00     0.167 HD
ATOM     60  C   UNL A   1      45.182  26.230  30.644  1.00  0.00     0.074 A 
ATOM     61  C   UNL A   1      45.798  25.137  29.923  1.00  0.00     0.031 C 
ATOM     62  C   UNL A   1      45.757  26.871  31.690  1.00  0.00     0.034 A 
BRANCH  49  63
ATOM     63  C   UNL A   1      42.512  31.664  33.824  1.00  0.00     0.023 A 
ATOM     64  C   UNL A   1      42.930  32.934  33.377  1.00  0.00     0.012 A 
ATOM     65  C   UNL A   1      41.967  31.529  35.115  1.00  0.00     0.148 A 
ATOM     66  C   UNL A   1      42.832  34.046  34.212  1.00  0.00     0.002 A 
ATOM     67  C   UNL A   1      41.825  32.650  35.923  1.00  0.00     0.091 A 
ATOM     68  F   UNL A   1      41.593  30.308  35.526  1.00  0.00    -0.205 F 
ATOM     69  C   UNL A   1      42.268  33.906  35.478  1.00  0.00     0.022 A 
BRANCH  67  70
ATOM     70  S   UNL A   1      41.033  32.592  37.533  1.00  0.00     0.127 S 
ATOM     71  O   UNL A   1      41.913  31.679  38.263  1.00  0.00    -0.237 OA
ATOM     72  O   UNL A   1      41.112  33.988  37.963  1.00  0.00    -0.237 OA
ATOM     73  O   UNL A   1      39.682  32.099  37.303  1.00  0.00    -0.744 OA
ENDBRANCH  67  70
ENDBRANCH  49  63
BRANCH  50  74
ATOM     74  C   UNL A   1      42.771  24.248  27.120  1.00  0.00     0.023 A 
ATOM     75  C   UNL A   1      43.485  24.488  25.929  1.00  0.00     0.012 A 
ATOM     76  C   UNL A   1      42.144  23.002  27.303  1.00  0.00     0.148 A 
ATOM     77  C   UNL A   1      43.533  23.525  24.920  1.00  0.00     0.002 A 
ATOM     78  C   UNL A   1      42.243  22.025  26.318  1.00  0.00     0.091 A 
ATOM     79  F   UNL A   1      41.460  22.794  28.438  1.00  0.00    -0.205 F 
ATOM     80  C   UNL A   1      42.920  22.291  25.118  1.00  0.00     0.022 A 
BRANCH  78  81
ATOM     81  S   UNL A   1      41.590  20.366  26.538  1.00  0.00     0.127 S 
ATOM     82  O   UNL A   1      42.146  19.995  27.836  1.00  0.00    -0.237 OA
ATOM     83  O   UNL A   1      40.147  20.606  26.530  1.00  0.00    -0.237 OA
ATOM     84  O   UNL A   1      42.076  19.599  25.397  1.00  0.00    -0.744 OA
ENDBRANCH  78  81
ENDBRANCH  50  74
BRANCH  62  85
ATOM     85  C   UNL A   1      47.082  26.367  32.191  1.00  0.00     0.023 A 
ATOM     86  C   UNL A   1      47.137  25.428  33.238  1.00  0.00     0.012 A 
ATOM     87  C   UNL A   1      48.270  26.744  31.533  1.00  0.00     0.148 A 
ATOM     88  C   UNL A   1      48.359  24.887  33.638  1.00  0.00     0.002 A 
ATOM     89  C   UNL A   1      49.476  26.160  31.899  1.00  0.00     0.091 A 
ATOM     90  F   UNL A   1      48.194  27.653  30.550  1.00  0.00    -0.205 F 
ATOM     91  C   UNL A   1      49.523  25.240  32.959  1.00  0.00     0.022 A 
BRANCH  89  92
ATOM     92  S   UNL A   1      51.006  26.472  31.012  1.00  0.00     0.127 S 
ATOM     93  O   UNL A   1      51.990  25.834  31.884  1.00  0.00    -0.237 OA
ATOM     94  O   UNL A   1      50.773  25.781  29.744  1.00  0.00    -0.237 OA
ATOM     95  O   UNL A   1      51.122  27.920  30.901  1.00  0.00    -0.744 OA
ENDBRANCH  89  92
ENDBRANCH  62  85
ENDBRANCH  36  37
ENDBRANCH  28  31
ENDBRANCH  26  27
ENDBRANCH  25  26
ENDBRANCH  24  25
ENDBRANCH   1  24
TORSDOF 19
ENDMDL
MODEL 2
REMARK VINA RESULT:      -9.8      3.799     10.365
REMARK SMILES CCc1cccc(-c2ccc([C@@H](C)C(=O)NCCCCCCNC(=O)c3ccc(-c4c5nc(c(-c6cccc(S(=O)(=O)[O-])c6F)c6ccc([nH]6)c(-c6cccc(S(=O)(=O)[O-])c6F)c6nc(c(-c7cccc(S(=O)(=O)[O-])c7F)c7ccc4[nH]7)C=C6)C=C5)cc3)cc2)c1
REMARK SMILES IDX 19 1 18 2 17 3 16 4 14 5 15 6 12 8 13 9 11 10 8 11 9 12
REMARK SMILES IDX 90 13 10 14 89 15 7 16 3 17 4 18 91 19 5 20 6 21 2 22 1 23
REMARK SMILES IDX 20 24 21 25 22 26 23 27 24 28 25 30 26 31 27 32 88 33 28 34
REMARK SMILES IDX 87 35 29 36 30 37 31 38 81 39 32 40 86 41 80 42 82 43 33 44
REMARK SMILES IDX 85 45 79 46 78 47 34 49 66 50 46 51 65 52 47 53 50 54 64 55
REMARK SMILES IDX 83 56 48 57 49 58 63 60 84 61 51 62 35 63 36 64 44 65 37 66
REMARK SMILES IDX 39 67 45 68 38 69 40 70 41 71 42 72 43 73 67 74 68 75 76 76
REMARK SMILES IDX 69 77 71 78 77 79 70 80 72 81 73 82 74 83 75 84 52 85 53 86
REMARK SMILES IDX 61 87 54 88 56 89 62 90 55 91 57 92 58 93 59 94 60 95
REMARK H PARENT 16 7 23 29 82 48 50 59
REMARK Flexibility Score: inf
ROOT
ATOM      1  C   UNL A   1      44.516  24.024  27.217  1.00  0.00     0.002 C 
ENDROOT
BRANCH   1   2
ATOM      2  C   UNL A   1      43.938  24.161  28.629  1.00  0.00     0.021 C 
BRANCH   2   3
ATOM      3  C   UNL A   1      44.305  23.000  29.554  1.00  0.00     0.116 C 
BRANCH   3   4
ATOM      4  N   UNL A   1      44.133  23.358  30.947  1.00  0.00    -0.356 N 
ATOM      5  C   UNL A   1      44.343  24.531  31.604  1.00  0.00     0.227 C 
ATOM      6  O   UNL A   1      44.202  24.504  32.834  1.00  0.00    -0.274 OA
ATOM      7  H   UNL A   1      43.806  22.625  31.517  1.00  0.00     0.163 HD
BRANCH   5   8
ATOM      8  C   UNL A   1      44.709  25.847  30.901  1.00  0.00     0.105 C 
ATOM      9  C   UNL A   1      46.191  25.966  30.544  1.00  0.00     0.023 C 
BRANCH   8  10
ATOM     10  C   UNL A   1      44.074  27.077  31.530  1.00  0.00    -0.036 A 
ATOM     11  C   UNL A   1      42.996  29.497  32.611  1.00  0.00    -0.018 A 
ATOM     12  C   UNL A   1      42.205  28.599  31.882  1.00  0.00     0.009 A 
ATOM     13  C   UNL A   1      44.335  29.132  32.822  1.00  0.00     0.009 A 
ATOM     14  C   UNL A   1      42.723  27.395  31.390  1.00  0.00     0.005 A 
ATOM     15  C   UNL A   1      44.871  27.958  32.274  1.00  0.00     0.005 A 
BRANCH  11  16
ATOM     16  C   UNL A   1      42.434  30.764  33.136  1.00  0.00    -0.018 A 
ATOM     17  C   UNL A   1      40.515  32.078  33.954  1.00  0.00    -0.048 A 
ATOM     18  C   UNL A   1      41.365  33.176  34.139  1.00  0.00     0.004 A 
ATOM     19  C   UNL A   1      41.067  30.882  33.464  1.00  0.00     0.012 A 
ATOM     20  C   UNL A   1      42.721  33.084  33.839  1.00  0.00     0.001 A 
ATOM     21  C   UNL A   1      43.244  31.894  33.334  1.00  0.00     0.009 A 
BRANCH  17  22
ATOM     22  C   UNL A   1      39.043  32.262  34.245  1.00  0.00     0.032 C 
ATOM     23  C   UNL A   1      38.563  33.681  34.515  1.00  0.00     0.009 C 
ENDBRANCH  17  22
ENDBRANCH  11  16
ENDBRANCH   8  10
ENDBRANCH   5   8
ENDBRANCH   3   4
ENDBRANCH   2   3
ENDBRANCH   1   2
BRANCH   1  24
ATOM     24  C   UNL A   1      43.472  24.012  26.093  1.00  0.00     0.002 C 
BRANCH  24  25
ATOM     25  C   UNL A   1      42.968  22.624  25.691  1.00  0.00     0.021 C 
BRANCH  25  26
ATOM     26  C   UNL A   1      42.134  21.931  26.761  1.00  0.00     0.116 C 
BRANCH  26  27
ATOM     27  N   UNL A   1      40.750  21.765  26.335  1.00  0.00    -0.352 N 
ATOM     28  C   UNL A   1      39.688  22.617  26.513  1.00  0.00     0.251 C 
ATOM     29  H   UNL A   1      40.551  20.928  25.856  1.00  0.00     0.163 HD
ATOM     30  O   UNL A   1      38.542  22.232  26.321  1.00  0.00    -0.269 OA
BRANCH  28  31
ATOM     31  C   UNL A   1      39.951  24.006  26.939  1.00  0.00     0.039 A 
ATOM     32  C   UNL A   1      40.137  24.289  28.295  1.00  0.00     0.014 A 
ATOM     33  C   UNL A   1      40.025  25.024  25.984  1.00  0.00     0.014 A 
ATOM     34  C   UNL A   1      40.452  25.592  28.688  1.00  0.00     0.010 A 
ATOM     35  C   UNL A   1      40.415  26.300  26.370  1.00  0.00     0.010 A 
ATOM     36  C   UNL A   1      40.619  26.600  27.726  1.00  0.00    -0.014 A 
BRANCH  36  37
ATOM     37  C   UNL A   1      40.979  27.993  28.095  1.00  0.00     0.031 A 
ATOM     38  C   UNL A   1      42.430  28.397  28.109  1.00  0.00     0.074 A 
ATOM     39  C   UNL A   1      40.029  28.845  28.528  1.00  0.00     0.049 A 
ATOM     40  N   UNL A   1      42.974  29.502  28.547  1.00  0.00    -0.248 NA
ATOM     41  C   UNL A   1      43.401  27.415  27.594  1.00  0.00     0.031 C 
ATOM     42  C   UNL A   1      38.597  28.550  28.610  1.00  0.00     0.029 A 
ATOM     43  N   UNL A   1      40.132  30.123  29.018  1.00  0.00    -0.354 N 
ATOM     44  C   UNL A   1      44.346  29.324  28.415  1.00  0.00     0.074 A 
ATOM     45  C   UNL A   1      44.555  28.001  27.875  1.00  0.00     0.031 C 
ATOM     46  C   UNL A   1      37.958  29.612  29.126  1.00  0.00     0.029 A 
ATOM     47  C   UNL A   1      38.934  30.647  29.450  1.00  0.00     0.049 A 
ATOM     48  H   UNL A   1      40.982  30.619  29.058  1.00  0.00     0.167 HD
ATOM     49  C   UNL A   1      45.342  30.195  28.701  1.00  0.00     0.034 A 
ATOM     50  C   UNL A   1      38.661  31.819  30.058  1.00  0.00     0.034 A 
ATOM     51  C   UNL A   1      45.123  31.531  29.183  1.00  0.00     0.049 A 
ATOM     52  C   UNL A   1      39.788  32.780  30.333  1.00  0.00     0.074 A 
ATOM     53  C   UNL A   1      46.059  32.524  29.409  1.00  0.00     0.029 A 
ATOM     54  N   UNL A   1      43.887  32.058  29.515  1.00  0.00    -0.354 N 
ATOM     55  N   UNL A   1      41.066  32.649  30.071  1.00  0.00    -0.248 NA
ATOM     56  C   UNL A   1      39.435  34.064  30.957  1.00  0.00     0.031 C 
ATOM     57  C   UNL A   1      45.391  33.643  29.913  1.00  0.00     0.029 A 
ATOM     58  C   UNL A   1      44.035  33.360  29.955  1.00  0.00     0.049 A 
ATOM     59  H   UNL A   1      43.030  31.577  29.448  1.00  0.00     0.167 HD
ATOM     60  C   UNL A   1      41.657  33.852  30.442  1.00  0.00     0.074 A 
ATOM     61  C   UNL A   1      40.598  34.701  30.945  1.00  0.00     0.031 C 
ATOM     62  C   UNL A   1      42.959  34.219  30.377  1.00  0.00     0.034 A 
BRANCH  49  63
ATOM     63  C   UNL A   1      46.762  29.752  28.469  1.00  0.00     0.023 A 
ATOM     64  C   UNL A   1      47.310  29.803  27.171  1.00  0.00     0.012 A 
ATOM     65  C   UNL A   1      47.578  29.368  29.551  1.00  0.00     0.148 A 
ATOM     66  C   UNL A   1      48.641  29.452  26.950  1.00  0.00     0.002 A 
ATOM     67  C   UNL A   1      48.916  29.069  29.331  1.00  0.00     0.091 A 
ATOM     68  F   UNL A   1      47.031  29.308  30.774  1.00  0.00    -0.205 F 
ATOM     69  C   UNL A   1      49.446  29.098  28.030  1.00  0.00     0.022 A 
BRANCH  67  70
ATOM     70  S   UNL A   1      50.057  28.686  30.664  1.00  0.00     0.127 S 
ATOM     71  O   UNL A   1      49.460  27.475  31.225  1.00  0.00    -0.237 OA
ATOM     72  O   UNL A   1      51.310  28.469  29.941  1.00  0.00    -0.237 OA
ATOM     73  O   UNL A   1      50.053  29.845  31.545  1.00  0.00    -0.744 OA
ENDBRANCH  67  70
ENDBRANCH  49  63
BRANCH  50  74
ATOM     74  C   UNL A   1      37.256  32.181  30.407  1.00  0.00     0.023 A 
ATOM     75  C   UNL A   1      36.752  31.838  31.677  1.00  0.00     0.012 A 
ATOM     76  C   UNL A   1      36.418  32.847  29.494  1.00  0.00     0.148 A 
ATOM     77  C   UNL A   1      35.425  32.109  32.015  1.00  0.00     0.002 A 
ATOM     78  C   UNL A   1      35.114  33.166  29.857  1.00  0.00     0.091 A 
ATOM     79  F   UNL A   1      36.911  33.157  28.286  1.00  0.00    -0.205 F 
ATOM     80  C   UNL A   1      34.609  32.779  31.108  1.00  0.00     0.022 A 
BRANCH  78  81
ATOM     81  S   UNL A   1      34.030  34.135  28.802  1.00  0.00     0.127 S 
ATOM     82  O   UNL A   1      32.918  34.425  29.702  1.00  0.00    -0.237 OA
ATOM     83  O   UNL A   1      34.875  35.284  28.475  1.00  0.00    -0.237 OA
ATOM     84  O   UNL A   1      33.720  33.278  27.665  1.00  0.00    -0.744 OA
ENDBRANCH  78  81
ENDBRANCH  50  74
BRANCH  62  85
ATOM     85  C   UNL A   1      43.323  35.624  30.772  1.00  0.00     0.023 A 
ATOM     86  C   UNL A   1      43.792  35.900  32.069  1.00  0.00     0.012 A 
ATOM     87  C   UNL A   1      43.308  36.650  29.804  1.00  0.00     0.148 A 
ATOM     88  C   UNL A   1      44.222  37.184  32.406  1.00  0.00     0.002 A 
ATOM     89  C   UNL A   1      43.789  37.912  30.131  1.00  0.00     0.091 A 
ATOM     90  F   UNL A   1      42.841  36.367  28.580  1.00  0.00    -0.205 F 
ATOM     91  C   UNL A   1      44.235  38.183  31.435  1.00  0.00     0.022 A 
BRANCH  89  92
ATOM     92  S   UNL A   1      43.945  39.227  28.918  1.00  0.00     0.127 S 
ATOM     93  O   UNL A   1      42.561  39.389  28.477  1.00  0.00    -0.237 OA
ATOM     94  O   UNL A   1      44.463  40.331  29.726  1.00  0.00    -0.237 OA
ATOM     95  O   UNL A   1      44.867  38.734  27.903  1.00  0.00    -0.744 OA
ENDBRANCH  89  92
ENDBRANCH  62  85
ENDBRANCH  36  37
ENDBRANCH  28  31
ENDBRANCH  26  27
ENDBRANCH  25  26
ENDBRANCH  24  25
ENDBRANCH   1  24
TORSDOF 19
ENDMDL
MODEL 3
REMARK VINA RESULT:      -9.7      2.895      8.337
REMARK SMILES CCc1cccc(-c2ccc([C@@H](C)C(=O)NCCCCCCNC(=O)c3ccc(-c4c5nc(c(-c6cccc(S(=O)(=O)[O-])c6F)c6ccc([nH]6)c(-c6cccc(S(=O)(=O)[O-])c6F)c6nc(c(-c7cccc(S(=O)(=O)[O-])c7F)c7ccc4[nH]7)C=C6)C=C5)cc3)cc2)c1
REMARK SMILES IDX 19 1 18 2 17 3 16 4 14 5 15 6 12 8 13 9 11 10 8 11 9 12
REMARK SMILES IDX 90 13 10 14 89 15 7 16 3 17 4 18 91 19 5 20 6 21 2 22 1 23
REMARK SMILES IDX 20 24 21 25 22 26 23 27 24 28 25 30 26 31 27 32 88 33 28 34
REMARK SMILES IDX 87 35 29 36 30 37 31 38 81 39 32 40 86 41 80 42 82 43 33 44
REMARK SMILES IDX 85 45 79 46 78 47 34 49 66 50 46 51 65 52 47 53 50 54 64 55
REMARK SMILES IDX 83 56 48 57 49 58 63 60 84 61 51 62 35 63 36 64 44 65 37 66
REMARK SMILES IDX 39 67 45 68 38 69 40 70 41 71 42 72 43 73 67 74 68 75 76 76
REMARK SMILES IDX 69 77 71 78 77 79 70 80 72 81 73 82 74 83 75 84 52 85 53 86
REMARK SMILES IDX 61 87 54 88 56 89 62 90 55 91 57 92 58 93 59 94 60 95
REMARK H PARENT 16 7 23 29 82 48 50 59
REMARK Flexibility Score: inf
ROOT
ATOM      1  C   UNL A   1      34.051  35.615  28.460  1.00  0.00     0.002 C 
ENDROOT
BRANCH   1   2
ATOM      2  C   UNL A   1      33.284  36.637  29.305  1.00  0.00     0.021 C 
BRANCH   2   3
ATOM      3  C   UNL A   1      32.695  36.050  30.588  1.00  0.00     0.116 C 
BRANCH   3   4
ATOM      4  N   UNL A   1      33.529  36.341  31.736  1.00  0.00    -0.356 N 
ATOM      5  C   UNL A   1      34.460  35.587  32.381  1.00  0.00     0.227 C 
ATOM      6  O   UNL A   1      34.946  36.077  33.409  1.00  0.00    -0.274 OA
ATOM      7  H   UNL A   1      33.400  37.240  32.115  1.00  0.00     0.163 HD
BRANCH   5   8
ATOM      8  C   UNL A   1      34.936  34.212  31.885  1.00  0.00     0.105 C 
ATOM      9  C   UNL A   1      34.516  33.051  32.785  1.00  0.00     0.023 C 
BRANCH   8  10
ATOM     10  C   UNL A   1      36.380  34.198  31.407  1.00  0.00    -0.036 A 
ATOM     11  C   UNL A   1      39.043  34.283  30.365  1.00  0.00    -0.018 A 
ATOM     12  C   UNL A   1      38.735  34.776  31.640  1.00  0.00     0.009 A 
ATOM     13  C   UNL A   1      37.989  33.706  29.639  1.00  0.00     0.009 A 
ATOM     14  C   UNL A   1      37.440  34.696  32.166  1.00  0.00     0.005 A 
ATOM     15  C   UNL A   1      36.679  33.685  30.138  1.00  0.00     0.005 A 
BRANCH  11  16
ATOM     16  C   UNL A   1      40.420  34.365  29.823  1.00  0.00    -0.018 A 
ATOM     17  C   UNL A   1      42.073  35.413  28.325  1.00  0.00    -0.048 A 
ATOM     18  C   UNL A   1      43.044  34.519  28.795  1.00  0.00     0.004 A 
ATOM     19  C   UNL A   1      40.775  35.328  28.857  1.00  0.00     0.012 A 
ATOM     20  C   UNL A   1      42.727  33.568  29.760  1.00  0.00     0.001 A 
ATOM     21  C   UNL A   1      41.428  33.487  30.259  1.00  0.00     0.009 A 
BRANCH  17  22
ATOM     22  C   UNL A   1      42.468  36.383  27.236  1.00  0.00     0.032 C 
ATOM     23  C   UNL A   1      41.901  37.793  27.326  1.00  0.00     0.009 C 
ENDBRANCH  17  22
ENDBRANCH  11  16
ENDBRANCH   8  10
ENDBRANCH   5   8
ENDBRANCH   3   4
ENDBRANCH   2   3
ENDBRANCH   1   2
BRANCH   1  24
ATOM     24  C   UNL A   1      33.245  34.367  28.074  1.00  0.00     0.002 C 
BRANCH  24  25
ATOM     25  C   UNL A   1      33.817  33.042  28.582  1.00  0.00     0.021 C 
BRANCH  25  26
ATOM     26  C   UNL A   1      34.805  32.383  27.626  1.00  0.00     0.116 C 
BRANCH  26  27
ATOM     27  N   UNL A   1      34.333  31.077  27.188  1.00  0.00    -0.352 N 
ATOM     28  C   UNL A   1      34.971  29.863  27.260  1.00  0.00     0.251 C 
ATOM     29  H   UNL A   1      33.435  31.063  26.784  1.00  0.00     0.163 HD
ATOM     30  O   UNL A   1      34.553  28.901  26.628  1.00  0.00    -0.269 OA
BRANCH  28  31
ATOM     31  C   UNL A   1      36.170  29.737  28.113  1.00  0.00     0.039 A 
ATOM     32  C   UNL A   1      37.424  30.071  27.595  1.00  0.00     0.014 A 
ATOM     33  C   UNL A   1      36.040  29.297  29.433  1.00  0.00     0.014 A 
ATOM     34  C   UNL A   1      38.547  30.015  28.424  1.00  0.00     0.010 A 
ATOM     35  C   UNL A   1      37.145  29.318  30.274  1.00  0.00     0.010 A 
ATOM     36  C   UNL A   1      38.411  29.664  29.776  1.00  0.00    -0.014 A 
BRANCH  36  37
ATOM     37  C   UNL A   1      39.572  29.616  30.701  1.00  0.00     0.031 A 
ATOM     38  C   UNL A   1      40.695  28.653  30.420  1.00  0.00     0.074 A 
ATOM     39  C   UNL A   1      39.559  30.338  31.839  1.00  0.00     0.049 A 
ATOM     40  N   UNL A   1      41.717  28.336  31.171  1.00  0.00    -0.248 NA
ATOM     41  C   UNL A   1      40.644  27.923  29.141  1.00  0.00     0.031 C 
ATOM     42  C   UNL A   1      38.502  31.265  32.245  1.00  0.00     0.029 A 
ATOM     43  N   UNL A   1      40.451  30.374  32.882  1.00  0.00    -0.354 N 
ATOM     44  C   UNL A   1      42.393  27.335  30.486  1.00  0.00     0.074 A 
ATOM     45  C   UNL A   1      41.659  27.081  29.267  1.00  0.00     0.031 C 
ATOM     46  C   UNL A   1      38.801  31.772  33.452  1.00  0.00     0.029 A 
ATOM     47  C   UNL A   1      40.047  31.179  33.925  1.00  0.00     0.049 A 
ATOM     48  H   UNL A   1      41.298  29.872  32.887  1.00  0.00     0.167 HD
ATOM     49  C   UNL A   1      43.536  26.698  30.831  1.00  0.00     0.034 A 
ATOM     50  C   UNL A   1      40.608  31.393  35.132  1.00  0.00     0.034 A 
ATOM     51  C   UNL A   1      44.293  26.997  32.015  1.00  0.00     0.049 A 
ATOM     52  C   UNL A   1      41.898  30.693  35.472  1.00  0.00     0.074 A 
ATOM     53  C   UNL A   1      45.514  26.478  32.406  1.00  0.00     0.029 A 
ATOM     54  N   UNL A   1      43.900  27.890  32.999  1.00  0.00    -0.354 N 
ATOM     55  N   UNL A   1      42.597  29.853  34.748  1.00  0.00    -0.248 NA
ATOM     56  C   UNL A   1      42.496  30.993  36.782  1.00  0.00     0.031 C 
ATOM     57  C   UNL A   1      45.844  27.032  33.645  1.00  0.00     0.029 A 
ATOM     58  C   UNL A   1      44.850  27.930  34.002  1.00  0.00     0.049 A 
ATOM     59  H   UNL A   1      43.069  28.417  32.985  1.00  0.00     0.167 HD
ATOM     60  C   UNL A   1      43.741  29.571  35.487  1.00  0.00     0.074 A 
ATOM     61  C   UNL A   1      43.644  30.332  36.715  1.00  0.00     0.031 C 
ATOM     62  C   UNL A   1      44.776  28.754  35.180  1.00  0.00     0.034 A 
BRANCH  49  63
ATOM     63  C   UNL A   1      44.066  25.636  29.905  1.00  0.00     0.023 A 
ATOM     64  C   UNL A   1      43.811  24.276  30.176  1.00  0.00     0.012 A 
ATOM     65  C   UNL A   1      44.743  25.991  28.722  1.00  0.00     0.148 A 
ATOM     66  C   UNL A   1      44.245  23.285  29.297  1.00  0.00     0.002 A 
ATOM     67  C   UNL A   1      45.128  25.001  27.826  1.00  0.00     0.091 A 
ATOM     68  F   UNL A   1      44.992  27.288  28.493  1.00  0.00    -0.205 F 
ATOM     69  C   UNL A   1      44.891  23.648  28.118  1.00  0.00     0.022 A 
BRANCH  67  70
ATOM     70  S   UNL A   1      45.887  25.369  26.241  1.00  0.00     0.127 S 
ATOM     71  O   UNL A   1      47.194  25.882  26.651  1.00  0.00    -0.237 OA
ATOM     72  O   UNL A   1      45.921  24.052  25.606  1.00  0.00    -0.237 OA
ATOM     73  O   UNL A   1      45.017  26.339  25.591  1.00  0.00    -0.744 OA
ENDBRANCH  67  70
ENDBRANCH  49  63
BRANCH  50  74
ATOM     74  C   UNL A   1      39.989  32.349  36.095  1.00  0.00     0.023 A 
ATOM     75  C   UNL A   1      39.023  31.880  37.006  1.00  0.00     0.012 A 
ATOM     76  C   UNL A   1      40.339  33.713  36.108  1.00  0.00     0.148 A 
ATOM     77  C   UNL A   1      38.382  32.758  37.881  1.00  0.00     0.002 A 
ATOM     78  C   UNL A   1      39.737  34.572  37.021  1.00  0.00     0.091 A 
ATOM     79  F   UNL A   1      41.252  34.144  35.227  1.00  0.00    -0.205 F 
ATOM     80  C   UNL A   1      38.744  34.102  37.894  1.00  0.00     0.022 A 
BRANCH  78  81
ATOM     81  S   UNL A   1      40.229  36.292  37.193  1.00  0.00     0.127 S 
ATOM     82  O   UNL A   1      39.908  36.828  35.874  1.00  0.00    -0.237 OA
ATOM     83  O   UNL A   1      39.357  36.749  38.275  1.00  0.00    -0.237 OA
ATOM     84  O   UNL A   1      41.645  36.261  37.538  1.00  0.00    -0.744 OA
ENDBRANCH  78  81
ENDBRANCH  50  74
BRANCH  62  85
ATOM     85  C   UNL A   1      45.940  28.692  36.130  1.00  0.00     0.023 A 
ATOM     86  C   UNL A   1      47.011  29.597  36.006  1.00  0.00     0.012 A 
ATOM     87  C   UNL A   1      45.906  27.802  37.224  1.00  0.00     0.148 A 
ATOM     88  C   UNL A   1      48.042  29.604  36.945  1.00  0.00     0.002 A 
ATOM     89  C   UNL A   1      46.908  27.852  38.184  1.00  0.00     0.091 A 
ATOM     90  F   UNL A   1      44.885  26.938  37.311  1.00  0.00    -0.205 F 
ATOM     91  C   UNL A   1      47.982  28.745  38.040  1.00  0.00     0.022 A 
BRANCH  89  92
ATOM     92  S   UNL A   1      46.857  26.861  39.681  1.00  0.00     0.127 S 
ATOM     93  O   UNL A   1      45.630  27.341  40.313  1.00  0.00    -0.237 OA
ATOM     94  O   UNL A   1      46.779  25.501  39.147  1.00  0.00    -0.237 OA
ATOM     95  O   UNL A   1      48.086  27.158  40.405  1.00  0.00    -0.744 OA
ENDBRANCH  89  92
ENDBRANCH  62  85
ENDBRANCH  36  37
ENDBRANCH  28  31
ENDBRANCH  26  27
ENDBRANCH  25  26
ENDBRANCH  24  25
ENDBRANCH   1  24
TORSDOF 19
ENDMDL
