MODEL 1
REMARK VINA RESULT:     -11.5      0.000      0.000
REMARK SMILES CC(C)(CC(=O)NCCCCCCNC(=O)c1ccc(-c2c3nc(c(-c4cccc(S(=O)(=O)[O-])c4F)c4ccc([nH]4)c(-c4cccc(S(=O)(=O)[O-])c4F)c4nc(c(-c5cccc(S(=O)(=O)[O-])c5F)c5ccc2[nH]5)C=C4)C=C3)cc1)Cc1nc([C@@]2(C)CCCO2)no1
REMARK SMILES IDX 10 1 9 2 8 3 7 4 5 5 6 6 4 8 2 9 1 10 3 11 80 12 81 13 82 14
REMARK SMILES IDX 91 15 83 16 90 17 84 18 85 19 86 20 89 21 87 22 88 23 11 24
REMARK SMILES IDX 12 25 13 26 14 27 15 28 16 30 17 31 18 32 79 33 19 34 78 35
REMARK SMILES IDX 20 36 21 37 22 38 72 39 23 40 77 41 71 42 73 43 24 44 76 45
REMARK SMILES IDX 70 46 69 47 25 49 57 50 37 51 56 52 38 53 41 54 55 55 74 56
REMARK SMILES IDX 39 57 40 58 54 60 75 61 42 62 26 63 27 64 35 65 28 66 30 67
REMARK SMILES IDX 36 68 29 69 31 70 32 71 33 72 34 73 58 74 59 75 67 76 60 77
REMARK SMILES IDX 62 78 68 79 61 80 63 81 64 82 65 83 66 84 43 85 44 86 52 87
REMARK SMILES IDX 45 88 47 89 53 90 46 91 48 92 49 93 50 94 51 95
REMARK H PARENT 7 7 14 29 73 48 41 59
REMARK Flexibility Score: inf
ROOT
ATOM      1  C   UNL A   1      30.424  27.564  24.109  1.00  0.00     0.002 C 
ENDROOT
BRANCH   1   2
ATOM      2  C   UNL A   1      30.635  26.302  23.277  1.00  0.00     0.021 C 
BRANCH   2   3
ATOM      3  C   UNL A   1      31.421  26.488  21.981  1.00  0.00     0.116 C 
BRANCH   3   4
ATOM      4  N   UNL A   1      32.016  25.249  21.532  1.00  0.00    -0.356 N 
ATOM      5  C   UNL A   1      33.126  24.597  21.968  1.00  0.00     0.220 C 
ATOM      6  O   UNL A   1      33.378  23.489  21.484  1.00  0.00    -0.275 OA
ATOM      7  H   UNL A   1      31.540  24.806  20.794  1.00  0.00     0.163 HD
BRANCH   5   8
ATOM      8  C   UNL A   1      33.981  25.152  23.092  1.00  0.00     0.107 C 
BRANCH   8   9
ATOM      9  C   UNL A   1      34.102  24.448  24.478  1.00  0.00    -0.018 C 
ATOM     10  C   UNL A   1      35.424  23.678  24.642  1.00  0.00     0.012 C 
ATOM     11  C   UNL A   1      34.200  25.618  25.509  1.00  0.00     0.012 C 
BRANCH   9  12
ATOM     12  C   UNL A   1      32.879  23.591  24.912  1.00  0.00     0.107 C 
BRANCH  12  13
ATOM     13  C   UNL A   1      33.065  22.120  25.057  1.00  0.00     0.227 A 
ATOM     14  N   UNL A   1      32.812  21.159  24.202  1.00  0.00    -0.193 NA
ATOM     15  O   UNL A   1      33.425  21.644  26.286  1.00  0.00    -0.339 OA
ATOM     16  C   UNL A   1      33.057  20.012  24.922  1.00  0.00     0.203 A 
ATOM     17  N   UNL A   1      33.423  20.247  26.194  1.00  0.00    -0.059 NA
BRANCH  16  18
ATOM     18  C   UNL A   1      32.950  18.629  24.308  1.00  0.00     0.128 C 
ATOM     19  C   UNL A   1      32.264  18.699  22.926  1.00  0.00     0.051 C 
ATOM     20  C   UNL A   1      34.303  17.910  24.210  1.00  0.00     0.046 C 
ATOM     21  O   UNL A   1      32.136  17.727  25.109  1.00  0.00    -0.367 OA
ATOM     22  C   UNL A   1      33.918  16.454  24.152  1.00  0.00     0.032 C 
ATOM     23  C   UNL A   1      32.690  16.404  25.036  1.00  0.00     0.161 C 
ENDBRANCH  16  18
ENDBRANCH  12  13
ENDBRANCH   9  12
ENDBRANCH   8   9
ENDBRANCH   5   8
ENDBRANCH   3   4
ENDBRANCH   2   3
ENDBRANCH   1   2
BRANCH   1  24
ATOM     24  C   UNL A   1      31.499  27.883  25.141  1.00  0.00     0.002 C 
BRANCH  24  25
ATOM     25  C   UNL A   1      32.611  28.815  24.663  1.00  0.00     0.021 C 
BRANCH  25  26
ATOM     26  C   UNL A   1      33.507  29.378  25.765  1.00  0.00     0.116 C 
BRANCH  26  27
ATOM     27  N   UNL A   1      33.117  30.720  26.160  1.00  0.00    -0.352 N 
ATOM     28  C   UNL A   1      33.603  31.514  27.167  1.00  0.00     0.251 C 
ATOM     29  H   UNL A   1      32.395  31.120  25.623  1.00  0.00     0.163 HD
ATOM     30  O   UNL A   1      33.002  32.544  27.470  1.00  0.00    -0.269 OA
BRANCH  28  31
ATOM     31  C   UNL A   1      34.832  31.135  27.896  1.00  0.00     0.039 A 
ATOM     32  C   UNL A   1      34.866  29.907  28.562  1.00  0.00     0.014 A 
ATOM     33  C   UNL A   1      35.937  31.990  27.952  1.00  0.00     0.014 A 
ATOM     34  C   UNL A   1      36.023  29.517  29.240  1.00  0.00     0.010 A 
ATOM     35  C   UNL A   1      37.115  31.568  28.567  1.00  0.00     0.010 A 
ATOM     36  C   UNL A   1      37.168  30.332  29.226  1.00  0.00    -0.014 A 
BRANCH  36  37
ATOM     37  C   UNL A   1      38.424  29.883  29.881  1.00  0.00     0.031 A 
ATOM     38  C   UNL A   1      38.817  30.401  31.238  1.00  0.00     0.074 A 
ATOM     39  C   UNL A   1      39.249  29.046  29.218  1.00  0.00     0.049 A 
ATOM     40  N   UNL A   1      39.861  30.095  31.965  1.00  0.00    -0.248 NA
ATOM     41  C   UNL A   1      37.939  31.411  31.850  1.00  0.00     0.031 C 
ATOM     42  C   UNL A   1      39.034  28.551  27.857  1.00  0.00     0.029 A 
ATOM     43  N   UNL A   1      40.442  28.479  29.593  1.00  0.00    -0.354 N 
ATOM     44  C   UNL A   1      39.783  30.891  33.101  1.00  0.00     0.074 A 
ATOM     45  C   UNL A   1      38.607  31.721  32.953  1.00  0.00     0.031 C 
ATOM     46  C   UNL A   1      40.053  27.748  27.516  1.00  0.00     0.029 A 
ATOM     47  C   UNL A   1      41.001  27.681  28.624  1.00  0.00     0.049 A 
ATOM     48  H   UNL A   1      40.856  28.629  30.473  1.00  0.00     0.167 HD
ATOM     49  C   UNL A   1      40.597  30.909  34.185  1.00  0.00     0.034 A 
ATOM     50  C   UNL A   1      42.146  26.970  28.626  1.00  0.00     0.034 A 
ATOM     51  C   UNL A   1      41.740  30.051  34.350  1.00  0.00     0.049 A 
ATOM     52  C   UNL A   1      42.991  26.951  29.871  1.00  0.00     0.074 A 
ATOM     53  C   UNL A   1      42.566  29.921  35.453  1.00  0.00     0.029 A 
ATOM     54  N   UNL A   1      42.223  29.182  33.384  1.00  0.00    -0.354 N 
ATOM     55  N   UNL A   1      42.796  27.569  31.010  1.00  0.00    -0.248 NA
ATOM     56  C   UNL A   1      44.189  26.100  29.845  1.00  0.00     0.031 C 
ATOM     57  C   UNL A   1      43.562  28.986  35.146  1.00  0.00     0.029 A 
ATOM     58  C   UNL A   1      43.343  28.519  33.861  1.00  0.00     0.049 A 
ATOM     59  H   UNL A   1      41.829  29.054  32.492  1.00  0.00     0.167 HD
ATOM     60  C   UNL A   1      43.829  27.162  31.846  1.00  0.00     0.074 A 
ATOM     61  C   UNL A   1      44.628  26.218  31.092  1.00  0.00     0.031 C 
ATOM     62  C   UNL A   1      44.105  27.549  33.116  1.00  0.00     0.034 A 
BRANCH  49  63
ATOM     63  C   UNL A   1      40.244  31.846  35.312  1.00  0.00     0.023 A 
ATOM     64  C   UNL A   1      40.920  33.078  35.428  1.00  0.00     0.012 A 
ATOM     65  C   UNL A   1      39.204  31.541  36.212  1.00  0.00     0.148 A 
ATOM     66  C   UNL A   1      40.590  33.978  36.439  1.00  0.00     0.002 A 
ATOM     67  C   UNL A   1      38.851  32.463  37.192  1.00  0.00     0.091 A 
ATOM     68  F   UNL A   1      38.586  30.357  36.101  1.00  0.00    -0.205 F 
ATOM     69  C   UNL A   1      39.549  33.677  37.313  1.00  0.00     0.022 A 
BRANCH  67  70
ATOM     70  S   UNL A   1      37.475  32.203  38.317  1.00  0.00     0.127 S 
ATOM     71  O   UNL A   1      37.999  32.769  39.559  1.00  0.00    -0.237 OA
ATOM     72  O   UNL A   1      36.412  32.991  37.691  1.00  0.00    -0.237 OA
ATOM     73  O   UNL A   1      37.237  30.767  38.335  1.00  0.00    -0.744 OA
ENDBRANCH  67  70
ENDBRANCH  49  63
BRANCH  50  74
ATOM     74  C   UNL A   1      42.515  26.152  27.436  1.00  0.00     0.023 A 
ATOM     75  C   UNL A   1      43.291  26.729  26.413  1.00  0.00     0.012 A 
ATOM     76  C   UNL A   1      42.132  24.801  27.330  1.00  0.00     0.148 A 
ATOM     77  C   UNL A   1      43.652  25.986  25.288  1.00  0.00     0.002 A 
ATOM     78  C   UNL A   1      42.543  24.050  26.235  1.00  0.00     0.091 A 
ATOM     79  F   UNL A   1      41.383  24.274  28.307  1.00  0.00    -0.205 F 
ATOM     80  C   UNL A   1      43.288  24.645  25.205  1.00  0.00     0.022 A 
BRANCH  78  81
ATOM     81  S   UNL A   1      42.239  22.283  26.120  1.00  0.00     0.127 S 
ATOM     82  O   UNL A   1      40.781  22.237  26.020  1.00  0.00    -0.237 OA
ATOM     83  O   UNL A   1      42.950  21.931  24.889  1.00  0.00    -0.237 OA
ATOM     84  O   UNL A   1      42.813  21.709  27.326  1.00  0.00    -0.744 OA
ENDBRANCH  78  81
ENDBRANCH  50  74
BRANCH  62  85
ATOM     85  C   UNL A   1      45.313  26.941  33.779  1.00  0.00     0.023 A 
ATOM     86  C   UNL A   1      46.561  27.592  33.688  1.00  0.00     0.012 A 
ATOM     87  C   UNL A   1      45.207  25.754  34.531  1.00  0.00     0.148 A 
ATOM     88  C   UNL A   1      47.691  27.049  34.298  1.00  0.00     0.002 A 
ATOM     89  C   UNL A   1      46.329  25.246  35.177  1.00  0.00     0.091 A 
ATOM     90  F   UNL A   1      44.019  25.136  34.591  1.00  0.00    -0.205 F 
ATOM     91  C   UNL A   1      47.573  25.884  35.051  1.00  0.00     0.022 A 
BRANCH  89  92
ATOM     92  S   UNL A   1      46.244  23.801  36.241  1.00  0.00     0.127 S 
ATOM     93  O   UNL A   1      45.111  24.131  37.103  1.00  0.00    -0.237 OA
ATOM     94  O   UNL A   1      45.988  22.721  35.287  1.00  0.00    -0.237 OA
ATOM     95  O   UNL A   1      47.539  23.721  36.903  1.00  0.00    -0.744 OA
ENDBRANCH  89  92
ENDBRANCH  62  85
ENDBRANCH  36  37
ENDBRANCH  28  31
ENDBRANCH  26  27
ENDBRANCH  25  26
ENDBRANCH  24  25
ENDBRANCH   1  24
TORSDOF 20
ENDMDL
MODEL 2
REMARK VINA RESULT:     -11.4      1.561      2.051
REMARK SMILES CC(C)(CC(=O)NCCCCCCNC(=O)c1ccc(-c2c3nc(c(-c4cccc(S(=O)(=O)[O-])c4F)c4ccc([nH]4)c(-c4cccc(S(=O)(=O)[O-])c4F)c4nc(c(-c5cccc(S(=O)(=O)[O-])c5F)c5ccc2[nH]5)C=C4)C=C3)cc1)Cc1nc([C@@]2(C)CCCO2)no1
REMARK SMILES IDX 10 1 9 2 8 3 7 4 5 5 6 6 4 8 2 9 1 10 3 11 80 12 81 13 82 14
REMARK SMILES IDX 91 15 83 16 90 17 84 18 85 19 86 20 89 21 87 22 88 23 11 24
REMARK SMILES IDX 12 25 13 26 14 27 15 28 16 30 17 31 18 32 79 33 19 34 78 35
REMARK SMILES IDX 20 36 21 37 22 38 72 39 23 40 77 41 71 42 73 43 24 44 76 45
REMARK SMILES IDX 70 46 69 47 25 49 57 50 37 51 56 52 38 53 41 54 55 55 74 56
REMARK SMILES IDX 39 57 40 58 54 60 75 61 42 62 26 63 27 64 35 65 28 66 30 67
REMARK SMILES IDX 36 68 29 69 31 70 32 71 33 72 34 73 58 74 59 75 67 76 60 77
REMARK SMILES IDX 62 78 68 79 61 80 63 81 64 82 65 83 66 84 43 85 44 86 52 87
REMARK SMILES IDX 45 88 47 89 53 90 46 91 48 92 49 93 50 94 51 95
REMARK H PARENT 7 7 14 29 73 48 41 59
REMARK Flexibility Score: inf
ROOT
ATOM      1  C   UNL A   1      30.658  27.592  24.634  1.00  0.00     0.002 C 
ENDROOT
BRANCH   1   2
ATOM      2  C   UNL A   1      30.577  26.755  23.361  1.00  0.00     0.021 C 
BRANCH   2   3
ATOM      3  C   UNL A   1      31.368  27.287  22.168  1.00  0.00     0.116 C 
BRANCH   3   4
ATOM      4  N   UNL A   1      31.869  26.216  21.336  1.00  0.00    -0.356 N 
ATOM      5  C   UNL A   1      32.926  25.381  21.517  1.00  0.00     0.220 C 
ATOM      6  O   UNL A   1      33.096  24.470  20.702  1.00  0.00    -0.275 OA
ATOM      7  H   UNL A   1      31.363  26.066  20.506  1.00  0.00     0.163 HD
BRANCH   5   8
ATOM      8  C   UNL A   1      33.819  25.488  22.740  1.00  0.00     0.107 C 
BRANCH   8   9
ATOM      9  C   UNL A   1      34.070  24.286  23.700  1.00  0.00    -0.018 C 
ATOM     10  C   UNL A   1      35.266  23.417  23.269  1.00  0.00     0.012 C 
ATOM     11  C   UNL A   1      34.526  24.940  25.043  1.00  0.00     0.012 C 
BRANCH   9  12
ATOM     12  C   UNL A   1      32.825  23.419  24.042  1.00  0.00     0.107 C 
BRANCH  12  13
ATOM     13  C   UNL A   1      33.039  21.996  24.429  1.00  0.00     0.227 A 
ATOM     14  N   UNL A   1      32.776  20.901  23.758  1.00  0.00    -0.193 NA
ATOM     15  O   UNL A   1      33.445  21.741  25.708  1.00  0.00    -0.339 OA
ATOM     16  C   UNL A   1      33.062  19.897  24.654  1.00  0.00     0.203 A 
ATOM     17  N   UNL A   1      33.463  20.348  25.855  1.00  0.00    -0.059 NA
BRANCH  16  18
ATOM     18  C   UNL A   1      32.958  18.429  24.287  1.00  0.00     0.128 C 
ATOM     19  C   UNL A   1      32.365  18.261  22.871  1.00  0.00     0.051 C 
ATOM     20  C   UNL A   1      34.297  17.684  24.408  1.00  0.00     0.046 C 
ATOM     21  O   UNL A   1      32.072  17.695  25.177  1.00  0.00    -0.367 OA
ATOM     22  C   UNL A   1      33.878  16.247  24.582  1.00  0.00     0.032 C 
ATOM     23  C   UNL A   1      32.595  16.372  25.376  1.00  0.00     0.161 C 
ENDBRANCH  16  18
ENDBRANCH  12  13
ENDBRANCH   9  12
ENDBRANCH   8   9
ENDBRANCH   5   8
ENDBRANCH   3   4
ENDBRANCH   2   3
ENDBRANCH   1   2
BRANCH   1  24
ATOM     24  C   UNL A   1      31.886  27.376  25.510  1.00  0.00     0.002 C 
BRANCH  24  25
ATOM     25  C   UNL A   1      33.121  28.187  25.120  1.00  0.00     0.021 C 
BRANCH  25  26
ATOM     26  C   UNL A   1      34.014  28.614  26.282  1.00  0.00     0.116 C 
BRANCH  26  27
ATOM     27  N   UNL A   1      33.760  29.983  26.698  1.00  0.00    -0.352 N 
ATOM     28  C   UNL A   1      34.443  30.769  27.591  1.00  0.00     0.251 C 
ATOM     29  H   UNL A   1      32.981  30.410  26.274  1.00  0.00     0.163 HD
ATOM     30  O   UNL A   1      33.950  31.834  27.959  1.00  0.00    -0.269 OA
BRANCH  28  31
ATOM     31  C   UNL A   1      35.755  30.339  28.121  1.00  0.00     0.039 A 
ATOM     32  C   UNL A   1      35.798  29.687  29.357  1.00  0.00     0.014 A 
ATOM     33  C   UNL A   1      36.940  30.600  27.427  1.00  0.00     0.014 A 
ATOM     34  C   UNL A   1      37.023  29.253  29.869  1.00  0.00     0.010 A 
ATOM     35  C   UNL A   1      38.151  30.101  27.904  1.00  0.00     0.010 A 
ATOM     36  C   UNL A   1      38.208  29.432  29.135  1.00  0.00    -0.014 A 
BRANCH  36  37
ATOM     37  C   UNL A   1      39.500  28.901  29.642  1.00  0.00     0.031 A 
ATOM     38  C   UNL A   1      40.211  29.565  30.790  1.00  0.00     0.074 A 
ATOM     39  C   UNL A   1      40.067  27.846  29.023  1.00  0.00     0.049 A 
ATOM     40  N   UNL A   1      41.328  29.219  31.376  1.00  0.00    -0.248 NA
ATOM     41  C   UNL A   1      39.604  30.790  31.337  1.00  0.00     0.031 C 
ATOM     42  C   UNL A   1      39.531  27.175  27.837  1.00  0.00     0.029 A 
ATOM     43  N   UNL A   1      41.228  27.165  29.293  1.00  0.00    -0.354 N 
ATOM     44  C   UNL A   1      41.575  30.193  32.336  1.00  0.00     0.074 A 
ATOM     45  C   UNL A   1      40.508  31.165  32.232  1.00  0.00     0.031 C 
ATOM     46  C   UNL A   1      40.353  26.174  27.488  1.00  0.00     0.029 A 
ATOM     47  C   UNL A   1      41.482  26.138  28.413  1.00  0.00     0.049 A 
ATOM     48  H   UNL A   1      41.821  27.388  30.046  1.00  0.00     0.167 HD
ATOM     49  C   UNL A   1      42.579  30.258  33.244  1.00  0.00     0.034 A 
ATOM     50  C   UNL A   1      42.506  25.264  28.359  1.00  0.00     0.034 A 
ATOM     51  C   UNL A   1      43.613  29.267  33.376  1.00  0.00     0.049 A 
ATOM     52  C   UNL A   1      43.567  25.314  29.424  1.00  0.00     0.074 A 
ATOM     53  C   UNL A   1      44.615  29.188  34.328  1.00  0.00     0.029 A 
ATOM     54  N   UNL A   1      43.786  28.185  32.526  1.00  0.00    -0.354 N 
ATOM     55  N   UNL A   1      43.677  26.134  30.441  1.00  0.00    -0.248 NA
ATOM     56  C   UNL A   1      44.618  24.290  29.361  1.00  0.00     0.031 C 
ATOM     57  C   UNL A   1      45.405  28.069  34.042  1.00  0.00     0.029 A 
ATOM     58  C   UNL A   1      44.883  27.439  32.925  1.00  0.00     0.049 A 
ATOM     59  H   UNL A   1      43.213  27.978  31.754  1.00  0.00     0.167 HD
ATOM     60  C   UNL A   1      44.792  25.710  31.153  1.00  0.00     0.074 A 
ATOM     61  C   UNL A   1      45.303  24.538  30.470  1.00  0.00     0.031 C 
ATOM     62  C   UNL A   1      45.356  26.250  32.261  1.00  0.00     0.034 A 
BRANCH  49  63
ATOM     63  C   UNL A   1      42.574  31.411  34.215  1.00  0.00     0.023 A 
ATOM     64  C   UNL A   1      43.377  32.541  33.955  1.00  0.00     0.012 A 
ATOM     65  C   UNL A   1      41.730  31.409  35.343  1.00  0.00     0.148 A 
ATOM     66  C   UNL A   1      43.365  33.636  34.817  1.00  0.00     0.002 A 
ATOM     67  C   UNL A   1      41.691  32.523  36.175  1.00  0.00     0.091 A 
ATOM     68  F   UNL A   1      40.989  30.318  35.587  1.00  0.00    -0.205 F 
ATOM     69  C   UNL A   1      42.515  33.632  35.919  1.00  0.00     0.022 A 
BRANCH  67  70
ATOM     70  S   UNL A   1      40.574  32.647  37.576  1.00  0.00     0.127 S 
ATOM     71  O   UNL A   1      39.481  31.768  37.162  1.00  0.00    -0.237 OA
ATOM     72  O   UNL A   1      41.393  32.125  38.671  1.00  0.00    -0.237 OA
ATOM     73  O   UNL A   1      40.232  34.057  37.693  1.00  0.00    -0.744 OA
ENDBRANCH  67  70
ENDBRANCH  49  63
BRANCH  50  74
ATOM     74  C   UNL A   1      42.529  24.214  27.302  1.00  0.00     0.023 A 
ATOM     75  C   UNL A   1      43.448  24.320  26.240  1.00  0.00     0.012 A 
ATOM     76  C   UNL A   1      41.673  23.096  27.361  1.00  0.00     0.148 A 
ATOM     77  C   UNL A   1      43.492  23.350  25.238  1.00  0.00     0.002 A 
ATOM     78  C   UNL A   1      41.762  22.105  26.392  1.00  0.00     0.091 A 
ATOM     79  F   UNL A   1      40.797  23.020  28.372  1.00  0.00    -0.205 F 
ATOM     80  C   UNL A   1      42.658  22.238  25.320  1.00  0.00     0.022 A 
BRANCH  78  81
ATOM     81  S   UNL A   1      40.826  20.576  26.500  1.00  0.00     0.127 S 
ATOM     82  O   UNL A   1      41.567  19.706  25.588  1.00  0.00    -0.237 OA
ATOM     83  O   UNL A   1      40.962  20.236  27.918  1.00  0.00    -0.237 OA
ATOM     84  O   UNL A   1      39.472  20.917  26.096  1.00  0.00    -0.744 OA
ENDBRANCH  78  81
ENDBRANCH  50  74
BRANCH  62  85
ATOM     85  C   UNL A   1      46.582  25.574  32.816  1.00  0.00     0.023 A 
ATOM     86  C   UNL A   1      47.862  26.004  32.408  1.00  0.00     0.012 A 
ATOM     87  C   UNL A   1      46.473  24.547  33.774  1.00  0.00     0.148 A 
ATOM     88  C   UNL A   1      49.010  25.395  32.911  1.00  0.00     0.002 A 
ATOM     89  C   UNL A   1      47.624  23.978  34.308  1.00  0.00     0.091 A 
ATOM     90  F   UNL A   1      45.250  24.134  34.137  1.00  0.00    -0.205 F 
ATOM     91  C   UNL A   1      48.892  24.391  33.869  1.00  0.00     0.022 A 
BRANCH  89  92
ATOM     92  S   UNL A   1      47.562  22.744  35.612  1.00  0.00     0.127 S 
ATOM     93  O   UNL A   1      48.977  22.581  35.937  1.00  0.00    -0.237 OA
ATOM     94  O   UNL A   1      46.774  23.417  36.646  1.00  0.00    -0.237 OA
ATOM     95  O   UNL A   1      46.911  21.581  35.025  1.00  0.00    -0.744 OA
ENDBRANCH  89  92
ENDBRANCH  62  85
ENDBRANCH  36  37
ENDBRANCH  28  31
ENDBRANCH  26  27
ENDBRANCH  25  26
ENDBRANCH  24  25
ENDBRANCH   1  24
TORSDOF 20
ENDMDL
MODEL 3
REMARK VINA RESULT:     -11.0      1.624      2.204
REMARK SMILES CC(C)(CC(=O)NCCCCCCNC(=O)c1ccc(-c2c3nc(c(-c4cccc(S(=O)(=O)[O-])c4F)c4ccc([nH]4)c(-c4cccc(S(=O)(=O)[O-])c4F)c4nc(c(-c5cccc(S(=O)(=O)[O-])c5F)c5ccc2[nH]5)C=C4)C=C3)cc1)Cc1nc([C@@]2(C)CCCO2)no1
REMARK SMILES IDX 10 1 9 2 8 3 7 4 5 5 6 6 4 8 2 9 1 10 3 11 80 12 81 13 82 14
REMARK SMILES IDX 91 15 83 16 90 17 84 18 85 19 86 20 89 21 87 22 88 23 11 24
REMARK SMILES IDX 12 25 13 26 14 27 15 28 16 30 17 31 18 32 79 33 19 34 78 35
REMARK SMILES IDX 20 36 21 37 22 38 72 39 23 40 77 41 71 42 73 43 24 44 76 45
REMARK SMILES IDX 70 46 69 47 25 49 57 50 37 51 56 52 38 53 41 54 55 55 74 56
REMARK SMILES IDX 39 57 40 58 54 60 75 61 42 62 26 63 27 64 35 65 28 66 30 67
REMARK SMILES IDX 36 68 29 69 31 70 32 71 33 72 34 73 58 74 59 75 67 76 60 77
REMARK SMILES IDX 62 78 68 79 61 80 63 81 64 82 65 83 66 84 43 85 44 86 52 87
REMARK SMILES IDX 45 88 47 89 53 90 46 91 48 92 49 93 50 94 51 95
REMARK H PARENT 7 7 14 29 73 48 41 59
REMARK Flexibility Score: inf
ROOT
ATOM      1  C   UNL A   1      30.335  28.386  24.447  1.00  0.00     0.002 C 
ENDROOT
BRANCH   1   2
ATOM      2  C   UNL A   1      29.582  27.551  23.414  1.00  0.00     0.021 C 
BRANCH   2   3
ATOM      3  C   UNL A   1      28.921  26.281  23.945  1.00  0.00     0.116 C 
BRANCH   3   4
ATOM      4  N   UNL A   1      29.459  25.894  25.230  1.00  0.00    -0.356 N 
ATOM      5  C   UNL A   1      30.408  24.974  25.546  1.00  0.00     0.220 C 
ATOM      6  O   UNL A   1      30.772  24.893  26.722  1.00  0.00    -0.275 OA
ATOM      7  H   UNL A   1      29.077  26.373  25.999  1.00  0.00     0.163 HD
BRANCH   5   8
ATOM      8  C   UNL A   1      31.088  24.139  24.477  1.00  0.00     0.107 C 
BRANCH   8   9
ATOM      9  C   UNL A   1      32.376  24.613  23.737  1.00  0.00    -0.018 C 
ATOM     10  C   UNL A   1      32.075  25.272  22.378  1.00  0.00     0.012 C 
ATOM     11  C   UNL A   1      32.935  25.775  24.619  1.00  0.00     0.012 C 
BRANCH   9  12
ATOM     12  C   UNL A   1      33.520  23.565  23.626  1.00  0.00     0.107 C 
BRANCH  12  13
ATOM     13  C   UNL A   1      33.154  22.121  23.596  1.00  0.00     0.227 A 
ATOM     14  N   UNL A   1      33.667  21.117  24.264  1.00  0.00    -0.193 NA
ATOM     15  O   UNL A   1      32.248  21.716  22.657  1.00  0.00    -0.339 OA
ATOM     16  C   UNL A   1      33.025  20.019  23.740  1.00  0.00     0.203 A 
ATOM     17  N   UNL A   1      32.161  20.322  22.756  1.00  0.00    -0.059 NA
BRANCH  16  18
ATOM     18  C   UNL A   1      33.263  18.614  24.262  1.00  0.00     0.128 C 
ATOM     19  C   UNL A   1      32.458  18.370  25.557  1.00  0.00     0.051 C 
ATOM     20  C   UNL A   1      32.961  17.528  23.219  1.00  0.00     0.046 C 
ATOM     21  O   UNL A   1      34.657  18.380  24.612  1.00  0.00    -0.367 OA
ATOM     22  C   UNL A   1      33.780  16.355  23.694  1.00  0.00     0.032 C 
ATOM     23  C   UNL A   1      35.002  17.025  24.285  1.00  0.00     0.161 C 
ENDBRANCH  16  18
ENDBRANCH  12  13
ENDBRANCH   9  12
ENDBRANCH   8   9
ENDBRANCH   5   8
ENDBRANCH   3   4
ENDBRANCH   2   3
ENDBRANCH   1   2
BRANCH   1  24
ATOM     24  C   UNL A   1      31.434  29.296  23.912  1.00  0.00     0.002 C 
BRANCH  24  25
ATOM     25  C   UNL A   1      32.695  29.375  24.771  1.00  0.00     0.021 C 
BRANCH  25  26
ATOM     26  C   UNL A   1      32.462  29.734  26.237  1.00  0.00     0.116 C 
BRANCH  26  27
ATOM     27  N   UNL A   1      32.347  31.168  26.442  1.00  0.00    -0.352 N 
ATOM     28  C   UNL A   1      33.093  32.004  27.232  1.00  0.00     0.251 C 
ATOM     29  H   UNL A   1      31.624  31.605  25.935  1.00  0.00     0.163 HD
ATOM     30  O   UNL A   1      32.710  33.157  27.425  1.00  0.00    -0.269 OA
BRANCH  28  31
ATOM     31  C   UNL A   1      34.344  31.527  27.860  1.00  0.00     0.039 A 
ATOM     32  C   UNL A   1      35.340  32.458  28.166  1.00  0.00     0.014 A 
ATOM     33  C   UNL A   1      34.553  30.169  28.123  1.00  0.00     0.014 A 
ATOM     34  C   UNL A   1      36.521  32.034  28.779  1.00  0.00     0.010 A 
ATOM     35  C   UNL A   1      35.700  29.759  28.801  1.00  0.00     0.010 A 
ATOM     36  C   UNL A   1      36.701  30.685  29.127  1.00  0.00    -0.014 A 
BRANCH  36  37
ATOM     37  C   UNL A   1      37.923  30.246  29.849  1.00  0.00     0.031 A 
ATOM     38  C   UNL A   1      38.216  30.736  31.242  1.00  0.00     0.074 A 
ATOM     39  C   UNL A   1      38.808  29.445  29.221  1.00  0.00     0.049 A 
ATOM     40  N   UNL A   1      39.217  30.434  32.027  1.00  0.00    -0.248 NA
ATOM     41  C   UNL A   1      37.277  31.710  31.821  1.00  0.00     0.031 C 
ATOM     42  C   UNL A   1      38.692  28.981  27.837  1.00  0.00     0.029 A 
ATOM     43  N   UNL A   1      39.987  28.894  29.658  1.00  0.00    -0.354 N 
ATOM     44  C   UNL A   1      39.049  31.198  33.175  1.00  0.00     0.074 A 
ATOM     45  C   UNL A   1      37.866  32.005  32.972  1.00  0.00     0.031 C 
ATOM     46  C   UNL A   1      39.750  28.210  27.542  1.00  0.00     0.029 A 
ATOM     47  C   UNL A   1      40.626  28.134  28.707  1.00  0.00     0.049 A 
ATOM     48  H   UNL A   1      40.341  29.029  30.566  1.00  0.00     0.167 HD
ATOM     49  C   UNL A   1      39.791  31.204  34.309  1.00  0.00     0.034 A 
ATOM     50  C   UNL A   1      41.785  27.449  28.765  1.00  0.00     0.034 A 
ATOM     51  C   UNL A   1      40.940  30.367  34.527  1.00  0.00     0.049 A 
ATOM     52  C   UNL A   1      42.549  27.415  30.061  1.00  0.00     0.074 A 
ATOM     53  C   UNL A   1      41.697  30.225  35.677  1.00  0.00     0.029 A 
ATOM     54  N   UNL A   1      41.505  29.534  33.573  1.00  0.00    -0.354 N 
ATOM     55  N   UNL A   1      42.267  27.998  31.201  1.00  0.00    -0.248 NA
ATOM     56  C   UNL A   1      43.765  26.591  30.092  1.00  0.00     0.031 C 
ATOM     57  C   UNL A   1      42.732  29.321  35.412  1.00  0.00     0.029 A 
ATOM     58  C   UNL A   1      42.607  28.883  34.104  1.00  0.00     0.049 A 
ATOM     59  H   UNL A   1      41.172  29.422  32.654  1.00  0.00     0.167 HD
ATOM     60  C   UNL A   1      43.253  27.592  32.091  1.00  0.00     0.074 A 
ATOM     61  C   UNL A   1      44.121  26.685  31.367  1.00  0.00     0.031 C 
ATOM     62  C   UNL A   1      43.438  27.951  33.386  1.00  0.00     0.034 A 
BRANCH  49  63
ATOM     63  C   UNL A   1      39.344  32.103  35.434  1.00  0.00     0.023 A 
ATOM     64  C   UNL A   1      38.455  31.604  36.409  1.00  0.00     0.012 A 
ATOM     65  C   UNL A   1      39.851  33.411  35.567  1.00  0.00     0.148 A 
ATOM     66  C   UNL A   1      38.053  32.400  37.480  1.00  0.00     0.002 A 
ATOM     67  C   UNL A   1      39.478  34.184  36.660  1.00  0.00     0.091 A 
ATOM     68  F   UNL A   1      40.677  33.876  34.620  1.00  0.00    -0.205 F 
ATOM     69  C   UNL A   1      38.572  33.685  37.612  1.00  0.00     0.022 A 
BRANCH  67  70
ATOM     70  S   UNL A   1      40.151  35.823  36.963  1.00  0.00     0.127 S 
ATOM     71  O   UNL A   1      39.686  36.554  35.784  1.00  0.00    -0.237 OA
ATOM     72  O   UNL A   1      39.490  36.202  38.213  1.00  0.00    -0.237 OA
ATOM     73  O   UNL A   1      41.593  35.652  37.065  1.00  0.00    -0.744 OA
ENDBRANCH  67  70
ENDBRANCH  49  63
BRANCH  50  74
ATOM     74  C   UNL A   1      42.248  26.671  27.581  1.00  0.00     0.023 A 
ATOM     75  C   UNL A   1      43.046  27.301  26.608  1.00  0.00     0.012 A 
ATOM     76  C   UNL A   1      41.932  25.306  27.433  1.00  0.00     0.148 A 
ATOM     77  C   UNL A   1      43.495  26.596  25.491  1.00  0.00     0.002 A 
ATOM     78  C   UNL A   1      42.430  24.595  26.348  1.00  0.00     0.091 A 
ATOM     79  F   UNL A   1      41.160  24.728  28.363  1.00  0.00    -0.205 F 
ATOM     80  C   UNL A   1      43.197  25.242  25.367  1.00  0.00     0.022 A 
BRANCH  78  81
ATOM     81  S   UNL A   1      42.212  22.820  26.188  1.00  0.00     0.127 S 
ATOM     82  O   UNL A   1      42.791  22.565  24.870  1.00  0.00    -0.237 OA
ATOM     83  O   UNL A   1      42.999  22.313  27.314  1.00  0.00    -0.237 OA
ATOM     84  O   UNL A   1      40.781  22.590  26.309  1.00  0.00    -0.744 OA
ENDBRANCH  78  81
ENDBRANCH  50  74
BRANCH  62  85
ATOM     85  C   UNL A   1      44.614  27.351  34.110  1.00  0.00     0.023 A 
ATOM     86  C   UNL A   1      45.861  28.011  34.083  1.00  0.00     0.012 A 
ATOM     87  C   UNL A   1      44.479  26.164  34.856  1.00  0.00     0.148 A 
ATOM     88  C   UNL A   1      46.962  27.477  34.750  1.00  0.00     0.002 A 
ATOM     89  C   UNL A   1      45.569  25.664  35.559  1.00  0.00     0.091 A 
ATOM     90  F   UNL A   1      43.293  25.537  34.856  1.00  0.00    -0.205 F 
ATOM     91  C   UNL A   1      46.814  26.311  35.496  1.00  0.00     0.022 A 
BRANCH  89  92
ATOM     92  S   UNL A   1      45.440  24.219  36.618  1.00  0.00     0.127 S 
ATOM     93  O   UNL A   1      44.897  23.221  35.699  1.00  0.00    -0.237 OA
ATOM     94  O   UNL A   1      46.832  23.991  37.011  1.00  0.00    -0.237 OA
ATOM     95  O   UNL A   1      44.565  24.610  37.715  1.00  0.00    -0.744 OA
ENDBRANCH  89  92
ENDBRANCH  62  85
ENDBRANCH  36  37
ENDBRANCH  28  31
ENDBRANCH  26  27
ENDBRANCH  25  26
ENDBRANCH  24  25
ENDBRANCH   1  24
TORSDOF 20
ENDMDL
