MODEL 1
REMARK VINA RESULT:     -12.3      0.000      0.000
REMARK SMILES Cc1nc2scc(C)n2c1CNc1ccc(C(=O)NCCCCCCNC(=O)c2ccc(-c3c4nc(c(-c5cccc(S(=O)(=O)[O-])c5F)c5ccc([nH]5)c(-c5cccc(S(=O)(=O)[O-])c5F)c5nc(c(-c6cccc(S(=O)(=O)[O-])c6F)c6ccc3[nH]6)C=C5)C=C4)cc2)cc1
REMARK SMILES IDX 22 1 21 2 20 3 19 4 17 5 18 6 16 8 13 9 14 10 93 11 15 12
REMARK SMILES IDX 92 13 12 14 11 16 10 17 1 18 2 19 3 20 4 21 9 22 5 23 7 24
REMARK SMILES IDX 6 25 8 26 23 27 24 28 25 29 26 30 27 31 28 33 29 34 30 35
REMARK SMILES IDX 91 36 31 37 90 38 32 39 33 40 34 41 84 42 35 43 89 44 83 45
REMARK SMILES IDX 85 46 36 47 88 48 82 49 81 50 37 52 69 53 49 54 68 55 50 56
REMARK SMILES IDX 53 57 67 58 86 59 51 60 52 61 66 63 87 64 54 65 38 66 39 67
REMARK SMILES IDX 47 68 40 69 42 70 48 71 41 72 43 73 44 74 45 75 46 76 70 77
REMARK SMILES IDX 71 78 79 79 72 80 74 81 80 82 73 83 75 84 76 85 77 86 78 87
REMARK SMILES IDX 55 88 56 89 64 90 57 91 59 92 65 93 58 94 60 95 61 96 62 97
REMARK SMILES IDX 63 98
REMARK H PARENT 19 7 12 15 26 32 85 51 53 62
REMARK Flexibility Score: inf
ROOT
ATOM      1  C   UNL A   1      33.222  28.149  25.461  1.00  0.00     0.002 C 
ENDROOT
BRANCH   1   2
ATOM      2  C   UNL A   1      33.577  29.289  24.495  1.00  0.00     0.021 C 
BRANCH   2   3
ATOM      3  C   UNL A   1      33.345  28.933  23.027  1.00  0.00     0.116 C 
BRANCH   3   4
ATOM      4  N   UNL A   1      31.957  29.153  22.667  1.00  0.00    -0.352 N 
ATOM      5  C   UNL A   1      30.922  28.302  22.375  1.00  0.00     0.251 C 
ATOM      6  O   UNL A   1      29.829  28.816  22.123  1.00  0.00    -0.269 OA
ATOM      7  H   UNL A   1      31.708  30.104  22.623  1.00  0.00     0.163 HD
BRANCH   5   8
ATOM      8  C   UNL A   1      31.023  26.818  22.474  1.00  0.00     0.039 A 
ATOM      9  C   UNL A   1      31.397  24.092  23.105  1.00  0.00     0.034 A 
ATOM     10  C   UNL A   1      30.426  24.845  23.764  1.00  0.00     0.026 A 
ATOM     11  C   UNL A   1      32.056  24.672  22.022  1.00  0.00     0.026 A 
ATOM     12  C   UNL A   1      30.266  26.204  23.480  1.00  0.00     0.016 A 
ATOM     13  C   UNL A   1      31.830  26.009  21.675  1.00  0.00     0.016 A 
BRANCH   9  14
ATOM     14  N   UNL A   1      31.705  22.836  23.585  1.00  0.00    -0.379 N 
ATOM     15  H   UNL A   1      31.548  22.050  23.013  1.00  0.00     0.160 HD
BRANCH  14  16
ATOM     16  C   UNL A   1      32.256  22.647  24.909  1.00  0.00     0.169 C 
BRANCH  16  17
ATOM     17  C   UNL A   1      33.514  21.856  24.893  1.00  0.00     0.066 A 
ATOM     18  C   UNL A   1      32.683  19.397  24.903  1.00  0.00     0.069 C 
ATOM     19  C   UNL A   1      33.703  20.472  24.908  1.00  0.00     0.062 A 
ATOM     20  N   UNL A   1      35.043  20.143  24.920  1.00  0.00    -0.224 NA
ATOM     21  C   UNL A   1      35.636  21.301  24.908  1.00  0.00     0.194 A 
ATOM     22  N   UNL A   1      34.791  22.377  24.853  1.00  0.00    -0.290 N 
ATOM     23  S   UNL A   1      37.305  21.777  24.897  1.00  0.00    -0.105 S 
ATOM     24  C   UNL A   1      35.441  23.607  24.768  1.00  0.00     0.032 A 
ATOM     25  C   UNL A   1      36.781  23.453  24.782  1.00  0.00     0.090 A 
ATOM     26  C   UNL A   1      34.773  24.926  24.636  1.00  0.00     0.066 C 
ENDBRANCH  16  17
ENDBRANCH  14  16
ENDBRANCH   9  14
ENDBRANCH   5   8
ENDBRANCH   3   4
ENDBRANCH   2   3
ENDBRANCH   1   2
BRANCH   1  27
ATOM     27  C   UNL A   1      32.440  28.567  26.716  1.00  0.00     0.002 C 
BRANCH  27  28
ATOM     28  C   UNL A   1      32.704  29.990  27.231  1.00  0.00     0.021 C 
BRANCH  28  29
ATOM     29  C   UNL A   1      34.127  30.195  27.732  1.00  0.00     0.116 C 
BRANCH  29  30
ATOM     30  N   UNL A   1      34.595  31.556  27.465  1.00  0.00    -0.352 N 
ATOM     31  C   UNL A   1      35.762  32.172  27.873  1.00  0.00     0.251 C 
ATOM     32  H   UNL A   1      33.994  32.111  26.918  1.00  0.00     0.163 HD
ATOM     33  O   UNL A   1      35.857  33.387  27.884  1.00  0.00    -0.269 OA
BRANCH  31  34
ATOM     34  C   UNL A   1      36.897  31.327  28.285  1.00  0.00     0.039 A 
ATOM     35  C   UNL A   1      37.102  30.062  27.720  1.00  0.00     0.014 A 
ATOM     36  C   UNL A   1      37.762  31.829  29.252  1.00  0.00     0.014 A 
ATOM     37  C   UNL A   1      38.229  29.335  28.090  1.00  0.00     0.010 A 
ATOM     38  C   UNL A   1      38.943  31.187  29.497  1.00  0.00     0.010 A 
ATOM     39  C   UNL A   1      39.147  29.912  28.975  1.00  0.00    -0.014 A 
BRANCH  39  40
ATOM     40  C   UNL A   1      40.407  29.258  29.307  1.00  0.00     0.031 A 
ATOM     41  C   UNL A   1      40.564  28.927  30.750  1.00  0.00     0.074 A 
ATOM     42  C   UNL A   1      41.174  28.718  28.335  1.00  0.00     0.049 A 
ATOM     43  N   UNL A   1      41.450  29.366  31.583  1.00  0.00    -0.248 NA
ATOM     44  C   UNL A   1      39.499  28.130  31.383  1.00  0.00     0.031 C 
ATOM     45  C   UNL A   1      40.880  28.679  26.894  1.00  0.00     0.029 A 
ATOM     46  N   UNL A   1      42.263  27.911  28.439  1.00  0.00    -0.354 N 
ATOM     47  C   UNL A   1      41.196  28.692  32.782  1.00  0.00     0.074 A 
ATOM     48  C   UNL A   1      39.857  28.188  32.667  1.00  0.00     0.031 C 
ATOM     49  C   UNL A   1      41.580  27.678  26.322  1.00  0.00     0.029 A 
ATOM     50  C   UNL A   1      42.487  27.126  27.308  1.00  0.00     0.049 A 
ATOM     51  H   UNL A   1      42.840  27.885  29.236  1.00  0.00     0.167 HD
ATOM     52  C   UNL A   1      42.211  28.340  33.623  1.00  0.00     0.034 A 
ATOM     53  C   UNL A   1      43.305  26.049  27.214  1.00  0.00     0.034 A 
ATOM     54  C   UNL A   1      43.422  29.055  33.281  1.00  0.00     0.049 A 
ATOM     55  C   UNL A   1      44.234  26.107  28.364  1.00  0.00     0.074 A 
ATOM     56  C   UNL A   1      43.782  30.383  33.163  1.00  0.00     0.029 A 
ATOM     57  N   UNL A   1      44.386  28.342  32.609  1.00  0.00    -0.354 N 
ATOM     58  N   UNL A   1      45.132  27.039  28.520  1.00  0.00    -0.248 NA
ATOM     59  C   UNL A   1      43.877  25.372  29.565  1.00  0.00     0.031 C 
ATOM     60  C   UNL A   1      44.672  30.426  32.049  1.00  0.00     0.029 A 
ATOM     61  C   UNL A   1      44.865  29.120  31.594  1.00  0.00     0.049 A 
ATOM     62  H   UNL A   1      44.680  27.428  32.824  1.00  0.00     0.167 HD
ATOM     63  C   UNL A   1      45.096  27.322  29.880  1.00  0.00     0.074 A 
ATOM     64  C   UNL A   1      44.409  26.182  30.485  1.00  0.00     0.031 C 
ATOM     65  C   UNL A   1      45.347  28.585  30.338  1.00  0.00     0.034 A 
BRANCH  52  66
ATOM     66  C   UNL A   1      42.279  27.054  34.448  1.00  0.00     0.023 A 
ATOM     67  C   UNL A   1      41.759  27.124  35.765  1.00  0.00     0.012 A 
ATOM     68  C   UNL A   1      43.058  25.911  34.149  1.00  0.00     0.148 A 
ATOM     69  C   UNL A   1      42.112  26.201  36.756  1.00  0.00     0.002 A 
ATOM     70  C   UNL A   1      43.365  24.965  35.124  1.00  0.00     0.091 A 
ATOM     71  F   UNL A   1      43.597  25.749  32.944  1.00  0.00    -0.205 F 
ATOM     72  C   UNL A   1      42.931  25.128  36.439  1.00  0.00     0.022 A 
BRANCH  70  73
ATOM     73  S   UNL A   1      44.394  23.532  34.758  1.00  0.00     0.127 S 
ATOM     74  O   UNL A   1      44.582  22.965  36.090  1.00  0.00    -0.237 OA
ATOM     75  O   UNL A   1      43.525  22.760  33.871  1.00  0.00    -0.237 OA
ATOM     76  O   UNL A   1      45.595  24.052  34.115  1.00  0.00    -0.744 OA
ENDBRANCH  70  73
ENDBRANCH  52  66
BRANCH  53  77
ATOM     77  C   UNL A   1      43.199  24.848  26.354  1.00  0.00     0.023 A 
ATOM     78  C   UNL A   1      44.069  24.698  25.257  1.00  0.00     0.012 A 
ATOM     79  C   UNL A   1      42.437  23.729  26.758  1.00  0.00     0.148 A 
ATOM     80  C   UNL A   1      44.201  23.468  24.603  1.00  0.00     0.002 A 
ATOM     81  C   UNL A   1      42.564  22.509  26.099  1.00  0.00     0.091 A 
ATOM     82  F   UNL A   1      41.661  23.833  27.845  1.00  0.00    -0.205 F 
ATOM     83  C   UNL A   1      43.455  22.372  25.027  1.00  0.00     0.022 A 
BRANCH  81  84
ATOM     84  S   UNL A   1      41.651  21.045  26.608  1.00  0.00     0.127 S 
ATOM     85  O   UNL A   1      42.312  20.698  27.866  1.00  0.00    -0.237 OA
ATOM     86  O   UNL A   1      40.296  21.570  26.750  1.00  0.00    -0.237 OA
ATOM     87  O   UNL A   1      41.842  20.070  25.542  1.00  0.00    -0.744 OA
ENDBRANCH  81  84
ENDBRANCH  53  77
BRANCH  65  88
ATOM     88  C   UNL A   1      45.943  29.586  29.381  1.00  0.00     0.023 A 
ATOM     89  C   UNL A   1      47.324  29.632  29.093  1.00  0.00     0.012 A 
ATOM     90  C   UNL A   1      45.065  30.369  28.617  1.00  0.00     0.148 A 
ATOM     91  C   UNL A   1      47.816  30.458  28.078  1.00  0.00     0.002 A 
ATOM     92  C   UNL A   1      45.551  31.150  27.576  1.00  0.00     0.091 A 
ATOM     93  F   UNL A   1      43.754  30.314  28.902  1.00  0.00    -0.205 F 
ATOM     94  C   UNL A   1      46.928  31.206  27.310  1.00  0.00     0.022 A 
BRANCH  92  95
ATOM     95  S   UNL A   1      44.441  32.024  26.472  1.00  0.00     0.127 S 
ATOM     96  O   UNL A   1      43.972  33.122  27.314  1.00  0.00    -0.237 OA
ATOM     97  O   UNL A   1      45.331  32.425  25.380  1.00  0.00    -0.237 OA
ATOM     98  O   UNL A   1      43.425  31.053  26.079  1.00  0.00    -0.744 OA
ENDBRANCH  92  95
ENDBRANCH  65  88
ENDBRANCH  39  40
ENDBRANCH  31  34
ENDBRANCH  29  30
ENDBRANCH  28  29
ENDBRANCH  27  28
ENDBRANCH   1  27
TORSDOF 19
ENDMDL
MODEL 2
REMARK VINA RESULT:     -11.7      1.898      2.657
REMARK SMILES Cc1nc2scc(C)n2c1CNc1ccc(C(=O)NCCCCCCNC(=O)c2ccc(-c3c4nc(c(-c5cccc(S(=O)(=O)[O-])c5F)c5ccc([nH]5)c(-c5cccc(S(=O)(=O)[O-])c5F)c5nc(c(-c6cccc(S(=O)(=O)[O-])c6F)c6ccc3[nH]6)C=C5)C=C4)cc2)cc1
REMARK SMILES IDX 22 1 21 2 20 3 19 4 17 5 18 6 16 8 13 9 14 10 93 11 15 12
REMARK SMILES IDX 92 13 12 14 11 16 10 17 1 18 2 19 3 20 4 21 9 22 5 23 7 24
REMARK SMILES IDX 6 25 8 26 23 27 24 28 25 29 26 30 27 31 28 33 29 34 30 35
REMARK SMILES IDX 91 36 31 37 90 38 32 39 33 40 34 41 84 42 35 43 89 44 83 45
REMARK SMILES IDX 85 46 36 47 88 48 82 49 81 50 37 52 69 53 49 54 68 55 50 56
REMARK SMILES IDX 53 57 67 58 86 59 51 60 52 61 66 63 87 64 54 65 38 66 39 67
REMARK SMILES IDX 47 68 40 69 42 70 48 71 41 72 43 73 44 74 45 75 46 76 70 77
REMARK SMILES IDX 71 78 79 79 72 80 74 81 80 82 73 83 75 84 76 85 77 86 78 87
REMARK SMILES IDX 55 88 56 89 64 90 57 91 59 92 65 93 58 94 60 95 61 96 62 97
REMARK SMILES IDX 63 98
REMARK H PARENT 19 7 12 15 26 32 85 51 53 62
REMARK Flexibility Score: inf
ROOT
ATOM      1  C   UNL A   1      32.206  30.180  27.051  1.00  0.00     0.002 C 
ENDROOT
BRANCH   1   2
ATOM      2  C   UNL A   1      31.429  30.568  25.784  1.00  0.00     0.021 C 
BRANCH   2   3
ATOM      3  C   UNL A   1      31.695  29.635  24.603  1.00  0.00     0.116 C 
BRANCH   3   4
ATOM      4  N   UNL A   1      30.496  29.484  23.799  1.00  0.00    -0.352 N 
ATOM      5  C   UNL A   1      29.924  28.409  23.170  1.00  0.00     0.251 C 
ATOM      6  O   UNL A   1      28.866  28.610  22.569  1.00  0.00    -0.269 OA
ATOM      7  H   UNL A   1      29.993  30.322  23.682  1.00  0.00     0.163 HD
BRANCH   5   8
ATOM      8  C   UNL A   1      30.443  27.016  23.284  1.00  0.00     0.039 A 
ATOM      9  C   UNL A   1      31.253  24.322  23.048  1.00  0.00     0.034 A 
ATOM     10  C   UNL A   1      31.872  25.317  22.292  1.00  0.00     0.026 A 
ATOM     11  C   UNL A   1      30.348  24.712  24.034  1.00  0.00     0.026 A 
ATOM     12  C   UNL A   1      31.445  26.644  22.379  1.00  0.00     0.016 A 
ATOM     13  C   UNL A   1      29.987  26.057  24.188  1.00  0.00     0.016 A 
BRANCH   9  14
ATOM     14  N   UNL A   1      31.515  23.000  22.752  1.00  0.00    -0.379 N 
ATOM     15  H   UNL A   1      30.786  22.429  22.417  1.00  0.00     0.160 HD
BRANCH  14  16
ATOM     16  C   UNL A   1      32.835  22.435  22.920  1.00  0.00     0.169 C 
BRANCH  16  17
ATOM     17  C   UNL A   1      32.943  21.599  24.145  1.00  0.00     0.066 A 
ATOM     18  C   UNL A   1      33.380  23.332  26.026  1.00  0.00     0.069 C 
ATOM     19  C   UNL A   1      33.192  21.972  25.467  1.00  0.00     0.062 A 
ATOM     20  N   UNL A   1      33.247  20.876  26.303  1.00  0.00    -0.224 NA
ATOM     21  C   UNL A   1      33.031  19.876  25.500  1.00  0.00     0.194 A 
ATOM     22  N   UNL A   1      32.801  20.228  24.196  1.00  0.00    -0.290 N 
ATOM     23  S   UNL A   1      32.922  18.161  25.746  1.00  0.00    -0.105 S 
ATOM     24  C   UNL A   1      32.502  19.152  23.362  1.00  0.00     0.032 A 
ATOM     25  C   UNL A   1      32.528  17.985  24.039  1.00  0.00     0.090 A 
ATOM     26  C   UNL A   1      32.153  19.250  21.922  1.00  0.00     0.066 C 
ENDBRANCH  16  17
ENDBRANCH  14  16
ENDBRANCH   9  14
ENDBRANCH   5   8
ENDBRANCH   3   4
ENDBRANCH   2   3
ENDBRANCH   1   2
BRANCH   1  27
ATOM     27  C   UNL A   1      33.497  30.976  27.303  1.00  0.00     0.002 C 
BRANCH  27  28
ATOM     28  C   UNL A   1      34.745  30.145  27.637  1.00  0.00     0.021 C 
BRANCH  28  29
ATOM     29  C   UNL A   1      35.866  30.965  28.258  1.00  0.00     0.116 C 
BRANCH  29  30
ATOM     30  N   UNL A   1      35.562  31.318  29.647  1.00  0.00    -0.352 N 
ATOM     31  C   UNL A   1      36.180  30.898  30.808  1.00  0.00     0.251 C 
ATOM     32  H   UNL A   1      34.811  31.943  29.771  1.00  0.00     0.163 HD
ATOM     33  O   UNL A   1      35.613  30.983  31.884  1.00  0.00    -0.269 OA
BRANCH  31  34
ATOM     34  C   UNL A   1      37.547  30.354  30.721  1.00  0.00     0.039 A 
ATOM     35  C   UNL A   1      38.664  31.200  30.714  1.00  0.00     0.014 A 
ATOM     36  C   UNL A   1      37.693  28.973  30.649  1.00  0.00     0.014 A 
ATOM     37  C   UNL A   1      39.935  30.634  30.703  1.00  0.00     0.010 A 
ATOM     38  C   UNL A   1      38.934  28.418  30.796  1.00  0.00     0.010 A 
ATOM     39  C   UNL A   1      40.057  29.241  30.752  1.00  0.00    -0.014 A 
BRANCH  39  40
ATOM     40  C   UNL A   1      41.355  28.588  30.869  1.00  0.00     0.031 A 
ATOM     41  C   UNL A   1      41.866  28.482  32.263  1.00  0.00     0.074 A 
ATOM     42  C   UNL A   1      41.851  27.866  29.841  1.00  0.00     0.049 A 
ATOM     43  N   UNL A   1      42.935  29.005  32.769  1.00  0.00    -0.248 NA
ATOM     44  C   UNL A   1      40.988  27.847  33.261  1.00  0.00     0.031 C 
ATOM     45  C   UNL A   1      41.206  27.614  28.543  1.00  0.00     0.029 A 
ATOM     46  N   UNL A   1      42.927  27.035  29.805  1.00  0.00    -0.354 N 
ATOM     47  C   UNL A   1      42.984  28.542  34.087  1.00  0.00     0.074 A 
ATOM     48  C   UNL A   1      41.656  28.090  34.389  1.00  0.00     0.031 C 
ATOM     49  C   UNL A   1      41.735  26.503  27.989  1.00  0.00     0.029 A 
ATOM     50  C   UNL A   1      42.855  26.071  28.799  1.00  0.00     0.049 A 
ATOM     51  H   UNL A   1      43.684  27.107  30.429  1.00  0.00     0.167 HD
ATOM     52  C   UNL A   1      44.175  28.278  34.700  1.00  0.00     0.034 A 
ATOM     53  C   UNL A   1      43.617  24.955  28.686  1.00  0.00     0.034 A 
ATOM     54  C   UNL A   1      45.267  28.873  33.958  1.00  0.00     0.049 A 
ATOM     55  C   UNL A   1      44.805  25.150  29.547  1.00  0.00     0.074 A 
ATOM     56  C   UNL A   1      45.594  30.146  33.538  1.00  0.00     0.029 A 
ATOM     57  N   UNL A   1      46.027  28.018  33.197  1.00  0.00    -0.354 N 
ATOM     58  N   UNL A   1      45.719  26.051  29.322  1.00  0.00    -0.248 NA
ATOM     59  C   UNL A   1      44.755  24.632  30.903  1.00  0.00     0.031 C 
ATOM     60  C   UNL A   1      46.178  29.971  32.249  1.00  0.00     0.029 A 
ATOM     61  C   UNL A   1      46.242  28.601  31.981  1.00  0.00     0.049 A 
ATOM     62  H   UNL A   1      46.360  27.135  33.480  1.00  0.00     0.167 HD
ATOM     63  C   UNL A   1      46.026  26.546  30.583  1.00  0.00     0.074 A 
ATOM     64  C   UNL A   1      45.505  25.551  31.518  1.00  0.00     0.031 C 
ATOM     65  C   UNL A   1      46.392  27.853  30.752  1.00  0.00     0.034 A 
BRANCH  52  66
ATOM     66  C   UNL A   1      44.439  27.137  35.683  1.00  0.00     0.023 A 
ATOM     67  C   UNL A   1      44.989  27.503  36.937  1.00  0.00     0.012 A 
ATOM     68  C   UNL A   1      44.470  25.758  35.371  1.00  0.00     0.148 A 
ATOM     69  C   UNL A   1      45.658  26.584  37.755  1.00  0.00     0.002 A 
ATOM     70  C   UNL A   1      45.090  24.836  36.211  1.00  0.00     0.091 A 
ATOM     71  F   UNL A   1      43.984  25.307  34.218  1.00  0.00    -0.205 F 
ATOM     72  C   UNL A   1      45.722  25.250  37.383  1.00  0.00     0.022 A 
BRANCH  70  73
ATOM     73  S   UNL A   1      45.171  23.085  35.796  1.00  0.00     0.127 S 
ATOM     74  O   UNL A   1      45.654  22.514  37.049  1.00  0.00    -0.237 OA
ATOM     75  O   UNL A   1      43.775  22.790  35.475  1.00  0.00    -0.237 OA
ATOM     76  O   UNL A   1      46.080  22.983  34.660  1.00  0.00    -0.744 OA
ENDBRANCH  70  73
ENDBRANCH  52  66
BRANCH  53  77
ATOM     77  C   UNL A   1      43.291  23.640  28.089  1.00  0.00     0.023 A 
ATOM     78  C   UNL A   1      42.074  23.010  28.413  1.00  0.00     0.012 A 
ATOM     79  C   UNL A   1      44.038  23.128  27.005  1.00  0.00     0.148 A 
ATOM     80  C   UNL A   1      41.600  21.928  27.664  1.00  0.00     0.002 A 
ATOM     81  C   UNL A   1      43.567  22.045  26.267  1.00  0.00     0.091 A 
ATOM     82  F   UNL A   1      45.161  23.760  26.638  1.00  0.00    -0.205 F 
ATOM     83  C   UNL A   1      42.341  21.448  26.587  1.00  0.00     0.022 A 
BRANCH  81  84
ATOM     84  S   UNL A   1      44.460  21.390  24.850  1.00  0.00     0.127 S 
ATOM     85  O   UNL A   1      45.821  21.275  25.375  1.00  0.00    -0.237 OA
ATOM     86  O   UNL A   1      43.779  20.118  24.626  1.00  0.00    -0.237 OA
ATOM     87  O   UNL A   1      44.307  22.383  23.794  1.00  0.00    -0.744 OA
ENDBRANCH  81  84
ENDBRANCH  53  77
BRANCH  65  88
ATOM     88  C   UNL A   1      46.737  28.660  29.526  1.00  0.00     0.023 A 
ATOM     89  C   UNL A   1      47.958  28.510  28.835  1.00  0.00     0.012 A 
ATOM     90  C   UNL A   1      45.728  29.451  28.954  1.00  0.00     0.148 A 
ATOM     91  C   UNL A   1      48.172  29.150  27.611  1.00  0.00     0.002 A 
ATOM     92  C   UNL A   1      45.925  30.046  27.715  1.00  0.00     0.091 A 
ATOM     93  F   UNL A   1      44.572  29.585  29.623  1.00  0.00    -0.205 F 
ATOM     94  C   UNL A   1      47.150  29.906  27.044  1.00  0.00     0.022 A 
BRANCH  92  95
ATOM     95  S   UNL A   1      44.598  30.914  26.877  1.00  0.00     0.127 S 
ATOM     96  O   UNL A   1      44.156  31.857  27.902  1.00  0.00    -0.237 OA
ATOM     97  O   UNL A   1      45.287  31.523  25.738  1.00  0.00    -0.237 OA
ATOM     98  O   UNL A   1      43.628  29.891  26.503  1.00  0.00    -0.744 OA
ENDBRANCH  92  95
ENDBRANCH  65  88
ENDBRANCH  39  40
ENDBRANCH  31  34
ENDBRANCH  29  30
ENDBRANCH  28  29
ENDBRANCH  27  28
ENDBRANCH   1  27
TORSDOF 19
ENDMDL
MODEL 3
REMARK VINA RESULT:     -11.4      3.842      8.270
REMARK SMILES Cc1nc2scc(C)n2c1CNc1ccc(C(=O)NCCCCCCNC(=O)c2ccc(-c3c4nc(c(-c5cccc(S(=O)(=O)[O-])c5F)c5ccc([nH]5)c(-c5cccc(S(=O)(=O)[O-])c5F)c5nc(c(-c6cccc(S(=O)(=O)[O-])c6F)c6ccc3[nH]6)C=C5)C=C4)cc2)cc1
REMARK SMILES IDX 22 1 21 2 20 3 19 4 17 5 18 6 16 8 13 9 14 10 93 11 15 12
REMARK SMILES IDX 92 13 12 14 11 16 10 17 1 18 2 19 3 20 4 21 9 22 5 23 7 24
REMARK SMILES IDX 6 25 8 26 23 27 24 28 25 29 26 30 27 31 28 33 29 34 30 35
REMARK SMILES IDX 91 36 31 37 90 38 32 39 33 40 34 41 84 42 35 43 89 44 83 45
REMARK SMILES IDX 85 46 36 47 88 48 82 49 81 50 37 52 69 53 49 54 68 55 50 56
REMARK SMILES IDX 53 57 67 58 86 59 51 60 52 61 66 63 87 64 54 65 38 66 39 67
REMARK SMILES IDX 47 68 40 69 42 70 48 71 41 72 43 73 44 74 45 75 46 76 70 77
REMARK SMILES IDX 71 78 79 79 72 80 74 81 80 82 73 83 75 84 76 85 77 86 78 87
REMARK SMILES IDX 55 88 56 89 64 90 57 91 59 92 65 93 58 94 60 95 61 96 62 97
REMARK SMILES IDX 63 98
REMARK H PARENT 19 7 12 15 26 32 85 51 53 62
REMARK Flexibility Score: inf
ROOT
ATOM      1  C   UNL A   1      33.836  27.030  25.147  1.00  0.00     0.002 C 
ENDROOT
BRANCH   1   2
ATOM      2  C   UNL A   1      32.870  26.239  24.253  1.00  0.00     0.021 C 
BRANCH   2   3
ATOM      3  C   UNL A   1      32.070  25.182  25.014  1.00  0.00     0.116 C 
BRANCH   3   4
ATOM      4  N   UNL A   1      31.961  23.968  24.227  1.00  0.00    -0.352 N 
ATOM      5  C   UNL A   1      32.872  23.018  23.843  1.00  0.00     0.251 C 
ATOM      6  O   UNL A   1      32.448  22.071  23.178  1.00  0.00    -0.269 OA
ATOM      7  H   UNL A   1      31.048  23.790  23.903  1.00  0.00     0.163 HD
BRANCH   5   8
ATOM      8  C   UNL A   1      34.294  23.013  24.293  1.00  0.00     0.039 A 
ATOM      9  C   UNL A   1      37.022  22.593  24.886  1.00  0.00     0.034 A 
ATOM     10  C   UNL A   1      36.621  22.934  23.594  1.00  0.00     0.026 A 
ATOM     11  C   UNL A   1      36.067  22.627  25.901  1.00  0.00     0.026 A 
ATOM     12  C   UNL A   1      35.268  23.105  23.291  1.00  0.00     0.016 A 
ATOM     13  C   UNL A   1      34.722  22.890  25.615  1.00  0.00     0.016 A 
BRANCH   9  14
ATOM     14  N   UNL A   1      38.321  22.179  25.093  1.00  0.00    -0.379 N 
ATOM     15  H   UNL A   1      38.848  21.847  24.330  1.00  0.00     0.160 HD
BRANCH  14  16
ATOM     16  C   UNL A   1      38.928  22.224  26.405  1.00  0.00     0.169 C 
BRANCH  16  17
ATOM     17  C   UNL A   1      40.298  22.801  26.378  1.00  0.00     0.066 A 
ATOM     18  C   UNL A   1      39.893  25.338  26.752  1.00  0.00     0.069 C 
ATOM     19  C   UNL A   1      40.714  24.128  26.507  1.00  0.00     0.062 A 
ATOM     20  N   UNL A   1      42.084  24.244  26.388  1.00  0.00    -0.224 NA
ATOM     21  C   UNL A   1      42.473  23.018  26.198  1.00  0.00     0.194 A 
ATOM     22  N   UNL A   1      41.467  22.088  26.216  1.00  0.00    -0.290 N 
ATOM     23  S   UNL A   1      44.033  22.292  25.970  1.00  0.00    -0.105 S 
ATOM     24  C   UNL A   1      41.907  20.772  26.082  1.00  0.00     0.032 A 
ATOM     25  C   UNL A   1      43.248  20.717  25.941  1.00  0.00     0.090 A 
ATOM     26  C   UNL A   1      41.042  19.567  26.129  1.00  0.00     0.066 C 
ENDBRANCH  16  17
ENDBRANCH  14  16
ENDBRANCH   9  14
ENDBRANCH   5   8
ENDBRANCH   3   4
ENDBRANCH   2   3
ENDBRANCH   1   2
BRANCH   1  27
ATOM     27  C   UNL A   1      33.677  28.558  25.101  1.00  0.00     0.002 C 
BRANCH  27  28
ATOM     28  C   UNL A   1      34.099  29.317  26.369  1.00  0.00     0.021 C 
BRANCH  28  29
ATOM     29  C   UNL A   1      32.926  29.700  27.259  1.00  0.00     0.116 C 
BRANCH  29  30
ATOM     30  N   UNL A   1      32.523  31.092  27.040  1.00  0.00    -0.352 N 
ATOM     31  C   UNL A   1      33.007  32.241  27.631  1.00  0.00     0.251 C 
ATOM     32  H   UNL A   1      31.806  31.226  26.380  1.00  0.00     0.163 HD
ATOM     33  O   UNL A   1      32.354  33.271  27.624  1.00  0.00    -0.269 OA
BRANCH  31  34
ATOM     34  C   UNL A   1      34.339  32.203  28.261  1.00  0.00     0.039 A 
ATOM     35  C   UNL A   1      34.561  31.484  29.443  1.00  0.00     0.014 A 
ATOM     36  C   UNL A   1      35.370  32.903  27.643  1.00  0.00     0.014 A 
ATOM     37  C   UNL A   1      35.852  31.420  29.958  1.00  0.00     0.010 A 
ATOM     38  C   UNL A   1      36.657  32.712  28.060  1.00  0.00     0.010 A 
ATOM     39  C   UNL A   1      36.894  32.033  29.252  1.00  0.00    -0.014 A 
BRANCH  39  40
ATOM     40  C   UNL A   1      38.285  31.900  29.669  1.00  0.00     0.031 A 
ATOM     41  C   UNL A   1      38.865  30.547  29.445  1.00  0.00     0.074 A 
ATOM     42  C   UNL A   1      39.034  32.998  29.910  1.00  0.00     0.049 A 
ATOM     43  N   UNL A   1      39.317  29.712  30.323  1.00  0.00    -0.248 NA
ATOM     44  C   UNL A   1      38.783  29.990  28.085  1.00  0.00     0.031 C 
ATOM     45  C   UNL A   1      38.615  34.402  29.778  1.00  0.00     0.029 A 
ATOM     46  N   UNL A   1      40.373  33.104  30.116  1.00  0.00    -0.354 N 
ATOM     47  C   UNL A   1      39.809  28.631  29.585  1.00  0.00     0.074 A 
ATOM     48  C   UNL A   1      39.206  28.741  28.287  1.00  0.00     0.031 C 
ATOM     49  C   UNL A   1      39.705  35.181  29.621  1.00  0.00     0.029 A 
ATOM     50  C   UNL A   1      40.887  34.364  29.810  1.00  0.00     0.049 A 
ATOM     51  H   UNL A   1      40.928  32.363  30.451  1.00  0.00     0.167 HD
ATOM     52  C   UNL A   1      40.904  27.931  30.001  1.00  0.00     0.034 A 
ATOM     53  C   UNL A   1      42.192  34.693  29.648  1.00  0.00     0.034 A 
ATOM     54  C   UNL A   1      41.194  28.225  31.388  1.00  0.00     0.049 A 
ATOM     55  C   UNL A   1      42.993  33.614  30.268  1.00  0.00     0.074 A 
ATOM     56  C   UNL A   1      40.502  28.139  32.579  1.00  0.00     0.029 A 
ATOM     57  N   UNL A   1      42.251  29.070  31.627  1.00  0.00    -0.354 N 
ATOM     58  N   UNL A   1      42.997  33.361  31.546  1.00  0.00    -0.248 NA
ATOM     59  C   UNL A   1      43.456  32.534  29.413  1.00  0.00     0.031 C 
ATOM     60  C   UNL A   1      40.908  29.286  33.325  1.00  0.00     0.029 A 
ATOM     61  C   UNL A   1      41.876  29.968  32.584  1.00  0.00     0.049 A 
ATOM     62  H   UNL A   1      43.130  29.034  31.183  1.00  0.00     0.167 HD
ATOM     63  C   UNL A   1      43.002  31.974  31.619  1.00  0.00     0.074 A 
ATOM     64  C   UNL A   1      43.417  31.527  30.291  1.00  0.00     0.031 C 
ATOM     65  C   UNL A   1      42.375  31.325  32.646  1.00  0.00     0.034 A 
BRANCH  52  66
ATOM     66  C   UNL A   1      41.984  27.342  29.093  1.00  0.00     0.023 A 
ATOM     67  C   UNL A   1      42.534  26.099  29.495  1.00  0.00     0.012 A 
ATOM     68  C   UNL A   1      42.688  28.032  28.078  1.00  0.00     0.148 A 
ATOM     69  C   UNL A   1      43.775  25.648  29.029  1.00  0.00     0.002 A 
ATOM     70  C   UNL A   1      43.896  27.555  27.577  1.00  0.00     0.091 A 
ATOM     71  F   UNL A   1      42.260  29.209  27.630  1.00  0.00    -0.205 F 
ATOM     72  C   UNL A   1      44.466  26.385  28.080  1.00  0.00     0.022 A 
BRANCH  70  73
ATOM     73  S   UNL A   1      44.818  28.454  26.317  1.00  0.00     0.127 S 
ATOM     74  O   UNL A   1      46.181  28.001  26.578  1.00  0.00    -0.237 OA
ATOM     75  O   UNL A   1      44.217  27.940  25.086  1.00  0.00    -0.237 OA
ATOM     76  O   UNL A   1      44.561  29.868  26.563  1.00  0.00    -0.744 OA
ENDBRANCH  70  73
ENDBRANCH  52  66
BRANCH  53  77
ATOM     77  C   UNL A   1      42.811  35.735  28.797  1.00  0.00     0.023 A 
ATOM     78  C   UNL A   1      42.578  35.729  27.409  1.00  0.00     0.012 A 
ATOM     79  C   UNL A   1      43.404  36.883  29.368  1.00  0.00     0.148 A 
ATOM     80  C   UNL A   1      42.894  36.839  26.618  1.00  0.00     0.002 A 
ATOM     81  C   UNL A   1      43.726  37.983  28.577  1.00  0.00     0.091 A 
ATOM     82  F   UNL A   1      43.564  36.935  30.697  1.00  0.00    -0.205 F 
ATOM     83  C   UNL A   1      43.462  37.969  27.201  1.00  0.00     0.022 A 
BRANCH  81  84
ATOM     84  S   UNL A   1      44.437  39.484  29.266  1.00  0.00     0.127 S 
ATOM     85  O   UNL A   1      43.449  39.849  30.281  1.00  0.00    -0.237 OA
ATOM     86  O   UNL A   1      45.710  39.000  29.794  1.00  0.00    -0.237 OA
ATOM     87  O   UNL A   1      44.531  40.423  28.156  1.00  0.00    -0.744 OA
ENDBRANCH  81  84
ENDBRANCH  53  77
BRANCH  65  88
ATOM     88  C   UNL A   1      41.935  32.136  33.839  1.00  0.00     0.023 A 
ATOM     89  C   UNL A   1      42.832  32.560  34.842  1.00  0.00     0.012 A 
ATOM     90  C   UNL A   1      40.624  32.636  33.847  1.00  0.00     0.148 A 
ATOM     91  C   UNL A   1      42.422  33.449  35.840  1.00  0.00     0.002 A 
ATOM     92  C   UNL A   1      40.234  33.558  34.810  1.00  0.00     0.091 A 
ATOM     93  F   UNL A   1      39.782  32.224  32.886  1.00  0.00    -0.205 F 
ATOM     94  C   UNL A   1      41.127  33.959  35.815  1.00  0.00     0.022 A 
BRANCH  92  95
ATOM     95  S   UNL A   1      38.626  34.349  34.744  1.00  0.00     0.127 S 
ATOM     96  O   UNL A   1      37.725  33.233  35.022  1.00  0.00    -0.237 OA
ATOM     97  O   UNL A   1      38.719  35.344  35.814  1.00  0.00    -0.237 OA
ATOM     98  O   UNL A   1      38.521  34.925  33.408  1.00  0.00    -0.744 OA
ENDBRANCH  92  95
ENDBRANCH  65  88
ENDBRANCH  39  40
ENDBRANCH  31  34
ENDBRANCH  29  30
ENDBRANCH  28  29
ENDBRANCH  27  28
ENDBRANCH   1  27
TORSDOF 19
ENDMDL
