MODEL 1
REMARK VINA RESULT:     -12.2      0.000      0.000
REMARK SMILES O=C(CCN/C(=[NH+]\S(=O)(=O)c1ccccc1)c1ccccc1)NCCCCCCNC(=O)c1ccc(-c2c3nc(c(-c4cccc(S(=O)(=O)[O-])c4F)c4ccc([nH]4)c(-c4cccc(S(=O)(=O)[O-])c4F)c4nc(c(-c5cccc(S(=O)(=O)[O-])c5F)c5ccc2[nH]5)C=C4)C=C3)cc1
REMARK SMILES IDX 26 1 25 2 24 3 23 4 1 5 2 6 3 8 4 9 5 10 6 11 7 13 17 15
REMARK SMILES IDX 18 16 22 17 19 18 21 19 20 20 8 21 9 22 10 23 11 24 12 25
REMARK SMILES IDX 16 26 13 27 15 28 14 29 27 30 28 31 29 32 30 33 31 34 32 36
REMARK SMILES IDX 33 37 34 38 95 39 35 40 94 41 36 42 37 43 38 44 88 45 39 46
REMARK SMILES IDX 93 47 87 48 89 49 40 50 92 51 86 52 85 53 41 55 73 56 53 57
REMARK SMILES IDX 72 58 54 59 57 60 71 61 90 62 55 63 56 64 70 66 91 67 58 68
REMARK SMILES IDX 42 69 43 70 51 71 44 72 46 73 52 74 45 75 47 76 48 77 49 78
REMARK SMILES IDX 50 79 74 80 75 81 83 82 76 83 78 84 84 85 77 86 79 87 80 88
REMARK SMILES IDX 81 89 82 90 59 91 60 92 68 93 61 94 63 95 69 96 62 97 64 98
REMARK SMILES IDX 65 99 66 100 67 101
REMARK H PARENT 23 7 5 12 7 14 30 35 89 54 57 65
REMARK Flexibility Score: inf
ROOT
ATOM      1  C   UNL A   1      34.284  22.811  26.988  1.00  0.00     0.002 C 
ENDROOT
BRANCH   1   2
ATOM      2  C   UNL A   1      34.049  24.012  26.066  1.00  0.00     0.021 C 
BRANCH   2   3
ATOM      3  C   UNL A   1      32.690  24.693  26.236  1.00  0.00     0.116 C 
BRANCH   3   4
ATOM      4  N   UNL A   1      32.834  26.115  26.485  1.00  0.00    -0.356 N 
ATOM      5  O   UNL A   1      30.593  26.638  26.453  1.00  0.00    -0.275 OA
ATOM      6  C   UNL A   1      31.768  26.976  26.552  1.00  0.00     0.223 C 
ATOM      7  H   UNL A   1      33.740  26.480  26.612  1.00  0.00     0.163 HD
BRANCH   6   8
ATOM      8  C   UNL A   1      32.162  28.413  26.786  1.00  0.00     0.145 C 
BRANCH   8   9
ATOM      9  C   UNL A   1      31.711  29.296  25.633  1.00  0.00     0.243 C 
BRANCH   9  10
ATOM     10  N   UNL A   1      32.068  28.731  24.340  1.00  0.00    -0.273 N 
ATOM     11  C   UNL A   1      31.250  28.398  23.273  1.00  0.00     0.290 C 
ATOM     12  H   UNL A   1      33.029  28.562  24.203  1.00  0.00     0.305 HD
ATOM     13  N   UNL A   1      31.548  27.580  22.308  1.00  0.00    -0.162 N 
ATOM     14  H   UNL A   1      30.952  27.499  21.529  1.00  0.00     0.327 HD
BRANCH  11  15
ATOM     15  C   UNL A   1      29.891  29.010  23.164  1.00  0.00     0.064 A 
ATOM     16  C   UNL A   1      28.769  28.175  23.129  1.00  0.00     0.016 A 
ATOM     17  C   UNL A   1      29.739  30.397  23.088  1.00  0.00     0.016 A 
ATOM     18  C   UNL A   1      27.493  28.732  23.055  1.00  0.00     0.001 A 
ATOM     19  C   UNL A   1      28.462  30.951  23.028  1.00  0.00     0.001 A 
ATOM     20  C   UNL A   1      27.341  30.119  23.015  1.00  0.00     0.000 A 
ENDBRANCH  11  15
BRANCH  13  21
ATOM     21  S   UNL A   1      32.897  26.695  22.390  1.00  0.00     0.328 S 
ATOM     22  O   UNL A   1      33.577  26.756  21.112  1.00  0.00    -0.179 OA
ATOM     23  O   UNL A   1      33.592  27.106  23.599  1.00  0.00    -0.179 OA
BRANCH  21  24
ATOM     24  C   UNL A   1      32.432  25.001  22.646  1.00  0.00     0.109 A 
ATOM     25  C   UNL A   1      33.394  24.012  22.395  1.00  0.00     0.024 A 
ATOM     26  C   UNL A   1      31.163  24.654  23.110  1.00  0.00     0.024 A 
ATOM     27  C   UNL A   1      33.096  22.672  22.645  1.00  0.00     0.001 A 
ATOM     28  C   UNL A   1      30.868  23.308  23.347  1.00  0.00     0.001 A 
ATOM     29  C   UNL A   1      31.834  22.322  23.123  1.00  0.00     0.000 A 
ENDBRANCH  21  24
ENDBRANCH  13  21
ENDBRANCH   9  10
ENDBRANCH   8   9
ENDBRANCH   6   8
ENDBRANCH   3   4
ENDBRANCH   2   3
ENDBRANCH   1   2
BRANCH   1  30
ATOM     30  C   UNL A   1      35.196  21.725  26.414  1.00  0.00     0.002 C 
BRANCH  30  31
ATOM     31  C   UNL A   1      35.478  21.821  24.921  1.00  0.00     0.021 C 
BRANCH  31  32
ATOM     32  C   UNL A   1      36.959  21.891  24.576  1.00  0.00     0.116 C 
BRANCH  32  33
ATOM     33  N   UNL A   1      37.694  20.709  25.012  1.00  0.00    -0.352 N 
ATOM     34  C   UNL A   1      38.860  20.645  25.735  1.00  0.00     0.251 C 
ATOM     35  H   UNL A   1      37.302  19.843  24.756  1.00  0.00     0.163 HD
ATOM     36  O   UNL A   1      39.437  19.572  25.887  1.00  0.00    -0.269 OA
BRANCH  34  37
ATOM     37  C   UNL A   1      39.428  21.888  26.301  1.00  0.00     0.039 A 
ATOM     38  C   UNL A   1      40.521  21.802  27.166  1.00  0.00     0.014 A 
ATOM     39  C   UNL A   1      38.909  23.135  25.943  1.00  0.00     0.014 A 
ATOM     40  C   UNL A   1      41.137  22.973  27.616  1.00  0.00     0.010 A 
ATOM     41  C   UNL A   1      39.572  24.294  26.324  1.00  0.00     0.010 A 
ATOM     42  C   UNL A   1      40.690  24.227  27.167  1.00  0.00    -0.014 A 
BRANCH  42  43
ATOM     43  C   UNL A   1      41.385  25.481  27.554  1.00  0.00     0.031 A 
ATOM     44  C   UNL A   1      40.652  26.540  28.334  1.00  0.00     0.074 A 
ATOM     45  C   UNL A   1      42.642  25.708  27.121  1.00  0.00     0.049 A 
ATOM     46  N   UNL A   1      41.063  27.726  28.699  1.00  0.00    -0.248 NA
ATOM     47  C   UNL A   1      39.266  26.240  28.729  1.00  0.00     0.031 C 
ATOM     48  C   UNL A   1      43.427  24.797  26.284  1.00  0.00     0.029 A 
ATOM     49  N   UNL A   1      43.470  26.787  27.300  1.00  0.00    -0.354 N 
ATOM     50  C   UNL A   1      39.982  28.324  29.333  1.00  0.00     0.074 A 
ATOM     51  C   UNL A   1      38.882  27.387  29.272  1.00  0.00     0.031 C 
ATOM     52  C   UNL A   1      44.620  25.356  26.023  1.00  0.00     0.029 A 
ATOM     53  C   UNL A   1      44.677  26.672  26.650  1.00  0.00     0.049 A 
ATOM     54  H   UNL A   1      43.222  27.572  27.842  1.00  0.00     0.167 HD
ATOM     55  C   UNL A   1      39.917  29.532  29.943  1.00  0.00     0.034 A 
ATOM     56  C   UNL A   1      45.711  27.532  26.566  1.00  0.00     0.034 A 
ATOM     57  C   UNL A   1      41.027  30.440  30.050  1.00  0.00     0.049 A 
ATOM     58  C   UNL A   1      45.630  28.845  27.298  1.00  0.00     0.074 A 
ATOM     59  C   UNL A   1      41.088  31.647  30.723  1.00  0.00     0.029 A 
ATOM     60  N   UNL A   1      42.269  30.241  29.469  1.00  0.00    -0.354 N 
ATOM     61  N   UNL A   1      44.654  29.321  28.033  1.00  0.00    -0.248 NA
ATOM     62  C   UNL A   1      46.808  29.722  27.224  1.00  0.00     0.031 C 
ATOM     63  C   UNL A   1      42.365  32.185  30.538  1.00  0.00     0.029 A 
ATOM     64  C   UNL A   1      43.105  31.304  29.766  1.00  0.00     0.049 A 
ATOM     65  H   UNL A   1      42.520  29.459  28.926  1.00  0.00     0.167 HD
ATOM     66  C   UNL A   1      45.112  30.533  28.536  1.00  0.00     0.074 A 
ATOM     67  C   UNL A   1      46.463  30.707  28.042  1.00  0.00     0.031 C 
ATOM     68  C   UNL A   1      44.467  31.431  29.321  1.00  0.00     0.034 A 
BRANCH  55  69
ATOM     69  C   UNL A   1      38.622  29.914  30.610  1.00  0.00     0.023 A 
ATOM     70  C   UNL A   1      38.371  29.482  31.929  1.00  0.00     0.012 A 
ATOM     71  C   UNL A   1      37.689  30.751  29.967  1.00  0.00     0.148 A 
ATOM     72  C   UNL A   1      37.200  29.855  32.588  1.00  0.00     0.002 A 
ATOM     73  C   UNL A   1      36.545  31.153  30.646  1.00  0.00     0.091 A 
ATOM     74  F   UNL A   1      37.936  31.134  28.706  1.00  0.00    -0.205 F 
ATOM     75  C   UNL A   1      36.295  30.698  31.952  1.00  0.00     0.022 A 
BRANCH  73  76
ATOM     76  S   UNL A   1      35.351  32.298  29.947  1.00  0.00     0.127 S 
ATOM     77  O   UNL A   1      36.202  33.430  29.584  1.00  0.00    -0.237 OA
ATOM     78  O   UNL A   1      34.826  31.540  28.811  1.00  0.00    -0.237 OA
ATOM     79  O   UNL A   1      34.381  32.562  31.002  1.00  0.00    -0.744 OA
ENDBRANCH  73  76
ENDBRANCH  55  69
BRANCH  56  80
ATOM     80  C   UNL A   1      46.942  27.153  25.814  1.00  0.00     0.023 A 
ATOM     81  C   UNL A   1      47.872  26.278  26.410  1.00  0.00     0.012 A 
ATOM     82  C   UNL A   1      47.191  27.639  24.516  1.00  0.00     0.148 A 
ATOM     83  C   UNL A   1      49.045  25.925  25.744  1.00  0.00     0.002 A 
ATOM     84  C   UNL A   1      48.336  27.238  23.836  1.00  0.00     0.091 A 
ATOM     85  F   UNL A   1      46.303  28.481  23.970  1.00  0.00    -0.205 F 
ATOM     86  C   UNL A   1      49.273  26.396  24.455  1.00  0.00     0.022 A 
BRANCH  84  87
ATOM     87  S   UNL A   1      48.641  27.695  22.126  1.00  0.00     0.127 S 
ATOM     88  O   UNL A   1      49.949  28.337  22.215  1.00  0.00    -0.237 OA
ATOM     89  O   UNL A   1      48.638  26.393  21.456  1.00  0.00    -0.237 OA
ATOM     90  O   UNL A   1      47.529  28.560  21.752  1.00  0.00    -0.744 OA
ENDBRANCH  84  87
ENDBRANCH  56  80
BRANCH  68  91
ATOM     91  C   UNL A   1      45.221  32.668  29.731  1.00  0.00     0.023 A 
ATOM     92  C   UNL A   1      46.003  32.654  30.903  1.00  0.00     0.012 A 
ATOM     93  C   UNL A   1      45.217  33.817  28.915  1.00  0.00     0.148 A 
ATOM     94  C   UNL A   1      46.746  33.774  31.272  1.00  0.00     0.002 A 
ATOM     95  C   UNL A   1      45.997  34.912  29.264  1.00  0.00     0.091 A 
ATOM     96  F   UNL A   1      44.451  33.817  27.815  1.00  0.00    -0.205 F 
ATOM     97  C   UNL A   1      46.753  34.898  30.448  1.00  0.00     0.022 A 
BRANCH  95  98
ATOM     98  S   UNL A   1      46.141  36.363  28.215  1.00  0.00     0.127 S 
ATOM     99  O   UNL A   1      46.833  37.302  29.097  1.00  0.00    -0.237 OA
ATOM    100  O   UNL A   1      46.948  35.863  27.101  1.00  0.00    -0.237 OA
ATOM    101  O   UNL A   1      44.778  36.733  27.854  1.00  0.00    -0.744 OA
ENDBRANCH  95  98
ENDBRANCH  68  91
ENDBRANCH  42  43
ENDBRANCH  34  37
ENDBRANCH  32  33
ENDBRANCH  31  32
ENDBRANCH  30  31
ENDBRANCH   1  30
TORSDOF 21
ENDMDL
MODEL 2
REMARK VINA RESULT:     -12.0      5.293      7.935
REMARK SMILES O=C(CCN/C(=[NH+]\S(=O)(=O)c1ccccc1)c1ccccc1)NCCCCCCNC(=O)c1ccc(-c2c3nc(c(-c4cccc(S(=O)(=O)[O-])c4F)c4ccc([nH]4)c(-c4cccc(S(=O)(=O)[O-])c4F)c4nc(c(-c5cccc(S(=O)(=O)[O-])c5F)c5ccc2[nH]5)C=C4)C=C3)cc1
REMARK SMILES IDX 26 1 25 2 24 3 23 4 1 5 2 6 3 8 4 9 5 10 6 11 7 13 17 15
REMARK SMILES IDX 18 16 22 17 19 18 21 19 20 20 8 21 9 22 10 23 11 24 12 25
REMARK SMILES IDX 16 26 13 27 15 28 14 29 27 30 28 31 29 32 30 33 31 34 32 36
REMARK SMILES IDX 33 37 34 38 95 39 35 40 94 41 36 42 37 43 38 44 88 45 39 46
REMARK SMILES IDX 93 47 87 48 89 49 40 50 92 51 86 52 85 53 41 55 73 56 53 57
REMARK SMILES IDX 72 58 54 59 57 60 71 61 90 62 55 63 56 64 70 66 91 67 58 68
REMARK SMILES IDX 42 69 43 70 51 71 44 72 46 73 52 74 45 75 47 76 48 77 49 78
REMARK SMILES IDX 50 79 74 80 75 81 83 82 76 83 78 84 84 85 77 86 79 87 80 88
REMARK SMILES IDX 81 89 82 90 59 91 60 92 68 93 61 94 63 95 69 96 62 97 64 98
REMARK SMILES IDX 65 99 66 100 67 101
REMARK H PARENT 23 7 5 12 7 14 30 35 89 54 57 65
REMARK Flexibility Score: inf
ROOT
ATOM      1  C   UNL A   1      31.099  27.571  23.905  1.00  0.00     0.002 C 
ENDROOT
BRANCH   1   2
ATOM      2  C   UNL A   1      30.306  26.262  23.961  1.00  0.00     0.021 C 
BRANCH   2   3
ATOM      3  C   UNL A   1      29.685  25.948  25.323  1.00  0.00     0.116 C 
BRANCH   3   4
ATOM      4  N   UNL A   1      29.866  24.554  25.683  1.00  0.00    -0.356 N 
ATOM      5  O   UNL A   1      31.744  24.836  26.982  1.00  0.00    -0.275 OA
ATOM      6  C   UNL A   1      30.898  24.111  26.470  1.00  0.00     0.223 C 
ATOM      7  H   UNL A   1      29.216  23.895  25.347  1.00  0.00     0.163 HD
BRANCH   6   8
ATOM      8  C   UNL A   1      30.902  22.617  26.682  1.00  0.00     0.145 C 
BRANCH   8   9
ATOM      9  C   UNL A   1      31.386  21.892  25.437  1.00  0.00     0.243 C 
BRANCH   9  10
ATOM     10  N   UNL A   1      32.749  22.262  25.083  1.00  0.00    -0.273 N 
ATOM     11  C   UNL A   1      33.811  21.450  24.720  1.00  0.00     0.290 C 
ATOM     12  H   UNL A   1      32.944  23.227  25.105  1.00  0.00     0.305 HD
ATOM     13  N   UNL A   1      35.069  21.771  24.770  1.00  0.00    -0.162 N 
ATOM     14  H   UNL A   1      35.746  21.174  24.377  1.00  0.00     0.327 HD
BRANCH  11  15
ATOM     15  C   UNL A   1      33.547  20.070  24.212  1.00  0.00     0.064 A 
ATOM     16  C   UNL A   1      34.332  19.010  24.679  1.00  0.00     0.016 A 
ATOM     17  C   UNL A   1      32.538  19.838  23.273  1.00  0.00     0.016 A 
ATOM     18  C   UNL A   1      34.079  17.712  24.234  1.00  0.00     0.001 A 
ATOM     19  C   UNL A   1      32.279  18.539  22.841  1.00  0.00     0.001 A 
ATOM     20  C   UNL A   1      33.047  17.478  23.324  1.00  0.00     0.000 A 
ENDBRANCH  11  15
BRANCH  13  21
ATOM     21  S   UNL A   1      35.521  23.150  25.479  1.00  0.00     0.328 S 
ATOM     22  O   UNL A   1      35.391  24.233  24.525  1.00  0.00    -0.179 OA
ATOM     23  O   UNL A   1      34.817  23.217  26.749  1.00  0.00    -0.179 OA
BRANCH  21  24
ATOM     24  C   UNL A   1      37.246  23.025  25.882  1.00  0.00     0.109 A 
ATOM     25  C   UNL A   1      37.874  24.151  26.432  1.00  0.00     0.024 A 
ATOM     26  C   UNL A   1      37.956  21.839  25.692  1.00  0.00     0.024 A 
ATOM     27  C   UNL A   1      39.210  24.079  26.827  1.00  0.00     0.001 A 
ATOM     28  C   UNL A   1      39.298  21.779  26.079  1.00  0.00     0.001 A 
ATOM     29  C   UNL A   1      39.920  22.892  26.651  1.00  0.00     0.000 A 
ENDBRANCH  21  24
ENDBRANCH  13  21
ENDBRANCH   9  10
ENDBRANCH   8   9
ENDBRANCH   6   8
ENDBRANCH   3   4
ENDBRANCH   2   3
ENDBRANCH   1   2
BRANCH   1  30
ATOM     30  C   UNL A   1      32.485  27.515  24.552  1.00  0.00     0.002 C 
BRANCH  30  31
ATOM     31  C   UNL A   1      32.642  28.306  25.843  1.00  0.00     0.021 C 
BRANCH  31  32
ATOM     32  C   UNL A   1      33.763  29.334  25.805  1.00  0.00     0.116 C 
BRANCH  32  33
ATOM     33  N   UNL A   1      33.339  30.646  26.279  1.00  0.00    -0.352 N 
ATOM     34  C   UNL A   1      33.862  31.395  27.305  1.00  0.00     0.251 C 
ATOM     35  H   UNL A   1      32.579  31.049  25.801  1.00  0.00     0.163 HD
ATOM     36  O   UNL A   1      33.291  32.413  27.684  1.00  0.00    -0.269 OA
BRANCH  34  37
ATOM     37  C   UNL A   1      35.104  30.942  27.970  1.00  0.00     0.039 A 
ATOM     38  C   UNL A   1      36.193  31.814  28.040  1.00  0.00     0.014 A 
ATOM     39  C   UNL A   1      35.174  29.677  28.559  1.00  0.00     0.014 A 
ATOM     40  C   UNL A   1      37.328  31.440  28.764  1.00  0.00     0.010 A 
ATOM     41  C   UNL A   1      36.269  29.341  29.345  1.00  0.00     0.010 A 
ATOM     42  C   UNL A   1      37.359  30.217  29.454  1.00  0.00    -0.014 A 
BRANCH  42  43
ATOM     43  C   UNL A   1      38.515  29.837  30.306  1.00  0.00     0.031 A 
ATOM     44  C   UNL A   1      38.697  30.475  31.658  1.00  0.00     0.074 A 
ATOM     45  C   UNL A   1      39.451  28.995  29.824  1.00  0.00     0.049 A 
ATOM     46  N   UNL A   1      39.676  30.329  32.512  1.00  0.00    -0.248 NA
ATOM     47  C   UNL A   1      37.659  31.423  32.096  1.00  0.00     0.031 C 
ATOM     48  C   UNL A   1      39.432  28.381  28.493  1.00  0.00     0.029 A 
ATOM     49  N   UNL A   1      40.614  28.532  30.384  1.00  0.00    -0.354 N 
ATOM     50  C   UNL A   1      39.392  31.187  33.566  1.00  0.00     0.074 A 
ATOM     51  C   UNL A   1      38.169  31.880  33.231  1.00  0.00     0.031 C 
ATOM     52  C   UNL A   1      40.531  27.623  28.343  1.00  0.00     0.029 A 
ATOM     53  C   UNL A   1      41.344  27.717  29.551  1.00  0.00     0.049 A 
ATOM     54  H   UNL A   1      40.900  28.763  31.299  1.00  0.00     0.167 HD
ATOM     55  C   UNL A   1      40.070  31.360  34.726  1.00  0.00     0.034 A 
ATOM     56  C   UNL A   1      42.536  27.116  29.738  1.00  0.00     0.034 A 
ATOM     57  C   UNL A   1      41.257  30.631  35.080  1.00  0.00     0.049 A 
ATOM     58  C   UNL A   1      43.239  27.285  31.057  1.00  0.00     0.074 A 
ATOM     59  C   UNL A   1      41.968  30.670  36.267  1.00  0.00     0.029 A 
ATOM     60  N   UNL A   1      41.910  29.732  34.252  1.00  0.00    -0.354 N 
ATOM     61  N   UNL A   1      42.868  27.975  32.108  1.00  0.00    -0.248 NA
ATOM     62  C   UNL A   1      44.507  26.562  31.233  1.00  0.00     0.031 C 
ATOM     63  C   UNL A   1      43.059  29.802  36.151  1.00  0.00     0.029 A 
ATOM     64  C   UNL A   1      43.016  29.210  34.899  1.00  0.00     0.049 A 
ATOM     65  H   UNL A   1      41.628  29.499  33.337  1.00  0.00     0.167 HD
ATOM     66  C   UNL A   1      43.834  27.741  33.080  1.00  0.00     0.074 A 
ATOM     67  C   UNL A   1      44.795  26.825  32.500  1.00  0.00     0.031 C 
ATOM     68  C   UNL A   1      43.927  28.251  34.332  1.00  0.00     0.034 A 
BRANCH  55  69
ATOM     69  C   UNL A   1      39.503  32.324  35.734  1.00  0.00     0.023 A 
ATOM     70  C   UNL A   1      38.535  31.872  36.654  1.00  0.00     0.012 A 
ATOM     71  C   UNL A   1      39.972  33.650  35.819  1.00  0.00     0.148 A 
ATOM     72  C   UNL A   1      38.023  32.729  37.626  1.00  0.00     0.002 A 
ATOM     73  C   UNL A   1      39.488  34.486  36.819  1.00  0.00     0.091 A 
ATOM     74  F   UNL A   1      40.877  34.067  34.923  1.00  0.00    -0.205 F 
ATOM     75  C   UNL A   1      38.507  34.030  37.715  1.00  0.00     0.022 A 
BRANCH  73  76
ATOM     76  S   UNL A   1      40.098  36.157  37.070  1.00  0.00     0.127 S 
ATOM     77  O   UNL A   1      41.523  35.920  37.297  1.00  0.00    -0.237 OA
ATOM     78  O   UNL A   1      39.782  36.795  35.791  1.00  0.00    -0.237 OA
ATOM     79  O   UNL A   1      39.365  36.686  38.212  1.00  0.00    -0.744 OA
ENDBRANCH  73  76
ENDBRANCH  55  69
BRANCH  56  80
ATOM     80  C   UNL A   1      43.110  26.243  28.674  1.00  0.00     0.023 A 
ATOM     81  C   UNL A   1      42.676  24.905  28.572  1.00  0.00     0.012 A 
ATOM     82  C   UNL A   1      44.065  26.725  27.760  1.00  0.00     0.148 A 
ATOM     83  C   UNL A   1      43.213  24.055  27.605  1.00  0.00     0.002 A 
ATOM     84  C   UNL A   1      44.554  25.888  26.763  1.00  0.00     0.091 A 
ATOM     85  F   UNL A   1      44.476  27.995  27.880  1.00  0.00    -0.205 F 
ATOM     86  C   UNL A   1      44.143  24.547  26.696  1.00  0.00     0.022 A 
BRANCH  84  87
ATOM     87  S   UNL A   1      45.656  26.478  25.473  1.00  0.00     0.127 S 
ATOM     88  O   UNL A   1      46.861  26.799  26.232  1.00  0.00    -0.237 OA
ATOM     89  O   UNL A   1      45.768  25.304  24.605  1.00  0.00    -0.237 OA
ATOM     90  O   UNL A   1      44.967  27.607  24.862  1.00  0.00    -0.744 OA
ENDBRANCH  84  87
ENDBRANCH  56  80
BRANCH  68  91
ATOM     91  C   UNL A   1      45.087  27.806  35.183  1.00  0.00     0.023 A 
ATOM     92  C   UNL A   1      46.302  28.519  35.136  1.00  0.00     0.012 A 
ATOM     93  C   UNL A   1      44.948  26.733  36.085  1.00  0.00     0.148 A 
ATOM     94  C   UNL A   1      47.370  28.150  35.953  1.00  0.00     0.002 A 
ATOM     95  C   UNL A   1      46.000  26.401  36.929  1.00  0.00     0.091 A 
ATOM     96  F   UNL A   1      43.791  26.056  36.100  1.00  0.00    -0.205 F 
ATOM     97  C   UNL A   1      47.216  27.101  36.857  1.00  0.00     0.022 A 
BRANCH  95  98
ATOM     98  S   UNL A   1      45.858  25.129  38.188  1.00  0.00     0.127 S 
ATOM     99  O   UNL A   1      45.741  23.918  37.378  1.00  0.00    -0.237 OA
ATOM    100  O   UNL A   1      47.126  25.261  38.909  1.00  0.00    -0.237 OA
ATOM    101  O   UNL A   1      44.681  25.472  38.974  1.00  0.00    -0.744 OA
ENDBRANCH  95  98
ENDBRANCH  68  91
ENDBRANCH  42  43
ENDBRANCH  34  37
ENDBRANCH  32  33
ENDBRANCH  31  32
ENDBRANCH  30  31
ENDBRANCH   1  30
TORSDOF 21
ENDMDL
MODEL 3
REMARK VINA RESULT:     -11.8      5.084      8.100
REMARK SMILES O=C(CCN/C(=[NH+]\S(=O)(=O)c1ccccc1)c1ccccc1)NCCCCCCNC(=O)c1ccc(-c2c3nc(c(-c4cccc(S(=O)(=O)[O-])c4F)c4ccc([nH]4)c(-c4cccc(S(=O)(=O)[O-])c4F)c4nc(c(-c5cccc(S(=O)(=O)[O-])c5F)c5ccc2[nH]5)C=C4)C=C3)cc1
REMARK SMILES IDX 26 1 25 2 24 3 23 4 1 5 2 6 3 8 4 9 5 10 6 11 7 13 17 15
REMARK SMILES IDX 18 16 22 17 19 18 21 19 20 20 8 21 9 22 10 23 11 24 12 25
REMARK SMILES IDX 16 26 13 27 15 28 14 29 27 30 28 31 29 32 30 33 31 34 32 36
REMARK SMILES IDX 33 37 34 38 95 39 35 40 94 41 36 42 37 43 38 44 88 45 39 46
REMARK SMILES IDX 93 47 87 48 89 49 40 50 92 51 86 52 85 53 41 55 73 56 53 57
REMARK SMILES IDX 72 58 54 59 57 60 71 61 90 62 55 63 56 64 70 66 91 67 58 68
REMARK SMILES IDX 42 69 43 70 51 71 44 72 46 73 52 74 45 75 47 76 48 77 49 78
REMARK SMILES IDX 50 79 74 80 75 81 83 82 76 83 78 84 84 85 77 86 79 87 80 88
REMARK SMILES IDX 81 89 82 90 59 91 60 92 68 93 61 94 63 95 69 96 62 97 64 98
REMARK SMILES IDX 65 99 66 100 67 101
REMARK H PARENT 23 7 5 12 7 14 30 35 89 54 57 65
REMARK Flexibility Score: inf
ROOT
ATOM      1  C   UNL A   1      32.408  28.492  24.266  1.00  0.00     0.002 C 
ENDROOT
BRANCH   1   2
ATOM      2  C   UNL A   1      33.090  27.142  24.510  1.00  0.00     0.021 C 
BRANCH   2   3
ATOM      3  C   UNL A   1      33.529  26.408  23.241  1.00  0.00     0.116 C 
BRANCH   3   4
ATOM      4  N   UNL A   1      33.964  25.055  23.531  1.00  0.00    -0.356 N 
ATOM      5  O   UNL A   1      33.402  24.133  21.499  1.00  0.00    -0.275 OA
ATOM      6  C   UNL A   1      33.844  24.022  22.637  1.00  0.00     0.223 C 
ATOM      7  H   UNL A   1      34.365  24.869  24.411  1.00  0.00     0.163 HD
BRANCH   6   8
ATOM      8  C   UNL A   1      34.332  22.697  23.170  1.00  0.00     0.145 C 
BRANCH   8   9
ATOM      9  C   UNL A   1      34.756  22.818  24.626  1.00  0.00     0.243 C 
BRANCH   9  10
ATOM     10  N   UNL A   1      33.640  22.614  25.538  1.00  0.00    -0.273 N 
ATOM     11  C   UNL A   1      32.651  21.645  25.510  1.00  0.00     0.290 C 
ATOM     12  H   UNL A   1      33.580  23.256  26.282  1.00  0.00     0.305 HD
ATOM     13  N   UNL A   1      31.498  21.713  26.106  1.00  0.00    -0.162 N 
ATOM     14  H   UNL A   1      30.909  20.924  26.130  1.00  0.00     0.327 HD
BRANCH  11  15
ATOM     15  C   UNL A   1      32.876  20.381  24.746  1.00  0.00     0.064 A 
ATOM     16  C   UNL A   1      33.900  19.515  25.147  1.00  0.00     0.016 A 
ATOM     17  C   UNL A   1      32.084  20.069  23.637  1.00  0.00     0.016 A 
ATOM     18  C   UNL A   1      34.104  18.319  24.460  1.00  0.00     0.001 A 
ATOM     19  C   UNL A   1      32.283  18.866  22.962  1.00  0.00     0.001 A 
ATOM     20  C   UNL A   1      33.289  17.991  23.375  1.00  0.00     0.000 A 
ENDBRANCH  11  15
BRANCH  13  21
ATOM     21  S   UNL A   1      31.032  23.092  26.805  1.00  0.00     0.328 S 
ATOM     22  O   UNL A   1      29.856  22.836  27.612  1.00  0.00    -0.179 OA
ATOM     23  O   UNL A   1      32.218  23.670  27.418  1.00  0.00    -0.179 OA
BRANCH  21  24
ATOM     24  C   UNL A   1      30.544  24.223  25.526  1.00  0.00     0.109 A 
ATOM     25  C   UNL A   1      30.688  23.808  24.195  1.00  0.00     0.024 A 
ATOM     26  C   UNL A   1      30.003  25.474  25.825  1.00  0.00     0.024 A 
ATOM     27  C   UNL A   1      30.256  24.635  23.158  1.00  0.00     0.001 A 
ATOM     28  C   UNL A   1      29.583  26.302  24.780  1.00  0.00     0.001 A 
ATOM     29  C   UNL A   1      29.702  25.880  23.452  1.00  0.00     0.000 A 
ENDBRANCH  21  24
ENDBRANCH  13  21
ENDBRANCH   9  10
ENDBRANCH   8   9
ENDBRANCH   6   8
ENDBRANCH   3   4
ENDBRANCH   2   3
ENDBRANCH   1   2
BRANCH   1  30
ATOM     30  C   UNL A   1      31.981  29.238  25.531  1.00  0.00     0.002 C 
BRANCH  30  31
ATOM     31  C   UNL A   1      32.201  28.494  26.842  1.00  0.00     0.021 C 
BRANCH  31  32
ATOM     32  C   UNL A   1      33.462  28.913  27.584  1.00  0.00     0.116 C 
BRANCH  32  33
ATOM     33  N   UNL A   1      33.575  30.360  27.728  1.00  0.00    -0.352 N 
ATOM     34  C   UNL A   1      34.625  31.090  28.229  1.00  0.00     0.251 C 
ATOM     35  H   UNL A   1      32.799  30.882  27.424  1.00  0.00     0.163 HD
ATOM     36  O   UNL A   1      34.503  32.295  28.429  1.00  0.00    -0.269 OA
BRANCH  34  37
ATOM     37  C   UNL A   1      35.893  30.402  28.556  1.00  0.00     0.039 A 
ATOM     38  C   UNL A   1      36.991  30.561  27.708  1.00  0.00     0.014 A 
ATOM     39  C   UNL A   1      36.007  29.638  29.721  1.00  0.00     0.014 A 
ATOM     40  C   UNL A   1      38.224  30.010  28.066  1.00  0.00     0.010 A 
ATOM     41  C   UNL A   1      37.252  29.161  30.115  1.00  0.00     0.010 A 
ATOM     42  C   UNL A   1      38.372  29.340  29.291  1.00  0.00    -0.014 A 
BRANCH  42  43
ATOM     43  C   UNL A   1      39.692  28.827  29.738  1.00  0.00     0.031 A 
ATOM     44  C   UNL A   1      40.453  29.543  30.823  1.00  0.00     0.074 A 
ATOM     45  C   UNL A   1      40.250  27.776  29.102  1.00  0.00     0.049 A 
ATOM     46  N   UNL A   1      41.645  29.293  31.295  1.00  0.00    -0.248 NA
ATOM     47  C   UNL A   1      39.800  30.712  31.436  1.00  0.00     0.031 C 
ATOM     48  C   UNL A   1      39.652  27.053  27.977  1.00  0.00     0.029 A 
ATOM     49  N   UNL A   1      41.458  27.154  29.291  1.00  0.00    -0.354 N 
ATOM     50  C   UNL A   1      41.899  30.287  32.231  1.00  0.00     0.074 A 
ATOM     51  C   UNL A   1      40.754  31.169  32.236  1.00  0.00     0.031 C 
ATOM     52  C   UNL A   1      40.494  26.086  27.577  1.00  0.00     0.029 A 
ATOM     53  C   UNL A   1      41.700  26.136  28.397  1.00  0.00     0.049 A 
ATOM     54  H   UNL A   1      42.092  27.411  29.999  1.00  0.00     0.167 HD
ATOM     55  C   UNL A   1      42.975  30.436  33.041  1.00  0.00     0.034 A 
ATOM     56  C   UNL A   1      42.776  25.337  28.253  1.00  0.00     0.034 A 
ATOM     57  C   UNL A   1      44.090  29.528  33.072  1.00  0.00     0.049 A 
ATOM     58  C   UNL A   1      43.934  25.492  29.201  1.00  0.00     0.074 A 
ATOM     59  C   UNL A   1      45.186  29.543  33.917  1.00  0.00     0.029 A 
ATOM     60  N   UNL A   1      44.251  28.445  32.224  1.00  0.00    -0.354 N 
ATOM     61  N   UNL A   1      44.082  26.338  30.191  1.00  0.00    -0.248 NA
ATOM     62  C   UNL A   1      45.057  24.557  29.039  1.00  0.00     0.031 C 
ATOM     63  C   UNL A   1      46.018  28.473  33.569  1.00  0.00     0.029 A 
ATOM     64  C   UNL A   1      45.429  27.783  32.522  1.00  0.00     0.049 A 
ATOM     65  H   UNL A   1      43.620  28.185  31.514  1.00  0.00     0.167 HD
ATOM     66  C   UNL A   1      45.293  26.016  30.791  1.00  0.00     0.074 A 
ATOM     67  C   UNL A   1      45.827  24.880  30.068  1.00  0.00     0.031 C 
ATOM     68  C   UNL A   1      45.917  26.616  31.835  1.00  0.00     0.034 A 
BRANCH  55  69
ATOM     69  C   UNL A   1      42.968  31.585  34.015  1.00  0.00     0.023 A 
ATOM     70  C   UNL A   1      43.465  32.839  33.606  1.00  0.00     0.012 A 
ATOM     71  C   UNL A   1      42.409  31.448  35.301  1.00  0.00     0.148 A 
ATOM     72  C   UNL A   1      43.433  33.932  34.470  1.00  0.00     0.002 A 
ATOM     73  C   UNL A   1      42.341  32.553  36.141  1.00  0.00     0.091 A 
ATOM     74  F   UNL A   1      41.960  30.242  35.678  1.00  0.00    -0.205 F 
ATOM     75  C   UNL A   1      42.861  33.792  35.731  1.00  0.00     0.022 A 
BRANCH  73  76
ATOM     76  S   UNL A   1      41.557  32.501  37.756  1.00  0.00     0.127 S 
ATOM     77  O   UNL A   1      40.203  32.070  37.414  1.00  0.00    -0.237 OA
ATOM     78  O   UNL A   1      42.359  31.495  38.454  1.00  0.00    -0.237 OA
ATOM     79  O   UNL A   1      41.665  33.848  38.300  1.00  0.00    -0.744 OA
ENDBRANCH  73  76
ENDBRANCH  55  69
BRANCH  56  80
ATOM     80  C   UNL A   1      42.782  24.270  27.210  1.00  0.00     0.023 A 
ATOM     81  C   UNL A   1      43.425  24.514  25.979  1.00  0.00     0.012 A 
ATOM     82  C   UNL A   1      42.171  23.022  27.429  1.00  0.00     0.148 A 
ATOM     83  C   UNL A   1      43.426  23.547  24.973  1.00  0.00     0.002 A 
ATOM     84  C   UNL A   1      42.224  22.042  26.443  1.00  0.00     0.091 A 
ATOM     85  F   UNL A   1      41.551  22.813  28.599  1.00  0.00    -0.205 F 
ATOM     86  C   UNL A   1      42.835  22.310  25.207  1.00  0.00     0.022 A 
BRANCH  84  87
ATOM     87  S   UNL A   1      41.601  20.379  26.712  1.00  0.00     0.127 S 
ATOM     88  O   UNL A   1      41.951  19.721  25.457  1.00  0.00    -0.237 OA
ATOM     89  O   UNL A   1      42.380  19.945  27.873  1.00  0.00    -0.237 OA
ATOM     90  O   UNL A   1      40.177  20.537  26.975  1.00  0.00    -0.744 OA
ENDBRANCH  84  87
ENDBRANCH  56  80
BRANCH  68  91
ATOM     91  C   UNL A   1      47.231  26.038  32.289  1.00  0.00     0.023 A 
ATOM     92  C   UNL A   1      48.433  26.503  31.720  1.00  0.00     0.012 A 
ATOM     93  C   UNL A   1      47.279  25.095  33.335  1.00  0.00     0.148 A 
ATOM     94  C   UNL A   1      49.661  26.015  32.164  1.00  0.00     0.002 A 
ATOM     95  C   UNL A   1      48.507  24.648  33.804  1.00  0.00     0.091 A 
ATOM     96  F   UNL A   1      46.123  24.651  33.850  1.00  0.00    -0.205 F 
ATOM     97  C   UNL A   1      49.699  25.098  33.212  1.00  0.00     0.022 A 
BRANCH  95  98
ATOM     98  S   UNL A   1      48.655  23.542  35.211  1.00  0.00     0.127 S 
ATOM     99  O   UNL A   1      47.686  22.501  34.876  1.00  0.00    -0.237 OA
ATOM    100  O   UNL A   1      50.055  23.121  35.131  1.00  0.00    -0.237 OA
ATOM    101  O   UNL A   1      48.333  24.342  36.385  1.00  0.00    -0.744 OA
ENDBRANCH  95  98
ENDBRANCH  68  91
ENDBRANCH  42  43
ENDBRANCH  34  37
ENDBRANCH  32  33
ENDBRANCH  31  32
ENDBRANCH  30  31
ENDBRANCH   1  30
TORSDOF 21
ENDMDL
