MODEL 1
REMARK VINA RESULT:     -12.0      0.000      0.000
REMARK SMILES C[C@]1(C(=O)NCCCCCCNC(=O)c2ccc(-c3c4nc(c(-c5cccc(S(=O)(=O)[O-])c5F)c5ccc([nH]5)c(-c5cccc(S(=O)(=O)[O-])c5F)c5nc(c(-c6cccc(S(=O)(=O)[O-])c6F)c6ccc3[nH]6)C=C5)C=C4)cc2)CCN(c2ccc([N+](=O)[O-])c(N)n2)C1
REMARK SMILES IDX 9 1 8 2 7 3 6 4 5 5 3 6 4 7 2 9 1 10 78 11 91 12 79 13 80 14
REMARK SMILES IDX 81 15 82 16 90 17 83 18 88 19 84 20 89 21 85 24 86 25 87 26
REMARK SMILES IDX 10 27 11 28 12 29 13 30 14 32 15 33 16 34 77 35 17 36 76 37
REMARK SMILES IDX 18 38 19 39 20 40 70 41 21 42 75 43 69 44 71 45 22 46 74 47
REMARK SMILES IDX 68 48 67 49 23 51 55 52 35 53 54 54 36 55 39 56 53 57 72 58
REMARK SMILES IDX 37 59 38 60 52 62 73 63 40 64 24 65 25 66 33 67 26 68 28 69
REMARK SMILES IDX 34 70 27 71 29 72 30 73 31 74 32 75 56 76 57 77 65 78 58 79
REMARK SMILES IDX 60 80 66 81 59 82 61 83 62 84 63 85 64 86 41 87 42 88 50 89
REMARK SMILES IDX 43 90 45 91 51 92 44 93 46 94 47 95 48 96 49 97
REMARK H PARENT 5 8 89 22 89 23 12 31 71 50 39 61
REMARK Flexibility Score: inf
ROOT
ATOM      1  C   UNL A   1      31.919  27.527  25.745  1.00  0.00     0.002 C 
ENDROOT
BRANCH   1   2
ATOM      2  C   UNL A   1      31.362  28.468  24.673  1.00  0.00     0.002 C 
BRANCH   2   3
ATOM      3  C   UNL A   1      31.821  28.157  23.243  1.00  0.00     0.021 C 
BRANCH   3   4
ATOM      4  C   UNL A   1      30.912  27.165  22.513  1.00  0.00     0.116 C 
BRANCH   4   5
ATOM      5  N   UNL A   1      31.643  26.502  21.451  1.00  0.00    -0.356 N 
ATOM      6  C   UNL A   1      32.542  25.480  21.502  1.00  0.00     0.227 C 
ATOM      7  O   UNL A   1      33.188  25.262  20.474  1.00  0.00    -0.274 OA
ATOM      8  H   UNL A   1      31.461  26.846  20.546  1.00  0.00     0.163 HD
BRANCH   6   9
ATOM      9  C   UNL A   1      32.685  24.602  22.748  1.00  0.00     0.066 C 
ATOM     10  C   UNL A   1      33.785  25.060  23.724  1.00  0.00     0.024 C 
ATOM     11  C   UNL A   1      31.314  24.406  23.428  1.00  0.00     0.040 C 
ATOM     12  C   UNL A   1      33.003  23.151  22.327  1.00  0.00     0.134 C 
ATOM     13  C   UNL A   1      31.402  23.047  24.129  1.00  0.00     0.119 C 
ATOM     14  N   UNL A   1      32.506  22.383  23.459  1.00  0.00    -0.355 N 
BRANCH  14  15
ATOM     15  C   UNL A   1      32.776  21.058  23.628  1.00  0.00     0.131 A 
ATOM     16  C   UNL A   1      33.643  20.652  24.636  1.00  0.00     0.054 A 
ATOM     17  N   UNL A   1      32.173  20.158  22.822  1.00  0.00    -0.207 NA
ATOM     18  C   UNL A   1      33.883  19.297  24.833  1.00  0.00     0.093 A 
ATOM     19  C   UNL A   1      32.438  18.839  22.967  1.00  0.00     0.204 A 
ATOM     20  C   UNL A   1      33.279  18.375  23.976  1.00  0.00     0.311 A 
BRANCH  19  21
ATOM     21  N   UNL A   1      31.892  18.060  21.970  1.00  0.00    -0.378 N 
ATOM     22  H   UNL A   1      32.333  18.004  21.092  1.00  0.00     0.158 HD
ATOM     23  H   UNL A   1      31.061  17.560  22.136  1.00  0.00     0.158 HD
ENDBRANCH  19  21
BRANCH  20  24
ATOM     24  N   UNL A   1      33.526  16.951  24.184  1.00  0.00     0.066 N 
ATOM     25  O   UNL A   1      33.325  16.495  25.321  1.00  0.00    -0.258 OA
ATOM     26  O   UNL A   1      33.898  16.259  23.224  1.00  0.00    -0.258 OA
ENDBRANCH  20  24
ENDBRANCH  14  15
ENDBRANCH   6   9
ENDBRANCH   4   5
ENDBRANCH   3   4
ENDBRANCH   2   3
ENDBRANCH   1   2
BRANCH   1  27
ATOM     27  C   UNL A   1      32.772  28.207  26.820  1.00  0.00     0.021 C 
BRANCH  27  28
ATOM     28  C   UNL A   1      33.939  29.024  26.275  1.00  0.00     0.116 C 
BRANCH  28  29
ATOM     29  N   UNL A   1      33.889  30.405  26.732  1.00  0.00    -0.352 N 
ATOM     30  C   UNL A   1      34.661  31.034  27.676  1.00  0.00     0.251 C 
ATOM     31  H   UNL A   1      33.204  30.967  26.302  1.00  0.00     0.163 HD
ATOM     32  O   UNL A   1      34.331  32.135  28.104  1.00  0.00    -0.269 OA
BRANCH  30  33
ATOM     33  C   UNL A   1      35.886  30.376  28.181  1.00  0.00     0.039 A 
ATOM     34  C   UNL A   1      37.061  30.461  27.430  1.00  0.00     0.014 A 
ATOM     35  C   UNL A   1      35.869  29.665  29.384  1.00  0.00     0.014 A 
ATOM     36  C   UNL A   1      38.233  29.871  27.911  1.00  0.00     0.010 A 
ATOM     37  C   UNL A   1      37.053  29.142  29.896  1.00  0.00     0.010 A 
ATOM     38  C   UNL A   1      38.245  29.229  29.161  1.00  0.00    -0.014 A 
BRANCH  38  39
ATOM     39  C   UNL A   1      39.492  28.638  29.713  1.00  0.00     0.031 A 
ATOM     40  C   UNL A   1      40.151  29.256  30.917  1.00  0.00     0.074 A 
ATOM     41  C   UNL A   1      40.071  27.594  29.086  1.00  0.00     0.049 A 
ATOM     42  N   UNL A   1      41.275  28.927  31.501  1.00  0.00    -0.248 NA
ATOM     43  C   UNL A   1      39.475  30.413  31.531  1.00  0.00     0.031 C 
ATOM     44  C   UNL A   1      39.570  26.954  27.868  1.00  0.00     0.029 A 
ATOM     45  N   UNL A   1      41.227  26.909  29.369  1.00  0.00    -0.354 N 
ATOM     46  C   UNL A   1      41.456  29.849  32.525  1.00  0.00     0.074 A 
ATOM     47  C   UNL A   1      40.346  30.774  32.462  1.00  0.00     0.031 C 
ATOM     48  C   UNL A   1      40.411  25.970  27.510  1.00  0.00     0.029 A 
ATOM     49  C   UNL A   1      41.527  25.929  28.450  1.00  0.00     0.049 A 
ATOM     50  H   UNL A   1      41.787  27.099  30.156  1.00  0.00     0.167 HD
ATOM     51  C   UNL A   1      42.439  29.904  33.455  1.00  0.00     0.034 A 
ATOM     52  C   UNL A   1      42.586  25.101  28.368  1.00  0.00     0.034 A 
ATOM     53  C   UNL A   1      43.517  28.957  33.543  1.00  0.00     0.049 A 
ATOM     54  C   UNL A   1      43.647  25.164  29.434  1.00  0.00     0.074 A 
ATOM     55  C   UNL A   1      44.520  28.883  34.493  1.00  0.00     0.029 A 
ATOM     56  N   UNL A   1      43.738  27.922  32.647  1.00  0.00    -0.354 N 
ATOM     57  N   UNL A   1      43.720  25.950  30.481  1.00  0.00    -0.248 NA
ATOM     58  C   UNL A   1      44.754  24.200  29.330  1.00  0.00     0.031 C 
ATOM     59  C   UNL A   1      45.360  27.816  34.160  1.00  0.00     0.029 A 
ATOM     60  C   UNL A   1      44.862  27.207  33.020  1.00  0.00     0.049 A 
ATOM     61  H   UNL A   1      43.177  27.726  31.862  1.00  0.00     0.167 HD
ATOM     62  C   UNL A   1      44.853  25.548  31.181  1.00  0.00     0.074 A 
ATOM     63  C   UNL A   1      45.423  24.436  30.449  1.00  0.00     0.031 C 
ATOM     64  C   UNL A   1      45.382  26.063  32.317  1.00  0.00     0.034 A 
BRANCH  51  65
ATOM     65  C   UNL A   1      42.366  30.991  34.495  1.00  0.00     0.023 A 
ATOM     66  C   UNL A   1      41.744  30.727  35.733  1.00  0.00     0.012 A 
ATOM     67  C   UNL A   1      42.977  32.243  34.283  1.00  0.00     0.148 A 
ATOM     68  C   UNL A   1      41.705  31.700  36.731  1.00  0.00     0.002 A 
ATOM     69  C   UNL A   1      42.974  33.191  35.299  1.00  0.00     0.091 A 
ATOM     70  F   UNL A   1      43.549  32.481  33.094  1.00  0.00    -0.205 F 
ATOM     71  C   UNL A   1      42.330  32.925  36.519  1.00  0.00     0.022 A 
BRANCH  69  72
ATOM     72  S   UNL A   1      43.819  34.770  35.159  1.00  0.00     0.127 S 
ATOM     73  O   UNL A   1      45.220  34.364  35.250  1.00  0.00    -0.237 OA
ATOM     74  O   UNL A   1      43.401  35.224  33.832  1.00  0.00    -0.237 OA
ATOM     75  O   UNL A   1      43.335  35.587  36.264  1.00  0.00    -0.744 OA
ENDBRANCH  69  72
ENDBRANCH  51  65
BRANCH  52  76
ATOM     76  C   UNL A   1      42.677  24.103  27.263  1.00  0.00     0.023 A 
ATOM     77  C   UNL A   1      43.378  24.432  26.087  1.00  0.00     0.012 A 
ATOM     78  C   UNL A   1      42.075  22.834  27.370  1.00  0.00     0.148 A 
ATOM     79  C   UNL A   1      43.442  23.534  25.021  1.00  0.00     0.002 A 
ATOM     80  C   UNL A   1      42.192  21.922  26.329  1.00  0.00     0.091 A 
ATOM     81  F   UNL A   1      41.401  22.543  28.492  1.00  0.00    -0.205 F 
ATOM     82  C   UNL A   1      42.856  22.277  25.144  1.00  0.00     0.022 A 
BRANCH  80  83
ATOM     83  S   UNL A   1      41.584  20.237  26.457  1.00  0.00     0.127 S 
ATOM     84  O   UNL A   1      40.141  20.429  26.339  1.00  0.00    -0.237 OA
ATOM     85  O   UNL A   1      42.217  19.596  25.304  1.00  0.00    -0.237 OA
ATOM     86  O   UNL A   1      42.057  19.749  27.745  1.00  0.00    -0.744 OA
ENDBRANCH  80  83
ENDBRANCH  52  76
BRANCH  64  87
ATOM     87  C   UNL A   1      46.615  25.403  32.878  1.00  0.00     0.023 A 
ATOM     88  C   UNL A   1      47.892  25.881  32.525  1.00  0.00     0.012 A 
ATOM     89  C   UNL A   1      46.502  24.356  33.813  1.00  0.00     0.148 A 
ATOM     90  C   UNL A   1      49.040  25.305  33.068  1.00  0.00     0.002 A 
ATOM     91  C   UNL A   1      47.647  23.821  34.390  1.00  0.00     0.091 A 
ATOM     92  F   UNL A   1      45.278  23.903  34.123  1.00  0.00    -0.205 F 
ATOM     93  C   UNL A   1      48.917  24.284  34.009  1.00  0.00     0.022 A 
BRANCH  91  94
ATOM     94  S   UNL A   1      47.583  22.575  35.682  1.00  0.00     0.127 S 
ATOM     95  O   UNL A   1      46.895  21.477  35.004  1.00  0.00    -0.237 OA
ATOM     96  O   UNL A   1      49.000  22.333  35.951  1.00  0.00    -0.237 OA
ATOM     97  O   UNL A   1      46.853  23.181  36.788  1.00  0.00    -0.744 OA
ENDBRANCH  91  94
ENDBRANCH  64  87
ENDBRANCH  38  39
ENDBRANCH  30  33
ENDBRANCH  28  29
ENDBRANCH  27  28
ENDBRANCH   1  27
TORSDOF 19
ENDMDL
MODEL 2
REMARK VINA RESULT:     -12.0      3.682      8.415
REMARK SMILES C[C@]1(C(=O)NCCCCCCNC(=O)c2ccc(-c3c4nc(c(-c5cccc(S(=O)(=O)[O-])c5F)c5ccc([nH]5)c(-c5cccc(S(=O)(=O)[O-])c5F)c5nc(c(-c6cccc(S(=O)(=O)[O-])c6F)c6ccc3[nH]6)C=C5)C=C4)cc2)CCN(c2ccc([N+](=O)[O-])c(N)n2)C1
REMARK SMILES IDX 9 1 8 2 7 3 6 4 5 5 3 6 4 7 2 9 1 10 78 11 91 12 79 13 80 14
REMARK SMILES IDX 81 15 82 16 90 17 83 18 88 19 84 20 89 21 85 24 86 25 87 26
REMARK SMILES IDX 10 27 11 28 12 29 13 30 14 32 15 33 16 34 77 35 17 36 76 37
REMARK SMILES IDX 18 38 19 39 20 40 70 41 21 42 75 43 69 44 71 45 22 46 74 47
REMARK SMILES IDX 68 48 67 49 23 51 55 52 35 53 54 54 36 55 39 56 53 57 72 58
REMARK SMILES IDX 37 59 38 60 52 62 73 63 40 64 24 65 25 66 33 67 26 68 28 69
REMARK SMILES IDX 34 70 27 71 29 72 30 73 31 74 32 75 56 76 57 77 65 78 58 79
REMARK SMILES IDX 60 80 66 81 59 82 61 83 62 84 63 85 64 86 41 87 42 88 50 89
REMARK SMILES IDX 43 90 45 91 51 92 44 93 46 94 47 95 48 96 49 97
REMARK H PARENT 5 8 89 22 89 23 12 31 71 50 39 61
REMARK Flexibility Score: inf
ROOT
ATOM      1  C   UNL A   1      31.613  30.200  26.335  1.00  0.00     0.002 C 
ENDROOT
BRANCH   1   2
ATOM      2  C   UNL A   1      31.324  29.705  24.915  1.00  0.00     0.002 C 
BRANCH   2   3
ATOM      3  C   UNL A   1      31.049  28.200  24.802  1.00  0.00     0.021 C 
BRANCH   3   4
ATOM      4  C   UNL A   1      31.809  27.362  25.833  1.00  0.00     0.116 C 
BRANCH   4   5
ATOM      5  N   UNL A   1      30.903  26.452  26.507  1.00  0.00    -0.356 N 
ATOM      6  C   UNL A   1      30.463  25.215  26.145  1.00  0.00     0.227 C 
ATOM      7  O   UNL A   1      29.517  24.756  26.788  1.00  0.00    -0.274 OA
ATOM      8  H   UNL A   1      30.549  26.782  27.364  1.00  0.00     0.163 HD
BRANCH   6   9
ATOM      9  C   UNL A   1      31.160  24.408  25.046  1.00  0.00     0.066 C 
ATOM     10  C   UNL A   1      30.596  24.642  23.631  1.00  0.00     0.024 C 
ATOM     11  C   UNL A   1      32.690  24.598  25.128  1.00  0.00     0.040 C 
ATOM     12  C   UNL A   1      31.044  22.900  25.356  1.00  0.00     0.134 C 
ATOM     13  C   UNL A   1      33.286  23.304  24.563  1.00  0.00     0.119 C 
ATOM     14  N   UNL A   1      32.197  22.349  24.658  1.00  0.00    -0.355 N 
BRANCH  14  15
ATOM     15  C   UNL A   1      32.376  21.012  24.468  1.00  0.00     0.131 A 
ATOM     16  C   UNL A   1      32.290  20.478  23.187  1.00  0.00     0.054 A 
ATOM     17  N   UNL A   1      32.657  20.230  25.532  1.00  0.00    -0.207 NA
ATOM     18  C   UNL A   1      32.515  19.121  22.991  1.00  0.00     0.093 A 
ATOM     19  C   UNL A   1      32.826  18.898  25.365  1.00  0.00     0.204 A 
ATOM     20  C   UNL A   1      32.776  18.315  24.101  1.00  0.00     0.311 A 
BRANCH  19  21
ATOM     21  N   UNL A   1      32.932  18.208  26.553  1.00  0.00    -0.378 N 
ATOM     22  H   UNL A   1      33.793  18.175  27.028  1.00  0.00     0.158 HD
ATOM     23  H   UNL A   1      32.146  17.748  26.927  1.00  0.00     0.158 HD
ENDBRANCH  19  21
BRANCH  20  24
ATOM     24  N   UNL A   1      33.017  16.888  23.897  1.00  0.00     0.066 N 
ATOM     25  O   UNL A   1      33.665  16.556  22.892  1.00  0.00    -0.258 OA
ATOM     26  O   UNL A   1      32.591  16.081  24.737  1.00  0.00    -0.258 OA
ENDBRANCH  20  24
ENDBRANCH  14  15
ENDBRANCH   6   9
ENDBRANCH   4   5
ENDBRANCH   3   4
ENDBRANCH   2   3
ENDBRANCH   1   2
BRANCH   1  27
ATOM     27  C   UNL A   1      31.531  31.718  26.518  1.00  0.00     0.021 C 
BRANCH  27  28
ATOM     28  C   UNL A   1      32.767  32.344  27.155  1.00  0.00     0.116 C 
BRANCH  28  29
ATOM     29  N   UNL A   1      32.548  33.742  27.493  1.00  0.00    -0.352 N 
ATOM     30  C   UNL A   1      33.099  34.486  28.507  1.00  0.00     0.251 C 
ATOM     31  H   UNL A   1      31.914  34.222  26.913  1.00  0.00     0.163 HD
ATOM     32  O   UNL A   1      32.628  35.582  28.790  1.00  0.00    -0.269 OA
BRANCH  30  33
ATOM     33  C   UNL A   1      34.257  33.956  29.260  1.00  0.00     0.039 A 
ATOM     34  C   UNL A   1      34.031  33.064  30.311  1.00  0.00     0.014 A 
ATOM     35  C   UNL A   1      35.558  34.350  28.938  1.00  0.00     0.014 A 
ATOM     36  C   UNL A   1      35.118  32.531  31.010  1.00  0.00     0.010 A 
ATOM     37  C   UNL A   1      36.640  33.762  29.586  1.00  0.00     0.010 A 
ATOM     38  C   UNL A   1      36.433  32.856  30.637  1.00  0.00    -0.014 A 
BRANCH  38  39
ATOM     39  C   UNL A   1      37.603  32.262  31.334  1.00  0.00     0.031 A 
ATOM     40  C   UNL A   1      38.366  31.129  30.699  1.00  0.00     0.074 A 
ATOM     41  C   UNL A   1      37.930  32.689  32.571  1.00  0.00     0.049 A 
ATOM     42  N   UNL A   1      39.368  30.439  31.181  1.00  0.00    -0.248 NA
ATOM     43  C   UNL A   1      37.931  30.697  29.360  1.00  0.00     0.031 C 
ATOM     44  C   UNL A   1      37.224  33.728  33.323  1.00  0.00     0.029 A 
ATOM     45  N   UNL A   1      38.924  32.279  33.426  1.00  0.00    -0.354 N 
ATOM     46  C   UNL A   1      39.660  29.475  30.222  1.00  0.00     0.074 A 
ATOM     47  C   UNL A   1      38.709  29.645  29.148  1.00  0.00     0.031 C 
ATOM     48  C   UNL A   1      37.806  33.873  34.525  1.00  0.00     0.029 A 
ATOM     49  C   UNL A   1      38.904  32.920  34.643  1.00  0.00     0.049 A 
ATOM     50  H   UNL A   1      39.589  31.592  33.189  1.00  0.00     0.167 HD
ATOM     51  C   UNL A   1      40.652  28.553  30.221  1.00  0.00     0.034 A 
ATOM     52  C   UNL A   1      39.675  32.750  35.735  1.00  0.00     0.034 A 
ATOM     53  C   UNL A   1      41.624  28.415  31.272  1.00  0.00     0.049 A 
ATOM     54  C   UNL A   1      40.789  31.738  35.692  1.00  0.00     0.074 A 
ATOM     55  C   UNL A   1      42.712  27.561  31.328  1.00  0.00     0.029 A 
ATOM     56  N   UNL A   1      41.626  29.144  32.450  1.00  0.00    -0.354 N 
ATOM     57  N   UNL A   1      41.141  30.939  34.715  1.00  0.00    -0.248 NA
ATOM     58  C   UNL A   1      41.638  31.632  36.889  1.00  0.00     0.031 C 
ATOM     59  C   UNL A   1      43.359  27.760  32.552  1.00  0.00     0.029 A 
ATOM     60  C   UNL A   1      42.693  28.758  33.242  1.00  0.00     0.049 A 
ATOM     61  H   UNL A   1      40.966  29.835  32.688  1.00  0.00     0.167 HD
ATOM     62  C   UNL A   1      42.274  30.267  35.161  1.00  0.00     0.074 A 
ATOM     63  C   UNL A   1      42.561  30.769  36.489  1.00  0.00     0.031 C 
ATOM     64  C   UNL A   1      43.002  29.310  34.535  1.00  0.00     0.034 A 
BRANCH  51  65
ATOM     65  C   UNL A   1      40.776  27.653  29.019  1.00  0.00     0.023 A 
ATOM     66  C   UNL A   1      39.853  26.602  28.842  1.00  0.00     0.012 A 
ATOM     67  C   UNL A   1      41.750  27.892  28.030  1.00  0.00     0.148 A 
ATOM     68  C   UNL A   1      39.915  25.784  27.715  1.00  0.00     0.002 A 
ATOM     69  C   UNL A   1      41.776  27.101  26.886  1.00  0.00     0.091 A 
ATOM     70  F   UNL A   1      42.629  28.885  28.224  1.00  0.00    -0.205 F 
ATOM     71  C   UNL A   1      40.868  26.041  26.733  1.00  0.00     0.022 A 
BRANCH  69  72
ATOM     72  S   UNL A   1      42.910  27.398  25.525  1.00  0.00     0.127 S 
ATOM     73  O   UNL A   1      43.019  26.064  24.937  1.00  0.00    -0.237 OA
ATOM     74  O   UNL A   1      42.168  28.363  24.713  1.00  0.00    -0.237 OA
ATOM     75  O   UNL A   1      44.133  27.916  26.123  1.00  0.00    -0.744 OA
ENDBRANCH  69  72
ENDBRANCH  51  65
BRANCH  52  76
ATOM     76  C   UNL A   1      39.456  33.589  36.948  1.00  0.00     0.023 A 
ATOM     77  C   UNL A   1      39.945  34.910  36.975  1.00  0.00     0.012 A 
ATOM     78  C   UNL A   1      38.768  33.090  38.071  1.00  0.00     0.148 A 
ATOM     79  C   UNL A   1      39.793  35.703  38.113  1.00  0.00     0.002 A 
ATOM     80  C   UNL A   1      38.567  33.905  39.179  1.00  0.00     0.091 A 
ATOM     81  F   UNL A   1      38.320  31.827  38.032  1.00  0.00    -0.205 F 
ATOM     82  C   UNL A   1      39.098  35.203  39.211  1.00  0.00     0.022 A 
BRANCH  80  83
ATOM     83  S   UNL A   1      37.570  33.388  40.580  1.00  0.00     0.127 S 
ATOM     84  O   UNL A   1      36.312  33.022  39.935  1.00  0.00    -0.237 OA
ATOM     85  O   UNL A   1      38.343  32.263  41.106  1.00  0.00    -0.237 OA
ATOM     86  O   UNL A   1      37.517  34.542  41.467  1.00  0.00    -0.744 OA
ENDBRANCH  80  83
ENDBRANCH  52  76
BRANCH  64  87
ATOM     87  C   UNL A   1      44.214  28.771  35.251  1.00  0.00     0.023 A 
ATOM     88  C   UNL A   1      45.466  29.393  35.082  1.00  0.00     0.012 A 
ATOM     89  C   UNL A   1      44.091  27.693  36.149  1.00  0.00     0.148 A 
ATOM     90  C   UNL A   1      46.586  28.927  35.770  1.00  0.00     0.002 A 
ATOM     91  C   UNL A   1      45.199  27.267  36.870  1.00  0.00     0.091 A 
ATOM     92  F   UNL A   1      42.894  27.103  36.282  1.00  0.00    -0.205 F 
ATOM     93  C   UNL A   1      46.450  27.873  36.672  1.00  0.00     0.022 A 
BRANCH  91  94
ATOM     94  S   UNL A   1      45.099  25.987  38.126  1.00  0.00     0.127 S 
ATOM     95  O   UNL A   1      46.469  25.964  38.638  1.00  0.00    -0.237 OA
ATOM     96  O   UNL A   1      44.111  26.537  39.053  1.00  0.00    -0.237 OA
ATOM     97  O   UNL A   1      44.672  24.778  37.433  1.00  0.00    -0.744 OA
ENDBRANCH  91  94
ENDBRANCH  64  87
ENDBRANCH  38  39
ENDBRANCH  30  33
ENDBRANCH  28  29
ENDBRANCH  27  28
ENDBRANCH   1  27
TORSDOF 19
ENDMDL
MODEL 3
REMARK VINA RESULT:     -12.0      2.262      2.727
REMARK SMILES C[C@]1(C(=O)NCCCCCCNC(=O)c2ccc(-c3c4nc(c(-c5cccc(S(=O)(=O)[O-])c5F)c5ccc([nH]5)c(-c5cccc(S(=O)(=O)[O-])c5F)c5nc(c(-c6cccc(S(=O)(=O)[O-])c6F)c6ccc3[nH]6)C=C5)C=C4)cc2)CCN(c2ccc([N+](=O)[O-])c(N)n2)C1
REMARK SMILES IDX 9 1 8 2 7 3 6 4 5 5 3 6 4 7 2 9 1 10 78 11 91 12 79 13 80 14
REMARK SMILES IDX 81 15 82 16 90 17 83 18 88 19 84 20 89 21 85 24 86 25 87 26
REMARK SMILES IDX 10 27 11 28 12 29 13 30 14 32 15 33 16 34 77 35 17 36 76 37
REMARK SMILES IDX 18 38 19 39 20 40 70 41 21 42 75 43 69 44 71 45 22 46 74 47
REMARK SMILES IDX 68 48 67 49 23 51 55 52 35 53 54 54 36 55 39 56 53 57 72 58
REMARK SMILES IDX 37 59 38 60 52 62 73 63 40 64 24 65 25 66 33 67 26 68 28 69
REMARK SMILES IDX 34 70 27 71 29 72 30 73 31 74 32 75 56 76 57 77 65 78 58 79
REMARK SMILES IDX 60 80 66 81 59 82 61 83 62 84 63 85 64 86 41 87 42 88 50 89
REMARK SMILES IDX 43 90 45 91 51 92 44 93 46 94 47 95 48 96 49 97
REMARK H PARENT 5 8 89 22 89 23 12 31 71 50 39 61
REMARK Flexibility Score: inf
ROOT
ATOM      1  C   UNL A   1      31.432  27.834  25.298  1.00  0.00     0.002 C 
ENDROOT
BRANCH   1   2
ATOM      2  C   UNL A   1      30.727  28.595  24.172  1.00  0.00     0.002 C 
BRANCH   2   3
ATOM      3  C   UNL A   1      31.247  28.285  22.762  1.00  0.00     0.021 C 
BRANCH   3   4
ATOM      4  C   UNL A   1      32.604  27.577  22.756  1.00  0.00     0.116 C 
BRANCH   4   5
ATOM      5  N   UNL A   1      32.689  26.664  21.632  1.00  0.00    -0.356 N 
ATOM      6  C   UNL A   1      32.938  25.326  21.598  1.00  0.00     0.227 C 
ATOM      7  O   UNL A   1      33.183  24.838  20.492  1.00  0.00    -0.274 OA
ATOM      8  H   UNL A   1      32.543  27.079  20.751  1.00  0.00     0.163 HD
BRANCH   6   9
ATOM      9  C   UNL A   1      32.843  24.463  22.859  1.00  0.00     0.066 C 
ATOM     10  C   UNL A   1      33.871  24.817  23.951  1.00  0.00     0.024 C 
ATOM     11  C   UNL A   1      31.391  24.431  23.381  1.00  0.00     0.040 C 
ATOM     12  C   UNL A   1      33.044  22.978  22.488  1.00  0.00     0.134 C 
ATOM     13  C   UNL A   1      31.250  23.084  24.098  1.00  0.00     0.119 C 
ATOM     14  N   UNL A   1      32.342  22.291  23.563  1.00  0.00    -0.355 N 
BRANCH  14  15
ATOM     15  C   UNL A   1      32.444  20.947  23.772  1.00  0.00     0.131 A 
ATOM     16  C   UNL A   1      32.264  20.067  22.712  1.00  0.00     0.054 A 
ATOM     17  N   UNL A   1      32.742  20.498  25.010  1.00  0.00    -0.207 NA
ATOM     18  C   UNL A   1      32.411  18.701  22.919  1.00  0.00     0.093 A 
ATOM     19  C   UNL A   1      32.835  19.168  25.239  1.00  0.00     0.204 A 
ATOM     20  C   UNL A   1      32.690  18.242  24.209  1.00  0.00     0.311 A 
BRANCH  19  21
ATOM     21  N   UNL A   1      32.969  18.853  26.574  1.00  0.00    -0.378 N 
ATOM     22  H   UNL A   1      33.449  19.463  27.178  1.00  0.00     0.158 HD
ATOM     23  H   UNL A   1      32.585  18.016  26.923  1.00  0.00     0.158 HD
ENDBRANCH  19  21
BRANCH  20  24
ATOM     24  N   UNL A   1      32.849  16.807  24.429  1.00  0.00     0.066 N 
ATOM     25  O   UNL A   1      33.757  16.231  23.809  1.00  0.00    -0.258 OA
ATOM     26  O   UNL A   1      32.096  16.235  25.232  1.00  0.00    -0.258 OA
ENDBRANCH  20  24
ENDBRANCH  14  15
ENDBRANCH   6   9
ENDBRANCH   4   5
ENDBRANCH   3   4
ENDBRANCH   2   3
ENDBRANCH   1   2
BRANCH   1  27
ATOM     27  C   UNL A   1      31.967  28.711  26.433  1.00  0.00     0.021 C 
BRANCH  27  28
ATOM     28  C   UNL A   1      33.167  29.573  26.052  1.00  0.00     0.116 C 
BRANCH  28  29
ATOM     29  N   UNL A   1      32.971  30.965  26.430  1.00  0.00    -0.352 N 
ATOM     30  C   UNL A   1      33.631  31.707  27.377  1.00  0.00     0.251 C 
ATOM     31  H   UNL A   1      32.264  31.440  25.937  1.00  0.00     0.163 HD
ATOM     32  O   UNL A   1      33.183  32.793  27.727  1.00  0.00    -0.269 OA
BRANCH  30  33
ATOM     33  C   UNL A   1      34.880  31.188  27.977  1.00  0.00     0.039 A 
ATOM     34  C   UNL A   1      36.004  32.016  28.026  1.00  0.00     0.014 A 
ATOM     35  C   UNL A   1      34.942  29.884  28.477  1.00  0.00     0.014 A 
ATOM     36  C   UNL A   1      37.180  31.549  28.620  1.00  0.00     0.010 A 
ATOM     37  C   UNL A   1      36.091  29.448  29.132  1.00  0.00     0.010 A 
ATOM     38  C   UNL A   1      37.225  30.270  29.201  1.00  0.00    -0.014 A 
BRANCH  38  39
ATOM     39  C   UNL A   1      38.450  29.773  29.881  1.00  0.00     0.031 A 
ATOM     40  C   UNL A   1      38.844  30.325  31.225  1.00  0.00     0.074 A 
ATOM     41  C   UNL A   1      39.247  28.885  29.254  1.00  0.00     0.049 A 
ATOM     42  N   UNL A   1      39.908  30.067  31.941  1.00  0.00    -0.248 NA
ATOM     43  C   UNL A   1      37.939  31.315  31.834  1.00  0.00     0.031 C 
ATOM     44  C   UNL A   1      39.013  28.331  27.918  1.00  0.00     0.029 A 
ATOM     45  N   UNL A   1      40.433  28.314  29.646  1.00  0.00    -0.354 N 
ATOM     46  C   UNL A   1      39.817  30.882  33.064  1.00  0.00     0.074 A 
ATOM     47  C   UNL A   1      38.613  31.670  32.918  1.00  0.00     0.031 C 
ATOM     48  C   UNL A   1      40.022  27.502  27.602  1.00  0.00     0.029 A 
ATOM     49  C   UNL A   1      40.989  27.488  28.695  1.00  0.00     0.049 A 
ATOM     50  H   UNL A   1      40.847  28.479  30.524  1.00  0.00     0.167 HD
ATOM     51  C   UNL A   1      40.643  30.947  34.135  1.00  0.00     0.034 A 
ATOM     52  C   UNL A   1      42.152  26.807  28.699  1.00  0.00     0.034 A 
ATOM     53  C   UNL A   1      41.816  30.132  34.298  1.00  0.00     0.049 A 
ATOM     54  C   UNL A   1      43.034  26.874  29.917  1.00  0.00     0.074 A 
ATOM     55  C   UNL A   1      42.676  30.070  35.380  1.00  0.00     0.029 A 
ATOM     56  N   UNL A   1      42.298  29.240  33.353  1.00  0.00    -0.354 N 
ATOM     57  N   UNL A   1      42.852  27.539  31.032  1.00  0.00    -0.248 NA
ATOM     58  C   UNL A   1      44.263  26.067  29.894  1.00  0.00     0.031 C 
ATOM     59  C   UNL A   1      43.690  29.156  35.081  1.00  0.00     0.029 A 
ATOM     60  C   UNL A   1      43.444  28.626  33.825  1.00  0.00     0.049 A 
ATOM     61  H   UNL A   1      41.885  29.069  32.476  1.00  0.00     0.167 HD
ATOM     62  C   UNL A   1      43.918  27.198  31.857  1.00  0.00     0.074 A 
ATOM     63  C   UNL A   1      44.730  26.252  31.121  1.00  0.00     0.031 C 
ATOM     64  C   UNL A   1      44.208  27.640  33.106  1.00  0.00     0.034 A 
BRANCH  51  65
ATOM     65  C   UNL A   1      40.279  31.893  35.250  1.00  0.00     0.023 A 
ATOM     66  C   UNL A   1      40.939  33.135  35.348  1.00  0.00     0.012 A 
ATOM     67  C   UNL A   1      39.237  31.592  36.148  1.00  0.00     0.148 A 
ATOM     68  C   UNL A   1      40.589  34.050  36.340  1.00  0.00     0.002 A 
ATOM     69  C   UNL A   1      38.862  32.528  37.105  1.00  0.00     0.091 A 
ATOM     70  F   UNL A   1      38.632  30.399  36.049  1.00  0.00    -0.205 F 
ATOM     71  C   UNL A   1      39.543  33.752  37.209  1.00  0.00     0.022 A 
BRANCH  69  72
ATOM     72  S   UNL A   1      37.476  32.276  38.221  1.00  0.00     0.127 S 
ATOM     73  O   UNL A   1      36.413  33.013  37.540  1.00  0.00    -0.237 OA
ATOM     74  O   UNL A   1      37.323  30.822  38.197  1.00  0.00    -0.237 OA
ATOM     75  O   UNL A   1      37.888  32.825  39.506  1.00  0.00    -0.744 OA
ENDBRANCH  69  72
ENDBRANCH  51  65
BRANCH  52  76
ATOM     76  C   UNL A   1      42.530  25.959  27.532  1.00  0.00     0.023 A 
ATOM     77  C   UNL A   1      43.338  26.501  26.514  1.00  0.00     0.012 A 
ATOM     78  C   UNL A   1      42.098  24.623  27.425  1.00  0.00     0.148 A 
ATOM     79  C   UNL A   1      43.672  25.745  25.390  1.00  0.00     0.002 A 
ATOM     80  C   UNL A   1      42.482  23.856  26.332  1.00  0.00     0.091 A 
ATOM     81  F   UNL A   1      41.319  24.127  28.398  1.00  0.00    -0.205 F 
ATOM     82  C   UNL A   1      43.251  24.420  25.303  1.00  0.00     0.022 A 
BRANCH  80  83
ATOM     83  S   UNL A   1      42.096  22.107  26.206  1.00  0.00     0.127 S 
ATOM     84  O   UNL A   1      42.896  21.705  25.052  1.00  0.00    -0.237 OA
ATOM     85  O   UNL A   1      42.571  21.597  27.492  1.00  0.00    -0.237 OA
ATOM     86  O   UNL A   1      40.651  22.038  26.034  1.00  0.00    -0.744 OA
ENDBRANCH  80  83
ENDBRANCH  52  76
BRANCH  64  87
ATOM     87  C   UNL A   1      45.427  27.072  33.784  1.00  0.00     0.023 A 
ATOM     88  C   UNL A   1      46.667  27.732  33.674  1.00  0.00     0.012 A 
ATOM     89  C   UNL A   1      45.324  25.923  34.593  1.00  0.00     0.148 A 
ATOM     90  C   UNL A   1      47.793  27.239  34.331  1.00  0.00     0.002 A 
ATOM     91  C   UNL A   1      46.439  25.466  35.286  1.00  0.00     0.091 A 
ATOM     92  F   UNL A   1      44.140  25.298  34.671  1.00  0.00    -0.205 F 
ATOM     93  C   UNL A   1      47.677  26.114  35.145  1.00  0.00     0.022 A 
BRANCH  91  94
ATOM     94  S   UNL A   1      46.361  24.088  36.435  1.00  0.00     0.127 S 
ATOM     95  O   UNL A   1      47.775  23.876  36.741  1.00  0.00    -0.237 OA
ATOM     96  O   UNL A   1      45.576  24.645  37.536  1.00  0.00    -0.237 OA
ATOM     97  O   UNL A   1      45.708  23.002  35.716  1.00  0.00    -0.744 OA
ENDBRANCH  91  94
ENDBRANCH  64  87
ENDBRANCH  38  39
ENDBRANCH  30  33
ENDBRANCH  28  29
ENDBRANCH  27  28
ENDBRANCH   1  27
TORSDOF 19
ENDMDL
