MODEL 1
REMARK VINA RESULT:     -11.1      0.000      0.000
REMARK SMILES CC1(C)C(=O)N([C@H]2COC[C@@H]2C(=O)NCCCCCCNC(=O)c2ccc(-c3c4nc(c(-c5cccc(S(=O)(=O)[O-])c5F)c5ccc([nH]5)c(-c5cccc(S(=O)(=O)[O-])c5F)c5nc(c(-c6cccc(S(=O)(=O)[O-])c6F)c6ccc3[nH]6)C=C5)C=C4)cc2)S1(=O)=O
REMARK SMILES IDX 18 1 17 2 16 3 15 4 14 5 12 6 13 7 11 9 7 10 8 11 9 12 10 13
REMARK SMILES IDX 6 14 1 15 2 16 3 17 4 18 87 19 5 20 88 21 89 22 19 23 20 24
REMARK SMILES IDX 21 25 22 26 23 28 24 29 25 30 86 31 26 32 85 33 27 34 28 35
REMARK SMILES IDX 29 36 79 37 30 38 84 39 78 40 80 41 31 42 83 43 77 44 76 45
REMARK SMILES IDX 32 47 64 48 44 49 63 50 45 51 48 52 62 53 81 54 46 55 47 56
REMARK SMILES IDX 61 58 82 59 49 60 33 61 34 62 42 63 35 64 37 65 43 66 36 67
REMARK SMILES IDX 38 68 39 69 40 70 41 71 65 72 66 73 74 74 67 75 69 76 75 77
REMARK SMILES IDX 68 78 70 79 71 80 72 81 73 82 50 83 51 84 59 85 52 86 54 87
REMARK SMILES IDX 60 88 53 89 55 90 56 91 57 92 58 93
REMARK H PARENT 14 8 21 27 80 46 48 57
REMARK Flexibility Score: inf
ROOT
ATOM      1  C   UNL A   1      31.817  30.037  26.299  1.00  0.00     0.002 C 
ENDROOT
BRANCH   1   2
ATOM      2  C   UNL A   1      33.140  29.405  26.748  1.00  0.00     0.002 C 
BRANCH   2   3
ATOM      3  C   UNL A   1      33.757  28.415  25.760  1.00  0.00     0.021 C 
BRANCH   3   4
ATOM      4  C   UNL A   1      33.278  26.978  25.934  1.00  0.00     0.116 C 
BRANCH   4   5
ATOM      5  N   UNL A   1      32.387  26.574  24.857  1.00  0.00    -0.356 N 
ATOM      6  C   UNL A   1      32.128  25.445  24.159  1.00  0.00     0.227 C 
ATOM      7  O   UNL A   1      31.274  25.580  23.268  1.00  0.00    -0.275 OA
ATOM      8  H   UNL A   1      31.822  27.322  24.557  1.00  0.00     0.163 HD
BRANCH   6   9
ATOM      9  C   UNL A   1      32.761  24.066  24.340  1.00  0.00     0.130 C 
ATOM     10  C   UNL A   1      33.971  23.698  23.526  1.00  0.00     0.143 C 
ATOM     11  C   UNL A   1      33.333  23.097  22.266  1.00  0.00     0.187 C 
ATOM     12  O   UNL A   1      32.067  22.537  22.645  1.00  0.00    -0.378 OA
ATOM     13  C   UNL A   1      31.745  23.001  23.960  1.00  0.00     0.176 C 
BRANCH  10  14
ATOM     14  N   UNL A   1      34.887  22.678  24.120  1.00  0.00    -0.231 N 
ATOM     15  C   UNL A   1      37.757  21.506  25.453  1.00  0.00     0.041 C 
ATOM     16  C   UNL A   1      36.841  22.704  25.234  1.00  0.00     0.165 C 
ATOM     17  C   UNL A   1      37.520  24.003  25.684  1.00  0.00     0.041 C 
ATOM     18  C   UNL A   1      36.271  22.787  23.816  1.00  0.00     0.259 C 
ATOM     19  S   UNL A   1      35.170  22.540  25.754  1.00  0.00     0.252 S 
ATOM     20  O   UNL A   1      36.733  23.053  22.727  1.00  0.00    -0.272 OA
ATOM     21  O   UNL A   1      34.845  21.196  26.167  1.00  0.00    -0.205 OA
ATOM     22  O   UNL A   1      34.691  23.717  26.438  1.00  0.00    -0.205 OA
ENDBRANCH  10  14
ENDBRANCH   6   9
ENDBRANCH   4   5
ENDBRANCH   3   4
ENDBRANCH   2   3
ENDBRANCH   1   2
BRANCH   1  23
ATOM     23  C   UNL A   1      31.681  31.540  26.564  1.00  0.00     0.021 C 
BRANCH  23  24
ATOM     24  C   UNL A   1      32.882  32.179  27.252  1.00  0.00     0.116 C 
BRANCH  24  25
ATOM     25  N   UNL A   1      32.645  33.578  27.569  1.00  0.00    -0.352 N 
ATOM     26  C   UNL A   1      33.201  34.351  28.555  1.00  0.00     0.251 C 
ATOM     27  H   UNL A   1      31.991  34.036  26.993  1.00  0.00     0.163 HD
ATOM     28  O   UNL A   1      32.724  35.452  28.812  1.00  0.00    -0.269 OA
BRANCH  26  29
ATOM     29  C   UNL A   1      34.366  33.850  29.314  1.00  0.00     0.039 A 
ATOM     30  C   UNL A   1      34.155  32.960  30.369  1.00  0.00     0.014 A 
ATOM     31  C   UNL A   1      35.662  34.269  28.995  1.00  0.00     0.014 A 
ATOM     32  C   UNL A   1      35.247  32.456  31.077  1.00  0.00     0.010 A 
ATOM     33  C   UNL A   1      36.753  33.707  29.651  1.00  0.00     0.010 A 
ATOM     34  C   UNL A   1      36.557  32.805  30.709  1.00  0.00    -0.014 A 
BRANCH  34  35
ATOM     35  C   UNL A   1      37.731  32.240  31.420  1.00  0.00     0.031 A 
ATOM     36  C   UNL A   1      38.517  31.111  30.807  1.00  0.00     0.074 A 
ATOM     37  C   UNL A   1      38.045  32.692  32.649  1.00  0.00     0.049 A 
ATOM     38  N   UNL A   1      39.545  30.465  31.292  1.00  0.00    -0.248 NA
ATOM     39  C   UNL A   1      38.073  30.625  29.489  1.00  0.00     0.031 C 
ATOM     40  C   UNL A   1      37.315  33.730  33.381  1.00  0.00     0.029 A 
ATOM     41  N   UNL A   1      39.046  32.322  33.512  1.00  0.00    -0.354 N 
ATOM     42  C   UNL A   1      39.849  29.477  30.363  1.00  0.00     0.074 A 
ATOM     43  C   UNL A   1      38.873  29.586  29.299  1.00  0.00     0.031 C 
ATOM     44  C   UNL A   1      37.896  33.918  34.575  1.00  0.00     0.029 A 
ATOM     45  C   UNL A   1      39.019  32.996  34.711  1.00  0.00     0.049 A 
ATOM     46  H   UNL A   1      39.721  31.639  33.294  1.00  0.00     0.167 HD
ATOM     47  C   UNL A   1      40.862  28.579  30.376  1.00  0.00     0.034 A 
ATOM     48  C   UNL A   1      39.805  32.879  35.799  1.00  0.00     0.034 A 
ATOM     49  C   UNL A   1      41.852  28.502  31.417  1.00  0.00     0.049 A 
ATOM     50  C   UNL A   1      40.946  31.899  35.773  1.00  0.00     0.074 A 
ATOM     51  C   UNL A   1      42.970  27.690  31.482  1.00  0.00     0.029 A 
ATOM     52  N   UNL A   1      41.838  29.255  32.581  1.00  0.00    -0.354 N 
ATOM     53  N   UNL A   1      41.312  31.083  34.814  1.00  0.00    -0.248 NA
ATOM     54  C   UNL A   1      41.807  31.848  36.964  1.00  0.00     0.031 C 
ATOM     55  C   UNL A   1      43.615  27.929  32.699  1.00  0.00     0.029 A 
ATOM     56  C   UNL A   1      42.919  28.918  33.376  1.00  0.00     0.049 A 
ATOM     57  H   UNL A   1      41.159  29.931  32.807  1.00  0.00     0.167 HD
ATOM     58  C   UNL A   1      42.466  30.454  35.267  1.00  0.00     0.074 A 
ATOM     59  C   UNL A   1      42.748  30.998  36.580  1.00  0.00     0.031 C 
ATOM     60  C   UNL A   1      43.217  29.504  34.657  1.00  0.00     0.034 A 
BRANCH  47  61
ATOM     61  C   UNL A   1      40.979  27.634  29.209  1.00  0.00     0.023 A 
ATOM     62  C   UNL A   1      40.216  26.448  29.191  1.00  0.00     0.012 A 
ATOM     63  C   UNL A   1      41.795  27.946  28.104  1.00  0.00     0.148 A 
ATOM     64  C   UNL A   1      40.292  25.569  28.110  1.00  0.00     0.002 A 
ATOM     65  C   UNL A   1      41.828  27.090  27.009  1.00  0.00     0.091 A 
ATOM     66  F   UNL A   1      42.528  29.067  28.148  1.00  0.00    -0.205 F 
ATOM     67  C   UNL A   1      41.088  25.896  27.016  1.00  0.00     0.022 A 
BRANCH  65  68
ATOM     68  S   UNL A   1      42.756  27.460  25.516  1.00  0.00     0.127 S 
ATOM     69  O   UNL A   1      44.125  27.521  26.029  1.00  0.00    -0.237 OA
ATOM     70  O   UNL A   1      42.469  26.295  24.680  1.00  0.00    -0.237 OA
ATOM     71  O   UNL A   1      42.223  28.718  25.012  1.00  0.00    -0.744 OA
ENDBRANCH  65  68
ENDBRANCH  47  61
BRANCH  48  72
ATOM     72  C   UNL A   1      39.580  33.759  36.981  1.00  0.00     0.023 A 
ATOM     73  C   UNL A   1      39.963  35.114  36.918  1.00  0.00     0.012 A 
ATOM     74  C   UNL A   1      38.972  33.271  38.154  1.00  0.00     0.148 A 
ATOM     75  C   UNL A   1      39.780  35.957  38.015  1.00  0.00     0.002 A 
ATOM     76  C   UNL A   1      38.740  34.130  39.222  1.00  0.00     0.091 A 
ATOM     77  F   UNL A   1      38.622  31.979  38.197  1.00  0.00    -0.205 F 
ATOM     78  C   UNL A   1      39.161  35.468  39.162  1.00  0.00     0.022 A 
BRANCH  76  79
ATOM     79  S   UNL A   1      37.832  33.622  40.687  1.00  0.00     0.127 S 
ATOM     80  O   UNL A   1      37.741  34.875  41.432  1.00  0.00    -0.237 OA
ATOM     81  O   UNL A   1      36.570  33.154  40.112  1.00  0.00    -0.237 OA
ATOM     82  O   UNL A   1      38.633  32.575  41.305  1.00  0.00    -0.744 OA
ENDBRANCH  76  79
ENDBRANCH  48  72
BRANCH  60  83
ATOM     83  C   UNL A   1      44.450  29.019  35.377  1.00  0.00     0.023 A 
ATOM     84  C   UNL A   1      45.695  29.632  35.134  1.00  0.00     0.012 A 
ATOM     85  C   UNL A   1      44.356  28.001  36.346  1.00  0.00     0.148 A 
ATOM     86  C   UNL A   1      46.835  29.213  35.819  1.00  0.00     0.002 A 
ATOM     87  C   UNL A   1      45.486  27.627  37.064  1.00  0.00     0.091 A 
ATOM     88  F   UNL A   1      43.166  27.418  36.550  1.00  0.00    -0.205 F 
ATOM     89  C   UNL A   1      46.729  28.220  36.791  1.00  0.00     0.022 A 
BRANCH  87  90
ATOM     90  S   UNL A   1      45.423  26.431  38.402  1.00  0.00     0.127 S 
ATOM     91  O   UNL A   1      45.023  25.214  37.696  1.00  0.00    -0.237 OA
ATOM     92  O   UNL A   1      46.805  26.431  38.883  1.00  0.00    -0.237 OA
ATOM     93  O   UNL A   1      44.451  26.946  39.357  1.00  0.00    -0.744 OA
ENDBRANCH  87  90
ENDBRANCH  60  83
ENDBRANCH  34  35
ENDBRANCH  26  29
ENDBRANCH  24  25
ENDBRANCH  23  24
ENDBRANCH   1  23
TORSDOF 17
ENDMDL
MODEL 2
REMARK VINA RESULT:     -10.9      5.806      8.815
REMARK SMILES CC1(C)C(=O)N([C@H]2COC[C@@H]2C(=O)NCCCCCCNC(=O)c2ccc(-c3c4nc(c(-c5cccc(S(=O)(=O)[O-])c5F)c5ccc([nH]5)c(-c5cccc(S(=O)(=O)[O-])c5F)c5nc(c(-c6cccc(S(=O)(=O)[O-])c6F)c6ccc3[nH]6)C=C5)C=C4)cc2)S1(=O)=O
REMARK SMILES IDX 18 1 17 2 16 3 15 4 14 5 12 6 13 7 11 9 7 10 8 11 9 12 10 13
REMARK SMILES IDX 6 14 1 15 2 16 3 17 4 18 87 19 5 20 88 21 89 22 19 23 20 24
REMARK SMILES IDX 21 25 22 26 23 28 24 29 25 30 86 31 26 32 85 33 27 34 28 35
REMARK SMILES IDX 29 36 79 37 30 38 84 39 78 40 80 41 31 42 83 43 77 44 76 45
REMARK SMILES IDX 32 47 64 48 44 49 63 50 45 51 48 52 62 53 81 54 46 55 47 56
REMARK SMILES IDX 61 58 82 59 49 60 33 61 34 62 42 63 35 64 37 65 43 66 36 67
REMARK SMILES IDX 38 68 39 69 40 70 41 71 65 72 66 73 74 74 67 75 69 76 75 77
REMARK SMILES IDX 68 78 70 79 71 80 72 81 73 82 50 83 51 84 59 85 52 86 54 87
REMARK SMILES IDX 60 88 53 89 55 90 56 91 57 92 58 93
REMARK H PARENT 14 8 21 27 80 46 48 57
REMARK Flexibility Score: inf
ROOT
ATOM      1  C   UNL A   1      35.666  22.875  26.433  1.00  0.00     0.002 C 
ENDROOT
BRANCH   1   2
ATOM      2  C   UNL A   1      34.387  22.680  27.256  1.00  0.00     0.002 C 
BRANCH   2   3
ATOM      3  C   UNL A   1      33.516  21.496  26.835  1.00  0.00     0.021 C 
BRANCH   3   4
ATOM      4  C   UNL A   1      32.145  21.890  26.296  1.00  0.00     0.116 C 
BRANCH   4   5
ATOM      5  N   UNL A   1      32.100  21.831  24.844  1.00  0.00    -0.356 N 
ATOM      6  C   UNL A   1      32.230  22.698  23.814  1.00  0.00     0.227 C 
ATOM      7  O   UNL A   1      32.073  22.188  22.693  1.00  0.00    -0.275 OA
ATOM      8  H   UNL A   1      31.927  20.916  24.525  1.00  0.00     0.163 HD
BRANCH   6   9
ATOM      9  C   UNL A   1      32.536  24.194  23.882  1.00  0.00     0.130 C 
ATOM     10  C   UNL A   1      31.841  25.132  22.934  1.00  0.00     0.143 C 
ATOM     11  C   UNL A   1      32.792  25.124  21.728  1.00  0.00     0.187 C 
ATOM     12  O   UNL A   1      34.114  24.858  22.220  1.00  0.00    -0.378 OA
ATOM     13  C   UNL A   1      34.009  24.413  23.577  1.00  0.00     0.176 C 
BRANCH  10  14
ATOM     14  N   UNL A   1      31.679  26.543  23.394  1.00  0.00    -0.231 N 
ATOM     15  C   UNL A   1      30.081  29.481  23.848  1.00  0.00     0.041 C 
ATOM     16  C   UNL A   1      29.963  27.971  23.679  1.00  0.00     0.165 C 
ATOM     17  C   UNL A   1      28.499  27.550  23.507  1.00  0.00     0.041 C 
ATOM     18  C   UNL A   1      30.881  27.404  22.593  1.00  0.00     0.259 C 
ATOM     19  S   UNL A   1      30.882  26.967  24.791  1.00  0.00     0.252 S 
ATOM     20  O   UNL A   1      30.894  27.451  21.381  1.00  0.00    -0.272 OA
ATOM     21  O   UNL A   1      31.780  27.733  25.621  1.00  0.00    -0.205 OA
ATOM     22  O   UNL A   1      30.114  25.847  25.279  1.00  0.00    -0.205 OA
ENDBRANCH  10  14
ENDBRANCH   6   9
ENDBRANCH   4   5
ENDBRANCH   3   4
ENDBRANCH   2   3
ENDBRANCH   1   2
BRANCH   1  23
ATOM     23  C   UNL A   1      35.898  21.846  25.321  1.00  0.00     0.021 C 
BRANCH  23  24
ATOM     24  C   UNL A   1      37.321  21.802  24.777  1.00  0.00     0.116 C 
BRANCH  24  25
ATOM     25  N   UNL A   1      38.112  20.760  25.410  1.00  0.00    -0.352 N 
ATOM     26  C   UNL A   1      39.294  20.864  26.098  1.00  0.00     0.251 C 
ATOM     27  H   UNL A   1      37.749  19.848  25.333  1.00  0.00     0.163 HD
ATOM     28  O   UNL A   1      39.931  19.853  26.378  1.00  0.00    -0.269 OA
BRANCH  26  29
ATOM     29  C   UNL A   1      39.801  22.196  26.491  1.00  0.00     0.039 A 
ATOM     30  C   UNL A   1      40.855  22.276  27.405  1.00  0.00     0.014 A 
ATOM     31  C   UNL A   1      39.229  23.362  25.973  1.00  0.00     0.014 A 
ATOM     32  C   UNL A   1      41.364  23.525  27.764  1.00  0.00     0.010 A 
ATOM     33  C   UNL A   1      39.787  24.601  26.274  1.00  0.00     0.010 A 
ATOM     34  C   UNL A   1      40.851  24.697  27.184  1.00  0.00    -0.014 A 
BRANCH  34  35
ATOM     35  C   UNL A   1      41.414  26.029  27.518  1.00  0.00     0.031 A 
ATOM     36  C   UNL A   1      42.815  26.388  27.100  1.00  0.00     0.074 A 
ATOM     37  C   UNL A   1      40.690  26.889  28.263  1.00  0.00     0.049 A 
ATOM     38  N   UNL A   1      43.489  27.483  27.333  1.00  0.00    -0.248 NA
ATOM     39  C   UNL A   1      43.569  25.371  26.346  1.00  0.00     0.031 C 
ATOM     40  C   UNL A   1      39.349  26.628  28.792  1.00  0.00     0.029 A 
ATOM     41  N   UNL A   1      40.989  28.147  28.723  1.00  0.00    -0.354 N 
ATOM     42  C   UNL A   1      44.752  27.278  26.789  1.00  0.00     0.074 A 
ATOM     43  C   UNL A   1      44.762  25.937  26.245  1.00  0.00     0.031 C 
ATOM     44  C   UNL A   1      38.939  27.694  29.496  1.00  0.00     0.029 A 
ATOM     45  C   UNL A   1      39.996  28.701  29.497  1.00  0.00     0.049 A 
ATOM     46  H   UNL A   1      41.834  28.609  28.519  1.00  0.00     0.167 HD
ATOM     47  C   UNL A   1      45.798  28.134  26.723  1.00  0.00     0.034 A 
ATOM     48  C   UNL A   1      39.945  29.883  30.141  1.00  0.00     0.034 A 
ATOM     49  C   UNL A   1      45.768  29.479  27.231  1.00  0.00     0.049 A 
ATOM     50  C   UNL A   1      41.107  30.830  30.020  1.00  0.00     0.074 A 
ATOM     51  C   UNL A   1      46.743  30.457  27.134  1.00  0.00     0.029 A 
ATOM     52  N   UNL A   1      44.715  30.034  27.941  1.00  0.00    -0.354 N 
ATOM     53  N   UNL A   1      42.232  30.677  29.364  1.00  0.00    -0.248 NA
ATOM     54  C   UNL A   1      40.980  32.130  30.697  1.00  0.00     0.031 C 
ATOM     55  C   UNL A   1      46.292  31.593  27.814  1.00  0.00     0.029 A 
ATOM     56  C   UNL A   1      45.021  31.336  28.301  1.00  0.00     0.049 A 
ATOM     57  H   UNL A   1      43.874  29.571  28.157  1.00  0.00     0.167 HD
ATOM     58  C   UNL A   1      42.927  31.872  29.514  1.00  0.00     0.074 A 
ATOM     59  C   UNL A   1      42.087  32.746  30.307  1.00  0.00     0.031 C 
ATOM     60  C   UNL A   1      44.154  32.212  29.046  1.00  0.00     0.034 A 
BRANCH  47  61
ATOM     61  C   UNL A   1      47.054  27.658  26.038  1.00  0.00     0.023 A 
ATOM     62  C   UNL A   1      48.026  26.950  26.775  1.00  0.00     0.012 A 
ATOM     63  C   UNL A   1      47.243  27.856  24.657  1.00  0.00     0.148 A 
ATOM     64  C   UNL A   1      49.185  26.480  26.157  1.00  0.00     0.002 A 
ATOM     65  C   UNL A   1      48.378  27.342  24.038  1.00  0.00     0.091 A 
ATOM     66  F   UNL A   1      46.319  28.548  23.977  1.00  0.00    -0.205 F 
ATOM     67  C   UNL A   1      49.355  26.667  24.788  1.00  0.00     0.022 A 
BRANCH  65  68
ATOM     68  S   UNL A   1      48.651  27.456  22.266  1.00  0.00     0.127 S 
ATOM     69  O   UNL A   1      49.884  28.240  22.208  1.00  0.00    -0.237 OA
ATOM     70  O   UNL A   1      48.803  26.050  21.889  1.00  0.00    -0.237 OA
ATOM     71  O   UNL A   1      47.470  28.109  21.717  1.00  0.00    -0.744 OA
ENDBRANCH  65  68
ENDBRANCH  47  61
BRANCH  48  72
ATOM     72  C   UNL A   1      38.723  30.266  30.905  1.00  0.00     0.023 A 
ATOM     73  C   UNL A   1      38.601  29.878  32.254  1.00  0.00     0.012 A 
ATOM     74  C   UNL A   1      37.695  31.025  30.313  1.00  0.00     0.148 A 
ATOM     75  C   UNL A   1      37.460  30.207  32.988  1.00  0.00     0.002 A 
ATOM     76  C   UNL A   1      36.588  31.398  31.066  1.00  0.00     0.091 A 
ATOM     77  F   UNL A   1      37.827  31.377  29.027  1.00  0.00    -0.205 F 
ATOM     78  C   UNL A   1      36.459  30.974  32.398  1.00  0.00     0.022 A 
BRANCH  76  79
ATOM     79  S   UNL A   1      35.315  32.494  30.429  1.00  0.00     0.127 S 
ATOM     80  O   UNL A   1      34.396  32.575  31.561  1.00  0.00    -0.237 OA
ATOM     81  O   UNL A   1      36.075  33.716  30.163  1.00  0.00    -0.237 OA
ATOM     82  O   UNL A   1      34.793  31.842  29.236  1.00  0.00    -0.744 OA
ENDBRANCH  76  79
ENDBRANCH  48  72
BRANCH  60  83
ATOM     83  C   UNL A   1      44.652  33.605  29.336  1.00  0.00     0.023 A 
ATOM     84  C   UNL A   1      45.286  33.886  30.563  1.00  0.00     0.012 A 
ATOM     85  C   UNL A   1      44.551  34.616  28.360  1.00  0.00     0.148 A 
ATOM     86  C   UNL A   1      45.780  35.163  30.826  1.00  0.00     0.002 A 
ATOM     87  C   UNL A   1      45.095  35.871  28.609  1.00  0.00     0.091 A 
ATOM     88  F   UNL A   1      43.929  34.333  27.207  1.00  0.00    -0.205 F 
ATOM     89  C   UNL A   1      45.695  36.151  29.847  1.00  0.00     0.022 A 
BRANCH  87  90
ATOM     90  S   UNL A   1      45.121  37.170  27.371  1.00  0.00     0.127 S 
ATOM     91  O   UNL A   1      45.947  36.569  26.325  1.00  0.00    -0.237 OA
ATOM     92  O   UNL A   1      43.704  37.303  27.030  1.00  0.00    -0.237 OA
ATOM     93  O   UNL A   1      45.697  38.338  28.026  1.00  0.00    -0.744 OA
ENDBRANCH  87  90
ENDBRANCH  60  83
ENDBRANCH  34  35
ENDBRANCH  26  29
ENDBRANCH  24  25
ENDBRANCH  23  24
ENDBRANCH   1  23
TORSDOF 17
ENDMDL
MODEL 3
REMARK VINA RESULT:     -10.9      1.716      8.073
REMARK SMILES CC1(C)C(=O)N([C@H]2COC[C@@H]2C(=O)NCCCCCCNC(=O)c2ccc(-c3c4nc(c(-c5cccc(S(=O)(=O)[O-])c5F)c5ccc([nH]5)c(-c5cccc(S(=O)(=O)[O-])c5F)c5nc(c(-c6cccc(S(=O)(=O)[O-])c6F)c6ccc3[nH]6)C=C5)C=C4)cc2)S1(=O)=O
REMARK SMILES IDX 18 1 17 2 16 3 15 4 14 5 12 6 13 7 11 9 7 10 8 11 9 12 10 13
REMARK SMILES IDX 6 14 1 15 2 16 3 17 4 18 87 19 5 20 88 21 89 22 19 23 20 24
REMARK SMILES IDX 21 25 22 26 23 28 24 29 25 30 86 31 26 32 85 33 27 34 28 35
REMARK SMILES IDX 29 36 79 37 30 38 84 39 78 40 80 41 31 42 83 43 77 44 76 45
REMARK SMILES IDX 32 47 64 48 44 49 63 50 45 51 48 52 62 53 81 54 46 55 47 56
REMARK SMILES IDX 61 58 82 59 49 60 33 61 34 62 42 63 35 64 37 65 43 66 36 67
REMARK SMILES IDX 38 68 39 69 40 70 41 71 65 72 66 73 74 74 67 75 69 76 75 77
REMARK SMILES IDX 68 78 70 79 71 80 72 81 73 82 50 83 51 84 59 85 52 86 54 87
REMARK SMILES IDX 60 88 53 89 55 90 56 91 57 92 58 93
REMARK H PARENT 14 8 21 27 80 46 48 57
REMARK Flexibility Score: inf
ROOT
ATOM      1  C   UNL A   1      35.521  32.417  27.957  1.00  0.00     0.002 C 
ENDROOT
BRANCH   1   2
ATOM      2  C   UNL A   1      34.707  31.134  28.159  1.00  0.00     0.002 C 
BRANCH   2   3
ATOM      3  C   UNL A   1      35.398  29.847  27.711  1.00  0.00     0.021 C 
BRANCH   3   4
ATOM      4  C   UNL A   1      34.511  28.912  26.895  1.00  0.00     0.116 C 
BRANCH   4   5
ATOM      5  N   UNL A   1      33.202  28.745  27.506  1.00  0.00    -0.356 N 
ATOM      6  C   UNL A   1      32.122  27.950  27.329  1.00  0.00     0.227 C 
ATOM      7  O   UNL A   1      31.174  28.198  28.092  1.00  0.00    -0.275 OA
ATOM      8  H   UNL A   1      33.064  29.380  28.245  1.00  0.00     0.163 HD
BRANCH   6   9
ATOM      9  C   UNL A   1      31.948  26.818  26.316  1.00  0.00     0.130 C 
ATOM     10  C   UNL A   1      33.148  26.018  25.892  1.00  0.00     0.143 C 
ATOM     11  C   UNL A   1      33.664  26.834  24.697  1.00  0.00     0.187 C 
ATOM     12  O   UNL A   1      32.538  27.500  24.107  1.00  0.00    -0.378 OA
ATOM     13  C   UNL A   1      31.431  27.398  25.010  1.00  0.00     0.176 C 
BRANCH  10  14
ATOM     14  N   UNL A   1      32.887  24.623  25.429  1.00  0.00    -0.231 N 
ATOM     15  C   UNL A   1      33.072  21.254  25.513  1.00  0.00     0.041 C 
ATOM     16  C   UNL A   1      33.090  22.558  26.301  1.00  0.00     0.165 C 
ATOM     17  C   UNL A   1      33.486  22.312  27.762  1.00  0.00     0.041 C 
ATOM     18  C   UNL A   1      33.915  23.663  25.635  1.00  0.00     0.259 C 
ATOM     19  S   UNL A   1      31.720  23.639  26.092  1.00  0.00     0.252 S 
ATOM     20  O   UNL A   1      35.100  23.852  25.462  1.00  0.00    -0.272 OA
ATOM     21  O   UNL A   1      30.827  23.210  25.042  1.00  0.00    -0.205 OA
ATOM     22  O   UNL A   1      31.263  24.192  27.344  1.00  0.00    -0.205 OA
ENDBRANCH  10  14
ENDBRANCH   6   9
ENDBRANCH   4   5
ENDBRANCH   3   4
ENDBRANCH   2   3
ENDBRANCH   1   2
BRANCH   1  23
ATOM     23  C   UNL A   1      34.701  33.704  27.815  1.00  0.00     0.021 C 
BRANCH  23  24
ATOM     24  C   UNL A   1      33.259  33.598  28.298  1.00  0.00     0.116 C 
BRANCH  24  25
ATOM     25  N   UNL A   1      32.902  34.692  29.185  1.00  0.00    -0.352 N 
ATOM     26  C   UNL A   1      33.368  34.978  30.443  1.00  0.00     0.251 C 
ATOM     27  H   UNL A   1      32.228  35.318  28.834  1.00  0.00     0.163 HD
ATOM     28  O   UNL A   1      32.797  35.819  31.131  1.00  0.00    -0.269 OA
BRANCH  26  29
ATOM     29  C   UNL A   1      34.550  34.264  30.969  1.00  0.00     0.039 A 
ATOM     30  C   UNL A   1      34.365  33.050  31.636  1.00  0.00     0.014 A 
ATOM     31  C   UNL A   1      35.834  34.796  30.819  1.00  0.00     0.014 A 
ATOM     32  C   UNL A   1      35.474  32.349  32.114  1.00  0.00     0.010 A 
ATOM     33  C   UNL A   1      36.942  34.060  31.228  1.00  0.00     0.010 A 
ATOM     34  C   UNL A   1      36.773  32.835  31.893  1.00  0.00    -0.014 A 
BRANCH  34  35
ATOM     35  C   UNL A   1      37.965  32.077  32.351  1.00  0.00     0.031 A 
ATOM     36  C   UNL A   1      38.639  32.437  33.649  1.00  0.00     0.074 A 
ATOM     37  C   UNL A   1      38.484  31.115  31.564  1.00  0.00     0.049 A 
ATOM     38  N   UNL A   1      39.708  31.917  34.193  1.00  0.00    -0.248 NA
ATOM     39  C   UNL A   1      38.053  33.544  34.423  1.00  0.00     0.031 C 
ATOM     40  C   UNL A   1      37.966  30.725  30.251  1.00  0.00     0.029 A 
ATOM     41  N   UNL A   1      39.577  30.303  31.742  1.00  0.00    -0.354 N 
ATOM     42  C   UNL A   1      39.944  32.651  35.349  1.00  0.00     0.074 A 
ATOM     43  C   UNL A   1      38.926  33.678  35.410  1.00  0.00     0.031 C 
ATOM     44  C   UNL A   1      38.734  29.747  29.747  1.00  0.00     0.029 A 
ATOM     45  C   UNL A   1      39.816  29.460  30.683  1.00  0.00     0.049 A 
ATOM     46  H   UNL A   1      40.136  30.323  32.553  1.00  0.00     0.167 HD
ATOM     47  C   UNL A   1      40.902  32.473  36.289  1.00  0.00     0.034 A 
ATOM     48  C   UNL A   1      40.801  28.561  30.484  1.00  0.00     0.034 A 
ATOM     49  C   UNL A   1      41.886  31.425  36.243  1.00  0.00     0.049 A 
ATOM     50  C   UNL A   1      41.830  28.358  31.562  1.00  0.00     0.074 A 
ATOM     51  C   UNL A   1      42.843  31.103  37.189  1.00  0.00     0.029 A 
ATOM     52  N   UNL A   1      42.050  30.538  35.191  1.00  0.00    -0.354 N 
ATOM     53  N   UNL A   1      41.940  28.957  32.722  1.00  0.00    -0.248 NA
ATOM     54  C   UNL A   1      42.851  27.328  31.319  1.00  0.00     0.031 C 
ATOM     55  C   UNL A   1      43.606  30.040  36.694  1.00  0.00     0.029 A 
ATOM     56  C   UNL A   1      43.100  29.677  35.457  1.00  0.00     0.049 A 
ATOM     57  H   UNL A   1      41.500  30.523  34.375  1.00  0.00     0.167 HD
ATOM     58  C   UNL A   1      43.014  28.350  33.365  1.00  0.00     0.074 A 
ATOM     59  C   UNL A   1      43.508  27.323  32.471  1.00  0.00     0.031 C 
ATOM     60  C   UNL A   1      43.548  28.625  34.581  1.00  0.00     0.034 A 
BRANCH  47  61
ATOM     61  C   UNL A   1      40.906  33.404  37.474  1.00  0.00     0.023 A 
ATOM     62  C   UNL A   1      41.812  34.485  37.510  1.00  0.00     0.012 A 
ATOM     63  C   UNL A   1      39.976  33.249  38.519  1.00  0.00     0.148 A 
ATOM     64  C   UNL A   1      41.818  35.373  38.586  1.00  0.00     0.002 A 
ATOM     65  C   UNL A   1      39.955  34.166  39.565  1.00  0.00     0.091 A 
ATOM     66  F   UNL A   1      39.136  32.205  38.478  1.00  0.00    -0.205 F 
ATOM     67  C   UNL A   1      40.884  35.220  39.606  1.00  0.00     0.022 A 
BRANCH  65  68
ATOM     68  S   UNL A   1      38.738  34.106  40.884  1.00  0.00     0.127 S 
ATOM     69  O   UNL A   1      39.422  33.281  41.879  1.00  0.00    -0.237 OA
ATOM     70  O   UNL A   1      38.609  35.518  41.247  1.00  0.00    -0.237 OA
ATOM     71  O   UNL A   1      37.541  33.516  40.301  1.00  0.00    -0.744 OA
ENDBRANCH  65  68
ENDBRANCH  47  61
BRANCH  48  72
ATOM     72  C   UNL A   1      40.821  27.740  29.241  1.00  0.00     0.023 A 
ATOM     73  C   UNL A   1      39.943  26.644  29.120  1.00  0.00     0.012 A 
ATOM     74  C   UNL A   1      41.686  28.047  28.173  1.00  0.00     0.148 A 
ATOM     75  C   UNL A   1      39.953  25.846  27.975  1.00  0.00     0.002 A 
ATOM     76  C   UNL A   1      41.651  27.283  27.012  1.00  0.00     0.091 A 
ATOM     77  F   UNL A   1      42.519  29.087  28.309  1.00  0.00    -0.205 F 
ATOM     78  C   UNL A   1      40.799  26.171  26.918  1.00  0.00     0.022 A 
BRANCH  76  79
ATOM     79  S   UNL A   1      42.608  27.706  25.551  1.00  0.00     0.127 S 
ATOM     80  O   UNL A   1      43.961  27.792  26.095  1.00  0.00    -0.237 OA
ATOM     81  O   UNL A   1      42.364  26.551  24.686  1.00  0.00    -0.237 OA
ATOM     82  O   UNL A   1      42.044  28.954  25.057  1.00  0.00    -0.744 OA
ENDBRANCH  76  79
ENDBRANCH  48  72
BRANCH  60  83
ATOM     83  C   UNL A   1      44.703  27.775  35.045  1.00  0.00     0.023 A 
ATOM     84  C   UNL A   1      46.025  28.241  34.898  1.00  0.00     0.012 A 
ATOM     85  C   UNL A   1      44.470  26.545  35.690  1.00  0.00     0.148 A 
ATOM     86  C   UNL A   1      47.099  27.477  35.355  1.00  0.00     0.002 A 
ATOM     87  C   UNL A   1      45.542  25.815  36.191  1.00  0.00     0.091 A 
ATOM     88  F   UNL A   1      43.207  26.111  35.804  1.00  0.00    -0.205 F 
ATOM     89  C   UNL A   1      46.857  26.272  36.011  1.00  0.00     0.022 A 
BRANCH  87  90
ATOM     90  S   UNL A   1      45.319  24.305  37.137  1.00  0.00     0.127 S 
ATOM     91  O   UNL A   1      46.698  23.962  37.480  1.00  0.00    -0.237 OA
ATOM     92  O   UNL A   1      44.506  24.763  38.264  1.00  0.00    -0.237 OA
ATOM     93  O   UNL A   1      44.646  23.369  36.246  1.00  0.00    -0.744 OA
ENDBRANCH  87  90
ENDBRANCH  60  83
ENDBRANCH  34  35
ENDBRANCH  26  29
ENDBRANCH  24  25
ENDBRANCH  23  24
ENDBRANCH   1  23
TORSDOF 17
ENDMDL
