MODEL 1
REMARK VINA RESULT:     -12.2      0.000      0.000
REMARK SMILES Cc1cccc(-n2c(C)cc(/C=N\c3ccc(O)c(C(=O)NCCCCCCNC(=O)c4ccc(-c5c6nc(c(-c7cccc(S(=O)(=O)[O-])c7F)c7ccc([nH]7)c(-c7cccc(S(=O)(=O)[O-])c7F)c7nc(c(-c8cccc(S(=O)(=O)[O-])c8F)c8ccc5[nH]8)C=C7)C=C6)cc4)c3)c2C)c1
REMARK SMILES IDX 25 1 24 2 23 3 22 4 20 5 21 6 19 8 14 9 15 10 95 11 16 12
REMARK SMILES IDX 17 13 13 14 12 15 11 16 7 17 8 18 96 19 9 20 10 21 97 22
REMARK SMILES IDX 6 23 1 24 2 25 3 26 98 27 4 28 5 29 18 30 26 32 27 33 28 34
REMARK SMILES IDX 29 35 30 36 31 38 32 39 33 40 94 41 34 42 93 43 35 44 36 45
REMARK SMILES IDX 37 46 87 47 38 48 92 49 86 50 88 51 39 52 91 53 85 54 84 55
REMARK SMILES IDX 40 57 72 58 52 59 71 60 53 61 56 62 70 63 89 64 54 65 55 66
REMARK SMILES IDX 69 68 90 69 57 70 41 71 42 72 50 73 43 74 45 75 51 76 44 77
REMARK SMILES IDX 46 78 47 79 48 80 49 81 73 82 74 83 82 84 75 85 77 86 83 87
REMARK SMILES IDX 76 88 78 89 79 90 80 91 81 92 58 93 59 94 67 95 60 96 62 97
REMARK SMILES IDX 68 98 61 99 63 100 64 101 65 102 66 103
REMARK H PARENT 22 7 18 31 29 37 88 56 56 67
REMARK Flexibility Score: inf
ROOT
ATOM      1  C   UNL A   1      34.484  25.977  23.857  1.00  0.00     0.002 C 
ENDROOT
BRANCH   1   2
ATOM      2  C   UNL A   1      33.543  26.119  22.656  1.00  0.00     0.021 C 
BRANCH   2   3
ATOM      3  C   UNL A   1      33.235  27.502  22.110  1.00  0.00     0.116 C 
BRANCH   3   4
ATOM      4  N   UNL A   1      31.842  27.823  21.886  1.00  0.00    -0.352 N 
ATOM      5  C   UNL A   1      30.817  28.049  22.780  1.00  0.00     0.255 C 
ATOM      6  O   UNL A   1      29.734  28.404  22.305  1.00  0.00    -0.269 OA
ATOM      7  H   UNL A   1      31.584  27.891  20.939  1.00  0.00     0.163 HD
BRANCH   5   8
ATOM      8  C   UNL A   1      30.925  27.877  24.269  1.00  0.00     0.083 A 
ATOM      9  C   UNL A   1      30.508  26.385  26.169  1.00  0.00     0.064 A 
ATOM     10  C   UNL A   1      31.053  27.320  27.043  1.00  0.00     0.032 A 
ATOM     11  C   UNL A   1      30.587  26.610  24.784  1.00  0.00     0.046 A 
ATOM     12  C   UNL A   1      31.393  28.578  26.563  1.00  0.00     0.049 A 
ATOM     13  C   UNL A   1      31.186  28.875  25.214  1.00  0.00     0.128 A 
BRANCH   9  14
ATOM     14  N   UNL A   1      29.854  25.247  26.642  1.00  0.00    -0.256 NA
ATOM     15  C   UNL A   1      30.317  24.036  26.491  1.00  0.00     0.121 C 
BRANCH  15  16
ATOM     16  C   UNL A   1      31.539  23.499  25.874  1.00  0.00     0.014 A 
ATOM     17  N   UNL A   1      33.600  22.687  25.368  1.00  0.00    -0.318 N 
ATOM     18  C   UNL A   1      32.923  22.838  24.170  1.00  0.00     0.021 A 
ATOM     19  C   UNL A   1      32.702  22.942  26.411  1.00  0.00     0.029 A 
ATOM     20  C   UNL A   1      33.478  22.417  22.853  1.00  0.00     0.065 C 
ATOM     21  C   UNL A   1      31.678  23.356  24.458  1.00  0.00     0.033 A 
ATOM     22  C   UNL A   1      33.086  22.699  27.825  1.00  0.00     0.065 C 
BRANCH  17  23
ATOM     23  C   UNL A   1      34.992  22.404  25.513  1.00  0.00     0.046 A 
ATOM     24  C   UNL A   1      37.365  19.492  24.855  1.00  0.00     0.044 C 
ATOM     25  C   UNL A   1      36.835  20.856  25.190  1.00  0.00    -0.049 A 
ATOM     26  C   UNL A   1      37.737  21.911  25.388  1.00  0.00     0.003 A 
ATOM     27  C   UNL A   1      35.456  21.106  25.258  1.00  0.00     0.030 A 
ATOM     28  C   UNL A   1      37.273  23.188  25.697  1.00  0.00     0.002 A 
ATOM     29  C   UNL A   1      35.903  23.430  25.781  1.00  0.00     0.026 A 
ENDBRANCH  17  23
ENDBRANCH  15  16
ENDBRANCH   9  14
BRANCH  13  30
ATOM     30  O   UNL A   1      31.005  30.210  24.979  1.00  0.00    -0.507 OA
ATOM     31  H   UNL A   1      30.351  30.494  24.370  1.00  0.00     0.293 HD
ENDBRANCH  13  30
ENDBRANCH   5   8
ENDBRANCH   3   4
ENDBRANCH   2   3
ENDBRANCH   1   2
BRANCH   1  32
ATOM     32  C   UNL A   1      34.134  26.591  25.221  1.00  0.00     0.002 C 
BRANCH  32  33
ATOM     33  C   UNL A   1      34.470  28.058  25.506  1.00  0.00     0.021 C 
BRANCH  33  34
ATOM     34  C   UNL A   1      35.062  28.335  26.877  1.00  0.00     0.116 C 
BRANCH  34  35
ATOM     35  N   UNL A   1      34.735  29.627  27.436  1.00  0.00    -0.352 N 
ATOM     36  C   UNL A   1      35.459  30.443  28.285  1.00  0.00     0.251 C 
ATOM     37  H   UNL A   1      33.857  29.984  27.170  1.00  0.00     0.163 HD
ATOM     38  O   UNL A   1      34.840  31.369  28.814  1.00  0.00    -0.269 OA
BRANCH  36  39
ATOM     39  C   UNL A   1      36.935  30.308  28.494  1.00  0.00     0.039 A 
ATOM     40  C   UNL A   1      37.732  29.962  27.384  1.00  0.00     0.014 A 
ATOM     41  C   UNL A   1      37.542  30.371  29.745  1.00  0.00     0.014 A 
ATOM     42  C   UNL A   1      39.031  29.469  27.557  1.00  0.00     0.010 A 
ATOM     43  C   UNL A   1      38.797  29.833  29.931  1.00  0.00     0.010 A 
ATOM     44  C   UNL A   1      39.507  29.307  28.849  1.00  0.00    -0.014 A 
BRANCH  44  45
ATOM     45  C   UNL A   1      40.632  28.473  29.246  1.00  0.00     0.031 A 
ATOM     46  C   UNL A   1      40.690  27.034  28.951  1.00  0.00     0.074 A 
ATOM     47  C   UNL A   1      41.767  29.163  29.505  1.00  0.00     0.049 A 
ATOM     48  N   UNL A   1      41.662  26.273  29.327  1.00  0.00    -0.248 NA
ATOM     49  C   UNL A   1      39.652  26.323  28.210  1.00  0.00     0.031 C 
ATOM     50  C   UNL A   1      43.146  28.734  29.319  1.00  0.00     0.029 A 
ATOM     51  N   UNL A   1      41.881  30.402  30.144  1.00  0.00    -0.354 N 
ATOM     52  C   UNL A   1      41.579  25.135  28.564  1.00  0.00     0.074 A 
ATOM     53  C   UNL A   1      40.235  25.129  28.042  1.00  0.00     0.031 C 
ATOM     54  C   UNL A   1      43.944  29.533  30.047  1.00  0.00     0.029 A 
ATOM     55  C   UNL A   1      43.073  30.343  30.881  1.00  0.00     0.049 A 
ATOM     56  H   UNL A   1      41.253  31.159  30.088  1.00  0.00     0.167 HD
ATOM     57  C   UNL A   1      42.716  24.435  28.300  1.00  0.00     0.034 A 
ATOM     58  C   UNL A   1      43.100  30.385  32.247  1.00  0.00     0.034 A 
ATOM     59  C   UNL A   1      43.838  24.885  29.137  1.00  0.00     0.049 A 
ATOM     60  C   UNL A   1      43.728  29.147  32.866  1.00  0.00     0.074 A 
ATOM     61  C   UNL A   1      45.018  25.559  28.880  1.00  0.00     0.029 A 
ATOM     62  N   UNL A   1      43.709  24.845  30.524  1.00  0.00    -0.354 N 
ATOM     63  N   UNL A   1      44.125  28.105  32.185  1.00  0.00    -0.248 NA
ATOM     64  C   UNL A   1      43.936  28.967  34.300  1.00  0.00     0.031 C 
ATOM     65  C   UNL A   1      45.515  26.054  30.123  1.00  0.00     0.029 A 
ATOM     66  C   UNL A   1      44.675  25.626  31.138  1.00  0.00     0.049 A 
ATOM     67  H   UNL A   1      43.021  24.329  31.005  1.00  0.00     0.167 HD
ATOM     68  C   UNL A   1      44.459  27.086  33.035  1.00  0.00     0.074 A 
ATOM     69  C   UNL A   1      44.424  27.714  34.347  1.00  0.00     0.031 C 
ATOM     70  C   UNL A   1      44.652  25.804  32.590  1.00  0.00     0.034 A 
BRANCH  57  71
ATOM     71  C   UNL A   1      42.885  23.446  27.160  1.00  0.00     0.023 A 
ATOM     72  C   UNL A   1      43.526  23.904  25.988  1.00  0.00     0.012 A 
ATOM     73  C   UNL A   1      42.376  22.123  27.114  1.00  0.00     0.148 A 
ATOM     74  C   UNL A   1      43.672  23.097  24.850  1.00  0.00     0.002 A 
ATOM     75  C   UNL A   1      42.603  21.289  26.014  1.00  0.00     0.091 A 
ATOM     76  F   UNL A   1      41.563  21.681  28.079  1.00  0.00    -0.205 F 
ATOM     77  C   UNL A   1      43.238  21.779  24.873  1.00  0.00     0.022 A 
BRANCH  75  78
ATOM     78  S   UNL A   1      42.146  19.545  26.036  1.00  0.00     0.127 S 
ATOM     79  O   UNL A   1      40.711  19.594  25.765  1.00  0.00    -0.237 OA
ATOM     80  O   UNL A   1      42.951  18.990  24.945  1.00  0.00    -0.237 OA
ATOM     81  O   UNL A   1      42.521  19.055  27.358  1.00  0.00    -0.744 OA
ENDBRANCH  75  78
ENDBRANCH  57  71
BRANCH  58  82
ATOM     82  C   UNL A   1      41.984  31.193  32.829  1.00  0.00     0.023 A 
ATOM     83  C   UNL A   1      41.886  32.536  32.387  1.00  0.00     0.012 A 
ATOM     84  C   UNL A   1      40.846  30.581  33.387  1.00  0.00     0.148 A 
ATOM     85  C   UNL A   1      40.656  33.197  32.361  1.00  0.00     0.002 A 
ATOM     86  C   UNL A   1      39.620  31.250  33.360  1.00  0.00     0.091 A 
ATOM     87  F   UNL A   1      40.953  29.327  33.843  1.00  0.00    -0.205 F 
ATOM     88  C   UNL A   1      39.517  32.539  32.811  1.00  0.00     0.022 A 
BRANCH  86  89
ATOM     89  S   UNL A   1      38.097  30.447  33.885  1.00  0.00     0.127 S 
ATOM     90  O   UNL A   1      38.236  30.478  35.338  1.00  0.00    -0.237 OA
ATOM     91  O   UNL A   1      37.065  31.331  33.347  1.00  0.00    -0.237 OA
ATOM     92  O   UNL A   1      38.136  29.133  33.260  1.00  0.00    -0.744 OA
ENDBRANCH  86  89
ENDBRANCH  58  82
BRANCH  70  93
ATOM     93  C   UNL A   1      44.788  24.582  33.484  1.00  0.00     0.023 A 
ATOM     94  C   UNL A   1      43.778  23.604  33.586  1.00  0.00     0.012 A 
ATOM     95  C   UNL A   1      46.011  24.298  34.146  1.00  0.00     0.148 A 
ATOM     96  C   UNL A   1      43.939  22.445  34.354  1.00  0.00     0.002 A 
ATOM     97  C   UNL A   1      46.207  23.091  34.817  1.00  0.00     0.091 A 
ATOM     98  F   UNL A   1      46.998  25.207  34.146  1.00  0.00    -0.205 F 
ATOM     99  C   UNL A   1      45.162  22.176  34.952  1.00  0.00     0.022 A 
BRANCH  97 100
ATOM    100  S   UNL A   1      47.844  22.609  35.384  1.00  0.00     0.127 S 
ATOM    101  O   UNL A   1      47.671  21.183  35.646  1.00  0.00    -0.237 OA
ATOM    102  O   UNL A   1      48.688  22.915  34.226  1.00  0.00    -0.237 OA
ATOM    103  O   UNL A   1      48.101  23.454  36.543  1.00  0.00    -0.744 OA
ENDBRANCH  97 100
ENDBRANCH  70  93
ENDBRANCH  44  45
ENDBRANCH  36  39
ENDBRANCH  34  35
ENDBRANCH  33  34
ENDBRANCH  32  33
ENDBRANCH   1  32
TORSDOF 20
ENDMDL
MODEL 2
REMARK VINA RESULT:     -12.1      2.826      3.870
REMARK SMILES Cc1cccc(-n2c(C)cc(/C=N\c3ccc(O)c(C(=O)NCCCCCCNC(=O)c4ccc(-c5c6nc(c(-c7cccc(S(=O)(=O)[O-])c7F)c7ccc([nH]7)c(-c7cccc(S(=O)(=O)[O-])c7F)c7nc(c(-c8cccc(S(=O)(=O)[O-])c8F)c8ccc5[nH]8)C=C7)C=C6)cc4)c3)c2C)c1
REMARK SMILES IDX 25 1 24 2 23 3 22 4 20 5 21 6 19 8 14 9 15 10 95 11 16 12
REMARK SMILES IDX 17 13 13 14 12 15 11 16 7 17 8 18 96 19 9 20 10 21 97 22
REMARK SMILES IDX 6 23 1 24 2 25 3 26 98 27 4 28 5 29 18 30 26 32 27 33 28 34
REMARK SMILES IDX 29 35 30 36 31 38 32 39 33 40 94 41 34 42 93 43 35 44 36 45
REMARK SMILES IDX 37 46 87 47 38 48 92 49 86 50 88 51 39 52 91 53 85 54 84 55
REMARK SMILES IDX 40 57 72 58 52 59 71 60 53 61 56 62 70 63 89 64 54 65 55 66
REMARK SMILES IDX 69 68 90 69 57 70 41 71 42 72 50 73 43 74 45 75 51 76 44 77
REMARK SMILES IDX 46 78 47 79 48 80 49 81 73 82 74 83 82 84 75 85 77 86 83 87
REMARK SMILES IDX 76 88 78 89 79 90 80 91 81 92 58 93 59 94 67 95 60 96 62 97
REMARK SMILES IDX 68 98 61 99 63 100 64 101 65 102 66 103
REMARK H PARENT 22 7 18 31 29 37 88 56 56 67
REMARK Flexibility Score: inf
ROOT
ATOM      1  C   UNL A   1      33.605  29.103  27.025  1.00  0.00     0.002 C 
ENDROOT
BRANCH   1   2
ATOM      2  C   UNL A   1      33.378  27.617  26.733  1.00  0.00     0.021 C 
BRANCH   2   3
ATOM      3  C   UNL A   1      34.190  26.940  25.642  1.00  0.00     0.116 C 
BRANCH   3   4
ATOM      4  N   UNL A   1      34.252  27.608  24.361  1.00  0.00    -0.352 N 
ATOM      5  C   UNL A   1      33.258  27.905  23.451  1.00  0.00     0.255 C 
ATOM      6  O   UNL A   1      33.586  28.578  22.471  1.00  0.00    -0.269 OA
ATOM      7  H   UNL A   1      35.153  27.900  24.094  1.00  0.00     0.163 HD
BRANCH   5   8
ATOM      8  C   UNL A   1      31.829  27.454  23.567  1.00  0.00     0.083 A 
ATOM      9  C   UNL A   1      30.293  25.548  23.433  1.00  0.00     0.064 A 
ATOM     10  C   UNL A   1      29.219  26.371  23.759  1.00  0.00     0.032 A 
ATOM     11  C   UNL A   1      31.598  26.066  23.488  1.00  0.00     0.046 A 
ATOM     12  C   UNL A   1      29.418  27.743  23.841  1.00  0.00     0.049 A 
ATOM     13  C   UNL A   1      30.691  28.266  23.601  1.00  0.00     0.128 A 
BRANCH   9  14
ATOM     14  N   UNL A   1      30.095  24.230  23.019  1.00  0.00    -0.256 NA
ATOM     15  C   UNL A   1      30.870  23.242  23.371  1.00  0.00     0.121 C 
BRANCH  15  16
ATOM     16  C   UNL A   1      32.060  23.158  24.232  1.00  0.00     0.014 A 
ATOM     17  N   UNL A   1      34.136  23.032  25.146  1.00  0.00    -0.318 N 
ATOM     18  C   UNL A   1      33.232  22.925  26.189  1.00  0.00     0.021 A 
ATOM     19  C   UNL A   1      33.423  23.329  23.979  1.00  0.00     0.029 A 
ATOM     20  C   UNL A   1      33.634  22.856  27.622  1.00  0.00     0.065 C 
ATOM     21  C   UNL A   1      31.965  22.974  25.647  1.00  0.00     0.033 A 
ATOM     22  C   UNL A   1      34.130  23.668  22.718  1.00  0.00     0.065 C 
BRANCH  17  23
ATOM     23  C   UNL A   1      35.542  22.795  25.230  1.00  0.00     0.046 A 
ATOM     24  C   UNL A   1      38.618  24.532  26.668  1.00  0.00     0.044 C 
ATOM     25  C   UNL A   1      37.717  23.506  26.042  1.00  0.00    -0.049 A 
ATOM     26  C   UNL A   1      38.217  22.221  25.787  1.00  0.00     0.003 A 
ATOM     27  C   UNL A   1      36.373  23.793  25.758  1.00  0.00     0.030 A 
ATOM     28  C   UNL A   1      37.403  21.249  25.209  1.00  0.00     0.002 A 
ATOM     29  C   UNL A   1      36.074  21.541  24.912  1.00  0.00     0.026 A 
ENDBRANCH  17  23
ENDBRANCH  15  16
ENDBRANCH   9  14
BRANCH  13  30
ATOM     30  O   UNL A   1      30.665  29.558  23.153  1.00  0.00    -0.507 OA
ATOM     31  H   UNL A   1      30.928  30.256  23.720  1.00  0.00     0.293 HD
ENDBRANCH  13  30
ENDBRANCH   5   8
ENDBRANCH   3   4
ENDBRANCH   2   3
ENDBRANCH   1   2
BRANCH   1  32
ATOM     32  C   UNL A   1      35.017  29.665  27.253  1.00  0.00     0.002 C 
BRANCH  32  33
ATOM     33  C   UNL A   1      35.197  31.127  27.676  1.00  0.00     0.021 C 
BRANCH  33  34
ATOM     34  C   UNL A   1      34.010  31.747  28.394  1.00  0.00     0.116 C 
BRANCH  34  35
ATOM     35  N   UNL A   1      33.968  33.191  28.374  1.00  0.00    -0.352 N 
ATOM     36  C   UNL A   1      34.695  34.117  29.097  1.00  0.00     0.251 C 
ATOM     37  H   UNL A   1      33.317  33.577  27.745  1.00  0.00     0.163 HD
ATOM     38  O   UNL A   1      34.278  35.278  29.075  1.00  0.00    -0.269 OA
BRANCH  36  39
ATOM     39  C   UNL A   1      35.980  33.792  29.791  1.00  0.00     0.039 A 
ATOM     40  C   UNL A   1      37.186  34.069  29.116  1.00  0.00     0.014 A 
ATOM     41  C   UNL A   1      36.046  33.109  31.002  1.00  0.00     0.014 A 
ATOM     42  C   UNL A   1      38.389  33.479  29.522  1.00  0.00     0.010 A 
ATOM     43  C   UNL A   1      37.213  32.476  31.375  1.00  0.00     0.010 A 
ATOM     44  C   UNL A   1      38.361  32.595  30.589  1.00  0.00    -0.014 A 
BRANCH  44  45
ATOM     45  C   UNL A   1      39.384  31.609  30.908  1.00  0.00     0.031 A 
ATOM     46  C   UNL A   1      39.420  30.279  30.281  1.00  0.00     0.074 A 
ATOM     47  C   UNL A   1      40.501  32.131  31.465  1.00  0.00     0.049 A 
ATOM     48  N   UNL A   1      40.297  29.380  30.579  1.00  0.00    -0.248 NA
ATOM     49  C   UNL A   1      38.464  29.842  29.267  1.00  0.00     0.031 C 
ATOM     50  C   UNL A   1      41.872  31.656  31.352  1.00  0.00     0.029 A 
ATOM     51  N   UNL A   1      40.579  33.173  32.395  1.00  0.00    -0.354 N 
ATOM     52  C   UNL A   1      40.271  28.463  29.557  1.00  0.00     0.074 A 
ATOM     53  C   UNL A   1      39.013  28.681  28.887  1.00  0.00     0.031 C 
ATOM     54  C   UNL A   1      42.596  32.199  32.345  1.00  0.00     0.029 A 
ATOM     55  C   UNL A   1      41.655  32.853  33.237  1.00  0.00     0.049 A 
ATOM     56  H   UNL A   1      39.999  33.967  32.447  1.00  0.00     0.167 HD
ATOM     57  C   UNL A   1      41.402  27.762  29.274  1.00  0.00     0.034 A 
ATOM     58  C   UNL A   1      41.495  32.571  34.565  1.00  0.00     0.034 A 
ATOM     59  C   UNL A   1      42.416  27.916  30.328  1.00  0.00     0.049 A 
ATOM     60  C   UNL A   1      41.977  31.178  34.937  1.00  0.00     0.074 A 
ATOM     61  C   UNL A   1      43.648  28.542  30.390  1.00  0.00     0.029 A 
ATOM     62  N   UNL A   1      42.095  27.561  31.636  1.00  0.00    -0.354 N 
ATOM     63  N   UNL A   1      42.419  30.299  34.078  1.00  0.00    -0.248 NA
ATOM     64  C   UNL A   1      41.976  30.651  36.299  1.00  0.00     0.031 C 
ATOM     65  C   UNL A   1      43.990  28.691  31.767  1.00  0.00     0.029 A 
ATOM     66  C   UNL A   1      42.999  28.101  32.536  1.00  0.00     0.049 A 
ATOM     67  H   UNL A   1      41.325  27.000  31.888  1.00  0.00     0.167 HD
ATOM     68  C   UNL A   1      42.587  29.086  34.689  1.00  0.00     0.074 A 
ATOM     69  C   UNL A   1      42.399  29.389  36.100  1.00  0.00     0.031 C 
ATOM     70  C   UNL A   1      42.785  27.934  33.974  1.00  0.00     0.034 A 
BRANCH  57  71
ATOM     71  C   UNL A   1      41.684  27.058  27.958  1.00  0.00     0.023 A 
ATOM     72  C   UNL A   1      41.569  27.819  26.774  1.00  0.00     0.012 A 
ATOM     73  C   UNL A   1      41.961  25.678  27.786  1.00  0.00     0.148 A 
ATOM     74  C   UNL A   1      41.738  27.254  25.501  1.00  0.00     0.002 A 
ATOM     75  C   UNL A   1      42.220  25.135  26.523  1.00  0.00     0.091 A 
ATOM     76  F   UNL A   1      41.865  24.838  28.822  1.00  0.00    -0.205 F 
ATOM     77  C   UNL A   1      42.094  25.918  25.375  1.00  0.00     0.022 A 
BRANCH  75  78
ATOM     78  S   UNL A   1      42.780  23.434  26.319  1.00  0.00     0.127 S 
ATOM     79  O   UNL A   1      43.907  23.362  27.246  1.00  0.00    -0.237 OA
ATOM     80  O   UNL A   1      41.607  22.659  26.727  1.00  0.00    -0.237 OA
ATOM     81  O   UNL A   1      43.118  23.296  24.906  1.00  0.00    -0.744 OA
ENDBRANCH  75  78
ENDBRANCH  57  71
BRANCH  58  82
ATOM     82  C   UNL A   1      40.344  33.301  35.183  1.00  0.00     0.023 A 
ATOM     83  C   UNL A   1      39.089  32.645  35.137  1.00  0.00     0.012 A 
ATOM     84  C   UNL A   1      40.543  34.311  36.142  1.00  0.00     0.148 A 
ATOM     85  C   UNL A   1      38.118  32.881  36.112  1.00  0.00     0.002 A 
ATOM     86  C   UNL A   1      39.566  34.543  37.112  1.00  0.00     0.091 A 
ATOM     87  F   UNL A   1      41.715  34.959  36.155  1.00  0.00    -0.205 F 
ATOM     88  C   UNL A   1      38.373  33.802  37.122  1.00  0.00     0.022 A 
BRANCH  86  89
ATOM     89  S   UNL A   1      39.844  35.687  38.474  1.00  0.00     0.127 S 
ATOM     90  O   UNL A   1      41.092  35.178  39.034  1.00  0.00    -0.237 OA
ATOM     91  O   UNL A   1      39.957  36.976  37.793  1.00  0.00    -0.237 OA
ATOM     92  O   UNL A   1      38.661  35.562  39.312  1.00  0.00    -0.744 OA
ENDBRANCH  86  89
ENDBRANCH  58  82
BRANCH  70  93
ATOM     93  C   UNL A   1      42.742  26.529  34.553  1.00  0.00     0.023 A 
ATOM     94  C   UNL A   1      41.607  26.017  35.212  1.00  0.00     0.012 A 
ATOM     95  C   UNL A   1      43.804  25.615  34.322  1.00  0.00     0.148 A 
ATOM     96  C   UNL A   1      41.549  24.698  35.679  1.00  0.00     0.002 A 
ATOM     97  C   UNL A   1      43.696  24.274  34.688  1.00  0.00     0.091 A 
ATOM     98  F   UNL A   1      44.942  26.043  33.755  1.00  0.00    -0.205 F 
ATOM     99  C   UNL A   1      42.584  23.819  35.397  1.00  0.00     0.022 A 
BRANCH  97 100
ATOM    100  S   UNL A   1      44.903  23.066  34.122  1.00  0.00     0.127 S 
ATOM    101  O   UNL A   1      44.386  21.825  34.691  1.00  0.00    -0.237 OA
ATOM    102  O   UNL A   1      44.789  23.159  32.664  1.00  0.00    -0.237 OA
ATOM    103  O   UNL A   1      46.177  23.538  34.646  1.00  0.00    -0.744 OA
ENDBRANCH  97 100
ENDBRANCH  70  93
ENDBRANCH  44  45
ENDBRANCH  36  39
ENDBRANCH  34  35
ENDBRANCH  33  34
ENDBRANCH  32  33
ENDBRANCH   1  32
TORSDOF 20
ENDMDL
MODEL 3
REMARK VINA RESULT:     -11.7      2.794      4.008
REMARK SMILES Cc1cccc(-n2c(C)cc(/C=N\c3ccc(O)c(C(=O)NCCCCCCNC(=O)c4ccc(-c5c6nc(c(-c7cccc(S(=O)(=O)[O-])c7F)c7ccc([nH]7)c(-c7cccc(S(=O)(=O)[O-])c7F)c7nc(c(-c8cccc(S(=O)(=O)[O-])c8F)c8ccc5[nH]8)C=C7)C=C6)cc4)c3)c2C)c1
REMARK SMILES IDX 25 1 24 2 23 3 22 4 20 5 21 6 19 8 14 9 15 10 95 11 16 12
REMARK SMILES IDX 17 13 13 14 12 15 11 16 7 17 8 18 96 19 9 20 10 21 97 22
REMARK SMILES IDX 6 23 1 24 2 25 3 26 98 27 4 28 5 29 18 30 26 32 27 33 28 34
REMARK SMILES IDX 29 35 30 36 31 38 32 39 33 40 94 41 34 42 93 43 35 44 36 45
REMARK SMILES IDX 37 46 87 47 38 48 92 49 86 50 88 51 39 52 91 53 85 54 84 55
REMARK SMILES IDX 40 57 72 58 52 59 71 60 53 61 56 62 70 63 89 64 54 65 55 66
REMARK SMILES IDX 69 68 90 69 57 70 41 71 42 72 50 73 43 74 45 75 51 76 44 77
REMARK SMILES IDX 46 78 47 79 48 80 49 81 73 82 74 83 82 84 75 85 77 86 83 87
REMARK SMILES IDX 76 88 78 89 79 90 80 91 81 92 58 93 59 94 67 95 60 96 62 97
REMARK SMILES IDX 68 98 61 99 63 100 64 101 65 102 66 103
REMARK H PARENT 22 7 18 31 29 37 88 56 56 67
REMARK Flexibility Score: inf
ROOT
ATOM      1  C   UNL A   1      33.658  32.101  27.955  1.00  0.00     0.002 C 
ENDROOT
BRANCH   1   2
ATOM      2  C   UNL A   1      33.372  31.147  26.792  1.00  0.00     0.021 C 
BRANCH   2   3
ATOM      3  C   UNL A   1      31.984  30.550  26.642  1.00  0.00     0.116 C 
BRANCH   3   4
ATOM      4  N   UNL A   1      31.743  29.279  27.290  1.00  0.00    -0.352 N 
ATOM      5  C   UNL A   1      31.658  28.006  26.769  1.00  0.00     0.255 C 
ATOM      6  O   UNL A   1      31.540  27.082  27.578  1.00  0.00    -0.269 OA
ATOM      7  H   UNL A   1      31.620  29.334  28.265  1.00  0.00     0.163 HD
BRANCH   5   8
ATOM      8  C   UNL A   1      31.683  27.677  25.302  1.00  0.00     0.083 A 
ATOM      9  C   UNL A   1      30.899  26.140  23.561  1.00  0.00     0.064 A 
ATOM     10  C   UNL A   1      31.563  26.881  22.587  1.00  0.00     0.032 A 
ATOM     11  C   UNL A   1      30.843  26.629  24.877  1.00  0.00     0.046 A 
ATOM     12  C   UNL A   1      32.399  27.918  22.978  1.00  0.00     0.049 A 
ATOM     13  C   UNL A   1      32.551  28.199  24.338  1.00  0.00     0.128 A 
BRANCH   9  14
ATOM     14  N   UNL A   1      30.319  24.907  23.262  1.00  0.00    -0.256 NA
ATOM     15  C   UNL A   1      30.827  23.764  23.633  1.00  0.00     0.121 C 
BRANCH  15  16
ATOM     16  C   UNL A   1      32.019  23.404  24.415  1.00  0.00     0.014 A 
ATOM     17  N   UNL A   1      34.097  22.959  25.220  1.00  0.00    -0.318 N 
ATOM     18  C   UNL A   1      33.198  22.594  26.207  1.00  0.00     0.021 A 
ATOM     19  C   UNL A   1      33.385  23.595  24.196  1.00  0.00     0.029 A 
ATOM     20  C   UNL A   1      33.608  22.112  27.556  1.00  0.00     0.065 C 
ATOM     21  C   UNL A   1      31.929  22.833  25.723  1.00  0.00     0.033 A 
ATOM     22  C   UNL A   1      34.094  24.251  23.068  1.00  0.00     0.065 C 
BRANCH  17  23
ATOM     23  C   UNL A   1      35.494  22.663  25.209  1.00  0.00     0.046 A 
ATOM     24  C   UNL A   1      38.715  24.188  26.569  1.00  0.00     0.044 C 
ATOM     25  C   UNL A   1      37.739  23.238  25.936  1.00  0.00    -0.049 A 
ATOM     26  C   UNL A   1      38.169  21.953  25.576  1.00  0.00     0.003 A 
ATOM     27  C   UNL A   1      36.394  23.594  25.746  1.00  0.00     0.030 A 
ATOM     28  C   UNL A   1      37.284  21.051  24.990  1.00  0.00     0.002 A 
ATOM     29  C   UNL A   1      35.954  21.412  24.787  1.00  0.00     0.026 A 
ENDBRANCH  17  23
ENDBRANCH  15  16
ENDBRANCH   9  14
BRANCH  13  30
ATOM     30  O   UNL A   1      33.749  28.790  24.634  1.00  0.00    -0.507 OA
ATOM     31  H   UNL A   1      34.096  29.454  24.070  1.00  0.00     0.293 HD
ENDBRANCH  13  30
ENDBRANCH   5   8
ENDBRANCH   3   4
ENDBRANCH   2   3
ENDBRANCH   1   2
BRANCH   1  32
ATOM     32  C   UNL A   1      33.140  33.548  27.948  1.00  0.00     0.002 C 
BRANCH  32  33
ATOM     33  C   UNL A   1      34.132  34.713  27.875  1.00  0.00     0.021 C 
BRANCH  33  34
ATOM     34  C   UNL A   1      35.186  34.739  28.968  1.00  0.00     0.116 C 
BRANCH  34  35
ATOM     35  N   UNL A   1      34.677  34.618  30.315  1.00  0.00    -0.352 N 
ATOM     36  C   UNL A   1      34.708  33.549  31.190  1.00  0.00     0.251 C 
ATOM     37  H   UNL A   1      34.237  35.426  30.665  1.00  0.00     0.163 HD
ATOM     38  O   UNL A   1      33.972  33.628  32.176  1.00  0.00    -0.269 OA
BRANCH  36  39
ATOM     39  C   UNL A   1      35.645  32.392  31.041  1.00  0.00     0.039 A 
ATOM     40  C   UNL A   1      35.893  31.591  32.173  1.00  0.00     0.014 A 
ATOM     41  C   UNL A   1      36.386  32.148  29.888  1.00  0.00     0.014 A 
ATOM     42  C   UNL A   1      37.001  30.737  32.222  1.00  0.00     0.010 A 
ATOM     43  C   UNL A   1      37.513  31.357  29.947  1.00  0.00     0.010 A 
ATOM     44  C   UNL A   1      37.865  30.717  31.137  1.00  0.00    -0.014 A 
BRANCH  44  45
ATOM     45  C   UNL A   1      39.233  30.221  31.145  1.00  0.00     0.031 A 
ATOM     46  C   UNL A   1      39.603  28.919  30.570  1.00  0.00     0.074 A 
ATOM     47  C   UNL A   1      40.170  31.183  31.313  1.00  0.00     0.049 A 
ATOM     48  N   UNL A   1      40.804  28.448  30.600  1.00  0.00    -0.248 NA
ATOM     49  C   UNL A   1      38.649  28.029  29.915  1.00  0.00     0.031 C 
ATOM     50  C   UNL A   1      41.527  31.223  30.790  1.00  0.00     0.029 A 
ATOM     51  N   UNL A   1      40.095  32.304  32.147  1.00  0.00    -0.354 N 
ATOM     52  C   UNL A   1      40.851  27.448  29.660  1.00  0.00     0.074 A 
ATOM     53  C   UNL A   1      39.473  27.102  29.411  1.00  0.00     0.031 C 
ATOM     54  C   UNL A   1      42.231  32.124  31.494  1.00  0.00     0.029 A 
ATOM     55  C   UNL A   1      41.400  32.515  32.619  1.00  0.00     0.049 A 
ATOM     56  H   UNL A   1      39.293  32.834  32.359  1.00  0.00     0.167 HD
ATOM     57  C   UNL A   1      42.037  27.168  29.055  1.00  0.00     0.034 A 
ATOM     58  C   UNL A   1      41.738  32.384  33.937  1.00  0.00     0.034 A 
ATOM     59  C   UNL A   1      43.163  27.824  29.736  1.00  0.00     0.049 A 
ATOM     60  C   UNL A   1      42.804  31.326  34.173  1.00  0.00     0.074 A 
ATOM     61  C   UNL A   1      44.022  28.853  29.396  1.00  0.00     0.029 A 
ATOM     62  N   UNL A   1      43.382  27.566  31.087  1.00  0.00    -0.354 N 
ATOM     63  N   UNL A   1      43.292  30.553  33.241  1.00  0.00    -0.248 NA
ATOM     64  C   UNL A   1      43.386  31.032  35.480  1.00  0.00     0.031 C 
ATOM     65  C   UNL A   1      44.649  29.309  30.594  1.00  0.00     0.029 A 
ATOM     66  C   UNL A   1      44.220  28.517  31.647  1.00  0.00     0.049 A 
ATOM     67  H   UNL A   1      42.992  26.808  31.580  1.00  0.00     0.167 HD
ATOM     68  C   UNL A   1      44.078  29.581  33.798  1.00  0.00     0.074 A 
ATOM     69  C   UNL A   1      44.190  29.993  35.189  1.00  0.00     0.031 C 
ATOM     70  C   UNL A   1      44.497  28.489  33.084  1.00  0.00     0.034 A 
BRANCH  57  71
ATOM     71  C   UNL A   1      42.189  26.435  27.734  1.00  0.00     0.023 A 
ATOM     72  C   UNL A   1      42.158  27.207  26.552  1.00  0.00     0.012 A 
ATOM     73  C   UNL A   1      42.265  25.029  27.557  1.00  0.00     0.148 A 
ATOM     74  C   UNL A   1      42.218  26.626  25.277  1.00  0.00     0.002 A 
ATOM     75  C   UNL A   1      42.418  24.458  26.290  1.00  0.00     0.091 A 
ATOM     76  F   UNL A   1      42.073  24.209  28.596  1.00  0.00    -0.205 F 
ATOM     77  C   UNL A   1      42.379  25.254  25.144  1.00  0.00     0.022 A 
BRANCH  75  78
ATOM     78  S   UNL A   1      42.728  22.696  26.075  1.00  0.00     0.127 S 
ATOM     79  O   UNL A   1      43.069  22.608  24.657  1.00  0.00    -0.237 OA
ATOM     80  O   UNL A   1      43.850  22.455  26.985  1.00  0.00    -0.237 OA
ATOM     81  O   UNL A   1      41.493  22.026  26.468  1.00  0.00    -0.744 OA
ENDBRANCH  75  78
ENDBRANCH  57  71
BRANCH  58  82
ATOM     82  C   UNL A   1      40.617  32.731  34.865  1.00  0.00     0.023 A 
ATOM     83  C   UNL A   1      39.814  31.651  35.307  1.00  0.00     0.012 A 
ATOM     84  C   UNL A   1      40.628  33.918  35.620  1.00  0.00     0.148 A 
ATOM     85  C   UNL A   1      39.162  31.697  36.541  1.00  0.00     0.002 A 
ATOM     86  C   UNL A   1      39.971  33.957  36.852  1.00  0.00     0.091 A 
ATOM     87  F   UNL A   1      41.354  34.952  35.178  1.00  0.00    -0.205 F 
ATOM     88  C   UNL A   1      39.273  32.836  37.331  1.00  0.00     0.022 A 
BRANCH  86  89
ATOM     89  S   UNL A   1      40.106  35.380  37.947  1.00  0.00     0.127 S 
ATOM     90  O   UNL A   1      39.698  36.469  37.064  1.00  0.00    -0.237 OA
ATOM     91  O   UNL A   1      39.154  35.060  39.009  1.00  0.00    -0.237 OA
ATOM     92  O   UNL A   1      41.496  35.385  38.379  1.00  0.00    -0.744 OA
ENDBRANCH  86  89
ENDBRANCH  58  82
BRANCH  70  93
ATOM     93  C   UNL A   1      45.163  27.260  33.681  1.00  0.00     0.023 A 
ATOM     94  C   UNL A   1      46.557  27.172  33.870  1.00  0.00     0.012 A 
ATOM     95  C   UNL A   1      44.385  26.198  34.215  1.00  0.00     0.148 A 
ATOM     96  C   UNL A   1      47.156  26.067  34.487  1.00  0.00     0.002 A 
ATOM     97  C   UNL A   1      44.977  25.156  34.927  1.00  0.00     0.091 A 
ATOM     98  F   UNL A   1      43.058  26.180  34.022  1.00  0.00    -0.205 F 
ATOM     99  C   UNL A   1      46.365  25.068  35.036  1.00  0.00     0.022 A 
BRANCH  97 100
ATOM    100  S   UNL A   1      43.970  23.989  35.856  1.00  0.00     0.127 S 
ATOM    101  O   UNL A   1      43.181  24.874  36.707  1.00  0.00    -0.237 OA
ATOM    102  O   UNL A   1      43.205  23.317  34.803  1.00  0.00    -0.237 OA
ATOM    103  O   UNL A   1      44.930  23.126  36.532  1.00  0.00    -0.744 OA
ENDBRANCH  97 100
ENDBRANCH  70  93
ENDBRANCH  44  45
ENDBRANCH  36  39
ENDBRANCH  34  35
ENDBRANCH  33  34
ENDBRANCH  32  33
ENDBRANCH   1  32
TORSDOF 20
ENDMDL
